data_PCOD8061326
_publ_section_title
;
Structure prediction by ZEFSAII (Michael W. Deem and Ramdas Pophale) SiO2 
 PCOD8061326
Probable space group: P 2/M
;
_chemical_formula_sum "Si O2"
_cell_formula_units_Z 30
_cell_length_a 14.359382
_cell_length_b 12.338156
_cell_length_c 10.280349
_cell_angle_alpha 90.000000
_cell_angle_beta 119.138823
_cell_angle_gamma 90.000000
_cell_volume 1590.846138
_symmetry_space_group_name_H-M "P 2/M"
_symmetry_group_IT_number 10
_symmetry_cell_setting 'monoclinic'
loop_
_space_group_symop_operation_xyz
x,y,z
-x,y,-z
-x,-y,-z
x,-y,z
loop_
_atom_site_type_symbol
_atom_site_label
_atom_site_fract_x
_atom_site_fract_y
_atom_site_fract_z
Si Si1 0.672464 0.121765 0.943311
Si Si2 0.500000 0.232335 0.000000
Si Si3 0.123763 0.118790 0.564978
Si Si4 0.330298 0.376345 0.751538
Si Si5 0.380805 0.877843 0.388945
Si Si6 0.977720 0.627502 0.837182
Si Si7 0.218831 0.269705 0.430252
Si Si8 0.824382 0.727045 0.170075
O O1 0.579907 0.154073 0.979500
O O2 0.627071 0.125530 0.769689
O O3 0.712873 0.000000 0.004262
O O4 0.767821 0.210114 0.013000
O O5 0.435535 0.305948 0.852749
O O6 0.145534 0.177863 0.444245
O O7 0.173781 0.183408 0.716786
O O8 0.000000 0.108310 0.500000
O O9 0.177032 0.000000 0.597037
O O10 0.366457 0.500000 0.762163
O O11 0.276467 0.341461 0.578970
O O12 0.247407 0.368662 0.816778
O O13 0.500000 0.842016 0.500000
O O14 0.304514 0.788921 0.399140
O O15 0.356231 0.000000 0.424511
O O16 0.994243 0.500000 0.836973
O O17 0.857994 0.656910 0.712182
O O18 0.061610 0.683147 0.796473
O O19 0.000000 0.666476 0.000000
#
# Coordination Sequence:
#
# PCOD8061326 Si02
#       8
#     4   2   4   4   4   4   4   4
#     4  10  20  35  57  84 113 145 183 225 272 333
#     4  10  20  36  58  84 114 144 180 228 286 330
#     4  10  19  33  54  81 113 143 175 219 270 327
#     4  10  21  35  57  82 109 143 185 234 279 325
#     4  10  21  37  57  82 113 147 183 224 274 332
#     4  11  23  38  56  77 107 146 189 232 275 322
#     4  11  21  37  58  82 110 148 188 227 275 329
#     4  10  20  36  54  81 110 144 180 224 277 327
#
# _framework density 18.857887999999999
#
# number of rings (size 3 to 8) (size 9 to 14) (size 15 to 20)
#    0.000    1.733    1.333    3.600    0.000    0.000 
#    0.000    6.000    0.000   12.800    0.000    0.000 
#    0.000    0.000    0.000    0.000    0.000    0.000 
#
# Total GULP energy -371982.552179 kJ/mol
# GULP energy per Si atom -12399.418406 kJ/mol
# Density = 1.881497 g / cm^3
# Si number density = 18.857888 Si / 1000 Ang^3
#
#
#
# Elastic Constant Matrix: (Units=GPa)
#
#
# Indices 1 2 3 4 5 6 
#
# 1 79.0750 30.1636 25.8216 0.0000 6.1039 0.0000
# 2 30.1636 94.7957 34.1413 0.0000 -3.1735 0.0000
# 3 25.8216 34.1413 101.5707 0.0000 12.1929 0.0000
# 4 0.0000 0.0000 0.0000 19.2396 0.0000 2.1983
# 5 6.1039 -3.1735 12.1929 0.0000 30.7627 0.0000
# 6 0.0000 0.0000 0.0000 2.1983 0.0000 25.8773
#
#
#
# Elastic Compliance Matrix: (Units=1/GPa)
#
#
# Indices 1 2 3 4 5 6 
#
# 1 0.015119 -0.004123 -0.002149 0.000000 -0.002574 0.000000
# 2 -0.004123 0.013392 -0.003903 0.000000 0.003747 0.000000
# 3 -0.002149 -0.003903 0.012285 0.000000 -0.004846 0.000000
# 4 0.000000 0.000000 0.000000 0.052486 0.000000 -0.004459
# 5 -0.002574 0.003747 -0.004846 0.000000 0.035325 0.000000
# 6 0.000000 0.000000 0.000000 -0.004459 0.000000 0.039023
#
#
# Mechanical properties :
#
#
# Convention : Reuss Voigt Hill
#
# Bulk Modulus (GPa) = 48.90784 50.63271 49.77027
# Shear Modulus (GPa) = 25.66795 27.53025 26.59910
#
# Velocity S-wave (km/s) = 3.69335 3.82498 3.75974
# Velocity P-wave (km/s) = 6.64673 6.81287 6.73031
#
# Compressibility (1/GPa) = 0.02044662
#
# Stress axis : x y z
#
# Youngs Moduli (GPa) = 66.14034 74.67076 81.39821
#
# Poissons Ratio (x) = 0.30788 0.17491
# Poissons Ratio (y) = 0.27271 0.31770
# Poissons Ratio (z) = 0.14212 0.29145
#
# Static dielectric constant tensor:
#      x y z
#    x 3.623200 0.000000 0.340570 
#    y 0.000000 3.642470 0.000000 
#    z 0.340570 0.000000 3.836060 
# 
# 
# High freq. dielectric constant tensor:
#      x y z
#    x 1.728220 0.000000 0.006970 
#    y 0.000000 1.738060 0.000000 
#    z 0.006970 0.000000 1.741170 
# 
# From -- ./inp_files/28637.got.cif
#   From: 2010.06.25/outbox.cif.g09.slc.cpg/sg10_15_cif.got.tgz:28637.got - 2010.06.27 22:07:45.
