data_PCOD8061845
_publ_section_title
;
Structure prediction by ZEFSAII (Michael W. Deem and Ramdas Pophale) SiO2 
 PCOD8061845
Probable space group: P 2/M
;
_chemical_formula_sum "Si O2"
_cell_formula_units_Z 32
_cell_length_a 33.880984
_cell_length_b 8.979337
_cell_length_c 13.711658
_cell_angle_alpha 90.000000
_cell_angle_beta 155.862358
_cell_angle_gamma 90.000000
_cell_volume 1705.844028
_symmetry_space_group_name_H-M "P 2/M"
_symmetry_group_IT_number 10
_symmetry_cell_setting 'monoclinic'
loop_
_space_group_symop_operation_xyz
x,y,z
-x,y,-z
-x,-y,-z
x,-y,z
loop_
_atom_site_type_symbol
_atom_site_label
_atom_site_fract_x
_atom_site_fract_y
_atom_site_fract_z
Si Si1 0.701700 0.829599 0.035793
Si Si2 0.645571 0.331145 0.716887
Si Si3 0.538889 0.175015 0.194656
Si Si4 0.727449 0.327187 0.692915
Si Si5 0.114361 0.333472 0.251951
Si Si6 0.552006 0.326016 0.830407
Si Si7 0.889832 0.169879 0.567413
Si Si8 0.891943 0.175383 0.957060
O O1 0.816592 0.811703 0.312147
O O2 0.668852 0.000000 0.974061
O O3 0.679799 0.779634 0.877316
O O4 0.648001 0.731493 0.995367
O O5 0.654307 0.500000 0.775287
O O6 0.712403 0.305195 0.773938
O O7 0.535546 0.294630 0.441305
O O8 0.643949 0.247504 0.442906
O O9 0.463894 0.241498 0.103701
O O10 0.548208 0.000000 0.233417
O O11 0.500000 0.212952 0.000000
O O12 0.726290 0.500000 0.661667
O O13 0.830739 0.255028 0.903017
O O14 0.156111 0.500000 0.333452
O O15 0.153449 0.264056 0.440331
O O16 0.147576 0.232878 0.236168
O O17 0.000000 0.334916 0.000000
O O18 0.560347 0.500000 0.873011
O O19 0.897031 0.000000 0.619971
O O20 0.996400 0.222844 0.774841
O O21 0.876467 0.000000 0.928543
#
# Coordination Sequence:
#
# PCOD8061845 Si02
#       8
#     4   4   4   4   4   4   4   4
#     4  11  22  35  55  81 107 137 176 222 269 317
#     4   9  20  38  56  76 104 136 172 217 269 321
#     4  10  21  37  57  83 114 144 176 216 260 310
#     4  10  21  37  57  80 107 140 179 221 263 314
#     4   9  17  30  50  75 101 132 172 215 258 307
#     4  10  21  37  57  80 108 142 178 216 261 317
#     4   9  20  36  51  75 110 142 176 220 267 313
#     4  10  19  34  56  77 104 144 182 218 262 313
#
# _framework density 18.759042999999998
#
# number of rings (size 3 to 8) (size 9 to 14) (size 15 to 20)
#    0.000    2.250    0.000    3.375    0.000    9.500 
#    0.000    1.875    0.000    3.750    0.000    0.000 
#    0.000    0.000    0.000    0.000    0.000    0.000 
#
# Total GULP energy -396878.341497 kJ/mol
# GULP energy per Si atom -12402.448172 kJ/mol
# Density = 1.871635 g / cm^3
# Si number density = 18.759043 Si / 1000 Ang^3
#
#
#
# Elastic Constant Matrix: (Units=GPa)
#
#
# Indices 1 2 3 4 5 6 
#
# 1 95.5082 52.0672 53.8842 0.0000 5.1299 0.0000
# 2 52.0672 108.3837 50.8325 0.0000 -4.5364 0.0000
# 3 53.8842 50.8325 86.1300 0.0000 -4.0746 0.0000
# 4 0.0000 0.0000 0.0000 22.7345 0.0000 0.2386
# 5 5.1299 -4.5364 -4.0746 0.0000 28.1350 0.0000
# 6 0.0000 0.0000 0.0000 0.2386 0.0000 38.7350
#
#
#
# Elastic Compliance Matrix: (Units=1/GPa)
#
#
# Indices 1 2 3 4 5 6 
#
# 1 0.018474 -0.004925 -0.008909 0.000000 -0.005453 0.000000
# 2 -0.004925 0.014097 -0.005124 0.000000 0.002429 0.000000
# 3 -0.008909 -0.005124 0.020386 0.000000 0.003751 0.000000
# 4 0.000000 0.000000 0.000000 0.043989 0.000000 -0.000271
# 5 -0.005453 0.002429 0.003751 0.000000 0.037472 0.000000
# 6 0.000000 0.000000 0.000000 -0.000271 0.000000 0.025818
#
#
# Mechanical properties :
#
#
# Convention : Reuss Voigt Hill
#
# Bulk Modulus (GPa) = 66.48446 67.06553 66.77499
# Shear Modulus (GPa) = 24.61039 26.80344 25.70692
#
# Velocity S-wave (km/s) = 3.62598 3.78408 3.70587
# Velocity P-wave (km/s) = 7.28344 7.41087 7.34743
#
# Compressibility (1/GPa) = 0.01504111
#
# Stress axis : x y z
#
# Youngs Moduli (GPa) = 54.12870 70.93619 49.05392
#
# Poissons Ratio (x) = 0.34934 0.43704
# Poissons Ratio (y) = 0.26657 0.25135
# Poissons Ratio (z) = 0.48225 0.36348
#
# Static dielectric constant tensor:
#      x y z
#    x 3.417600 0.000000 0.054590 
#    y 0.000000 3.579290 0.000000 
#    z 0.054590 0.000000 3.322290 
# 
# 
# High freq. dielectric constant tensor:
#      x y z
#    x 1.724860 0.000000 0.001440 
#    y 0.000000 1.742190 0.000000 
#    z 0.001440 0.000000 1.715800 
# 
# From -- ./inp_files/58291.got.cif
#   From: 2010.06.25/outbox.cif.g09.slc.cpg/sg10_30_cif.got.tgz:58291.got - 2010.06.27 22:07:45.
