data_PCOD8061397
_publ_section_title
;
Structure prediction by ZEFSAII (Michael W. Deem and Ramdas Pophale) SiO2 
 PCOD8061397
Probable space group: P 2/M
;
_chemical_formula_sum "Si O2"
_cell_formula_units_Z 32
_cell_length_a 14.169517
_cell_length_b 9.068233
_cell_length_c 20.420058
_cell_angle_alpha 90.000000
_cell_angle_beta 43.234243
_cell_angle_gamma 90.000000
_cell_volume 1797.273878
_symmetry_space_group_name_H-M "P 2/M"
_symmetry_group_IT_number 10
_symmetry_cell_setting 'monoclinic'
loop_
_space_group_symop_operation_xyz
x,y,z
-x,y,-z
-x,-y,-z
x,-y,z
loop_
_atom_site_type_symbol
_atom_site_label
_atom_site_fract_x
_atom_site_fract_y
_atom_site_fract_z
Si Si1 0.411647 0.826250 0.481655
Si Si2 0.595563 0.669009 0.131722
Si Si3 0.857191 0.827809 0.951755
Si Si4 0.859944 0.673018 0.343336
Si Si5 0.861744 0.826227 0.798163
Si Si6 0.405390 0.672617 0.109007
Si Si7 0.575460 0.668417 0.289121
Si Si8 0.128031 0.668811 0.813741
O O1 0.500000 0.776383 0.500000
O O2 0.266441 0.743262 0.553614
O O3 0.490803 0.781139 0.375963
O O4 0.385667 0.000000 0.495101
O O5 0.636927 0.500000 0.097927
O O6 0.482265 0.719864 0.136531
O O7 0.530779 0.690735 0.236455
O O8 0.733282 0.763420 0.056430
O O9 0.836796 0.783204 0.886353
O O10 0.002086 0.765098 0.904760
O O11 0.859746 0.000000 0.960931
O O12 0.866376 0.500000 0.354638
O O13 0.837358 0.709528 0.278581
O O14 0.000260 0.747989 0.297781
O O15 0.734514 0.765393 0.820838
O O16 0.876331 0.000000 0.780724
O O17 0.369234 0.500000 0.125199
O O18 0.500000 0.718097 0.000000
O O19 0.548719 0.500000 0.326130
O O20 0.737745 0.704592 0.211509
O O21 0.082191 0.500000 0.842865
#
# Coordination Sequence:
#
# PCOD8061397 Si02
#       8
#     4   4   4   4   4   4   4   4
#     4  11  22  35  55  82 111 141 174 218 268 316
#     4  10  21  36  54  76 106 142 182 225 266 313
#     4  10  20  32  49  74 107 143 179 217 262 316
#     4  10  19  33  56  81 106 138 178 221 262 311
#     4  10  20  33  52  80 111 140 174 220 271 319
#     4  10  19  33  55  80 105 139 181 224 268 315
#     4  10  21  37  55  77 105 142 184 222 263 314
#     4   9  18  32  51  74 103 140 180 217 256 307
#
# _framework density 17.804742999999998
#
# number of rings (size 3 to 8) (size 9 to 14) (size 15 to 20)
#    0.000    2.000    2.500    1.500    0.000    4.250 
#    0.000    2.500    0.000    0.750    0.000    5.250 
#    0.000    0.000    0.000    0.000    0.000    0.000 
#
# Total GULP energy -396950.574004 kJ/mol
# GULP energy per Si atom -12404.705438 kJ/mol
# Density = 1.776422 g / cm^3
# Si number density = 17.804743 Si / 1000 Ang^3
#
#
#
# Elastic Constant Matrix: (Units=GPa)
#
#
# Indices 1 2 3 4 5 6 
#
# 1 101.0736 36.7834 47.6417 0.0000 -5.7676 0.0000
# 2 36.7834 75.5848 47.4143 0.0000 -10.5191 0.0000
# 3 47.6417 47.4143 87.5907 0.0000 -11.6967 0.0000
# 4 0.0000 0.0000 0.0000 28.0694 0.0000 -2.6167
# 5 -5.7676 -10.5191 -11.6967 0.0000 25.8628 0.0000
# 6 0.0000 0.0000 0.0000 -2.6167 0.0000 17.5794
#
#
#
# Elastic Compliance Matrix: (Units=1/GPa)
#
#
# Indices 1 2 3 4 5 6 
#
# 1 0.013766 -0.003105 -0.005923 0.000000 -0.000872 0.000000
# 2 -0.003105 0.021027 -0.009199 0.000000 0.003699 0.000000
# 3 -0.005923 -0.009199 0.020160 0.000000 0.004055 0.000000
# 4 0.000000 0.000000 0.000000 0.036127 0.000000 0.005378
# 5 -0.000872 0.003699 0.004055 0.000000 0.041810 0.000000
# 6 0.000000 0.000000 0.000000 0.005378 0.000000 0.057685
#
#
# Mechanical properties :
#
#
# Convention : Reuss Voigt Hill
#
# Bulk Modulus (GPa) = 54.06130 58.65868 56.35999
# Shear Modulus (GPa) = 21.44127 23.12963 22.28545
#
# Velocity S-wave (km/s) = 3.47399 3.60817 3.54172
# Velocity P-wave (km/s) = 6.82062 7.09758 6.96047
#
# Compressibility (1/GPa) = 0.01849752
#
# Stress axis : x y z
#
# Youngs Moduli (GPa) = 72.64317 47.55841 49.60407
#
# Poissons Ratio (x) = 0.14767 0.29381
# Poissons Ratio (y) = 0.22555 0.45632
# Poissons Ratio (z) = 0.43027 0.43751
#
# Static dielectric constant tensor:
#      x y z
#    x 3.264100 0.000000 -0.093640 
#    y 0.000000 3.249080 0.000000 
#    z -0.093640 0.000000 3.109120 
# 
# 
# High freq. dielectric constant tensor:
#      x y z
#    x 1.678000 0.000000 -0.014060 
#    y 0.000000 1.692680 0.000000 
#    z -0.014060 0.000000 1.674580 
# 
# From -- ./inp_files/58366.got.cif
#   From: 2010.06.25/outbox.cif.g09.slc.cpg/sg10_30_cif.got.tgz:58366.got - 2010.06.27 22:07:45.
