data_PCOD8061465
_publ_section_title
;
Structure prediction by ZEFSAII (Michael W. Deem and Ramdas Pophale) SiO2 
 PCOD8061465
Probable space group: P 2/M
;
_chemical_formula_sum "Si O2"
_cell_formula_units_Z 32
_cell_length_a 11.637151
_cell_length_b 8.902042
_cell_length_c 24.282876
_cell_angle_alpha 90.000000
_cell_angle_beta 137.385421
_cell_angle_gamma 90.000000
_cell_volume 1703.200091
_symmetry_space_group_name_H-M "P 2/M"
_symmetry_group_IT_number 10
_symmetry_cell_setting 'monoclinic'
loop_
_space_group_symop_operation_xyz
x,y,z
-x,y,-z
-x,-y,-z
x,-y,z
loop_
_atom_site_type_symbol
_atom_site_label
_atom_site_fract_x
_atom_site_fract_y
_atom_site_fract_z
Si Si1 0.398357 0.676188 0.139849
Si Si2 0.646099 0.177171 0.463764
Si Si3 0.194979 0.674598 0.177144
Si Si4 0.739492 0.824891 0.280142
Si Si5 0.698233 0.675898 0.663565
Si Si6 0.810243 0.322842 0.419899
Si Si7 0.092635 0.174203 0.350534
Si Si8 0.103001 0.831678 0.980193
O O1 0.432472 0.500000 0.145693
O O2 0.326386 0.717043 0.175063
O O3 0.570590 0.768269 0.190253
O O4 0.268902 0.728807 0.046627
O O5 0.463685 0.237958 0.418886
O O6 0.682759 0.247686 0.417494
O O7 0.790397 0.228479 0.557413
O O8 0.639512 0.000000 0.455827
O O9 0.149070 0.500000 0.157972
O O10 0.278797 0.719505 0.264483
O O11 0.017769 0.763378 0.109418
O O12 0.760227 0.728014 0.341973
O O13 0.897182 0.794046 0.295534
O O14 0.727013 0.000000 0.291049
O O15 0.671097 0.500000 0.646494
O O16 0.862621 0.729140 0.687510
O O17 0.788844 0.500000 0.417058
O O18 0.000000 0.268859 0.500000
O O19 0.125849 0.000000 0.349643
O O20 0.157398 0.000000 0.982398
O O21 0.000000 0.832562 0.000000
#
# Coordination Sequence:
#
# PCOD8061465 Si02
#       8
#     4   4   4   4   4   4   4   4
#     4  10  19  33  55  83 115 145 175 215 268 324
#     4  11  22  38  58  78 106 143 184 228 277 328
#     4   9  19  35  53  78 112 143 173 214 268 323
#     4  11  22  37  56  78 109 146 186 226 269 325
#     4  11  23  37  56  81 108 140 184 233 275 320
#     4  11  22  35  54  80 109 139 176 223 274 326
#     4  10  23  40  55  74 104 145 188 229 275 324
#     4   9  17  30  52  82 112 141 175 212 259 320
#
# _framework density 18.788163999999998
#
# number of rings (size 3 to 8) (size 9 to 14) (size 15 to 20)
#    0.000    1.750    1.250    3.375    0.000    8.000 
#    0.000    0.000    0.000    0.750    0.000    5.250 
#    0.000    0.000    0.000    0.000    0.000    0.000 
#
# Total GULP energy -396957.236283 kJ/mol
# GULP energy per Si atom -12404.913634 kJ/mol
# Density = 1.874540 g / cm^3
# Si number density = 18.788164 Si / 1000 Ang^3
#
#
#
# Elastic Constant Matrix: (Units=GPa)
#
#
# Indices 1 2 3 4 5 6 
#
# 1 87.7359 37.2357 35.6069 0.0000 14.1375 0.0000
# 2 37.2357 70.4543 39.6261 0.0000 6.5203 0.0000
# 3 35.6069 39.6261 77.6928 0.0000 25.5044 0.0000
# 4 0.0000 0.0000 0.0000 33.4104 0.0000 3.6917
# 5 14.1375 6.5203 25.5044 0.0000 26.0846 0.0000
# 6 0.0000 0.0000 0.0000 3.6917 0.0000 29.8994
#
#
#
# Elastic Compliance Matrix: (Units=1/GPa)
#
#
# Indices 1 2 3 4 5 6 
#
# 1 0.015937 -0.006650 -0.002390 0.000000 -0.004639 0.000000
# 2 -0.006650 0.023666 -0.012170 0.000000 0.009588 0.000000
# 3 -0.002390 -0.012170 0.027613 0.000000 -0.022661 0.000000
# 4 0.000000 0.000000 0.000000 0.030345 0.000000 -0.003747
# 5 -0.004639 0.009588 -0.022661 0.000000 0.060612 0.000000
# 6 0.000000 0.000000 0.000000 -0.003747 0.000000 0.033908
#
#
# Mechanical properties :
#
#
# Convention : Reuss Voigt Hill
#
# Bulk Modulus (GPa) = 40.32813 51.20225 45.76519
# Shear Modulus (GPa) = 20.59608 26.10650 23.35129
#
# Velocity S-wave (km/s) = 3.31452 3.73167 3.52926
# Velocity P-wave (km/s) = 6.01326 6.77338 6.40461
#
# Compressibility (1/GPa) = 0.02479659
#
# Stress axis : x y z
#
# Youngs Moduli (GPa) = 62.74565 42.25536 36.21526
#
# Poissons Ratio (x) = 0.28098 0.08654
# Poissons Ratio (y) = 0.41724 0.44075
# Poissons Ratio (z) = 0.14994 0.51426
#
# Static dielectric constant tensor:
#      x y z
#    x 3.405120 0.000000 0.211050 
#    y 0.000000 3.484400 0.000000 
#    z 0.211050 0.000000 3.466620 
# 
# 
# High freq. dielectric constant tensor:
#      x y z
#    x 1.713610 0.000000 0.017130 
#    y 0.000000 1.739680 0.000000 
#    z 0.017130 0.000000 1.723440 
# 
# From -- ./inp_files/83629.got.cif
#   From: 2010.06.25/outbox.cif.g09.slc.cpg/sg10_42_cif.got.tgz:83629.got - 2010.06.27 22:07:45.
