data_PCOD8061162
_publ_section_title
;
Structure prediction by ZEFSAII (Michael W. Deem and Ramdas Pophale) SiO2 
 PCOD8061162
Probable space group: P 2/M
;
_chemical_formula_sum "Si O2"
_cell_formula_units_Z 28
_cell_length_a 9.505474
_cell_length_b 9.120667
_cell_length_c 26.201231
_cell_angle_alpha 90.000000
_cell_angle_beta 140.448943
_cell_angle_gamma 90.000000
_cell_volume 1446.444081
_symmetry_space_group_name_H-M "P 2/M"
_symmetry_group_IT_number 10
_symmetry_cell_setting 'monoclinic'
loop_
_space_group_symop_operation_xyz
x,y,z
-x,y,-z
-x,-y,-z
x,-y,z
loop_
_atom_site_type_symbol
_atom_site_label
_atom_site_fract_x
_atom_site_fract_y
_atom_site_fract_z
Si Si1 0.229375 0.328149 0.085971
Si Si2 0.232493 0.832459 0.674408
Si Si3 0.660268 0.673412 0.767965
Si Si4 0.895271 0.333173 0.522534
Si Si5 0.105695 0.826548 0.259658
Si Si6 0.579133 0.332055 0.577661
Si Si7 0.352132 0.165494 0.823952
O O1 0.241466 0.500000 0.081636
O O2 0.244352 0.285124 0.149666
O O3 0.430693 0.264268 0.108682
O O4 0.000000 0.264337 0.000000
O O5 0.414955 0.738776 0.694657
O O6 0.256491 0.815120 0.740984
O O7 0.991063 0.767854 0.594426
O O8 0.252099 0.000000 0.662055
O O9 0.651343 0.500000 0.756140
O O10 0.817160 0.745737 0.769803
O O11 0.966781 0.500000 0.553685
O O12 0.631998 0.320225 0.444330
O O13 0.000000 0.273228 0.500000
O O14 0.231253 0.768135 0.345144
O O15 0.844667 0.790541 0.192472
O O16 0.146908 0.000000 0.267030
O O17 0.500000 0.275834 0.500000
O O18 0.664769 0.500000 0.597586
O O19 0.428189 0.000000 0.855296
#
# Coordination Sequence:
#
# PCOD8061162 Si02
#       7
#     4   4   4   4   4   4   4
#     4   9  19  37  61  87 110 135 173 217 260 313
#     4  10  19  33  53  75 100 133 177 222 263 314
#     4  10  20  35  56  80 108 141 175 217 269 319
#     4  10  20  32  46  67  97 132 172 219 266 312
#     4  11  22  36  54  78 110 144 182 224 263 314
#     4  10  21  35  51  73 103 141 183 225 271 319
#     4   9  20  36  54  79 108 139 173 210 257 313
#
# _framework density 19.357817000000001
#
# number of rings (size 3 to 8) (size 9 to 14) (size 15 to 20)
#    0.000    2.143    0.000    3.000    0.000    4.857 
#    0.000    0.714    0.000    4.286    0.000    0.000 
#    0.000    0.000    0.000    0.000    0.000    0.000 
#
# Total GULP energy -347227.025050 kJ/mol
# GULP energy per Si atom -12400.965180 kJ/mol
# Density = 1.931376 g / cm^3
# Si number density = 19.357817 Si / 1000 Ang^3
#
#
#
# Elastic Constant Matrix: (Units=GPa)
#
#
# Indices 1 2 3 4 5 6 
#
# 1 89.4165 31.9592 9.4235 0.0000 11.0656 0.0000
# 2 31.9592 80.6366 34.3326 0.0000 6.7189 0.0000
# 3 9.4235 34.3326 75.7219 0.0000 14.0079 0.0000
# 4 0.0000 0.0000 0.0000 25.1424 0.0000 4.4573
# 5 11.0656 6.7189 14.0079 0.0000 23.1056 0.0000
# 6 0.0000 0.0000 0.0000 4.4573 0.0000 28.7468
#
#
#
# Elastic Compliance Matrix: (Units=1/GPa)
#
#
# Indices 1 2 3 4 5 6 
#
# 1 0.013818 -0.005845 0.002073 0.000000 -0.006175 0.000000
# 2 -0.005845 0.017842 -0.007794 0.000000 0.002336 0.000000
# 3 0.002073 -0.007794 0.018299 0.000000 -0.009820 0.000000
# 4 0.000000 0.000000 0.000000 0.040898 0.000000 -0.006341
# 5 -0.006175 0.002336 -0.009820 0.000000 0.051511 0.000000
# 6 0.000000 0.000000 0.000000 -0.006341 0.000000 0.035770
#
#
# Mechanical properties :
#
#
# Convention : Reuss Voigt Hill
#
# Bulk Modulus (GPa) = 37.27709 44.13395 40.70552
# Shear Modulus (GPa) = 23.78553 26.73626 25.26089
#
# Velocity S-wave (km/s) = 3.50913 3.72043 3.61632
# Velocity P-wave (km/s) = 5.97640 6.42682 6.20569
#
# Compressibility (1/GPa) = 0.02682613
#
# Stress axis : x y z
#
# Youngs Moduli (GPa) = 72.36766 56.04854 54.64818
#
# Poissons Ratio (x) = 0.32758 -0.11326
# Poissons Ratio (y) = 0.42296 0.42595
# Poissons Ratio (z) = -0.14999 0.43686
#
# Static dielectric constant tensor:
#      x y z
#    x 3.640770 0.000000 0.125270 
#    y 0.000000 3.521520 0.000000 
#    z 0.125270 0.000000 3.479840 
# 
# 
# High freq. dielectric constant tensor:
#      x y z
#    x 1.759680 0.000000 0.009620 
#    y 0.000000 1.752090 0.000000 
#    z 0.009620 0.000000 1.737420 
# 
# From -- ./inp_files/37280.got.cif
#   From: 2010.06.25/outbox.cif.g09.slc.cpg/sg10_19_cif.got.tgz:37280.got - 2010.06.27 22:07:45.
