data_PCOD8061106
_publ_section_title
;
Structure prediction by ZEFSAII (Michael W. Deem and Ramdas Pophale) SiO2 
 PCOD8061106
Probable space group: P 2/M
;
_chemical_formula_sum "Si O2"
_cell_formula_units_Z 32
_cell_length_a 26.489423
_cell_length_b 9.403211
_cell_length_c 21.564501
_cell_angle_alpha 90.000000
_cell_angle_beta 160.456106
_cell_angle_gamma 90.000000
_cell_volume 1796.891083
_symmetry_space_group_name_H-M "P 2/M"
_symmetry_group_IT_number 10
_symmetry_cell_setting 'monoclinic'
loop_
_space_group_symop_operation_xyz
x,y,z
-x,y,-z
-x,-y,-z
x,-y,z
loop_
_atom_site_type_symbol
_atom_site_label
_atom_site_fract_x
_atom_site_fract_y
_atom_site_fract_z
Si Si1 0.853062 0.836628 0.952510
Si Si2 0.020391 0.665020 0.593323
Si Si3 0.336037 0.666120 0.021816
Si Si4 0.623782 0.833624 0.330911
Si Si5 0.201932 0.836000 0.343354
Si Si6 0.202616 0.163369 0.973610
Si Si7 0.110627 0.163841 0.451988
Si Si8 0.821030 0.338922 0.799773
O O1 0.774272 0.738642 0.809481
O O2 0.827790 0.000000 0.904162
O O3 0.775805 0.802283 0.928898
O O4 0.030275 0.803832 0.163546
O O5 0.980073 0.500000 0.551427
O O6 0.000000 0.721609 0.500000
O O7 0.901760 0.746003 0.499587
O O8 0.190751 0.696512 0.811424
O O9 0.367746 0.500000 0.067022
O O10 0.475104 0.740338 0.148126
O O11 0.314199 0.735772 0.064292
O O12 0.694228 0.794237 0.478792
O O13 0.739058 0.790411 0.410124
O O14 0.584194 0.000000 0.281750
O O15 0.254196 0.741353 0.345469
O O16 0.222097 0.000000 0.347976
O O17 0.029760 0.194252 0.755701
O O18 0.245004 0.000000 0.008213
O O19 0.116466 0.000000 0.478054
O O20 0.761447 0.500000 0.732637
O O21 0.000000 0.331407 0.000000
#
# Coordination Sequence:
#
# PCOD8061106 Si02
#       8
#     4   4   4   4   4   4   4   4
#     4   9  15  26  46  69  92 123 165 207 248 296
#     4   9  19  37  57  76 102 136 170 201 237 288
#     4  10  21  34  50  75 103 132 166 202 245 297
#     4  10  19  33  52  75 104 134 164 205 252 297
#     4   9  16  28  46  67  93 128 166 201 244 297
#     4   9  16  30  51  73  97 127 165 210 254 294
#     4   9  17  31  53  80 103 126 165 210 248 288
#     4   9  17  26  37  62  98 130 161 203 251 293
#
# _framework density 17.808537000000001
#
# number of rings (size 3 to 8) (size 9 to 14) (size 15 to 20)
#    0.000    2.750    1.250    0.750    0.000    3.750 
#    0.000    0.625    0.000    4.500    0.000    5.250 
#    0.000    0.000    0.000    0.000    0.000    0.000 
#
# Total GULP energy -396833.847400 kJ/mol
# GULP energy per Si atom -12401.057731 kJ/mol
# Density = 1.776800 g / cm^3
# Si number density = 17.808537 Si / 1000 Ang^3
#
#
#
# Elastic Constant Matrix: (Units=GPa)
#
#
# Indices 1 2 3 4 5 6 
#
# 1 144.3455 76.3780 53.6310 0.0000 -8.8551 0.0000
# 2 76.3780 94.4452 42.2260 0.0000 -2.4933 0.0000
# 3 53.6310 42.2260 50.5026 0.0000 1.6351 0.0000
# 4 0.0000 0.0000 0.0000 23.2175 0.0000 -0.5206
# 5 -8.8551 -2.4933 1.6351 0.0000 29.5838 0.0000
# 6 0.0000 0.0000 0.0000 -0.5206 0.0000 25.6161
#
#
#
# Elastic Compliance Matrix: (Units=1/GPa)
#
#
# Indices 1 2 3 4 5 6 
#
# 1 0.014687 -0.007552 -0.009420 0.000000 0.004280 0.000000
# 2 -0.007552 0.020938 -0.009488 0.000000 0.000028 0.000000
# 3 -0.009420 -0.009488 0.037923 0.000000 -0.005715 0.000000
# 4 0.000000 0.000000 0.000000 0.043091 0.000000 0.000876
# 5 0.004280 0.000028 -0.005715 0.000000 0.035402 0.000000
# 6 0.000000 0.000000 0.000000 0.000876 0.000000 0.039056
#
#
# Mechanical properties :
#
#
# Convention : Reuss Voigt Hill
#
# Bulk Modulus (GPa) = 48.48009 70.41815 59.44912
# Shear Modulus (GPa) = 19.92884 23.48735 21.70810
#
# Velocity S-wave (km/s) = 3.34887 3.63558 3.49516
# Velocity P-wave (km/s) = 6.49887 7.56643 7.05288
#
# Compressibility (1/GPa) = 0.02062702
#
# Stress axis : x y z
#
# Youngs Moduli (GPa) = 68.08859 47.75919 26.36937
#
# Poissons Ratio (x) = 0.36069 0.24841
# Poissons Ratio (y) = 0.51423 0.25018
# Poissons Ratio (z) = 0.64143 0.45312
#
# Static dielectric constant tensor:
#      x y z
#    x 3.368550 0.000000 -0.090340 
#    y 0.000000 3.286890 0.000000 
#    z -0.090340 0.000000 3.005710 
# 
# 
# High freq. dielectric constant tensor:
#      x y z
#    x 1.689480 0.000000 -0.007240 
#    y 0.000000 1.686510 0.000000 
#    z -0.007240 0.000000 1.657130 
# 
# From -- ./inp_files/87027.got.cif
#   From: 2010.06.25/outbox.cif.g09.slc.cpg/sg10_44_cif.got.tgz:87027.got - 2010.06.27 22:07:45.
