data_PCOD8061396
_publ_section_title
;
Structure prediction by ZEFSAII (Michael W. Deem and Ramdas Pophale) SiO2 
 PCOD8061396
Probable space group: P 2/M
;
_chemical_formula_sum "Si O2"
_cell_formula_units_Z 24
_cell_length_a 14.754207
_cell_length_b 13.207429
_cell_length_c 8.915540
_cell_angle_alpha 90.000000
_cell_angle_beta 42.569023
_cell_angle_gamma 90.000000
_cell_volume 1175.263971
_symmetry_space_group_name_H-M "P 2/M"
_symmetry_group_IT_number 10
_symmetry_cell_setting 'monoclinic'
loop_
_space_group_symop_operation_xyz
x,y,z
-x,y,-z
-x,-y,-z
x,-y,z
loop_
_atom_site_type_symbol
_atom_site_label
_atom_site_fract_x
_atom_site_fract_y
_atom_site_fract_z
Si Si1 0.123439 0.115381 0.740514
Si Si2 0.420963 0.113871 0.450780
Si Si3 0.947565 0.386547 0.911850
Si Si4 0.815779 0.695792 0.527555
Si Si5 0.532787 0.701297 0.788531
Si Si6 0.735436 0.381382 0.941748
O O1 0.260825 0.124452 0.669049
O O2 0.131429 0.192160 0.587855
O O3 0.107419 0.000000 0.698633
O O4 0.000000 0.143183 0.000000
O O5 0.500000 0.151785 0.500000
O O6 0.474701 0.182005 0.249906
O O7 0.462359 0.000000 0.359579
O O8 0.910763 0.500000 0.002995
O O9 0.815323 0.341230 0.991918
O O10 0.067811 0.384665 0.645573
O O11 0.000000 0.328542 0.000000
O O12 0.686401 0.662934 0.583899
O O13 0.781636 0.689147 0.745815
O O14 0.500000 0.693949 0.000000
O O15 0.423530 0.633696 0.832613
O O16 0.765632 0.500000 0.873297
#
# Coordination Sequence:
#
# PCOD8061396 Si02
#       6
#     4   4   4   4   4   4
#     4   9  18  33  53  79 111 143 174 213 263 313
#     4   9  18  33  53  77 105 138 175 213 257 311
#     4  10  21  36  54  77 103 134 176 222 267 316
#     4  10  19  33  55  80 105 138 176 215 261 313
#     4   9  20  34  51  78 106 137 175 215 260 310
#     4  10  21  37  55  76 106 142 177 218 268 317
#
# _framework density 20.420945
#
# number of rings (size 3 to 8) (size 9 to 14) (size 15 to 20)
#    0.000    2.500    0.000    1.500    0.000    9.333 
#    0.000    2.500    0.000    5.500    0.000    0.000 
#    0.000    0.000    0.000    0.000    0.000    0.000 
#
# Total GULP energy -297315.946524 kJ/mol
# GULP energy per Si atom -12388.164438 kJ/mol
# Density = 2.037447 g / cm^3
# Si number density = 20.420945 Si / 1000 Ang^3
#
#
#
# Elastic Constant Matrix: (Units=GPa)
#
#
# Indices 1 2 3 4 5 6 
#
# 1 155.8054 34.9243 33.0616 0.0000 -22.8918 0.0000
# 2 34.9243 71.9295 26.0401 0.0000 -3.9229 0.0000
# 3 33.0616 26.0401 48.3606 0.0000 -22.6523 0.0000
# 4 0.0000 0.0000 0.0000 28.2932 0.0000 -3.7261
# 5 -22.8918 -3.9229 -22.6523 0.0000 22.5052 0.0000
# 6 0.0000 0.0000 0.0000 -3.7261 0.0000 21.8682
#
#
#
# Elastic Compliance Matrix: (Units=1/GPa)
#
#
# Indices 1 2 3 4 5 6 
#
# 1 0.008398 -0.003587 -0.000192 0.000000 0.007723 0.000000
# 2 -0.003587 0.020707 -0.016490 0.000000 -0.016637 0.000000
# 3 -0.000192 -0.016490 0.053451 0.000000 0.050731 0.000000
# 4 0.000000 0.000000 0.000000 0.036155 0.000000 0.006160
# 5 0.007723 -0.016637 0.050731 0.000000 0.100452 0.000000
# 6 0.000000 0.000000 0.000000 0.006160 0.000000 0.046778
#
#
# Mechanical properties :
#
#
# Convention : Reuss Voigt Hill
#
# Bulk Modulus (GPa) = 23.79998 51.57194 37.68596
# Shear Modulus (GPa) = 15.60132 26.67128 21.13630
#
# Velocity S-wave (km/s) = 2.76703 3.61789 3.22068
# Velocity P-wave (km/s) = 4.67852 6.53922 5.68551
#
# Compressibility (1/GPa) = 0.04201683
#
# Stress axis : x y z
#
# Youngs Moduli (GPa) = 119.07940 48.29399 18.70865
#
# Poissons Ratio (x) = 0.17321 0.00360
# Poissons Ratio (y) = 0.42709 0.30851
# Poissons Ratio (z) = 0.02289 0.79639
#
# Static dielectric constant tensor:
#      x y z
#    x 4.202150 0.000000 -0.462730 
#    y 0.000000 3.603160 0.000000 
#    z -0.462730 0.000000 3.777540 
# 
# 
# High freq. dielectric constant tensor:
#      x y z
#    x 1.806140 0.000000 -0.024890 
#    y 0.000000 1.787070 0.000000 
#    z -0.024890 0.000000 1.783230 
# 
# From -- ./inp_files/29257.got.cif
#   From: 2010.06.25/outbox.cif.g09.slc.cpg/sg10_15_cif.got.tgz:29257.got - 2010.06.27 22:07:45.
