data_PCOD8061380
_publ_section_title
;
Structure prediction by ZEFSAII (Michael W. Deem and Ramdas Pophale) SiO2 
 PCOD8061380
Probable space group: P 2/M
;
_chemical_formula_sum "Si O2"
_cell_formula_units_Z 28
_cell_length_a 8.931110
_cell_length_b 8.895003
_cell_length_c 28.866818
_cell_angle_alpha 90.000000
_cell_angle_beta 140.999964
_cell_angle_gamma 90.000000
_cell_volume 1443.186947
_symmetry_space_group_name_H-M "P 2/M"
_symmetry_group_IT_number 10
_symmetry_cell_setting 'monoclinic'
loop_
_space_group_symop_operation_xyz
x,y,z
-x,y,-z
-x,-y,-z
x,-y,z
loop_
_atom_site_type_symbol
_atom_site_label
_atom_site_fract_x
_atom_site_fract_y
_atom_site_fract_z
Si Si1 0.198987 0.678493 0.645460
Si Si2 0.048581 0.822291 0.784857
Si Si3 0.542017 0.678744 0.647336
Si Si4 0.764110 0.822087 0.071531
Si Si5 0.074823 0.673316 0.068777
Si Si6 0.328608 0.321062 0.499008
Si Si7 0.630503 0.674378 0.213220
O O1 0.195390 0.500000 0.641650
O O2 0.381246 0.740741 0.650774
O O3 0.284294 0.732262 0.716229
O O4 0.936242 0.743682 0.572485
O O5 0.134788 0.761998 0.855455
O O6 0.245383 0.775663 0.795175
O O7 0.801946 0.746296 0.712910
O O8 0.017172 0.000000 0.776961
O O9 0.563680 0.500000 0.653695
O O10 0.423285 0.734931 0.571203
O O11 0.935290 0.771011 0.072042
O O12 0.754441 0.000000 0.069449
O O13 0.500000 0.755415 0.000000
O O14 0.005660 0.500000 0.059408
O O15 0.351671 0.701175 0.142565
O O16 0.000000 0.728873 0.000000
O O17 0.500000 0.257418 0.500000
O O18 0.323212 0.500000 0.495841
O O19 0.698345 0.500000 0.221904
#
# Coordination Sequence:
#
# PCOD8061380 Si02
#       7
#     4   4   4   4   4   4   4
#     4   9  17  30  51  80 107 134 176 222 260 308
#     4  11  23  37  54  78 107 138 177 222 264 311
#     4  10  19  33  55  79 106 140 174 215 268 318
#     4  10  22  39  57  78 106 143 184 220 257 309
#     4  10  21  36  56  85 115 140 172 218 269 317
#     4   9  16  27  48  79 109 136 172 218 262 308
#     4  10  20  35  55  78 106 140 177 217 264 318
#
# _framework density 19.401506000000001
#
# number of rings (size 3 to 8) (size 9 to 14) (size 15 to 20)
#    0.000    2.143    0.000    3.429    0.000    7.429 
#    0.000    0.714    0.000    5.571    0.000    0.000 
#    0.000    0.000    0.000    0.000    0.000    0.000 
#
# Total GULP energy -347287.154274 kJ/mol
# GULP energy per Si atom -12403.112653 kJ/mol
# Density = 1.935735 g / cm^3
# Si number density = 19.401506 Si / 1000 Ang^3
#
#
#
# Elastic Constant Matrix: (Units=GPa)
#
#
# Indices 1 2 3 4 5 6 
#
# 1 115.8061 9.6792 53.4859 0.0000 -15.3288 0.0000
# 2 9.6792 11.3247 20.9718 0.0000 -1.7850 0.0000
# 3 53.4859 20.9718 170.9558 0.0000 -13.8202 0.0000
# 4 0.0000 0.0000 0.0000 15.5465 0.0000 -1.1260
# 5 -15.3288 -1.7850 -13.8202 0.0000 39.7593 0.0000
# 6 0.0000 0.0000 0.0000 -1.1260 0.0000 17.6499
#
#
#
# Elastic Compliance Matrix: (Units=1/GPa)
#
#
# Indices 1 2 3 4 5 6 
#
# 1 0.010543 -0.003725 -0.002600 0.000000 0.002994 0.000000
# 2 -0.003725 0.115579 -0.013077 0.000000 -0.000793 0.000000
# 3 -0.002600 -0.013077 0.008374 0.000000 0.001321 0.000000
# 4 0.000000 0.000000 0.000000 0.064622 0.000000 0.004123
# 5 0.002994 -0.000793 0.001321 0.000000 0.026729 0.000000
# 6 0.000000 0.000000 0.000000 0.004123 0.000000 0.056921
#
#
# Mechanical properties :
#
#
# Convention : Reuss Voigt Hill
#
# Bulk Modulus (GPa) = 10.45023 51.81782 31.13402
# Shear Modulus (GPa) = 14.14551 28.85444 21.49998
#
# Velocity S-wave (km/s) = 2.70310 3.86064 3.33252
# Velocity P-wave (km/s) = 3.89106 6.82927 5.55784
#
# Compressibility (1/GPa) = 0.09569171
#
# Stress axis : x y z
#
# Youngs Moduli (GPa) = 94.84549 8.65212 119.41977
#
# Poissons Ratio (x) = 0.03223 0.31045
# Poissons Ratio (y) = 0.35334 1.56166
# Poissons Ratio (z) = 0.24656 0.11314
#
# Static dielectric constant tensor:
#      x y z
#    x 3.695960 0.000000 -0.030820 
#    y 0.000000 3.113910 0.000000 
#    z -0.030820 0.000000 3.920570 
# 
# 
# High freq. dielectric constant tensor:
#      x y z
#    x 1.772860 0.000000 -0.000530 
#    y 0.000000 1.709980 0.000000 
#    z -0.000530 0.000000 1.779060 
# 
# From -- ./inp_files/34259.got.cif
#   From: 2010.06.25/outbox.cif.g09.slc.cpg/sg10_18_cif.got.tgz:34259.got - 2010.06.27 22:07:45.
