data_PCOD8061069
_publ_section_title
;
Structure prediction by ZEFSAII (Michael W. Deem and Ramdas Pophale) SiO2 
 PCOD8061069
Probable space group: P 2/M
;
_chemical_formula_sum "Si O2"
_cell_formula_units_Z 32
_cell_length_a 24.185136
_cell_length_b 9.285669
_cell_length_c 25.361717
_cell_angle_alpha 90.000000
_cell_angle_beta 17.522662
_cell_angle_gamma 90.000000
_cell_volume 1714.851881
_symmetry_space_group_name_H-M "P 2/M"
_symmetry_group_IT_number 10
_symmetry_cell_setting 'monoclinic'
loop_
_space_group_symop_operation_xyz
x,y,z
-x,y,-z
-x,-y,-z
x,-y,z
loop_
_atom_site_type_symbol
_atom_site_label
_atom_site_fract_x
_atom_site_fract_y
_atom_site_fract_z
Si Si1 0.692661 0.159612 0.701063
Si Si2 0.469111 0.830555 0.807863
Si Si3 0.201921 0.330357 0.798078
Si Si4 0.706050 0.337786 0.793957
Si Si5 0.415461 0.670674 0.499990
Si Si6 0.700141 0.828061 0.499980
Si Si7 0.915123 0.169445 0.807921
Si Si8 0.905210 0.159613 0.701083
O O1 0.549316 0.230997 0.790122
O O2 0.721992 0.260904 0.723845
O O3 0.878468 0.144586 0.499994
O O4 0.628401 0.000000 0.778672
O O5 0.565236 0.769081 0.668345
O O6 0.505807 0.000000 0.776567
O O7 0.253982 0.791639 0.999959
O O8 0.182070 0.500000 0.817928
O O9 0.373046 0.283476 0.679716
O O10 0.267527 0.283474 0.679707
O O11 0.000000 0.264812 0.000000
O O12 0.778300 0.500000 0.721710
O O13 0.830275 0.260902 0.723908
O O14 0.500000 0.333366 0.000000
O O15 0.405640 0.500000 0.499990
O O16 0.358971 0.755775 0.499971
O O17 0.901997 0.769092 0.331553
O O18 0.692840 0.000000 0.499996
O O19 0.870470 0.231006 0.790113
O O20 0.941025 0.000000 0.776618
O O21 0.814251 0.000000 0.778702
#
# Coordination Sequence:
#
# PCOD8061069 Si02
#       8
#     4   4   4   4   4   4   4   4
#     4  10  19  34  56  78  96 122 169 219 257 305
#     4   9  17  31  52  75 100 132 169 210 253 298
#     4   8  15  31  54  76 102 138 176 212 248 290
#     4  11  24  37  48  70 104 135 164 204 261 325
#     4   9  18  32  52  78 103 133 175 214 250 291
#     4  10  19  33  51  75 107 138 170 206 251 304
#     4   9  17  31  52  75 100 132 169 210 253 298
#     4  10  19  34  56  78  96 122 169 219 257 305
#
# _framework density 18.660504
#
# number of rings (size 3 to 8) (size 9 to 14) (size 15 to 20)
#    0.000    2.500    1.250    2.250    0.000    5.000 
#    0.000    2.500    0.000    2.250    0.000    0.000 
#    0.000    0.000    0.000    0.000    0.000    0.000 
#
# Total GULP energy -396565.511604 kJ/mol
# GULP energy per Si atom -12392.672238 kJ/mol
# Density = 1.861803 g / cm^3
# Si number density = 18.660504 Si / 1000 Ang^3
#
#
#
# Elastic Constant Matrix: (Units=GPa)
#
#
# Indices 1 2 3 4 5 6 
#
# 1 163.4328 42.6510 75.1744 0.0000 6.5347 0.0000
# 2 42.6510 50.3544 24.9332 0.0000 1.6263 0.0000
# 3 75.1744 24.9332 147.5353 0.0000 -5.2189 0.0000
# 4 0.0000 0.0000 0.0000 14.9089 0.0000 11.5631
# 5 6.5347 1.6263 -5.2189 0.0000 9.4920 0.0000
# 6 0.0000 0.0000 0.0000 11.5631 0.0000 140.0274
#
#
#
# Elastic Compliance Matrix: (Units=1/GPa)
#
#
# Indices 1 2 3 4 5 6 
#
# 1 0.010055 -0.006075 -0.004390 0.000000 -0.008295 0.000000
# 2 -0.006075 0.025666 -0.001274 0.000000 -0.000916 0.000000
# 3 -0.004390 -0.001274 0.009530 0.000000 0.008481 0.000000
# 4 0.000000 0.000000 0.000000 0.071664 0.000000 -0.005918
# 5 -0.008295 -0.000916 0.008481 0.000000 0.115882 0.000000
# 6 0.000000 0.000000 0.000000 -0.005918 0.000000 0.007630
#
#
# Mechanical properties :
#
#
# Convention : Reuss Voigt Hill
#
# Bulk Modulus (GPa) = 45.93117 71.87109 58.90113
# Shear Modulus (GPa) = 18.43903 47.45659 32.94781
#
# Velocity S-wave (km/s) = 3.14687 5.04844 4.20652
# Velocity P-wave (km/s) = 6.15396 8.51945 7.43143
#
# Compressibility (1/GPa) = 0.02177171
#
# Stress axis : x y z
#
# Youngs Moduli (GPa) = 99.45077 38.96273 104.92769
#
# Poissons Ratio (x) = 0.23671 0.46066
# Poissons Ratio (y) = 0.60418 0.13371
# Poissons Ratio (z) = 0.43661 0.04965
#
# Static dielectric constant tensor:
#      x y z
#    x 3.370490 0.000000 -0.038950 
#    y 0.000000 3.055050 0.000000 
#    z -0.038950 0.000000 3.791490 
# 
# 
# High freq. dielectric constant tensor:
#      x y z
#    x 1.726030 0.000000 -0.001540 
#    y 0.000000 1.672920 0.000000 
#    z -0.001540 0.000000 1.742610 
# 
# From -- ./inp_files/90621.got.cif
#   From: 2010.06.25/outbox.cif.g09.slc.cpg/sg10_46_cif.got.tgz:90621.got - 2010.06.27 22:07:45.
