data_PCOD8061985
_publ_section_title
;
Structure prediction by ZEFSAII (Michael W. Deem and Ramdas Pophale) SiO2 
 PCOD8061985
Probable space group: P 2/M
;
_chemical_formula_sum "Si O2"
_cell_formula_units_Z 32
_cell_length_a 12.886140
_cell_length_b 9.060627
_cell_length_c 27.524722
_cell_angle_alpha 90.000000
_cell_angle_beta 148.529680
_cell_angle_gamma 90.000000
_cell_volume 1677.728989
_symmetry_space_group_name_H-M "P 2/M"
_symmetry_group_IT_number 10
_symmetry_cell_setting 'monoclinic'
loop_
_space_group_symop_operation_xyz
x,y,z
-x,y,-z
-x,-y,-z
x,-y,z
loop_
_atom_site_type_symbol
_atom_site_label
_atom_site_fract_x
_atom_site_fract_y
_atom_site_fract_z
Si Si1 0.322658 0.674844 0.574273
Si Si2 0.325132 0.336506 0.345970
Si Si3 0.412856 0.827997 0.711944
Si Si4 0.992913 0.335763 0.134634
Si Si5 0.917973 0.672311 0.361685
Si Si6 0.007709 0.324407 0.718620
Si Si7 0.273143 0.171877 0.900168
Si Si8 0.132075 0.834103 0.100054
O O1 0.358624 0.500000 0.594769
O O2 0.467769 0.738448 0.589001
O O3 0.368488 0.752099 0.643063
O O4 0.097252 0.709587 0.469697
O O5 0.379138 0.500000 0.385775
O O6 0.193738 0.338342 0.245299
O O7 0.198945 0.260782 0.339612
O O8 0.274211 0.762212 0.698716
O O9 0.637722 0.797488 0.818931
O O10 0.366820 0.000000 0.688053
O O11 0.900159 0.500000 0.095189
O O12 0.837891 0.223009 0.095790
O O13 0.043596 0.283450 0.101369
O O14 0.865544 0.500000 0.341702
O O15 0.981872 0.721762 0.333166
O O16 0.013658 0.500000 0.728993
O O17 0.196224 0.257503 0.821894
O O18 0.236707 0.000000 0.876970
O O19 0.500000 0.211073 0.000000
O O20 0.117298 0.000000 0.115647
O O21 0.000000 0.818624 0.000000
#
# Coordination Sequence:
#
# PCOD8061985 Si02
#       8
#     4   4   4   4   4   4   4   4
#     4  10  19  35  59  84 111 148 191 231 280 340
#     4   8  15  30  55  82 107 137 175 224 273 326
#     4  11  23  38  57  80 111 150 191 238 283 334
#     4  10  19  34  57  83 109 139 180 233 282 328
#     4  10  22  37  56  82 116 154 188 232 283 337
#     4   9  19  36  55  82 115 145 186 235 284 330
#     4  10  21  36  56  81 110 149 190 225 273 338
#     4  10  22  39  57  80 110 146 187 232 286 344
#
# _framework density 19.073402999999999
#
# number of rings (size 3 to 8) (size 9 to 14) (size 15 to 20)
#    0.000    2.250    1.250    2.250    0.000    5.750 
#    0.000    6.250    0.000    0.000    0.000    3.500 
#    0.000    0.000    0.000    0.000    0.000    0.000 
#
# Total GULP energy -396690.726544 kJ/mol
# GULP energy per Si atom -12396.585204 kJ/mol
# Density = 1.902999 g / cm^3
# Si number density = 19.073403 Si / 1000 Ang^3
#
#
#
# Elastic Constant Matrix: (Units=GPa)
#
#
# Indices 1 2 3 4 5 6 
#
# 1 122.9102 33.0754 52.9236 0.0000 -0.2232 0.0000
# 2 33.0754 44.1197 38.7061 0.0000 -2.0113 0.0000
# 3 52.9236 38.7061 95.9484 0.0000 8.2002 0.0000
# 4 0.0000 0.0000 0.0000 22.0870 0.0000 5.7000
# 5 -0.2232 -2.0113 8.2002 0.0000 23.8120 0.0000
# 6 0.0000 0.0000 0.0000 5.7000 0.0000 24.0993
#
#
#
# Elastic Compliance Matrix: (Units=1/GPa)
#
#
# Indices 1 2 3 4 5 6 
#
# 1 0.011287 -0.004399 -0.004563 0.000000 0.001305 0.000000
# 2 -0.004399 0.038370 -0.013730 0.000000 0.007928 0.000000
# 3 -0.004563 -0.013730 0.019144 0.000000 -0.007795 0.000000
# 4 0.000000 0.000000 0.000000 0.048219 0.000000 -0.011405
# 5 0.001305 0.007928 -0.007795 0.000000 0.045362 0.000000
# 6 0.000000 0.000000 0.000000 -0.011405 0.000000 0.044192
#
#
# Mechanical properties :
#
#
# Convention : Reuss Voigt Hill
#
# Bulk Modulus (GPa) = 42.70274 56.93204 49.81739
# Shear Modulus (GPa) = 19.24837 23.21788 21.23312
#
# Velocity S-wave (km/s) = 3.18020 3.49275 3.34013
# Velocity P-wave (km/s) = 5.99350 6.79555 6.40709
#
# Compressibility (1/GPa) = 0.02341770
#
# Stress axis : x y z
#
# Youngs Moduli (GPa) = 88.59918 26.06198 52.23650
#
# Poissons Ratio (x) = 0.11465 0.23833
# Poissons Ratio (y) = 0.38977 0.71719
# Poissons Ratio (z) = 0.40423 0.35782
#
# Static dielectric constant tensor:
#      x y z
#    x 3.588460 0.000000 0.194020 
#    y 0.000000 3.420390 0.000000 
#    z 0.194020 0.000000 3.503740 
# 
# 
# High freq. dielectric constant tensor:
#      x y z
#    x 1.750220 0.000000 0.010840 
#    y 0.000000 1.724450 0.000000 
#    z 0.010840 0.000000 1.740030 
# 
# From -- ./inp_files/95068.got.cif
#   From: 2010.06.25/outbox.cif.g09.slc.cpg/sg10_48_cif.got.tgz:95068.got - 2010.06.27 22:07:45.
