data_PCOD8061877
_publ_section_title
;
Structure prediction by ZEFSAII (Michael W. Deem and Ramdas Pophale) SiO2 
 PCOD8061877
Probable space group: P 2/M
;
_chemical_formula_sum "Si O2"
_cell_formula_units_Z 32
_cell_length_a 27.451546
_cell_length_b 9.263658
_cell_length_c 21.379960
_cell_angle_alpha 90.000000
_cell_angle_beta 18.732167
_cell_angle_gamma 90.000000
_cell_volume 1746.051300
_symmetry_space_group_name_H-M "P 2/M"
_symmetry_group_IT_number 10
_symmetry_cell_setting 'monoclinic'
loop_
_space_group_symop_operation_xyz
x,y,z
-x,y,-z
-x,-y,-z
x,-y,z
loop_
_atom_site_type_symbol
_atom_site_label
_atom_site_fract_x
_atom_site_fract_y
_atom_site_fract_z
Si Si1 0.170520 0.665361 0.417421
Si Si2 0.293697 0.832634 0.502720
Si Si3 0.533298 0.669036 0.529077
Si Si4 0.627583 0.665923 0.710249
Si Si5 0.871304 0.829197 0.779386
Si Si6 0.718043 0.668958 0.855183
Si Si7 0.159775 0.668389 0.776203
Si Si8 0.396170 0.165902 0.804982
O O1 0.113294 0.500000 0.487001
O O2 0.304013 0.688773 0.304543
O O3 0.237399 0.709368 0.269293
O O4 0.033613 0.769819 0.602990
O O5 0.278671 0.761742 0.452890
O O6 0.175682 0.757720 0.693112
O O7 0.463657 0.804944 0.319619
O O8 0.251907 0.000000 0.548836
O O9 0.500000 0.727389 0.500000
O O10 0.503481 0.500000 0.569286
O O11 0.705645 0.708484 0.338994
O O12 0.412526 0.742345 0.722094
O O13 0.638421 0.500000 0.675675
O O14 0.454093 0.717635 0.923822
O O15 0.827795 0.757611 0.766683
O O16 0.875452 0.000000 0.765244
O O17 0.753863 0.783946 0.976355
O O18 0.740458 0.500000 0.841099
O O19 0.164512 0.500000 0.753471
O O20 0.000000 0.713500 0.000000
O O21 0.387750 0.000000 0.795137
#
# Coordination Sequence:
#
# PCOD8061877 Si02
#       8
#     4   4   4   4   4   4   4   4
#     4  10  22  38  54  80 112 141 178 228 278 325
#     4  10  19  34  56  80 108 141 182 224 261 314
#     4   9  18  33  54  80 105 132 171 217 261 308
#     4  10  20  36  58  81 107 141 182 226 276 325
#     4  11  22  37  55  79 112 146 183 223 269 323
#     4  10  20  36  60  82 104 139 184 228 273 326
#     4   9  18  34  55  78 107 139 174 216 263 314
#     4   9  19  35  54  76 105 142 180 217 255 310
#
# _framework density 18.327067
#
# number of rings (size 3 to 8) (size 9 to 14) (size 15 to 20)
#    0.000    2.250    1.250    1.500    0.000    6.000 
#    2.250    0.000    0.000    2.250    0.000    0.000 
#    0.000    0.000    0.000    0.000    0.000    0.000 
#
# Total GULP energy -396932.327324 kJ/mol
# GULP energy per Si atom -12404.135229 kJ/mol
# Density = 1.828535 g / cm^3
# Si number density = 18.327067 Si / 1000 Ang^3
#
#
#
# Elastic Constant Matrix: (Units=GPa)
#
#
# Indices 1 2 3 4 5 6 
#
# 1 85.2304 31.9782 28.1444 0.0000 20.7177 0.0000
# 2 31.9782 58.3967 39.9342 0.0000 14.7630 0.0000
# 3 28.1444 39.9342 99.0795 0.0000 18.0017 0.0000
# 4 0.0000 0.0000 0.0000 28.7147 0.0000 0.5935
# 5 20.7177 14.7630 18.0017 0.0000 30.4277 0.0000
# 6 0.0000 0.0000 0.0000 0.5935 0.0000 16.0349
#
#
#
# Elastic Compliance Matrix: (Units=1/GPa)
#
#
# Indices 1 2 3 4 5 6 
#
# 1 0.016221 -0.006581 -0.000592 0.000000 -0.007501 0.000000
# 2 -0.006581 0.027530 -0.008531 0.000000 -0.003829 0.000000
# 3 -0.000592 -0.008531 0.014425 0.000000 -0.003992 0.000000
# 4 0.000000 0.000000 0.000000 0.034852 0.000000 -0.001290
# 5 -0.007501 -0.003829 -0.003992 0.000000 0.042192 0.000000
# 6 0.000000 0.000000 0.000000 -0.001290 0.000000 0.062412
#
#
# Mechanical properties :
#
#
# Convention : Reuss Voigt Hill
#
# Bulk Modulus (GPa) = 37.35957 49.20225 43.28091
# Shear Modulus (GPa) = 21.01172 24.54544 22.77858
#
# Velocity S-wave (km/s) = 3.38965 3.66362 3.52929
# Velocity P-wave (km/s) = 5.97903 6.69337 6.34626
#
# Compressibility (1/GPa) = 0.02676690
#
# Stress axis : x y z
#
# Youngs Moduli (GPa) = 61.64787 36.32408 69.32518
#
# Poissons Ratio (x) = 0.23906 0.04106
# Poissons Ratio (y) = 0.40573 0.59140
# Poissons Ratio (z) = 0.03651 0.30988
#
# Static dielectric constant tensor:
#      x y z
#    x 3.328520 0.000000 0.065520 
#    y 0.000000 3.323860 0.000000 
#    z 0.065520 0.000000 3.402530 
# 
# 
# High freq. dielectric constant tensor:
#      x y z
#    x 1.707690 0.000000 0.009190 
#    y 0.000000 1.706260 0.000000 
#    z 0.009190 0.000000 1.711290 
# 
# From -- ./inp_files/86759.got.cif
#   From: 2010.06.25/outbox.cif.g09.slc.cpg/sg10_44_cif.got.tgz:86759.got - 2010.06.27 22:07:45.
