data_PCOD8061039
_publ_section_title
;
Structure prediction by ZEFSAII (Michael W. Deem and Ramdas Pophale) SiO2 
 PCOD8061039
Probable space group: P 2/M
;
_chemical_formula_sum "Si O2"
_cell_formula_units_Z 28
_cell_length_a 13.897971
_cell_length_b 13.989764
_cell_length_c 14.791430
_cell_angle_alpha 90.000000
_cell_angle_beta 30.533280
_cell_angle_gamma 90.000000
_cell_volume 1461.062491
_symmetry_space_group_name_H-M "P 2/M"
_symmetry_group_IT_number 10
_symmetry_cell_setting 'monoclinic'
loop_
_space_group_symop_operation_xyz
x,y,z
-x,y,-z
-x,-y,-z
x,-y,z
loop_
_atom_site_type_symbol
_atom_site_label
_atom_site_fract_x
_atom_site_fract_y
_atom_site_fract_z
Si Si1 0.680202 0.240137 0.637457
Si Si2 0.327828 0.390789 0.209258
Si Si3 0.233306 0.391910 0.701040
Si Si4 0.782814 0.106530 0.705011
Si Si5 0.168522 0.393563 0.048576
Si Si6 0.111803 0.267288 0.260175
Si Si7 0.460924 0.333494 0.675673
O O1 0.627966 0.337311 0.733028
O O2 0.659177 0.149730 0.721960
O O3 0.533982 0.237390 0.670070
O O4 0.891914 0.244160 0.425891
O O5 0.288928 0.500000 0.264369
O O6 0.139045 0.344298 0.318502
O O7 0.500000 0.378154 0.000000
O O8 0.252057 0.500000 0.724466
O O9 0.321210 0.316564 0.702745
O O10 0.350335 0.386697 0.512563
O O11 0.016259 0.365858 0.859927
O O12 0.768490 0.172189 0.806921
O O13 0.000000 0.105843 0.500000
O O14 0.708374 0.000000 0.786896
O O15 0.145306 0.500000 0.111335
O O16 0.198965 0.311723 0.098659
O O17 0.347231 0.398279 0.838415
#
# Coordination Sequence:
#
# PCOD8061039 Si02
#       7
#     4   4   4   4   4   4   4
#     4  10  20  32  50  74 102 132 170 215 260 310
#     4  10  20  31  43  63  95 136 173 202 241 299
#     4  10  21  35  50  72 102 141 189 224 253 298
#     4   8  16  33  57  79 102 133 169 212 266 321
#     4  11  21  33  51  74 107 147 183 216 252 299
#     4  10  19  33  48  74 104 131 170 214 258 307
#     4  11  20  34  51  72 103 140 177 223 259 296
#
# _framework density 19.164135000000002
#
# number of rings (size 3 to 8) (size 9 to 14) (size 15 to 20)
#    0.000    2.000    1.429    4.714    0.000    5.714 
#    0.000    0.000    0.000   15.429    0.000    3.000 
#    0.000    2.286    0.000    0.000    0.000    0.000 
#
# Total GULP energy -346929.525442 kJ/mol
# GULP energy per Si atom -12390.340194 kJ/mol
# Density = 1.912052 g / cm^3
# Si number density = 19.164135 Si / 1000 Ang^3
#
#
#
# Elastic Constant Matrix: (Units=GPa)
#
#
# Indices 1 2 3 4 5 6 
#
# 1 130.9167 57.9931 26.8802 0.0000 -0.1308 0.0000
# 2 57.9931 123.3147 20.1282 0.0000 8.6664 0.0000
# 3 26.8802 20.1282 65.4645 0.0000 7.7822 0.0000
# 4 0.0000 0.0000 0.0000 9.5748 0.0000 3.5458
# 5 -0.1308 8.6664 7.7822 0.0000 26.3795 0.0000
# 6 0.0000 0.0000 0.0000 3.5458 0.0000 20.6868
#
#
#
# Elastic Compliance Matrix: (Units=1/GPa)
#
#
# Indices 1 2 3 4 5 6 
#
# 1 0.010273 -0.004493 -0.003128 0.000000 0.002450 0.000000
# 2 -0.004493 0.010617 -0.001039 0.000000 -0.003204 0.000000
# 3 -0.003128 -0.001039 0.017453 0.000000 -0.004823 0.000000
# 4 0.000000 0.000000 0.000000 0.111520 0.000000 -0.019115
# 5 0.002450 -0.003204 -0.004823 0.000000 0.040396 0.000000
# 6 0.000000 0.000000 0.000000 -0.019115 0.000000 0.051616
#
#
# Mechanical properties :
#
#
# Convention : Reuss Voigt Hill
#
# Bulk Modulus (GPa) = 47.56593 58.85544 53.21068
# Shear Modulus (GPa) = 18.78269 25.64118 22.21194
#
# Velocity S-wave (km/s) = 3.13404 3.66181 3.40816
# Velocity P-wave (km/s) = 6.16202 6.97541 6.58129
#
# Compressibility (1/GPa) = 0.02102345
#
# Stress axis : x y z
#
# Youngs Moduli (GPa) = 97.33793 94.18816 57.29807
#
# Poissons Ratio (x) = 0.42319 0.17924
# Poissons Ratio (y) = 0.43734 0.05951
# Poissons Ratio (z) = 0.30449 0.09783
#
# Static dielectric constant tensor:
#      x y z
#    x 3.675300 0.000000 -0.027030 
#    y 0.000000 3.353050 0.000000 
#    z -0.027030 0.000000 3.511430 
# 
# 
# High freq. dielectric constant tensor:
#      x y z
#    x 1.748880 0.000000 -0.006050 
#    y 0.000000 1.686090 0.000000 
#    z -0.006050 0.000000 1.753810 
# 
# From -- ./inp_files/67543.got.cif
#   From: 2010.06.25/outbox.cif.g09.slc.cpg/sg10_34_cif.got.tgz:67543.got - 2010.06.27 22:07:45.
