data_PCOD8061255
_publ_section_title
;
Structure prediction by ZEFSAII (Michael W. Deem and Ramdas Pophale) SiO2 
 PCOD8061255
Probable space group: P 2/M
;
_chemical_formula_sum "Si O2"
_cell_formula_units_Z 32
_cell_length_a 12.861997
_cell_length_b 9.225442
_cell_length_c 31.748699
_cell_angle_alpha 90.000000
_cell_angle_beta 26.757435
_cell_angle_gamma 90.000000
_cell_volume 1696.058469
_symmetry_space_group_name_H-M "P 2/M"
_symmetry_group_IT_number 10
_symmetry_cell_setting 'monoclinic'
loop_
_space_group_symop_operation_xyz
x,y,z
-x,y,-z
-x,-y,-z
x,-y,z
loop_
_atom_site_type_symbol
_atom_site_label
_atom_site_fract_x
_atom_site_fract_y
_atom_site_fract_z
Si Si1 0.157503 0.328542 0.705492
Si Si2 0.252768 0.829377 0.893403
Si Si3 0.091517 0.836026 0.646923
Si Si4 0.443541 0.838498 0.140269
Si Si5 0.549679 0.329869 0.626418
Si Si6 0.545029 0.327713 0.723076
Si Si7 0.036366 0.670156 0.582522
Si Si8 0.633332 0.669746 0.911160
O O1 0.180836 0.500000 0.689106
O O2 0.214849 0.249016 0.640598
O O3 0.338538 0.269324 0.674552
O O4 0.903270 0.287437 0.814736
O O5 0.423090 0.774450 0.868206
O O6 0.324236 0.744118 0.825456
O O7 0.274190 0.000000 0.876777
O O8 0.000000 0.784567 0.000000
O O9 0.132837 0.754598 0.588093
O O10 0.822692 0.837663 0.752853
O O11 0.189469 0.000000 0.608814
O O12 0.497384 0.739105 0.081003
O O13 0.533115 0.000000 0.097758
O O14 0.517833 0.500000 0.641196
O O15 0.545824 0.266190 0.675055
O O16 0.794517 0.290747 0.517121
O O17 0.519594 0.500000 0.733209
O O18 0.780915 0.279462 0.661155
O O19 0.041475 0.500000 0.591278
O O20 0.601236 0.500000 0.918567
O O21 0.500000 0.730490 0.000000
#
# Coordination Sequence:
#
# PCOD8061255 Si02
#       8
#     4   4   4   4   4   4   4   4
#     4   9  18  34  53  73 104 142 177 214 266 323
#     4  10  21  37  55  77 107 142 177 215 266 321
#     4  10  19  33  54  77 104 136 175 223 265 309
#     4   9  18  33  51  71  98 134 171 209 255 309
#     4   9  19  35  54  78 109 144 178 219 270 324
#     4  10  20  35  57  82 108 138 179 227 267 312
#     4  10  19  33  56  81 105 139 182 220 266 324
#     4   9  18  31  50  76 101 130 170 216 262 309
#
# _framework density 18.867274999999999
#
# number of rings (size 3 to 8) (size 9 to 14) (size 15 to 20)
#    0.000    2.500    1.250    0.750    0.000    4.500 
#    0.000    5.625    0.000    1.500    0.000    0.000 
#    0.000    0.000    0.000    0.000    0.000    0.000 
#
# Total GULP energy -396785.029872 kJ/mol
# GULP energy per Si atom -12399.532184 kJ/mol
# Density = 1.882433 g / cm^3
# Si number density = 18.867275 Si / 1000 Ang^3
#
#
#
# Elastic Constant Matrix: (Units=GPa)
#
#
# Indices 1 2 3 4 5 6 
#
# 1 127.2930 37.8508 57.4425 0.0000 17.2296 0.0000
# 2 37.8508 43.9338 35.1009 0.0000 8.7717 0.0000
# 3 57.4425 35.1009 93.1856 0.0000 19.1176 0.0000
# 4 0.0000 0.0000 0.0000 12.4855 0.0000 -2.7314
# 5 17.2296 8.7717 19.1176 0.0000 31.9967 0.0000
# 6 0.0000 0.0000 0.0000 -2.7314 0.0000 17.7684
#
#
#
# Elastic Compliance Matrix: (Units=1/GPa)
#
#
# Indices 1 2 3 4 5 6 
#
# 1 0.012112 -0.006292 -0.004686 0.000000 -0.001997 0.000000
# 2 -0.006292 0.035923 -0.009491 0.000000 -0.000789 0.000000
# 3 -0.004686 -0.009491 0.018399 0.000000 -0.005868 0.000000
# 4 0.000000 0.000000 0.000000 0.082880 0.000000 0.012741
# 5 -0.001997 -0.000789 -0.005868 0.000000 0.036051 0.000000
# 6 0.000000 0.000000 0.000000 0.012741 0.000000 0.058238
#
#
# Mechanical properties :
#
#
# Convention : Reuss Voigt Hill
#
# Bulk Modulus (GPa) = 39.22325 58.35565 48.78945
# Shear Modulus (GPa) = 17.06254 21.38464 19.22359
#
# Velocity S-wave (km/s) = 3.01050 3.37029 3.19546
# Velocity P-wave (km/s) = 5.73745 6.79278 6.28729
#
# Compressibility (1/GPa) = 0.02549508
#
# Stress axis : x y z
#
# Youngs Moduli (GPa) = 82.56313 27.83767 54.35118
#
# Poissons Ratio (x) = 0.17515 0.25471
# Poissons Ratio (y) = 0.51949 0.51583
# Poissons Ratio (z) = 0.38692 0.26420
#
# Static dielectric constant tensor:
#      x y z
#    x 3.716090 0.000000 0.059660 
#    y 0.000000 3.322940 0.000000 
#    z 0.059660 0.000000 3.428600 
# 
# 
# High freq. dielectric constant tensor:
#      x y z
#    x 1.741170 0.000000 0.004670 
#    y 0.000000 1.709380 0.000000 
#    z 0.004670 0.000000 1.730790 
# 
# From -- ./inp_files/63755.got.cif
#   From: 2010.06.25/outbox.cif.g09.slc.cpg/sg10_32_cif.got.tgz:63755.got - 2010.06.27 22:07:45.
