data_PCOD8061307
_publ_section_title
;
Structure prediction by ZEFSAII (Michael W. Deem and Ramdas Pophale) SiO2 
 PCOD8061307
Probable space group: P 2/M
;
_chemical_formula_sum "Si O2"
_cell_formula_units_Z 28
_cell_length_a 13.879662
_cell_length_b 9.112320
_cell_length_c 17.491356
_cell_angle_alpha 90.000000
_cell_angle_beta 136.699624
_cell_angle_gamma 90.000000
_cell_volume 1517.202184
_symmetry_space_group_name_H-M "P 2/M"
_symmetry_group_IT_number 10
_symmetry_cell_setting 'monoclinic'
loop_
_space_group_symop_operation_xyz
x,y,z
-x,y,-z
-x,-y,-z
x,-y,z
loop_
_atom_site_type_symbol
_atom_site_label
_atom_site_fract_x
_atom_site_fract_y
_atom_site_fract_z
Si Si1 0.685616 0.673124 0.333707
Si Si2 0.913992 0.832335 0.758437
Si Si3 0.847469 0.830943 0.887909
Si Si4 0.191523 0.328523 0.882468
Si Si5 0.168850 0.833394 0.452964
Si Si6 0.367088 0.329623 0.129399
Si Si7 0.841849 0.170184 0.289110
O O1 0.703707 0.500000 0.335086
O O2 0.730108 0.721990 0.444402
O O3 0.526796 0.724415 0.227214
O O4 0.786609 0.753654 0.333013
O O5 0.825098 0.808523 0.784138
O O6 0.814533 0.800550 0.628065
O O7 0.046790 0.725314 0.836274
O O8 0.971174 0.000000 0.785901
O O9 0.723414 0.749180 0.858572
O O10 0.839188 0.000000 0.907428
O O11 0.000000 0.767614 0.000000
O O12 0.179568 0.500000 0.857049
O O13 0.228489 0.243905 0.825887
O O14 0.314689 0.294120 0.013755
O O15 0.008177 0.805832 0.383615
O O16 0.213043 0.000000 0.498032
O O17 0.354350 0.500000 0.140378
O O18 0.801017 0.000000 0.266521
#
# Coordination Sequence:
#
# PCOD8061307 Si02
#       7
#     4   4   4   4   4   4   4
#     4  11  23  38  54  76 109 146 185 224 264 315
#     4   9  18  34  55  83 113 137 171 226 275 312
#     4  10  19  33  58  86 109 138 180 223 265 319
#     4  10  19  33  54  80 109 142 179 217 266 322
#     4   9  19  36  57  79 107 140 177 221 271 320
#     4  10  23  38  52  77 114 149 178 218 270 321
#     4  10  21  37  58  82 108 138 178 226 274 319
#
# _framework density 18.455022
#
# number of rings (size 3 to 8) (size 9 to 14) (size 15 to 20)
#    0.000    2.143    1.429    2.571    0.000    7.714 
#    0.000    3.571    0.000    4.286    0.000    0.000 
#    0.000    0.000    0.000    0.000    0.000    0.000 
#
# Total GULP energy -347266.587335 kJ/mol
# GULP energy per Si atom -12402.378119 kJ/mol
# Density = 1.841302 g / cm^3
# Si number density = 18.455022 Si / 1000 Ang^3
#
#
#
# Elastic Constant Matrix: (Units=GPa)
#
#
# Indices 1 2 3 4 5 6 
#
# 1 44.8715 26.6838 33.5244 0.0000 -16.5638 0.0000
# 2 26.6838 76.1850 52.5833 0.0000 -5.9809 0.0000
# 3 33.5244 52.5833 119.6481 0.0000 -13.9380 0.0000
# 4 0.0000 0.0000 0.0000 28.7621 0.0000 -5.9129
# 5 -16.5638 -5.9809 -13.9380 0.0000 24.2895 0.0000
# 6 0.0000 0.0000 0.0000 -5.9129 0.0000 28.6838
#
#
#
# Elastic Compliance Matrix: (Units=1/GPa)
#
#
# Indices 1 2 3 4 5 6 
#
# 1 0.038939 -0.008827 -0.004491 0.000000 0.021803 0.000000
# 2 -0.008827 0.020842 -0.007276 0.000000 -0.005063 0.000000
# 3 -0.004491 -0.007276 0.013126 0.000000 0.002678 0.000000
# 4 0.000000 0.000000 0.000000 0.036307 0.000000 0.007484
# 5 0.021803 -0.005063 0.002678 0.000000 0.056328 0.000000
# 6 0.000000 0.000000 0.000000 0.007484 0.000000 0.036406
#
#
# Mechanical properties :
#
#
# Convention : Reuss Voigt Hill
#
# Bulk Modulus (GPa) = 31.52761 51.80975 41.66868
# Shear Modulus (GPa) = 19.70759 24.87461 22.29110
#
# Velocity S-wave (km/s) = 3.27138 3.67529 3.47920
# Velocity P-wave (km/s) = 5.60266 6.79300 6.22634
#
# Compressibility (1/GPa) = 0.03171823
#
# Stress axis : x y z
#
# Youngs Moduli (GPa) = 25.68135 47.97930 76.18450
#
# Poissons Ratio (x) = 0.42351 0.34216
# Poissons Ratio (y) = 0.22669 0.55435
# Poissons Ratio (z) = 0.11534 0.34912
#
# Static dielectric constant tensor:
#      x y z
#    x 3.284810 0.000000 -0.217410 
#    y 0.000000 3.408520 0.000000 
#    z -0.217410 0.000000 3.526030 
# 
# 
# High freq. dielectric constant tensor:
#      x y z
#    x 1.705410 0.000000 -0.022440 
#    y 0.000000 1.718570 0.000000 
#    z -0.022440 0.000000 1.716490 
# 
# From -- ./inp_files/70292.got.cif
#   From: 2010.06.25/outbox.cif.g09.slc.cpg/sg10_36_cif.got.tgz:70292.got - 2010.06.27 22:07:45.
