data_PCOD8061557
_publ_section_title
;
Structure prediction by ZEFSAII (Michael W. Deem and Ramdas Pophale) SiO2 
 PCOD8061557
Probable space group: P 2/M
;
_chemical_formula_sum "Si O2"
_cell_formula_units_Z 32
_cell_length_a 21.492550
_cell_length_b 8.795474
_cell_length_c 27.730648
_cell_angle_alpha 90.000000
_cell_angle_beta 161.115139
_cell_angle_gamma 90.000000
_cell_volume 1696.704488
_symmetry_space_group_name_H-M "P 2/M"
_symmetry_group_IT_number 10
_symmetry_cell_setting 'monoclinic'
loop_
_space_group_symop_operation_xyz
x,y,z
-x,y,-z
-x,-y,-z
x,-y,z
loop_
_atom_site_type_symbol
_atom_site_label
_atom_site_fract_x
_atom_site_fract_y
_atom_site_fract_z
Si Si1 0.499729 0.822609 0.946747
Si Si2 0.392381 0.323051 0.308160
Si Si3 0.218727 0.180779 0.659130
Si Si4 0.194667 0.823489 0.905893
Si Si5 0.482675 0.679087 0.189557
Si Si6 0.708625 0.822481 0.864657
Si Si7 0.899293 0.674740 0.821305
Si Si8 0.186939 0.324311 0.351088
O O1 0.327632 0.757895 0.786964
O O2 0.461900 0.000000 0.925418
O O3 0.500000 0.744488 0.000000
O O4 0.703747 0.790059 0.070845
O O5 0.378635 0.500000 0.284573
O O6 0.310996 0.224601 0.205006
O O7 0.266287 0.285480 0.262345
O O8 0.609694 0.273333 0.478410
O O9 0.322360 0.248134 0.688135
O O10 0.000000 0.238414 0.500000
O O11 0.232114 0.000000 0.665414
O O12 0.973796 0.775120 0.739646
O O13 0.214956 0.000000 0.934484
O O14 0.295780 0.727172 0.021953
O O15 0.503939 0.500000 0.204362
O O16 0.452444 0.735693 0.221961
O O17 0.673818 0.000000 0.844971
O O18 0.920791 0.783068 0.038474
O O19 0.967566 0.500000 0.876421
O O20 0.811216 0.707729 0.704439
O O21 0.144988 0.500000 0.331142
#
# Coordination Sequence:
#
# PCOD8061557 Si02
#       8
#     4   4   4   4   4   4   4   4
#     4   8  15  30  52  77 107 142 178 215 259 317
#     4  10  22  39  57  82 116 151 188 230 282 343
#     4   9  18  34  56  83 113 143 180 225 275 329
#     4  10  19  33  56  84 112 144 188 233 276 327
#     4  11  21  36  59  82 109 148 193 233 277 332
#     4  12  24  38  57  83 114 148 190 238 289 336
#     4  10  20  37  62  85 108 147 192 231 277 342
#     4  10  20  36  59  84 113 149 188 229 279 337
#
# _framework density 18.86009
#
# number of rings (size 3 to 8) (size 9 to 14) (size 15 to 20)
#    0.000    2.000    1.250    4.125    0.000    4.250 
#    2.250    0.000    0.000   11.625    0.000    0.000 
#    0.000    0.000    0.000    0.000    0.000    0.000 
#
# Total GULP energy -396880.801163 kJ/mol
# GULP energy per Si atom -12402.525036 kJ/mol
# Density = 1.881716 g / cm^3
# Si number density = 18.860090 Si / 1000 Ang^3
#
#
#
# Elastic Constant Matrix: (Units=GPa)
#
#
# Indices 1 2 3 4 5 6 
#
# 1 98.4395 25.3280 28.7411 0.0000 11.9009 0.0000
# 2 25.3280 57.7545 23.2193 0.0000 6.4744 0.0000
# 3 28.7411 23.2193 74.0095 0.0000 20.5466 0.0000
# 4 0.0000 0.0000 0.0000 23.6931 0.0000 9.9299
# 5 11.9009 6.4744 20.5466 0.0000 32.5468 0.0000
# 6 0.0000 0.0000 0.0000 9.9299 0.0000 20.2839
#
#
#
# Elastic Compliance Matrix: (Units=1/GPa)
#
#
# Indices 1 2 3 4 5 6 
#
# 1 0.012280 -0.003968 -0.003027 0.000000 -0.001790 0.000000
# 2 -0.003968 0.021096 -0.005232 0.000000 0.000557 0.000000
# 3 -0.003027 -0.005232 0.019076 0.000000 -0.009895 0.000000
# 4 0.000000 0.000000 0.000000 0.053101 0.000000 -0.025996
# 5 -0.001790 0.000557 -0.009895 0.000000 0.037515 0.000000
# 6 0.000000 0.000000 0.000000 -0.025996 0.000000 0.062026
#
#
# Mechanical properties :
#
#
# Convention : Reuss Voigt Hill
#
# Bulk Modulus (GPa) = 35.71788 42.75339 39.23563
# Shear Modulus (GPa) = 20.93099 25.49909 23.21504
#
# Velocity S-wave (km/s) = 3.33499 3.68096 3.51224
# Velocity P-wave (km/s) = 5.81455 6.38623 6.10708
#
# Compressibility (1/GPa) = 0.02799718
#
# Stress axis : x y z
#
# Youngs Moduli (GPa) = 81.43638 47.40294 52.42209
#
# Poissons Ratio (x) = 0.18807 0.15868
# Poissons Ratio (y) = 0.32310 0.27430
# Poissons Ratio (z) = 0.24651 0.24803
#
# Static dielectric constant tensor:
#      x y z
#    x 3.661320 0.000000 0.047260 
#    y 0.000000 3.272040 0.000000 
#    z 0.047260 0.000000 3.458930 
# 
# 
# High freq. dielectric constant tensor:
#      x y z
#    x 1.742480 0.000000 0.009040 
#    y 0.000000 1.716000 0.000000 
#    z 0.009040 0.000000 1.725840 
# 
# From -- ./inp_files/93787.got.cif
#   From: 2010.06.25/outbox.cif.g09.slc.cpg/sg10_47_cif.got.tgz:93787.got - 2010.06.27 22:07:45.
