data_PCOD8061906
_publ_section_title
;
Structure prediction by ZEFSAII (Michael W. Deem and Ramdas Pophale) SiO2 
 PCOD8061906
Probable space group: P 2/M
;
_chemical_formula_sum "Si O2"
_cell_formula_units_Z 28
_cell_length_a 14.974503
_cell_length_b 8.821923
_cell_length_c 11.854909
_cell_angle_alpha 90.000000
_cell_angle_beta 119.593513
_cell_angle_gamma 90.000000
_cell_volume 1361.786070
_symmetry_space_group_name_H-M "P 2/M"
_symmetry_group_IT_number 10
_symmetry_cell_setting 'monoclinic'
loop_
_space_group_symop_operation_xyz
x,y,z
-x,y,-z
-x,-y,-z
x,-y,z
loop_
_atom_site_type_symbol
_atom_site_label
_atom_site_fract_x
_atom_site_fract_y
_atom_site_fract_z
Si Si1 0.520305 0.670467 0.887775
Si Si2 0.813965 0.673850 0.115847
Si Si3 0.689284 0.176380 0.855265
Si Si4 0.292338 0.332664 0.728702
Si Si5 0.013244 0.678774 0.377893
Si Si6 0.779345 0.824172 0.520474
Si Si7 0.618410 0.320302 0.582955
O O1 0.569657 0.500000 0.916525
O O2 0.588623 0.790884 0.865777
O O3 0.409367 0.665663 0.759849
O O4 0.500000 0.729726 0.000000
O O5 0.825867 0.500000 0.086868
O O6 0.718612 0.698540 0.143706
O O7 0.915440 0.731784 0.243358
O O8 0.789904 0.767984 0.987183
O O9 0.676739 0.262974 0.730362
O O10 0.700047 0.000000 0.836586
O O11 0.242467 0.500000 0.674436
O O12 0.231322 0.206917 0.620138
O O13 0.029084 0.500000 0.380930
O O14 0.109401 0.759507 0.376531
O O15 0.000000 0.730555 0.500000
O O16 0.685153 0.738638 0.520581
O O17 0.773383 0.000000 0.545784
O O18 0.500000 0.261105 0.500000
O O19 0.618507 0.500000 0.584012
#
# Coordination Sequence:
#
# PCOD8061906 Si02
#       7
#     4   4   4   4   4   4   4
#     4  10  19  34  56  82 116 160 208 251 295 362
#     4  10  20  38  63  89 121 164 212 257 301 362
#     4  12  25  39  59  90 131 165 199 258 326 381
#     4  10  19  35  59  86 119 162 211 256 299 361
#     4  10  20  39  66  93 124 167 218 264 305 364
#     4  12  25  39  61  94 132 164 200 259 326 381
#     4  11  25  47  72  92 117 164 222 265 302 368
#
# _framework density 20.561232
#
# number of rings (size 3 to 8) (size 9 to 14) (size 15 to 20)
#    0.000    1.286    2.857    3.857    0.000    6.857 
#    0.000    0.714    0.000    4.286    0.000    0.000 
#    0.000    0.000    0.000    0.000    0.000    0.000 
#
# Total GULP energy -347172.278420 kJ/mol
# GULP energy per Si atom -12399.009944 kJ/mol
# Density = 2.051443 g / cm^3
# Si number density = 20.561232 Si / 1000 Ang^3
#
#
#
# Elastic Constant Matrix: (Units=GPa)
#
#
# Indices 1 2 3 4 5 6 
#
# 1 81.2742 34.6172 26.4204 0.0000 11.4395 0.0000
# 2 34.6172 86.5113 38.0967 0.0000 4.8854 0.0000
# 3 26.4204 38.0967 117.8897 0.0000 8.8838 0.0000
# 4 0.0000 0.0000 0.0000 18.6375 0.0000 8.4821
# 5 11.4395 4.8854 8.8838 0.0000 30.9848 0.0000
# 6 0.0000 0.0000 0.0000 8.4821 0.0000 8.4452
#
#
#
# Elastic Compliance Matrix: (Units=1/GPa)
#
#
# Indices 1 2 3 4 5 6 
#
# 1 0.015708 -0.005398 -0.001434 0.000000 -0.004537 0.000000
# 2 -0.005398 0.015356 -0.003803 0.000000 0.000662 0.000000
# 3 -0.001434 -0.003803 0.010167 0.000000 -0.001786 0.000000
# 4 0.000000 0.000000 0.000000 0.098830 0.000000 -0.099263
# 5 -0.004537 0.000662 -0.001786 0.000000 0.034357 0.000000
# 6 0.000000 0.000000 0.000000 -0.099263 0.000000 0.218108
#
#
# Mechanical properties :
#
#
# Convention : Reuss Voigt Hill
#
# Bulk Modulus (GPa) = 50.09385 53.77155 51.93270
# Shear Modulus (GPa) = 11.89204 24.04956 17.97080
#
# Velocity S-wave (km/s) = 2.40755 3.42373 2.95958
# Velocity P-wave (km/s) = 5.66961 6.46823 6.08204
#
# Compressibility (1/GPa) = 0.01996253
#
# Stress axis : x y z
#
# Youngs Moduli (GPa) = 63.66241 65.12012 98.35413
#
# Poissons Ratio (x) = 0.35150 0.14105
# Poissons Ratio (y) = 0.34363 0.37401
# Poissons Ratio (z) = 0.09130 0.24763
#
# Static dielectric constant tensor:
#      x y z
#    x 3.756320 0.000000 0.141540 
#    y 0.000000 3.443100 0.000000 
#    z 0.141540 0.000000 3.868960 
# 
# 
# High freq. dielectric constant tensor:
#      x y z
#    x 1.793990 0.000000 0.014410 
#    y 0.000000 1.782000 0.000000 
#    z 0.014410 0.000000 1.813120 
# 
# From -- ./inp_files/50046.got.cif
#   From: 2010.06.25/outbox.cif.g09.slc.cpg/sg10_26_cif.got.tgz:50046.got - 2010.06.27 22:07:45.
