data_PCOD8061599
_publ_section_title
;
Structure prediction by ZEFSAII (Michael W. Deem and Ramdas Pophale) SiO2 
 PCOD8061599
Probable space group: P 2/M
;
_chemical_formula_sum "Si O2"
_cell_formula_units_Z 32
_cell_length_a 13.670852
_cell_length_b 12.814848
_cell_length_c 13.901893
_cell_angle_alpha 90.000000
_cell_angle_beta 138.112069
_cell_angle_gamma 90.000000
_cell_volume 1626.105015
_symmetry_space_group_name_H-M "P 2/M"
_symmetry_group_IT_number 10
_symmetry_cell_setting 'monoclinic'
loop_
_space_group_symop_operation_xyz
x,y,z
-x,y,-z
-x,-y,-z
x,-y,z
loop_
_atom_site_type_symbol
_atom_site_label
_atom_site_fract_x
_atom_site_fract_y
_atom_site_fract_z
Si Si1 0.123626 0.193857 0.712554
Si Si2 0.665681 0.886176 0.653526
Si Si3 0.690462 0.747924 0.500494
Si Si4 0.600118 0.122016 0.982751
Si Si5 0.892650 0.380769 0.003494
Si Si6 0.817998 0.883026 0.442517
Si Si7 0.614702 0.764510 0.796468
Si Si8 0.029247 0.618114 0.310691
O O1 0.230875 0.146743 0.870687
O O2 0.198514 0.191614 0.662432
O O3 0.980887 0.120418 0.606178
O O4 0.078251 0.312663 0.702337
O O5 0.500000 0.898449 0.500000
O O6 0.732002 0.793272 0.636322
O O7 0.679177 0.855523 0.775454
O O8 0.743468 0.000000 0.697136
O O9 0.704249 0.846014 0.438653
O O10 0.522740 0.710350 0.361235
O O11 0.802504 0.655731 0.556936
O O12 0.577213 0.000000 0.944665
O O13 0.500000 0.157717 0.000000
O O14 0.560766 0.188125 0.858840
O O15 0.853040 0.500000 0.949235
O O16 0.981722 0.372127 0.166561
O O17 0.739783 0.321140 0.902178
O O18 0.000000 0.333859 0.000000
O O19 0.778060 0.000000 0.381454
O O20 0.019521 0.500000 0.341561
#
# Coordination Sequence:
#
# PCOD8061599 Si02
#       8
#     4   4   4   4   4   4   4   4
#     4  10  19  35  54  81 113 151 193 245 287 339
#     4   9  18  33  53  79 116 155 187 224 284 346
#     4  10  21  35  57  86 115 153 194 244 289 346
#     4  11  22  35  56  86 122 159 195 235 287 351
#     4  10  21  39  63  84 109 153 201 244 297 356
#     4  10  19  33  57  83 114 153 200 238 280 345
#     4  11  21  36  58  88 121 152 193 245 295 346
#     4  10  21  39  60  81 111 152 197 245 298 351
#
# _framework density 19.678925
#
# number of rings (size 3 to 8) (size 9 to 14) (size 15 to 20)
#    0.000    1.875    1.250    3.750    0.000    3.000 
#    0.000    5.000    0.000    9.000    0.000    0.000 
#    0.000    0.000    0.000    0.000    0.000    0.000 
#
# Total GULP energy -396710.595508 kJ/mol
# GULP energy per Si atom -12397.206110 kJ/mol
# Density = 1.963413 g / cm^3
# Si number density = 19.678925 Si / 1000 Ang^3
#
#
#
# Elastic Constant Matrix: (Units=GPa)
#
#
# Indices 1 2 3 4 5 6 
#
# 1 98.0130 46.0757 20.0093 0.0000 -16.9295 0.0000
# 2 46.0757 111.4969 30.1484 0.0000 -3.6556 0.0000
# 3 20.0093 30.1484 87.6907 0.0000 -0.5824 0.0000
# 4 0.0000 0.0000 0.0000 7.6830 0.0000 -4.0168
# 5 -16.9295 -3.6556 -0.5824 0.0000 32.2955 0.0000
# 6 0.0000 0.0000 0.0000 -4.0168 0.0000 26.8042
#
#
#
# Elastic Compliance Matrix: (Units=1/GPa)
#
#
# Indices 1 2 3 4 5 6 
#
# 1 0.014118 -0.005240 -0.001375 0.000000 0.006783 0.000000
# 2 -0.005240 0.011869 -0.002895 0.000000 -0.001456 0.000000
# 3 -0.001375 -0.002895 0.012707 0.000000 -0.000819 0.000000
# 4 0.000000 0.000000 0.000000 0.141222 0.000000 0.021163
# 5 0.006783 -0.001456 -0.000819 0.000000 0.034340 0.000000
# 6 0.000000 0.000000 0.000000 0.021163 0.000000 0.040479
#
#
# Mechanical properties :
#
#
# Convention : Reuss Voigt Hill
#
# Bulk Modulus (GPa) = 50.82492 54.40749 52.61620
# Shear Modulus (GPa) = 17.83714 26.75436 22.29575
#
# Velocity S-wave (km/s) = 3.01393 3.69120 3.36962
# Velocity P-wave (km/s) = 6.16399 6.77305 6.47569
#
# Compressibility (1/GPa) = 0.01967539
#
# Stress axis : x y z
#
# Youngs Moduli (GPa) = 70.82936 84.25059 78.69553
#
# Poissons Ratio (x) = 0.44149 0.10820
# Poissons Ratio (y) = 0.37116 0.22780
# Poissons Ratio (z) = 0.09738 0.24388
#
# Static dielectric constant tensor:
#      x y z
#    x 3.660600 0.000000 -0.080200 
#    y 0.000000 3.540920 0.000000 
#    z -0.080200 0.000000 3.606740 
# 
# 
# High freq. dielectric constant tensor:
#      x y z
#    x 1.769280 0.000000 -0.007060 
#    y 0.000000 1.745160 0.000000 
#    z -0.007060 0.000000 1.771230 
# 
# From -- ./inp_files/67374.got.cif
#   From: 2010.06.25/outbox.cif.g09.slc.cpg/sg10_34_cif.got.tgz:67374.got - 2010.06.27 22:07:45.
