data_PCOD8061209
_publ_section_title
;
Structure prediction by ZEFSAII (Michael W. Deem and Ramdas Pophale) SiO2 
 PCOD8061209
Probable space group: P 2/M
;
_chemical_formula_sum "Si O2"
_cell_formula_units_Z 32
_cell_length_a 19.850648
_cell_length_b 9.268531
_cell_length_c 25.592215
_cell_angle_alpha 90.000000
_cell_angle_beta 21.856810
_cell_angle_gamma 90.000000
_cell_volume 1752.963283
_symmetry_space_group_name_H-M "P 2/M"
_symmetry_group_IT_number 10
_symmetry_cell_setting 'monoclinic'
loop_
_space_group_symop_operation_xyz
x,y,z
-x,y,-z
-x,-y,-z
x,-y,z
loop_
_atom_site_type_symbol
_atom_site_label
_atom_site_fract_x
_atom_site_fract_y
_atom_site_fract_z
Si Si1 0.003044 0.832027 0.581918
Si Si2 0.459818 0.666687 0.731894
Si Si3 0.983494 0.671369 0.217379
Si Si4 0.869876 0.669113 0.412413
Si Si5 0.290412 0.832208 0.289293
Si Si6 0.794208 0.169351 0.162058
Si Si7 0.383839 0.667605 0.906274
Si Si8 0.300054 0.330441 0.664236
O O1 0.811574 0.801001 0.691748
O O2 0.007277 0.745094 0.632595
O O3 0.164638 0.779782 0.427738
O O4 0.024914 0.000000 0.578491
O O5 0.414467 0.500000 0.751675
O O6 0.660669 0.707834 0.569933
O O7 0.323324 0.770354 0.800665
O O8 0.441749 0.699467 0.805757
O O9 0.976651 0.500000 0.221861
O O10 0.928831 0.729683 0.313654
O O11 0.841522 0.728566 0.276732
O O12 0.182676 0.729364 0.060046
O O13 0.904563 0.500000 0.392672
O O14 0.478370 0.746560 0.153916
O O15 0.333061 0.000000 0.264617
O O16 0.735270 0.246844 0.257245
O O17 0.760140 0.000000 0.192689
O O18 0.000000 0.205290 0.000000
O O19 0.391150 0.500000 0.914790
O O20 0.500000 0.295794 0.500000
O O21 0.275417 0.500000 0.692866
#
# Coordination Sequence:
#
# PCOD8061209 Si02
#       8
#     4   4   4   4   4   4   4   4
#     4   9  18  33  53  78 107 139 174 215 264 311
#     4  10  20  34  55  80 104 135 180 226 266 314
#     4   9  19  34  53  78 110 139 168 215 273 320
#     4  10  19  34  55  81 107 134 173 221 262 308
#     4   9  18  33  53  77 107 140 174 215 262 313
#     4  11  24  38  53  79 113 145 179 223 274 326
#     4  10  19  33  53  79 107 138 176 218 263 313
#     4  10  20  38  63  83 103 142 188 228 274 327
#
# _framework density 18.254804
#
# number of rings (size 3 to 8) (size 9 to 14) (size 15 to 20)
#    0.000    2.250    1.250    2.625    0.000    5.750 
#    0.000    3.750    0.000    3.750    0.000    0.000 
#    0.000    0.000    0.000    0.000    0.000    0.000 
#
# Total GULP energy -396877.492115 kJ/mol
# GULP energy per Si atom -12402.421629 kJ/mol
# Density = 1.821326 g / cm^3
# Si number density = 18.254804 Si / 1000 Ang^3
#
#
#
# Elastic Constant Matrix: (Units=GPa)
#
#
# Indices 1 2 3 4 5 6 
#
# 1 66.4059 39.7770 32.2255 0.0000 -27.4115 0.0000
# 2 39.7770 52.8525 40.5772 0.0000 -9.4102 0.0000
# 3 32.2255 40.5772 115.7863 0.0000 -17.2083 0.0000
# 4 0.0000 0.0000 0.0000 30.8958 0.0000 -26.3186
# 5 -27.4115 -9.4102 -17.2083 0.0000 31.4643 0.0000
# 6 0.0000 0.0000 0.0000 -26.3186 0.0000 72.7545
#
#
#
# Elastic Compliance Matrix: (Units=1/GPa)
#
#
# Indices 1 2 3 4 5 6 
#
# 1 0.044898 -0.030340 0.002832 0.000000 0.031590 0.000000
# 2 -0.030340 0.046655 -0.010624 0.000000 -0.018289 0.000000
# 3 0.002832 -0.010624 0.012481 0.000000 0.006115 0.000000
# 4 0.000000 0.000000 0.000000 0.046783 0.000000 0.016924
# 5 0.031590 -0.018289 0.006115 0.000000 0.057178 0.000000
# 6 0.000000 0.000000 0.000000 0.016924 0.000000 0.019867
#
#
# Mechanical properties :
#
#
# Convention : Reuss Voigt Hill
#
# Bulk Modulus (GPa) = 36.01209 51.13379 43.57294
# Shear Modulus (GPa) = 15.95490 35.18725 25.57108
#
# Velocity S-wave (km/s) = 2.95958 4.39516 3.74677
# Velocity P-wave (km/s) = 5.60795 7.33679 6.52984
#
# Compressibility (1/GPa) = 0.02776845
#
# Stress axis : x y z
#
# Youngs Moduli (GPa) = 22.27250 21.43394 80.12441
#
# Poissons Ratio (x) = 0.65031 -0.22688
# Poissons Ratio (y) = 0.67575 0.85125
# Poissons Ratio (z) = -0.06307 0.22772
#
# Static dielectric constant tensor:
#      x y z
#    x 3.399510 0.000000 -0.034900 
#    y 0.000000 3.155380 0.000000 
#    z -0.034900 0.000000 3.431310 
# 
# 
# High freq. dielectric constant tensor:
#      x y z
#    x 1.717390 0.000000 -0.007270 
#    y 0.000000 1.686890 0.000000 
#    z -0.007270 0.000000 1.708780 
# 
# From -- ./inp_files/93664.got.cif
#   From: 2010.06.25/outbox.cif.g09.slc.cpg/sg10_47_cif.got.tgz:93664.got - 2010.06.27 22:07:45.
