data_PCOD8061949
_publ_section_title
;
Structure prediction by ZEFSAII (Michael W. Deem and Ramdas Pophale) SiO2 
 PCOD8061949
Probable space group: P 2/M
;
_chemical_formula_sum "Si O2"
_cell_formula_units_Z 24
_cell_length_a 12.601171
_cell_length_b 7.415818
_cell_length_c 25.112414
_cell_angle_alpha 90.000000
_cell_angle_beta 147.101509
_cell_angle_gamma 90.000000
_cell_volume 1274.618104
_symmetry_space_group_name_H-M "P 2/M"
_symmetry_group_IT_number 10
_symmetry_cell_setting 'monoclinic'
loop_
_space_group_symop_operation_xyz
x,y,z
-x,y,-z
-x,-y,-z
x,-y,z
loop_
_atom_site_type_symbol
_atom_site_label
_atom_site_fract_x
_atom_site_fract_y
_atom_site_fract_z
Si Si1 0.655906 0.287401 0.393544
Si Si2 0.765120 0.287699 0.743768
Si Si3 0.683124 0.000000 0.883668
Si Si4 0.945358 0.000000 0.890200
Si Si5 0.955248 0.286176 0.605088
Si Si6 0.714861 0.713252 0.602609
Si Si7 0.634170 0.287236 0.263802
O O1 0.665443 0.500000 0.401299
O O2 0.448190 0.221598 0.327963
O O3 0.827373 0.204852 0.502506
O O4 0.684514 0.225004 0.345030
O O5 0.797958 0.500000 0.767178
O O6 0.922045 0.179329 0.844700
O O7 0.789846 0.232181 0.692551
O O8 0.789329 0.000000 0.871839
O O9 0.554119 0.180034 0.835862
O O10 0.835664 0.000000 0.995918
O O11 0.939701 0.500000 0.596685
O O12 0.869815 0.210946 0.624793
O O13 0.180864 0.229230 0.694224
O O14 0.500000 0.794842 0.500000
O O15 0.699995 0.500000 0.591625
O O16 0.587900 0.500000 0.240999
#
# Coordination Sequence:
#
# PCOD8061949 Si02
#       7
#     4   4   2   2   4   4   4
#     4   9  15  27  50  80 112 146 174 204 255 316
#     4  10  19  34  57  81 111 144 174 214 267 319
#     4  11  24  40  57  78 104 134 178 237 283 317
#     4  11  24  40  57  79 104 133 180 235 282 321
#     4   9  16  28  51  82 116 151 179 207 253 316
#     4   9  15  27  52  83 113 148 181 210 251 307
#     4  10  20  35  55  80 111 145 179 216 265 323
#
# _framework density 18.829170999999999
#
# number of rings (size 3 to 8) (size 9 to 14) (size 15 to 20)
#    0.000    2.333    3.333    0.500    0.000    2.667 
#    0.000    5.417    0.000    2.000    0.000    4.667 
#    0.000    0.000    0.000    0.000    0.000    0.000 
#
# Total GULP energy -297538.839683 kJ/mol
# GULP energy per Si atom -12397.451653 kJ/mol
# Density = 1.878631 g / cm^3
# Si number density = 18.829171 Si / 1000 Ang^3
#
#
#
# Elastic Constant Matrix: (Units=GPa)
#
#
# Indices 1 2 3 4 5 6 
#
# 1 156.0877 29.1112 77.4755 0.0000 5.7194 0.0000
# 2 29.1112 69.5022 50.9757 0.0000 -1.6665 0.0000
# 3 77.4755 50.9757 151.8527 0.0000 -1.6627 0.0000
# 4 0.0000 0.0000 0.0000 70.4183 0.0000 0.4351
# 5 5.7194 -1.6665 -1.6627 0.0000 24.5880 0.0000
# 6 0.0000 0.0000 0.0000 0.4351 0.0000 8.6762
#
#
#
# Elastic Compliance Matrix: (Units=1/GPa)
#
#
# Indices 1 2 3 4 5 6 
#
# 1 0.008727 -0.000567 -0.004288 0.000000 -0.002358 0.000000
# 2 -0.000567 0.019143 -0.006126 0.000000 0.001015 0.000000
# 3 -0.004288 -0.006126 0.010844 0.000000 0.001316 0.000000
# 4 0.000000 0.000000 0.000000 0.014205 0.000000 -0.000712
# 5 -0.002358 0.001015 0.001316 0.000000 0.041377 0.000000
# 6 0.000000 0.000000 0.000000 -0.000712 0.000000 0.115293
#
#
# Mechanical properties :
#
#
# Convention : Reuss Voigt Hill
#
# Bulk Modulus (GPa) = 59.69323 76.95193 68.32258
# Shear Modulus (GPa) = 21.08506 35.39518 28.24012
#
# Velocity S-wave (km/s) = 3.34998 4.34038 3.87694
# Velocity P-wave (km/s) = 6.83627 8.12869 7.51033
#
# Compressibility (1/GPa) = 0.01675232
#
# Stress axis : x y z
#
# Youngs Moduli (GPa) = 114.58316 52.23947 92.21751
#
# Poissons Ratio (x) = 0.02961 0.39545
# Poissons Ratio (y) = 0.06495 0.56490
# Poissons Ratio (z) = 0.49136 0.32000
#
# Static dielectric constant tensor:
#      x y z
#    x 3.763900 0.000000 -0.010940 
#    y 0.000000 3.219930 0.000000 
#    z -0.010940 0.000000 3.262810 
# 
# 
# High freq. dielectric constant tensor:
#      x y z
#    x 1.735350 0.000000 -0.001430 
#    y 0.000000 1.721370 0.000000 
#    z -0.001430 0.000000 1.700310 
# 
# From -- ./inp_files/55066.got.cif
#   From: 2010.06.25/outbox.cif.g09.slc.cpg/sg10_28_cif.got.tgz:55066.got - 2010.06.27 22:07:45.
