data_PCOD8061479
_publ_section_title
;
Structure prediction by ZEFSAII (Michael W. Deem and Ramdas Pophale) SiO2 
 PCOD8061479
Probable space group: P 2/M
;
_chemical_formula_sum "Si O2"
_cell_formula_units_Z 28
_cell_length_a 22.652206
_cell_length_b 11.096160
_cell_length_c 12.156656
_cell_angle_alpha 90.000000
_cell_angle_beta 28.126839
_cell_angle_gamma 90.000000
_cell_volume 1440.489145
_symmetry_space_group_name_H-M "P 2/M"
_symmetry_group_IT_number 10
_symmetry_cell_setting 'monoclinic'
loop_
_space_group_symop_operation_xyz
x,y,z
-x,y,-z
-x,-y,-z
x,-y,z
loop_
_atom_site_type_symbol
_atom_site_label
_atom_site_fract_x
_atom_site_fract_y
_atom_site_fract_z
Si Si1 0.710277 0.361887 0.107759
Si Si2 0.138130 0.359609 0.757156
Si Si3 0.647556 0.360044 0.445132
Si Si4 0.203074 0.248579 0.430106
Si Si5 0.402319 0.249860 0.916073
Si Si6 0.004072 0.636598 0.366469
Si Si7 0.491701 0.000000 0.836136
Si Si8 0.294622 0.000000 0.352544
O O1 0.674863 0.500000 0.133442
O O2 0.634248 0.315264 0.340232
O O3 0.684433 0.274910 0.047264
O O4 0.854449 0.354132 0.907768
O O5 0.126328 0.500000 0.800280
O O6 0.235122 0.299023 0.684214
O O7 0.194930 0.343217 0.542275
O O8 0.000000 0.300106 0.000000
O O9 0.675701 0.500000 0.393817
O O10 0.520159 0.338889 0.721144
O O11 0.079356 0.265543 0.559828
O O12 0.206602 0.116029 0.478778
O O13 0.325665 0.272978 0.154116
O O14 0.459485 0.115723 0.814867
O O15 0.952144 0.500000 0.433533
O O16 0.000000 0.671178 0.500000
O O17 0.636835 0.000000 0.640036
O O18 0.403677 0.000000 0.085386
#
# Coordination Sequence:
#
# PCOD8061479 Si02
#       8
#     4   4   4   4   4   4   2   2
#     4  10  20  36  56  81 119 155 182 221 279 342
#     4  10  21  37  57  82 113 148 184 228 282 342
#     4  10  21  35  53  80 114 150 182 223 284 342
#     4  11  21  36  59  84 109 145 191 237 277 330
#     4  11  21  35  57  83 108 144 191 235 279 330
#     4  10  19  33  55  85 116 146 181 222 276 339
#     4   9  20  38  56  76 109 150 189 233 285 338
#     4   9  20  38  57  79 110 149 188 231 290 333
#
# _framework density 19.437842
#
# number of rings (size 3 to 8) (size 9 to 14) (size 15 to 20)
#    0.000    1.857    1.429    3.000    0.000    6.857 
#    0.000    4.286    0.000    1.714    0.000    0.000 
#    0.000    0.000    0.000    0.000    0.000    0.000 
#
# Total GULP energy -347104.077325 kJ/mol
# GULP energy per Si atom -12396.574190 kJ/mol
# Density = 1.939360 g / cm^3
# Si number density = 19.437842 Si / 1000 Ang^3
#
#
#
# Elastic Constant Matrix: (Units=GPa)
#
#
# Indices 1 2 3 4 5 6 
#
# 1 122.4733 48.4401 46.8237 0.0000 -8.9449 0.0000
# 2 48.4401 57.1652 21.7234 0.0000 -7.8963 0.0000
# 3 46.8237 21.7234 96.7836 0.0000 3.3864 0.0000
# 4 0.0000 0.0000 0.0000 17.8354 0.0000 -4.6511
# 5 -8.9449 -7.8963 3.3864 0.0000 36.5036 0.0000
# 6 0.0000 0.0000 0.0000 -4.6511 0.0000 26.7434
#
#
#
# Elastic Compliance Matrix: (Units=1/GPa)
#
#
# Indices 1 2 3 4 5 6 
#
# 1 0.013932 -0.009822 -0.004596 0.000000 0.001716 0.000000
# 2 -0.009822 0.026833 -0.001394 0.000000 0.003527 0.000000
# 3 -0.004596 -0.001394 0.012961 0.000000 -0.002630 0.000000
# 4 0.000000 0.000000 0.000000 0.058732 0.000000 0.010215
# 5 0.001716 0.003527 -0.002630 0.000000 0.028822 0.000000
# 6 0.000000 0.000000 0.000000 0.010215 0.000000 0.039169
#
#
# Mechanical properties :
#
#
# Convention : Reuss Voigt Hill
#
# Bulk Modulus (GPa) = 45.24551 56.71073 50.97812
# Shear Modulus (GPa) = 22.78515 26.84545 24.81530
#
# Velocity S-wave (km/s) = 3.42746 3.72034 3.57690
# Velocity P-wave (km/s) = 6.24427 6.90603 6.58347
#
# Compressibility (1/GPa) = 0.02210164
#
# Stress axis : x y z
#
# Youngs Moduli (GPa) = 71.77569 37.26710 77.15625
#
# Poissons Ratio (x) = 0.36605 0.35459
# Poissons Ratio (y) = 0.70501 0.10757
# Poissons Ratio (z) = 0.32987 0.05196
#
# Static dielectric constant tensor:
#      x y z
#    x 3.796940 0.000000 -0.078540 
#    y 0.000000 3.384350 0.000000 
#    z -0.078540 0.000000 3.618260 
# 
# 
# High freq. dielectric constant tensor:
#      x y z
#    x 1.768110 0.000000 -0.004900 
#    y 0.000000 1.717120 0.000000 
#    z -0.004900 0.000000 1.761720 
# 
# From -- ./inp_files/55846.got.cif
#   From: 2010.06.25/outbox.cif.g09.slc.cpg/sg10_28_cif.got.tgz:55846.got - 2010.06.27 22:07:45.
