data_PCOD8061924
_publ_section_title
;
Structure prediction by ZEFSAII (Michael W. Deem and Ramdas Pophale) SiO2 
 PCOD8061924
Probable space group: P 2/M
;
_chemical_formula_sum "Si O2"
_cell_formula_units_Z 32
_cell_length_a 23.084559
_cell_length_b 9.351081
_cell_length_c 14.942419
_cell_angle_alpha 90.000000
_cell_angle_beta 31.093525
_cell_angle_gamma 90.000000
_cell_volume 1665.793987
_symmetry_space_group_name_H-M "P 2/M"
_symmetry_group_IT_number 10
_symmetry_cell_setting 'monoclinic'
loop_
_space_group_symop_operation_xyz
x,y,z
-x,y,-z
-x,-y,-z
x,-y,z
loop_
_atom_site_type_symbol
_atom_site_label
_atom_site_fract_x
_atom_site_fract_y
_atom_site_fract_z
Si Si1 0.522770 0.668823 0.865891
Si Si2 0.710914 0.660653 0.880100
Si Si3 0.037419 0.668777 0.189410
Si Si4 0.509982 0.830974 0.385476
Si Si5 0.078120 0.838572 0.810887
Si Si6 0.662183 0.831833 0.539779
Si Si7 0.274150 0.660369 0.939030
Si Si8 0.929237 0.328518 0.511423
O O1 0.546371 0.500000 0.822808
O O2 0.625129 0.750843 0.680609
O O3 0.500000 0.708146 0.000000
O O4 0.412154 0.730761 0.961162
O O5 0.688205 0.500000 0.876631
O O6 0.801304 0.729033 0.692451
O O7 0.766854 0.661284 0.904044
O O8 0.023903 0.500000 0.205437
O O9 0.976485 0.731526 0.185676
O O10 0.976901 0.733847 0.356499
O O11 0.169443 0.709312 0.016400
O O12 0.500000 0.771619 0.500000
O O13 0.409782 0.779412 0.451987
O O14 0.627095 0.772499 0.196212
O O15 0.515760 0.000000 0.378285
O O16 0.208115 0.795543 0.655360
O O17 0.073125 0.000000 0.780518
O O18 0.000000 0.823196 0.000000
O O19 0.644797 0.000000 0.578633
O O20 0.314299 0.500000 0.859469
O O21 0.931632 0.500000 0.510040
O O22 0.000000 0.266090 0.500000
#
# Coordination Sequence:
#
# PCOD8061924 Si02
#       8
#     4   4   4   4   4   4   4   4
#     4  10  21  35  56  86 115 151 194 232 276 339
#     4   9  16  29  49  76 114 149 179 218 270 331
#     4  10  21  35  58  89 116 146 191 238 279 332
#     4  10  22  38  60  85 108 142 189 235 280 339
#     4  10  24  44  63  79 107 155 200 240 290 345
#     4  10  22  41  60  84 115 148 192 241 290 341
#     4  10  19  34  56  86 118 145 180 230 288 339
#     4   9  15  27  49  79 113 147 178 215 267 329
#
# _framework density 19.210059000000001
#
# number of rings (size 3 to 8) (size 9 to 14) (size 15 to 20)
#    0.000    2.250    2.500    0.000    3.500    1.750 
#    0.000    0.000    0.000    1.125    0.000    0.000 
#    0.000    0.000    0.000    0.000    0.000    0.000 
#
# Total GULP energy -396547.772051 kJ/mol
# GULP energy per Si atom -12392.117877 kJ/mol
# Density = 1.916634 g / cm^3
# Si number density = 19.210059 Si / 1000 Ang^3
#
#
#
# Elastic Constant Matrix: (Units=GPa)
#
#
# Indices 1 2 3 4 5 6 
#
# 1 110.6098 28.8551 50.8852 0.0000 -10.7082 0.0000
# 2 28.8551 20.6608 30.5915 0.0000 -1.3389 0.0000
# 3 50.8852 30.5915 127.4488 0.0000 -14.5328 0.0000
# 4 0.0000 0.0000 0.0000 24.7139 0.0000 -1.1137
# 5 -10.7082 -1.3389 -14.5328 0.0000 30.9997 0.0000
# 6 0.0000 0.0000 0.0000 -1.1137 0.0000 15.7651
#
#
#
# Elastic Compliance Matrix: (Units=1/GPa)
#
#
# Indices 1 2 3 4 5 6 
#
# 1 0.014812 -0.019134 -0.000879 0.000000 0.003878 0.000000
# 2 -0.019134 0.100702 -0.017738 0.000000 -0.010576 0.000000
# 3 -0.000879 -0.017738 0.013029 0.000000 0.005039 0.000000
# 4 0.000000 0.000000 0.000000 0.040592 0.000000 0.002867
# 5 0.003878 -0.010576 0.005039 0.000000 0.035503 0.000000
# 6 0.000000 0.000000 0.000000 0.002867 0.000000 0.063634
#
#
# Mechanical properties :
#
#
# Convention : Reuss Voigt Hill
#
# Bulk Modulus (GPa) = 18.85312 53.26477 36.05895
# Shear Modulus (GPa) = 13.83297 24.18824 19.01061
#
# Velocity S-wave (km/s) = 2.68636 3.55229 3.14923
# Velocity P-wave (km/s) = 4.41107 6.67928 5.65996
#
# Compressibility (1/GPa) = 0.05304160
#
# Stress axis : x y z
#
# Youngs Moduli (GPa) = 67.51217 9.93029 76.74961
#
# Poissons Ratio (x) = 0.19001 0.06746
# Poissons Ratio (y) = 1.29178 1.36138
# Poissons Ratio (z) = 0.05934 0.17614
#
# Static dielectric constant tensor:
#      x y z
#    x 3.725770 0.000000 0.055290 
#    y 0.000000 3.109840 0.000000 
#    z 0.055290 0.000000 3.938540 
# 
# 
# High freq. dielectric constant tensor:
#      x y z
#    x 1.752990 0.000000 -0.006890 
#    y 0.000000 1.703870 0.000000 
#    z -0.006890 0.000000 1.760620 
# 
# From -- ./inp_files/71464.got.cif
#   From: 2010.06.25/outbox.cif.g09.slc.cpg/sg10_36_cif.got.tgz:71464.got - 2010.06.27 22:07:45.
