data_PCOD8061472
_publ_section_title
;
Structure prediction by ZEFSAII (Michael W. Deem and Ramdas Pophale) SiO2 
 PCOD8061472
Probable space group: P 2/M
;
_chemical_formula_sum "Si O2"
_cell_formula_units_Z 20
_cell_length_a 8.759754
_cell_length_b 7.708556
_cell_length_c 29.977268
_cell_angle_alpha 90.000000
_cell_angle_beta 150.774090
_cell_angle_gamma 90.000000
_cell_volume 988.332599
_symmetry_space_group_name_H-M "P 2/M"
_symmetry_group_IT_number 10
_symmetry_cell_setting 'monoclinic'
loop_
_space_group_symop_operation_xyz
x,y,z
-x,y,-z
-x,-y,-z
x,-y,z
loop_
_atom_site_type_symbol
_atom_site_label
_atom_site_fract_x
_atom_site_fract_y
_atom_site_fract_z
Si Si1 0.770848 0.500000 0.900104
Si Si2 0.133278 0.500000 0.900183
Si Si3 0.826665 0.691511 0.241742
Si Si4 0.803627 0.794026 0.408549
Si Si5 0.156737 0.199067 0.413843
Si Si6 0.904403 0.197995 0.779322
O O1 0.547877 0.671267 0.845758
O O2 0.964621 0.500000 0.904444
O O3 0.000000 0.500000 0.000000
O O4 0.046735 0.324787 0.852306
O O5 0.500000 0.500000 0.000000
O O6 0.979848 0.500000 0.276088
O O7 0.980677 0.789259 0.322239
O O8 0.889323 0.798381 0.212906
O O9 0.444509 0.736014 0.320903
O O10 0.000000 0.716890 0.500000
O O11 0.948686 0.714740 0.399910
O O12 0.822410 0.000000 0.413647
O O13 0.500000 0.288333 0.500000
O O14 0.204262 0.000000 0.438888
O O15 0.905880 0.000000 0.798036
#
# Coordination Sequence:
#
# PCOD8061472 Si02
#       6
#     2   2   4   4   4   4
#     4  10  22  42  65  88 121 162 194 250 316 358
#     4  12  24  44  69  92 127 156 202 258 308 366
#     4  10  21  37  59  88 118 161 198 250 298 362
#     4   9  18  33  55  86 121 163 209 251 301 358
#     4  10  19  33  55  83 120 164 205 250 301 356
#     4  11  22  40  66  93 126 164 205 251 307 366
#
# _framework density 20.236101000000001
#
# number of rings (size 3 to 8) (size 9 to 14) (size 15 to 20)
#    0.600    1.200    1.000    4.200    0.000    4.000 
#    0.000    1.500    0.000    4.200    0.000    0.000 
#    0.000    0.000    0.000    0.000    0.000    0.000 
#
# Total GULP energy -247943.113794 kJ/mol
# GULP energy per Si atom -12397.155690 kJ/mol
# Density = 2.019004 g / cm^3
# Si number density = 20.236101 Si / 1000 Ang^3
#
#
#
# Elastic Constant Matrix: (Units=GPa)
#
#
# Indices 1 2 3 4 5 6 
#
# 1 184.3589 25.8415 84.3989 0.0000 -0.2715 0.0000
# 2 25.8415 63.6463 35.0528 0.0001 0.6274 0.0000
# 3 84.3989 35.0528 176.8519 0.0012 5.4622 0.0002
# 4 0.0000 0.0001 0.0012 49.1644 0.0000 -1.3475
# 5 -0.2715 0.6274 5.4622 0.0000 43.9463 0.0000
# 6 0.0000 0.0000 0.0002 -1.3475 0.0000 25.0144
#
#
#
# Elastic Compliance Matrix: (Units=1/GPa)
#
#
# Indices 1 2 3 4 5 6 
#
# 1 0.007021 -0.001125 -0.003141 0.000000 0.000450 0.000000
# 2 -0.001125 0.017819 -0.002998 0.000000 0.000111 0.000000
# 3 -0.003141 -0.002998 0.007777 0.000000 -0.000943 0.000000
# 4 0.000000 0.000000 0.000000 0.020370 0.000000 0.001097
# 5 0.000450 0.000111 -0.000943 0.000000 0.022873 0.000000
# 6 0.000000 0.000000 0.000000 0.001097 0.000000 0.040036
#
#
# Mechanical properties :
#
#
# Convention : Reuss Voigt Hill
#
# Bulk Modulus (GPa) = 55.28765 79.49370 67.39067
# Shear Modulus (GPa) = 36.64229 42.26263 39.45246
#
# Velocity S-wave (km/s) = 4.25989 4.57494 4.42023
# Velocity P-wave (km/s) = 7.18166 8.20215 7.70881
#
# Compressibility (1/GPa) = 0.01808722
#
# Stress axis : x y z
#
# Youngs Moduli (GPa) = 142.43679 56.12056 128.58350
#
# Poissons Ratio (x) = 0.06313 0.40393
# Poissons Ratio (y) = 0.16022 0.38554
# Poissons Ratio (z) = 0.44745 0.16827
#
# Static dielectric constant tensor:
#      x y z
#    x 3.980250 0.000000 0.072350 
#    y 0.000000 3.368030 0.000000 
#    z 0.072350 0.000000 3.643760 
# 
# 
# High freq. dielectric constant tensor:
#      x y z
#    x 1.807040 0.000000 0.003050 
#    y 0.000000 1.766710 0.000000 
#    z 0.003050 0.000000 1.787860 
# 
# From -- ./inp_files/82125.got.cif
#   From: 2010.06.25/outbox.cif.g09.slc.cpg/sg10_42_cif.got.tgz:82125.got - 2010.06.27 22:07:45.
