data_PCOD8061543
_publ_section_title
;
Structure prediction by ZEFSAII (Michael W. Deem and Ramdas Pophale) SiO2 
 PCOD8061543
Probable space group: P 2/M
;
_chemical_formula_sum "Si O2"
_cell_formula_units_Z 32
_cell_length_a 20.674368
_cell_length_b 8.690953
_cell_length_c 12.179616
_cell_angle_alpha 90.000000
_cell_angle_beta 128.290685
_cell_angle_gamma 90.000000
_cell_volume 1717.650935
_symmetry_space_group_name_H-M "P 2/M"
_symmetry_group_IT_number 10
_symmetry_cell_setting 'monoclinic'
loop_
_space_group_symop_operation_xyz
x,y,z
-x,y,-z
-x,-y,-z
x,-y,z
loop_
_atom_site_type_symbol
_atom_site_label
_atom_site_fract_x
_atom_site_fract_y
_atom_site_fract_z
Si Si1 0.029347 0.181233 0.914155
Si Si2 0.290708 0.180280 0.925125
Si Si3 0.753677 0.678745 0.340149
Si Si4 0.379730 0.180949 0.644999
Si Si5 0.213649 0.818208 0.074582
Si Si6 0.119753 0.323041 0.346936
Si Si7 0.532272 0.679586 0.912962
Si Si8 0.269130 0.318715 0.351645
O O1 0.964706 0.228755 0.751975
O O2 0.032150 0.000000 0.924022
O O3 0.119803 0.243802 0.979511
O O4 0.000000 0.251699 0.000000
O O5 0.238675 0.269209 0.777308
O O6 0.280600 0.000000 0.894745
O O7 0.252099 0.231190 0.999773
O O8 0.385707 0.224994 0.022437
O O9 0.728418 0.500000 0.322462
O O10 0.682028 0.776008 0.321936
O O11 0.840910 0.708186 0.491927
O O12 0.465947 0.267204 0.753628
O O13 0.344799 0.234251 0.490878
O O14 0.394923 0.000000 0.661047
O O15 0.267004 0.734142 0.223892
O O16 0.218331 0.000000 0.099556
O O17 0.097578 0.500000 0.307216
O O18 0.184293 0.268360 0.321772
O O19 0.551484 0.500000 0.919824
O O20 0.500000 0.719138 0.000000
O O21 0.282982 0.500000 0.376966
#
# Coordination Sequence:
#
# PCOD8061543 Si02
#       8
#     4   4   4   4   4   4   4   4
#     4  10  19  33  56  83 111 145 188 232 278 330
#     4  11  23  38  58  83 114 151 189 230 281 339
#     4  10  20  36  55  81 115 148 187 232 280 333
#     4  11  21  34  58  87 115 145 184 233 282 330
#     4  10  22  39  56  82 117 150 188 234 281 334
#     4   9  19  33  53  82 112 142 183 235 279 325
#     4  11  22  37  59  85 115 146 184 236 280 326
#     4  10  20  35  56  83 115 150 188 229 281 335
#
# _framework density 18.630096000000002
#
# number of rings (size 3 to 8) (size 9 to 14) (size 15 to 20)
#    0.000    1.750    2.500    3.375    0.000    4.750 
#    0.000    1.250    0.000    7.500    0.000    0.000 
#    0.000    0.000    0.000    0.000    0.000    0.000 
#
# Total GULP energy -396921.528074 kJ/mol
# GULP energy per Si atom -12403.797752 kJ/mol
# Density = 1.858769 g / cm^3
# Si number density = 18.630096 Si / 1000 Ang^3
#
#
#
# Elastic Constant Matrix: (Units=GPa)
#
#
# Indices 1 2 3 4 5 6 
#
# 1 86.2951 17.0347 50.6790 0.0000 -7.7161 0.0000
# 2 17.0347 34.2125 22.6746 0.0000 -5.5662 0.0000
# 3 50.6790 22.6746 140.5969 0.0000 -5.3490 0.0000
# 4 0.0000 0.0000 0.0000 37.9419 0.0000 0.4921
# 5 -7.7161 -5.5662 -5.3490 0.0000 27.3693 0.0000
# 6 0.0000 0.0000 0.0000 0.4921 0.0000 18.8362
#
#
#
# Elastic Compliance Matrix: (Units=1/GPa)
#
#
# Indices 1 2 3 4 5 6 
#
# 1 0.015452 -0.004083 -0.004813 0.000000 0.002585 0.000000
# 2 -0.004083 0.034702 -0.003929 0.000000 0.005139 0.000000
# 3 -0.004813 -0.003929 0.009469 0.000000 -0.000305 0.000000
# 4 0.000000 0.000000 0.000000 0.026365 0.000000 -0.000689
# 5 0.002585 0.005139 -0.000305 0.000000 0.038252 0.000000
# 6 0.000000 0.000000 0.000000 -0.000689 0.000000 0.053107
#
#
# Mechanical properties :
#
#
# Convention : Reuss Voigt Hill
#
# Bulk Modulus (GPa) = 29.43524 49.09791 39.26658
# Shear Modulus (GPa) = 23.32936 28.21056 25.76996
#
# Velocity S-wave (km/s) = 3.54254 3.89555 3.72323
# Velocity P-wave (km/s) = 5.70674 6.82972 6.29333
#
# Compressibility (1/GPa) = 0.03397289
#
# Stress axis : x y z
#
# Youngs Moduli (GPa) = 64.71747 28.81649 105.60318
#
# Poissons Ratio (x) = 0.11767 0.50825
# Poissons Ratio (y) = 0.26426 0.41494
# Poissons Ratio (z) = 0.31147 0.11323
#
# Static dielectric constant tensor:
#      x y z
#    x 3.245630 0.000000 0.020450 
#    y 0.000000 3.351840 0.000000 
#    z 0.020450 0.000000 3.596890 
# 
# 
# High freq. dielectric constant tensor:
#      x y z
#    x 1.691430 0.000000 0.005570 
#    y 0.000000 1.727130 0.000000 
#    z 0.005570 0.000000 1.739670 
# 
# From -- ./inp_files/55197.got.cif
#   From: 2010.06.25/outbox.cif.g09.slc.cpg/sg10_28_cif.got.tgz:55197.got - 2010.06.27 22:07:45.
