data_PCOD8061738
_publ_section_title
;
Structure prediction by ZEFSAII (Michael W. Deem and Ramdas Pophale) SiO2 
 PCOD8061738
Probable space group: P 2/M
;
_chemical_formula_sum "Si O2"
_cell_formula_units_Z 24
_cell_length_a 20.029182
_cell_length_b 9.290391
_cell_length_c 9.376034
_cell_angle_alpha 90.000000
_cell_angle_beta 129.953289
_cell_angle_gamma 90.000000
_cell_volume 1337.418092
_symmetry_space_group_name_H-M "P 2/M"
_symmetry_group_IT_number 10
_symmetry_cell_setting 'monoclinic'
loop_
_space_group_symop_operation_xyz
x,y,z
-x,y,-z
-x,-y,-z
x,-y,z
loop_
_atom_site_type_symbol
_atom_site_label
_atom_site_fract_x
_atom_site_fract_y
_atom_site_fract_z
Si Si1 0.139194 0.336853 0.489311
Si Si2 0.211348 0.165585 0.097006
Si Si3 0.737084 0.834362 0.151160
Si Si4 0.964236 0.332704 0.102303
Si Si5 0.277612 0.336586 0.441126
Si Si6 0.599346 0.331445 0.137260
O O1 0.154900 0.500000 0.564032
O O2 0.175298 0.230892 0.659368
O O3 0.189008 0.313809 0.408304
O O4 0.037466 0.306974 0.323597
O O5 0.275795 0.232481 0.303054
O O6 0.194494 0.000000 0.111256
O O7 0.259434 0.184008 0.013043
O O8 0.119271 0.244610 0.965038
O O9 0.651053 0.753186 0.086401
O O10 0.731397 0.000000 0.189473
O O11 0.938243 0.500000 0.054814
O O12 0.000000 0.276975 0.000000
O O13 0.284710 0.500000 0.395995
O O14 0.360292 0.296344 0.652535
O O15 0.608039 0.500000 0.114538
O O16 0.500000 0.279276 0.000000
#
# Coordination Sequence:
#
# PCOD8061738 Si02
#       6
#     4   4   4   4   4   4
#     4   9  18  34  55  77 101 137 184 227 264 306
#     4  11  23  35  49  76 112 147 179 214 259 310
#     4  10  22  37  52  76 112 145 174 212 261 316
#     4  10  19  34  54  76 104 138 183 230 264 303
#     4   9  17  33  56  79 104 135 173 217 263 312
#     4   9  19  38  63  86 104 128 170 219 264 317
#
# _framework density 17.945025999999999
#
# number of rings (size 3 to 8) (size 9 to 14) (size 15 to 20)
#    0.000    2.333    1.667    2.000    0.000    7.333 
#    0.000    4.167    0.000    5.000    0.000    0.000 
#    0.000    0.000    0.000    0.000    0.000    0.000 
#
# Total GULP energy -297657.564537 kJ/mol
# GULP energy per Si atom -12402.398522 kJ/mol
# Density = 1.790418 g / cm^3
# Si number density = 17.945026 Si / 1000 Ang^3
#
#
#
# Elastic Constant Matrix: (Units=GPa)
#
#
# Indices 1 2 3 4 5 6 
#
# 1 81.9267 57.8378 60.1925 0.0000 10.9684 0.0000
# 2 57.8378 102.1915 60.9880 0.0000 -1.1719 0.0000
# 3 60.1925 60.9880 108.5592 0.0000 10.0865 0.0000
# 4 0.0000 0.0000 0.0000 18.3970 0.0000 -12.6541
# 5 10.9684 -1.1719 10.0865 0.0000 28.6801 0.0000
# 6 0.0000 0.0000 0.0000 -12.6541 0.0000 19.2042
#
#
#
# Elastic Compliance Matrix: (Units=1/GPa)
#
#
# Indices 1 2 3 4 5 6 
#
# 1 0.026447 -0.010120 -0.008271 0.000000 -0.007619 0.000000
# 2 -0.010120 0.018968 -0.005662 0.000000 0.006636 0.000000
# 3 -0.008271 -0.005662 0.017270 0.000000 -0.003142 0.000000
# 4 0.000000 0.000000 0.000000 0.099414 0.000000 0.065507
# 5 -0.007619 0.006636 -0.003142 0.000000 0.039157 0.000000
# 6 0.000000 0.000000 0.000000 0.065507 0.000000 0.095236
#
#
# Mechanical properties :
#
#
# Convention : Reuss Voigt Hill
#
# Bulk Modulus (GPa) = 68.58414 72.30155 70.44284
# Shear Modulus (GPa) = 14.30789 20.83352 17.57070
#
# Velocity S-wave (km/s) = 2.82674 3.41099 3.13252
# Velocity P-wave (km/s) = 6.99685 7.47604 7.24041
#
# Compressibility (1/GPa) = 0.01458063
#
# Stress axis : x y z
#
# Youngs Moduli (GPa) = 37.81152 52.72029 57.90315
#
# Poissons Ratio (x) = 0.53351 0.47891
# Poissons Ratio (y) = 0.38264 0.32783
# Poissons Ratio (z) = 0.31274 0.29849
#
# Static dielectric constant tensor:
#      x y z
#    x 3.116270 0.000000 0.078410 
#    y 0.000000 3.322430 0.000000 
#    z 0.078410 0.000000 3.376240 
# 
# 
# High freq. dielectric constant tensor:
#      x y z
#    x 1.673840 0.000000 0.001920 
#    y 0.000000 1.693400 0.000000 
#    z 0.001920 0.000000 1.699740 
# 
# From -- ./inp_files/27198.got.cif
#   From: 2010.06.25/outbox.cif.g09.slc.cpg/sg10_14_cif.got.tgz:27198.got - 2010.06.27 22:07:45.
