data_PCOD8061450
_publ_section_title
;
Structure prediction by ZEFSAII (Michael W. Deem and Ramdas Pophale) SiO2 
 PCOD8061450
Probable space group: P 2/M
;
_chemical_formula_sum "Si O2"
_cell_formula_units_Z 32
_cell_length_a 12.788984
_cell_length_b 8.833876
_cell_length_c 31.467289
_cell_angle_alpha 90.000000
_cell_angle_beta 27.554978
_cell_angle_gamma 90.000000
_cell_volume 1644.568086
_symmetry_space_group_name_H-M "P 2/M"
_symmetry_group_IT_number 10
_symmetry_cell_setting 'monoclinic'
loop_
_space_group_symop_operation_xyz
x,y,z
-x,y,-z
-x,-y,-z
x,-y,z
loop_
_atom_site_type_symbol
_atom_site_label
_atom_site_fract_x
_atom_site_fract_y
_atom_site_fract_z
Si Si1 0.021282 0.673878 0.075506
Si Si2 0.011844 0.672063 0.173224
Si Si3 0.251672 0.676334 0.398084
Si Si4 0.672504 0.826783 0.403828
Si Si5 0.554571 0.178891 0.218935
Si Si6 0.543852 0.319761 0.131167
Si Si7 0.440728 0.829324 0.649530
Si Si8 0.856436 0.676100 0.783383
O O1 0.957874 0.500000 0.088730
O O2 0.794221 0.769515 0.151695
O O3 0.125961 0.688715 0.085660
O O4 0.212072 0.732426 0.974446
O O5 0.919773 0.500000 0.212214
O O6 0.176482 0.709723 0.153961
O O7 0.811834 0.792059 0.245343
O O8 0.263843 0.500000 0.382191
O O9 0.351120 0.769876 0.322792
O O10 0.392328 0.709467 0.389747
O O11 0.000000 0.729555 0.500000
O O12 0.500000 0.754810 0.500000
O O13 0.537969 0.812640 0.408391
O O14 0.908939 0.740730 0.318477
O O15 0.728011 0.000000 0.395154
O O16 0.506574 0.248897 0.190408
O O17 0.554346 0.000000 0.215180
O O18 0.534357 0.500000 0.137784
O O19 0.352780 0.255486 0.167790
O O20 0.496482 0.000000 0.644675
O O21 0.864189 0.500000 0.771660
#
# Coordination Sequence:
#
# PCOD8061450 Si02
#       8
#     4   4   4   4   4   4   4   4
#     4  10  20  36  61  87 115 156 198 239 290 347
#     4   9  17  32  57  84 112 149 190 234 284 338
#     4  11  24  41  61  85 113 147 188 237 296 352
#     4   9  19  35  55  80 112 151 191 230 280 343
#     4  12  25  40  60  85 116 153 197 245 291 346
#     4  10  22  39  58  84 121 160 197 240 291 345
#     4  10  19  33  55  82 112 147 187 233 282 335
#     4   9  19  35  55  83 116 149 192 240 286 339
#
# _framework density 19.457996999999999
#
# number of rings (size 3 to 8) (size 9 to 14) (size 15 to 20)
#    0.000    2.000    1.250    2.250    0.000    5.750 
#    0.000    5.000    0.000    0.000    0.000    5.250 
#    0.000    0.000    0.000    0.000    0.000    0.000 
#
# Total GULP energy -396727.138578 kJ/mol
# GULP energy per Si atom -12397.723081 kJ/mol
# Density = 1.941371 g / cm^3
# Si number density = 19.457997 Si / 1000 Ang^3
#
#
#
# Elastic Constant Matrix: (Units=GPa)
#
#
# Indices 1 2 3 4 5 6 
#
# 1 131.4593 31.1402 59.2135 0.0000 3.1093 0.0000
# 2 31.1402 42.0621 31.1837 0.0000 4.6080 0.0000
# 3 59.2135 31.1837 113.5484 0.0000 10.8843 0.0000
# 4 0.0000 0.0000 0.0000 9.2465 0.0000 10.8330
# 5 3.1093 4.6080 10.8843 0.0000 24.2423 0.0000
# 6 0.0000 0.0000 0.0000 10.8330 0.0000 10.4323
#
#
#
# Elastic Compliance Matrix: (Units=1/GPa)
#
#
# Indices 1 2 3 4 5 6 
#
# 1 0.010695 -0.004824 -0.004398 0.000000 0.001520 0.000000
# 2 -0.004824 0.032129 -0.006042 0.000000 -0.002776 0.000000
# 3 -0.004398 -0.006042 0.013162 0.000000 -0.004197 0.000000
# 4 0.000000 0.000000 0.000000 -0.499326 0.000000 0.518507
# 5 0.001520 -0.002776 -0.004197 0.000000 0.043467 0.000000
# 6 0.000000 0.000000 0.000000 0.518507 0.000000 -0.442570
#
#
# Mechanical properties :
#
#
# Convention : Reuss Voigt Hill
#
# Bulk Modulus (GPa) = 39.28013 58.90495 49.09254
# Shear Modulus (GPa) = -6.22332 19.81971 6.79819
#
# Velocity S-wave (km/s) = -1.79033 3.19500 1.87119
# Velocity P-wave (km/s) = 3.99465 6.62942 5.47296
#
# Compressibility (1/GPa) = 0.02545817
#
# Stress axis : x y z
#
# Youngs Moduli (GPa) = 93.50523 31.12453 75.97662
#
# Poissons Ratio (x) = 0.15013 0.33415
# Poissons Ratio (y) = 0.45103 0.45906
# Poissons Ratio (z) = 0.41124 0.18806
#
# Static dielectric constant tensor:
#      x y z
#    x 3.885790 0.000000 0.092650 
#    y 0.000000 3.475570 0.000000 
#    z 0.092650 0.000000 3.520420 
# 
# 
# High freq. dielectric constant tensor:
#      x y z
#    x 1.769720 0.000000 0.012280 
#    y 0.000000 1.748870 0.000000 
#    z 0.012280 0.000000 1.748870 
# 
# From -- ./inp_files/94979.got.cif
#   From: 2010.06.25/outbox.cif.g09.slc.cpg/sg10_48_cif.got.tgz:94979.got - 2010.06.27 22:07:45.
