data_PCOD8061224
_publ_section_title
;
Structure prediction by ZEFSAII (Michael W. Deem and Ramdas Pophale) SiO2 
 PCOD8061224
Probable space group: P 2/M
;
_chemical_formula_sum "Si O2"
_cell_formula_units_Z 24
_cell_length_a 9.326115
_cell_length_b 14.328744
_cell_length_c 14.538872
_cell_angle_alpha 90.000000
_cell_angle_beta 40.965188
_cell_angle_gamma 90.000000
_cell_volume 1273.734128
_symmetry_space_group_name_H-M "P 2/M"
_symmetry_group_IT_number 10
_symmetry_cell_setting 'monoclinic'
loop_
_space_group_symop_operation_xyz
x,y,z
-x,y,-z
-x,-y,-z
x,-y,z
loop_
_atom_site_type_symbol
_atom_site_label
_atom_site_fract_x
_atom_site_fract_y
_atom_site_fract_z
Si Si1 0.207524 0.726726 0.333467
Si Si2 0.951301 0.764013 0.879184
Si Si3 0.570276 0.104069 0.560721
Si Si4 0.351521 0.776230 0.807556
Si Si5 0.939977 0.891741 0.710804
Si Si6 0.246399 0.393291 0.142958
O O1 0.436152 0.710681 0.277203
O O2 0.221705 0.825914 0.270623
O O3 0.184141 0.641295 0.274608
O O4 0.000000 0.723118 0.500000
O O5 0.971325 0.849124 0.797594
O O6 0.883651 0.666579 0.868078
O O7 0.177467 0.734968 0.819343
O O8 0.769542 0.800306 0.039039
O O9 0.500000 0.158651 0.500000
O O10 0.448789 0.132856 0.712126
O O11 0.828278 0.113194 0.453184
O O12 0.490341 0.000000 0.584752
O O13 0.857233 0.000000 0.756338
O O14 0.172582 0.500000 0.168731
O O15 0.500000 0.379580 0.000000
#
# Coordination Sequence:
#
# PCOD8061224 Si02
#       6
#     4   4   4   4   4   4
#     4  11  22  37  60  87 118 149 190 239 283 338
#     4  10  22  38  59  83 119 149 191 235 284 348
#     4  10  19  33  53  80 115 159 202 231 276 335
#     4  11  21  36  55  87 115 151 187 238 288 330
#     4  10  21  36  55  82 116 158 198 236 279 331
#     4  10  21  42  66  85 112 149 187 231 288 351
#
# _framework density 18.842237000000001
#
# number of rings (size 3 to 8) (size 9 to 14) (size 15 to 20)
#    0.000    1.667    5.000    0.000    0.000    2.000 
#    0.000    5.000    0.000    1.000    0.000    0.000 
#    0.000    0.000    0.000    0.000    0.000    0.000 
#
# Total GULP energy -297418.956751 kJ/mol
# GULP energy per Si atom -12392.456531 kJ/mol
# Density = 1.879935 g / cm^3
# Si number density = 18.842237 Si / 1000 Ang^3
#
#
#
# Elastic Constant Matrix: (Units=GPa)
#
#
# Indices 1 2 3 4 5 6 
#
# 1 104.2385 42.4429 56.6794 0.0000 0.1336 0.0000
# 2 42.4429 113.9284 48.4471 0.0000 7.7963 0.0000
# 3 56.6794 48.4471 125.3534 0.0000 11.6535 0.0000
# 4 0.0000 0.0000 0.0000 20.6649 0.0000 -2.9164
# 5 0.1336 7.7963 11.6535 0.0000 32.1079 0.0000
# 6 0.0000 0.0000 0.0000 -2.9164 0.0000 13.8114
#
#
#
# Elastic Compliance Matrix: (Units=1/GPa)
#
#
# Indices 1 2 3 4 5 6 
#
# 1 0.013685 -0.003042 -0.005253 0.000000 0.002588 0.000000
# 2 -0.003042 0.011218 -0.002803 0.000000 -0.001694 0.000000
# 3 -0.005253 -0.002803 0.011768 0.000000 -0.003569 0.000000
# 4 0.000000 0.000000 0.000000 0.049878 0.000000 0.010532
# 5 0.002588 -0.001694 -0.003569 0.000000 0.032841 0.000000
# 6 0.000000 0.000000 0.000000 0.010532 0.000000 0.074628
#
#
# Mechanical properties :
#
#
# Convention : Reuss Voigt Hill
#
# Bulk Modulus (GPa) = 69.07917 70.96214 70.02065
# Shear Modulus (GPa) = 22.62065 26.38022 24.50044
#
# Velocity S-wave (km/s) = 3.46862 3.74579 3.60987
# Velocity P-wave (km/s) = 7.26521 7.51338 7.39034
#
# Compressibility (1/GPa) = 0.01447614
#
# Stress axis : x y z
#
# Youngs Moduli (GPa) = 73.07464 89.13926 84.97931
#
# Poissons Ratio (x) = 0.27112 0.44637
# Poissons Ratio (y) = 0.22226 0.23820
# Poissons Ratio (z) = 0.38384 0.24986
#
# Static dielectric constant tensor:
#      x y z
#    x 3.855580 0.000000 0.060430 
#    y 0.000000 3.195330 0.000000 
#    z 0.060430 0.000000 3.577670 
# 
# 
# High freq. dielectric constant tensor:
#      x y z
#    x 1.746800 0.000000 0.005310 
#    y 0.000000 1.694500 0.000000 
#    z 0.005310 0.000000 1.743190 
# 
# From -- ./inp_files/29240.got.cif
#   From: 2010.06.25/outbox.cif.g09.slc.cpg/sg10_15_cif.got.tgz:29240.got - 2010.06.27 22:07:45.
