data_PCOD8061881
_publ_section_title
;
Structure prediction by ZEFSAII (Michael W. Deem and Ramdas Pophale) SiO2 
 PCOD8061881
Probable space group: P 2/M
;
_chemical_formula_sum "Si O2"
_cell_formula_units_Z 24
_cell_length_a 25.363606
_cell_length_b 7.788104
_cell_length_c 18.276548
_cell_angle_alpha 90.000000
_cell_angle_beta 159.604094
_cell_angle_gamma 90.000000
_cell_volume 1258.189387
_symmetry_space_group_name_H-M "P 2/M"
_symmetry_group_IT_number 10
_symmetry_cell_setting 'monoclinic'
loop_
_space_group_symop_operation_xyz
x,y,z
-x,y,-z
-x,-y,-z
x,-y,z
loop_
_atom_site_type_symbol
_atom_site_label
_atom_site_fract_x
_atom_site_fract_y
_atom_site_fract_z
Si Si1 0.185171 0.000000 0.667238
Si Si2 0.050411 0.804711 0.988653
Si Si3 0.825301 0.305868 0.081477
Si Si4 0.675254 0.696975 0.240157
Si Si5 0.830458 0.000000 0.192051
Si Si6 0.109886 0.697079 0.357289
Si Si7 0.669821 0.203524 0.740006
O O1 0.238692 0.824907 0.700388
O O2 0.250030 0.000000 0.833958
O O3 0.007333 0.000000 0.433972
O O4 0.915718 0.795665 0.752617
O O5 0.085225 0.000000 0.053036
O O6 0.207278 0.726327 0.159927
O O7 0.000000 0.713792 0.000000
O O8 0.832887 0.500000 0.123011
O O9 0.778784 0.173257 0.083959
O O10 0.985528 0.246533 0.255582
O O11 0.699377 0.297130 0.854861
O O12 0.718156 0.500000 0.276019
O O13 0.727023 0.733560 0.392218
O O14 0.500000 0.732055 0.000000
O O15 0.087888 0.500000 0.308069
O O16 0.500000 0.256322 0.500000
O O17 0.689514 0.000000 0.775270
#
# Coordination Sequence:
#
# PCOD8061881 Si02
#       7
#     2   4   4   4   2   4   4
#     4  11  23  36  58  82 111 144 181 229 290 335
#     4   9  18  31  50  77 106 138 175 220 273 324
#     4  10  19  34  56  80 109 145 187 228 267 326
#     4  10  21  38  59  83 112 145 187 232 275 332
#     4  11  22  36  55  84 110 143 184 231 281 333
#     4   9  18  32  54  79 102 139 183 221 265 319
#     4   9  17  31  54  78 107 143 182 228 272 324
#
# _framework density 19.075030999999999
#
# number of rings (size 3 to 8) (size 9 to 14) (size 15 to 20)
#    0.000    2.333    2.500    0.250    2.333    1.333 
#    0.000    3.333    0.000    2.000    0.000    0.000 
#    0.000    0.000    0.000    0.000    0.000    0.000 
#
# Total GULP energy -297444.759286 kJ/mol
# GULP energy per Si atom -12393.531637 kJ/mol
# Density = 1.903161 g / cm^3
# Si number density = 19.075031 Si / 1000 Ang^3
#
#
#
# Elastic Constant Matrix: (Units=GPa)
#
#
# Indices 1 2 3 4 5 6 
#
# 1 123.8278 38.8713 43.7676 0.0000 -20.9187 0.0000
# 2 38.8713 67.2563 14.2455 0.0000 -7.1539 0.0000
# 3 43.7676 14.2455 125.4099 0.0000 -16.1814 0.0000
# 4 0.0000 0.0000 0.0000 23.7013 0.0000 -7.2417
# 5 -20.9187 -7.1539 -16.1814 0.0000 20.5591 0.0000
# 6 0.0000 0.0000 0.0000 -7.2417 0.0000 10.2544
#
#
#
# Elastic Compliance Matrix: (Units=1/GPa)
#
#
# Indices 1 2 3 4 5 6 
#
# 1 0.012144 -0.005589 -0.002515 0.000000 0.008432 0.000000
# 2 -0.005589 0.018171 -0.000035 0.000000 0.000609 0.000000
# 3 -0.002515 -0.000035 0.009487 0.000000 0.004896 0.000000
# 4 0.000000 0.000000 0.000000 0.053800 0.000000 0.037994
# 5 0.008432 0.000609 0.004896 0.000000 0.061284 0.000000
# 6 0.000000 0.000000 0.000000 0.037994 0.000000 0.124351
#
#
# Mechanical properties :
#
#
# Convention : Reuss Voigt Hill
#
# Bulk Modulus (GPa) = 42.51103 56.69585 49.60344
# Shear Modulus (GPa) = 16.48222 25.54360 21.01291
#
# Velocity S-wave (km/s) = 2.94270 3.66336 3.32263
# Velocity P-wave (km/s) = 5.82070 6.90512 6.38597
#
# Compressibility (1/GPa) = 0.02352331
#
# Stress axis : x y z
#
# Youngs Moduli (GPa) = 82.34803 55.03342 105.40359
#
# Poissons Ratio (x) = 0.30757 0.26512
# Poissons Ratio (y) = 0.46023 0.00369
# Poissons Ratio (z) = 0.20713 0.00193
#
# Static dielectric constant tensor:
#      x y z
#    x 3.567420 0.000000 -0.163570 
#    y 0.000000 3.448870 0.000000 
#    z -0.163570 0.000000 3.569810 
# 
# 
# High freq. dielectric constant tensor:
#      x y z
#    x 1.716860 0.000000 -0.024250 
#    y 0.000000 1.743130 0.000000 
#    z -0.024250 0.000000 1.735100 
# 
# From -- ./inp_files/66723.got.cif
#   From: 2010.06.25/outbox.cif.g09.slc.cpg/sg10_34_cif.got.tgz:66723.got - 2010.06.27 22:07:45.
