data_PCOD8061021
_publ_section_title
;
Structure prediction by ZEFSAII (Michael W. Deem and Ramdas Pophale) SiO2 
 PCOD8061021
Probable space group: P 2/M
;
_chemical_formula_sum "Si O2"
_cell_formula_units_Z 16
_cell_length_a 10.264793
_cell_length_b 7.713626
_cell_length_c 26.140580
_cell_angle_alpha 90.000000
_cell_angle_beta 25.168016
_cell_angle_gamma 90.000000
_cell_volume 880.223492
_symmetry_space_group_name_H-M "P 2/M"
_symmetry_group_IT_number 10
_symmetry_cell_setting 'monoclinic'
loop_
_space_group_symop_operation_xyz
x,y,z
-x,y,-z
-x,-y,-z
x,-y,z
loop_
_atom_site_type_symbol
_atom_site_label
_atom_site_fract_x
_atom_site_fract_y
_atom_site_fract_z
Si Si1 0.713608 0.000000 0.065069
Si Si2 0.247918 0.695440 0.232356
Si Si3 0.321647 0.806108 0.510596
Si Si4 0.163671 0.000000 0.096554
Si Si5 0.896263 0.304784 0.253338
O O1 0.520534 0.172137 0.145616
O O2 0.000000 0.000000 0.000000
O O3 0.833066 0.000000 0.965156
O O4 0.377980 0.500000 0.184963
O O5 0.999776 0.708368 0.366437
O O6 0.090716 0.745277 0.234447
O O7 0.500000 0.810598 0.500000
O O8 0.532865 0.707983 0.394156
O O9 0.255970 0.000000 0.514246
O O10 0.985333 0.827513 0.177197
O O11 0.500000 0.000000 0.000000
O O12 0.970848 0.500000 0.208668
#
# Coordination Sequence:
#
# PCOD8061021 Si02
#       5
#     2   4   4   2   4
#     4  12  26  41  55  77 111 154 194 227 269 324
#     4  10  19  34  57  84 113 146 183 228 277 327
#     4   9  15  27  53  85 117 141 170 222 285 331
#     4  12  22  37  57  79 111 150 188 228 273 324
#     4  10  19  32  56  89 116 140 176 230 284 328
#
# _framework density 18.177202000000001
#
# number of rings (size 3 to 8) (size 9 to 14) (size 15 to 20)
#    0.000    1.750    5.000    0.750    0.000    5.000 
#    0.000    0.000    0.000    3.000    0.000    3.500 
#    0.000    0.000    0.000    0.000    0.000    0.000 
#
# Total GULP energy -198388.823755 kJ/mol
# GULP energy per Si atom -12399.301485 kJ/mol
# Density = 1.813583 g / cm^3
# Si number density = 18.177202 Si / 1000 Ang^3
#
#
#
# Elastic Constant Matrix: (Units=GPa)
#
#
# Indices 1 2 3 4 5 6 
#
# 1 70.7489 36.5324 52.9283 0.0000 -5.0349 0.0000
# 2 36.5324 136.6865 66.0291 0.0000 -7.7285 0.0000
# 3 52.9283 66.0291 136.2778 0.0000 -2.0623 0.0000
# 4 0.0000 0.0000 0.0000 10.0137 0.0000 -5.2532
# 5 -5.0349 -7.7285 -2.0623 0.0000 16.0488 0.0000
# 6 0.0000 0.0000 0.0000 -5.2532 0.0000 11.1303
#
#
#
# Elastic Compliance Matrix: (Units=1/GPa)
#
#
# Indices 1 2 3 4 5 6 
#
# 1 0.020722 -0.001853 -0.007079 0.000000 0.004699 0.000000
# 2 -0.001853 0.009982 -0.004061 0.000000 0.003704 0.000000
# 3 -0.007079 -0.004061 0.012015 0.000000 -0.002632 0.000000
# 4 0.000000 0.000000 0.000000 0.132727 0.000000 0.062644
# 5 0.004699 0.003704 -0.002632 0.000000 0.065229 0.000000
# 6 0.000000 0.000000 0.000000 0.062644 0.000000 0.119411
#
#
# Mechanical properties :
#
#
# Convention : Reuss Voigt Hill
#
# Bulk Modulus (GPa) = 59.76130 72.74365 66.25247
# Shear Modulus (GPa) = 12.76650 19.98679 16.37664
#
# Velocity S-wave (km/s) = 2.65304 3.31955 3.00483
# Velocity P-wave (km/s) = 6.50640 7.40261 6.96892
#
# Compressibility (1/GPa) = 0.01673324
#
# Stress axis : x y z
#
# Youngs Moduli (GPa) = 48.25869 100.17633 83.22827
#
# Poissons Ratio (x) = 0.18562 0.58918
# Poissons Ratio (y) = 0.08942 0.33799
# Poissons Ratio (z) = 0.34163 0.40681
#
# Static dielectric constant tensor:
#      x y z
#    x 2.611010 0.000000 -0.061220 
#    y 0.000000 3.473410 0.000000 
#    z -0.061220 0.000000 3.572560 
# 
# 
# High freq. dielectric constant tensor:
#      x y z
#    x 1.623020 0.000000 -0.000490 
#    y 0.000000 1.723360 0.000000 
#    z -0.000490 0.000000 1.720460 
# 
# From -- ./inp_files/21830.got.cif
#   From: 2010.06.25/outbox.cif.g09.slc.cpg/sg10_11_cif.got.tgz:21830.got - 2010.06.27 22:07:45.
