data_PCOD8061673
_publ_section_title
;
Structure prediction by ZEFSAII (Michael W. Deem and Ramdas Pophale) SiO2 
 PCOD8061673
Probable space group: P 2/M
;
_chemical_formula_sum "Si O2"
_cell_formula_units_Z 28
_cell_length_a 19.430567
_cell_length_b 9.206201
_cell_length_c 14.541171
_cell_angle_alpha 90.000000
_cell_angle_beta 147.952578
_cell_angle_gamma 90.000000
_cell_volume 1380.224496
_symmetry_space_group_name_H-M "P 2/M"
_symmetry_group_IT_number 10
_symmetry_cell_setting 'monoclinic'
loop_
_space_group_symop_operation_xyz
x,y,z
-x,y,-z
-x,-y,-z
x,-y,z
loop_
_atom_site_type_symbol
_atom_site_label
_atom_site_fract_x
_atom_site_fract_y
_atom_site_fract_z
Si Si1 0.744146 0.661981 0.136367
Si Si2 0.537161 0.662194 0.136808
Si Si3 0.696541 0.672917 0.482603
Si Si4 0.880921 0.833531 0.433257
Si Si5 0.530235 0.668604 0.639679
Si Si6 0.222114 0.830394 0.003830
Si Si7 0.935972 0.832716 0.703301
O O1 0.804631 0.500000 0.198579
O O2 0.767679 0.729538 0.265022
O O3 0.590461 0.654039 0.943984
O O4 0.803300 0.765566 0.125917
O O5 0.584230 0.500000 0.162461
O O6 0.646631 0.733367 0.326044
O O7 0.500000 0.747614 0.000000
O O8 0.707304 0.500000 0.495632
O O9 0.594988 0.724603 0.445244
O O10 0.838910 0.741416 0.659171
O O11 0.918582 0.783542 0.577869
O O12 0.000000 0.807837 0.500000
O O13 0.834113 0.000000 0.378507
O O14 0.500000 0.698369 0.500000
O O15 0.557402 0.500000 0.690944
O O16 0.660785 0.754770 0.810818
O O17 0.252808 0.000000 0.027577
O O18 0.085581 0.805867 0.903106
O O19 0.899000 0.000000 0.673655
#
# Coordination Sequence:
#
# PCOD8061673 Si02
#       7
#     4   4   4   4   4   4   4
#     4  11  20  32  53  81 113 152 204 253 292 339
#     4   9  17  30  49  76 114 150 185 236 289 336
#     4  10  20  37  59  86 119 153 191 243 300 351
#     4  10  19  34  50  72 116 165 205 245 290 342
#     4  10  22  43  69  94 118 147 190 246 304 361
#     4  11  22  39  61  85 118 156 195 240 295 355
#     4  10  22  38  56  82 120 164 201 242 293 346
#
# _framework density 20.286555
#
# number of rings (size 3 to 8) (size 9 to 14) (size 15 to 20)
#    0.000    1.857    2.857    1.714    0.000    4.000 
#    0.000    0.714    0.000    7.286    0.000    0.000 
#    0.000    0.000    0.000    0.000    0.000    0.000 
#
# Total GULP energy -347073.930071 kJ/mol
# GULP energy per Si atom -12395.497503 kJ/mol
# Density = 2.024038 g / cm^3
# Si number density = 20.286555 Si / 1000 Ang^3
#
#
#
# Elastic Constant Matrix: (Units=GPa)
#
#
# Indices 1 2 3 4 5 6 
#
# 1 96.8105 38.0988 51.4222 0.0000 12.3656 0.0000
# 2 38.0988 79.6236 56.9148 0.0000 7.3486 0.0000
# 3 51.4222 56.9148 94.6167 0.0000 17.3276 0.0000
# 4 0.0000 0.0000 0.0000 28.9243 0.0000 10.3947
# 5 12.3656 7.3486 17.3276 0.0000 30.5869 0.0000
# 6 0.0000 0.0000 0.0000 10.3947 0.0000 17.9182
#
#
#
# Elastic Compliance Matrix: (Units=1/GPa)
#
#
# Indices 1 2 3 4 5 6 
#
# 1 0.014859 -0.002473 -0.006244 0.000000 -0.001876 0.000000
# 2 -0.002473 0.022613 -0.012771 0.000000 0.002802 0.000000
# 3 -0.006244 -0.012771 0.023008 0.000000 -0.007441 0.000000
# 4 0.000000 0.000000 0.000000 0.043679 0.000000 -0.025339
# 5 -0.001876 0.002802 -0.007441 0.000000 0.036994 0.000000
# 6 0.000000 0.000000 0.000000 -0.025339 0.000000 0.070509
#
#
# Mechanical properties :
#
#
# Convention : Reuss Voigt Hill
#
# Bulk Modulus (GPa) = 57.13722 62.65804 59.89763
# Shear Modulus (GPa) = 19.19579 23.79355 21.49467
#
# Velocity S-wave (km/s) = 3.07943 3.42844 3.25861
# Velocity P-wave (km/s) = 6.39297 6.82831 6.61422
#
# Compressibility (1/GPa) = 0.01750173
#
# Stress axis : x y z
#
# Youngs Moduli (GPa) = 67.29849 44.22279 43.46377
#
# Poissons Ratio (x) = 0.10938 0.27140
# Poissons Ratio (y) = 0.16645 0.55509
# Poissons Ratio (z) = 0.42024 0.56478
#
# Static dielectric constant tensor:
#      x y z
#    x 3.606630 0.000000 0.135600 
#    y 0.000000 3.435970 0.000000 
#    z 0.135600 0.000000 3.673470 
# 
# 
# High freq. dielectric constant tensor:
#      x y z
#    x 1.784580 0.000000 0.018720 
#    y 0.000000 1.770950 0.000000 
#    z 0.018720 0.000000 1.788340 
# 
# From -- ./inp_files/70282.got.cif
#   From: 2010.06.25/outbox.cif.g09.slc.cpg/sg10_36_cif.got.tgz:70282.got - 2010.06.27 22:07:45.
