data_PCOD8061019
_publ_section_title
;
Structure prediction by ZEFSAII (Michael W. Deem and Ramdas Pophale) SiO2 
 PCOD8061019
Probable space group: P 2/M
;
_chemical_formula_sum "Si O2"
_cell_formula_units_Z 24
_cell_length_a 12.802831
_cell_length_b 10.285499
_cell_length_c 27.871232
_cell_angle_alpha 90.000000
_cell_angle_beta 20.698436
_cell_angle_gamma 90.000000
_cell_volume 1297.223126
_symmetry_space_group_name_H-M "P 2/M"
_symmetry_group_IT_number 10
_symmetry_cell_setting 'monoclinic'
loop_
_space_group_symop_operation_xyz
x,y,z
-x,y,-z
-x,-y,-z
x,-y,z
loop_
_atom_site_type_symbol
_atom_site_label
_atom_site_fract_x
_atom_site_fract_y
_atom_site_fract_z
Si Si1 0.790153 0.500000 0.636398
Si Si2 0.836243 0.358837 0.865175
Si Si3 0.163979 0.346120 0.631833
Si Si4 0.765067 0.737460 0.720277
Si Si5 0.144913 0.738147 0.040602
Si Si6 0.463871 0.000000 0.222891
Si Si7 0.069407 0.000000 0.905530
Si Si8 0.863065 0.500000 0.111026
O O1 0.818627 0.627319 0.657477
O O2 0.481878 0.500000 0.743264
O O3 0.000000 0.500000 0.500000
O O4 0.987758 0.500000 0.810299
O O5 0.860879 0.266160 0.899821
O O6 0.983633 0.294359 0.755246
O O7 0.500000 0.384800 0.000000
O O8 0.500000 0.312524 0.500000
O O9 0.113268 0.500000 0.644619
O O10 0.045812 0.267750 0.635868
O O11 0.733517 0.875501 0.706631
O O12 0.470826 0.718398 0.878446
O O13 0.948053 0.627188 0.102887
O O14 0.978465 0.871989 0.104489
O O15 0.582453 0.000000 0.226904
O O16 0.795685 0.000000 0.059857
O O17 0.000000 0.500000 0.000000
#
# Coordination Sequence:
#
# PCOD8061019 Si02
#       8
#     2   4   4   4   4   2   2   2
#     4  12  26  38  58  88 122 153 196 253 290 352
#     4  10  19  32  56  88 115 147 194 241 293 345
#     4  10  21  36  59  85 120 157 194 242 299 351
#     4  11  20  39  61  85 118 158 197 241 305 348
#     4  11  20  35  60  90 120 155 194 248 298 348
#     4   9  20  36  61  84 115 162 198 238 293 362
#     4   9  20  34  54  89 127 151 190 244 305 347
#     4  12  22  34  60  89 110 149 201 247 289 339
#
# _framework density 18.501055999999998
#
# number of rings (size 3 to 8) (size 9 to 14) (size 15 to 20)
#    0.000    1.500    5.000    1.000    2.333    1.333 
#    0.000    2.083    0.000    2.000    0.000    0.000 
#    0.000    0.000    0.000    0.000    0.000    0.000 
#
# Total GULP energy -297363.365605 kJ/mol
# GULP energy per Si atom -12390.140234 kJ/mol
# Density = 1.845895 g / cm^3
# Si number density = 18.501056 Si / 1000 Ang^3
#
#
#
# Elastic Constant Matrix: (Units=GPa)
#
#
# Indices 1 2 3 4 5 6 
#
# 1 141.8368 77.5497 53.7674 0.0000 -15.0313 0.0000
# 2 77.5497 138.3102 35.1802 0.0000 -7.3768 0.0000
# 3 53.7674 35.1802 94.2189 0.0000 -9.6330 0.0000
# 4 0.0000 0.0000 0.0000 17.1180 0.0000 -13.6834
# 5 -15.0313 -7.3768 -9.6330 0.0000 35.5932 0.0000
# 6 0.0000 0.0000 0.0000 -13.6834 0.0000 75.9124
#
#
#
# Elastic Compliance Matrix: (Units=1/GPa)
#
#
# Indices 1 2 3 4 5 6 
#
# 1 0.012048 -0.005450 -0.004562 0.000000 0.002724 0.000000
# 2 -0.005450 0.010480 -0.000840 0.000000 -0.000357 0.000000
# 3 -0.004562 -0.000840 0.013695 0.000000 0.001606 0.000000
# 4 0.000000 0.000000 0.000000 0.068252 0.000000 0.012303
# 5 0.002724 -0.000357 0.001606 0.000000 0.029606 0.000000
# 6 0.000000 0.000000 0.000000 0.012303 0.000000 0.015391
#
#
# Mechanical properties :
#
#
# Convention : Reuss Voigt Hill
#
# Bulk Modulus (GPa) = 68.86993 78.59563 73.73278
# Shear Modulus (GPa) = 28.40666 39.58261 33.99464
#
# Velocity S-wave (km/s) = 3.92268 4.63047 4.29119
# Velocity P-wave (km/s) = 7.60409 8.43577 8.03071
#
# Compressibility (1/GPa) = 0.01452013
#
# Stress axis : x y z
#
# Youngs Moduli (GPa) = 83.00156 95.41765 73.02078
#
# Poissons Ratio (x) = 0.51998 0.33313
# Poissons Ratio (y) = 0.45232 0.06132
# Poissons Ratio (z) = 0.37866 0.08013
#
# Static dielectric constant tensor:
#      x y z
#    x 3.554830 0.000000 -0.101160 
#    y 0.000000 3.336220 0.000000 
#    z -0.101160 0.000000 3.233540 
# 
# 
# High freq. dielectric constant tensor:
#      x y z
#    x 1.734260 0.000000 -0.010670 
#    y 0.000000 1.703340 0.000000 
#    z -0.010670 0.000000 1.698130 
# 
# From -- ./inp_files/92838.got.cif
#   From: 2010.06.25/outbox.cif.g09.slc.cpg/sg10_47_cif.got.tgz:92838.got - 2010.06.27 22:07:45.
