data_PCOD8061892
_publ_section_title
;
Structure prediction by ZEFSAII (Michael W. Deem and Ramdas Pophale) SiO2 
 PCOD8061892
Probable space group: P 2/M
;
_chemical_formula_sum "Si O2"
_cell_formula_units_Z 24
_cell_length_a 9.025031
_cell_length_b 8.505513
_cell_length_c 16.378964
_cell_angle_alpha 90.000000
_cell_angle_beta 74.585022
_cell_angle_gamma 90.000000
_cell_volume 1212.060696
_symmetry_space_group_name_H-M "P 2/M"
_symmetry_group_IT_number 10
_symmetry_cell_setting 'monoclinic'
loop_
_space_group_symop_operation_xyz
x,y,z
-x,y,-z
-x,-y,-z
x,-y,z
loop_
_atom_site_type_symbol
_atom_site_label
_atom_site_fract_x
_atom_site_fract_y
_atom_site_fract_z
Si Si1 0.122973 0.682082 0.414757
Si Si2 0.782861 0.676272 0.085938
Si Si3 0.438091 0.817711 0.420727
Si Si4 0.984146 0.180717 0.734336
Si Si5 0.693867 0.686076 0.269044
Si Si6 0.130118 0.677836 0.094696
O O1 0.102752 0.500000 0.395021
O O2 0.291437 0.710767 0.425409
O O3 0.000000 0.735797 0.500000
O O4 0.100097 0.786301 0.338023
O O5 0.724692 0.500000 0.081527
O O6 0.685109 0.749381 0.175510
O O7 0.956124 0.675377 0.091063
O O8 0.771653 0.754112 0.996329
O O9 0.500000 0.769102 0.500000
O O10 0.568290 0.784217 0.335384
O O11 0.391388 0.000000 0.424371
O O12 0.137891 0.284498 0.717622
O O13 0.860659 0.219920 0.824280
O O14 0.032156 0.000000 0.733192
O O15 0.661143 0.500000 0.278995
O O16 0.185425 0.500000 0.105741
#
# Coordination Sequence:
#
# PCOD8061892 Si02
#       6
#     4   4   4   4   4   4
#     4  11  24  41  61  82 104 137 182 224 263 316
#     4   7  12  24  46  74 103 138 179 223 263 303
#     4  11  24  40  58  82 112 142 172 214 272 327
#     4  11  21  33  52  81 115 146 178 221 274 320
#     4  10  19  34  56  81 110 145 186 225 263 313
#     4   8  13  26  47  72 104 141 181 220 261 311
#
# _framework density 19.800986000000002
#
# number of rings (size 3 to 8) (size 9 to 14) (size 15 to 20)
#    0.000    2.333    0.000    6.000    0.000    5.333 
#    0.000    7.500    0.000    1.000    0.000    7.000 
#    0.000    0.000    0.000    0.000    0.000    0.000 
#
# Total GULP energy -297387.925886 kJ/mol
# GULP energy per Si atom -12391.163579 kJ/mol
# Density = 1.975592 g / cm^3
# Si number density = 19.800986 Si / 1000 Ang^3
#
#
#
# Elastic Constant Matrix: (Units=GPa)
#
#
# Indices 1 2 3 4 5 6 
#
# 1 56.6322 2.2814 45.6438 0.0000 -3.3145 0.0000
# 2 2.2814 50.0424 31.6075 0.0000 3.5791 0.0000
# 3 45.6438 31.6075 187.3559 0.0000 -9.3586 0.0000
# 4 0.0000 0.0000 0.0000 10.1251 0.0000 0.1187
# 5 -3.3145 3.5791 -9.3586 0.0000 23.2422 0.0000
# 6 0.0000 0.0000 0.0000 0.1187 0.0000 23.0739
#
#
#
# Elastic Compliance Matrix: (Units=1/GPa)
#
#
# Indices 1 2 3 4 5 6 
#
# 1 0.022297 0.002655 -0.005859 0.000000 0.000412 0.000000
# 2 0.002655 0.023282 -0.004832 0.000000 -0.005152 0.000000
# 3 -0.005859 -0.004832 0.007731 0.000000 0.003021 0.000000
# 4 0.000000 0.000000 0.000000 0.098771 0.000000 -0.000508
# 5 0.000412 -0.005152 0.003021 0.000000 0.045094 0.000000
# 6 0.000000 0.000000 0.000000 -0.000508 0.000000 0.043342
#
#
# Mechanical properties :
#
#
# Convention : Reuss Voigt Hill
#
# Bulk Modulus (GPa) = 26.85432 50.34399 38.59915
# Shear Modulus (GPa) = 18.58717 25.58809 22.08763
#
# Velocity S-wave (km/s) = 3.06714 3.59871 3.34351
# Velocity P-wave (km/s) = 5.11221 6.53818 5.86867
#
# Compressibility (1/GPa) = 0.03723796
#
# Stress axis : x y z
#
# Youngs Moduli (GPa) = 44.84811 42.95077 129.34900
#
# Poissons Ratio (x) = -0.11403 0.75792
# Poissons Ratio (y) = -0.11907 0.62501
# Poissons Ratio (z) = 0.26279 0.20754
#
# Static dielectric constant tensor:
#      x y z
#    x 3.131780 0.000000 -0.161650 
#    y 0.000000 3.361450 0.000000 
#    z -0.161650 0.000000 4.515530 
# 
# 
# High freq. dielectric constant tensor:
#      x y z
#    x 1.722310 0.000000 -0.006570 
#    y 0.000000 1.751130 0.000000 
#    z -0.006570 0.000000 1.805630 
# 
# From -- ./inp_files/60190.got.cif
#   From: 2010.06.25/outbox.cif.g09.slc.cpg/sg10_31_cif.got.tgz:60190.got - 2010.06.27 22:07:45.
