data_PCOD8061544
_publ_section_title
;
Structure prediction by ZEFSAII (Michael W. Deem and Ramdas Pophale) SiO2 
 PCOD8061544
Probable space group: P 2/M
;
_chemical_formula_sum "Si O2"
_cell_formula_units_Z 32
_cell_length_a 29.507457
_cell_length_b 8.876686
_cell_length_c 12.581139
_cell_angle_alpha 90.000000
_cell_angle_beta 149.938447
_cell_angle_gamma 90.000000
_cell_volume 1650.743957
_symmetry_space_group_name_H-M "P 2/M"
_symmetry_group_IT_number 10
_symmetry_cell_setting 'monoclinic'
loop_
_space_group_symop_operation_xyz
x,y,z
-x,y,-z
-x,-y,-z
x,-y,z
loop_
_atom_site_type_symbol
_atom_site_label
_atom_site_fract_x
_atom_site_fract_y
_atom_site_fract_z
Si Si1 0.487336 0.820871 0.597021
Si Si2 0.055293 0.333222 0.506261
Si Si3 0.004195 0.176173 0.203758
Si Si4 0.706880 0.176337 0.720548
Si Si5 0.660553 0.322737 0.022310
Si Si6 0.204302 0.822823 0.535520
Si Si7 0.186956 0.178121 0.265004
Si Si8 0.771208 0.825809 0.075594
O O1 0.500000 0.768229 0.500000
O O2 0.391937 0.760009 0.450019
O O3 0.494233 0.000000 0.617231
O O4 0.560824 0.748776 0.826124
O O5 0.093777 0.500000 0.555942
O O6 0.134278 0.211729 0.678162
O O7 0.000000 0.344354 0.500000
O O8 0.990464 0.271398 0.283077
O O9 0.099907 0.220522 0.345807
O O10 0.000239 0.000000 0.222605
O O11 0.919120 0.223995 0.958044
O O12 0.751361 0.249951 0.704591
O O13 0.697567 0.000000 0.683074
O O14 0.773655 0.210284 0.955224
O O15 0.653923 0.500000 0.020493
O O16 0.726819 0.262031 0.248130
O O17 0.695497 0.275993 0.976911
O O18 0.224780 0.769837 0.456218
O O19 0.219246 0.000000 0.581200
O O20 0.192746 0.000000 0.268084
O O21 0.746968 0.000000 0.047718
#
# Coordination Sequence:
#
# PCOD8061544 Si02
#       8
#     4   4   4   4   4   4   4   4
#     4  10  19  36  60  85 113 146 186 233 283 339
#     4  11  23  35  48  76 119 159 190 227 278 335
#     4  10  19  33  56  83 111 147 191 237 279 327
#     4   9  18  33  57  86 114 142 180 236 290 335
#     4  12  24  37  56  84 116 148 186 233 285 339
#     4  10  20  36  59  84 113 150 190 234 280 330
#     4   9  18  34  57  87 114 141 188 240 283 330
#     4  11  20  35  58  83 112 148 189 232 283 337
#
# _framework density 19.385200000000001
#
# number of rings (size 3 to 8) (size 9 to 14) (size 15 to 20)
#    0.000    1.750    2.500    3.000    0.000    3.750 
#    0.000    1.250    0.000    8.250    0.000    0.000 
#    0.000    0.000    0.000    0.000    0.000    0.000 
#
# Total GULP energy -396681.422856 kJ/mol
# GULP energy per Si atom -12396.294464 kJ/mol
# Density = 1.934108 g / cm^3
# Si number density = 19.385200 Si / 1000 Ang^3
#
#
#
# Elastic Constant Matrix: (Units=GPa)
#
#
# Indices 1 2 3 4 5 6 
#
# 1 107.7725 25.9363 53.7004 0.0000 -11.4586 0.0000
# 2 25.9363 50.7630 37.0099 0.0000 -2.9938 0.0000
# 3 53.7004 37.0099 113.3868 0.0000 2.0342 0.0000
# 4 0.0000 0.0000 0.0000 3.7116 0.0000 4.2707
# 5 -11.4586 -2.9938 2.0342 0.0000 30.0396 0.0000
# 6 0.0000 0.0000 0.0000 4.2707 0.0000 11.0426
#
#
#
# Elastic Compliance Matrix: (Units=1/GPa)
#
#
# Indices 1 2 3 4 5 6 
#
# 1 0.013166 -0.002374 -0.005553 0.000000 0.005162 0.000000
# 2 -0.002374 0.026581 -0.007592 0.000000 0.002258 0.000000
# 3 -0.005553 -0.007592 0.013996 0.000000 -0.003823 0.000000
# 4 0.000000 0.000000 0.000000 0.485456 0.000000 -0.187748
# 5 0.005162 0.002258 -0.003823 0.000000 0.035742 0.000000
# 6 0.000000 0.000000 0.000000 -0.187748 0.000000 0.163169
#
#
# Mechanical properties :
#
#
# Convention : Reuss Voigt Hill
#
# Bulk Modulus (GPa) = 44.04481 56.13506 50.08993
# Shear Modulus (GPa) = 6.43736 19.31047 12.87392
#
# Velocity S-wave (km/s) = 1.82427 3.15960 2.57983
# Velocity P-wave (km/s) = 5.21608 6.50625 5.89656
#
# Compressibility (1/GPa) = 0.02270415
#
# Stress axis : x y z
#
# Youngs Moduli (GPa) = 75.95381 37.62130 71.44819
#
# Poissons Ratio (x) = 0.08930 0.39677
# Poissons Ratio (y) = 0.18029 0.54246
# Poissons Ratio (z) = 0.42179 0.28563
#
# Static dielectric constant tensor:
#      x y z
#    x 3.859360 0.000000 0.078830 
#    y 0.000000 3.365200 0.000000 
#    z 0.078830 0.000000 3.821630 
# 
# 
# High freq. dielectric constant tensor:
#      x y z
#    x 1.750440 0.000000 -0.001640 
#    y 0.000000 1.720750 0.000000 
#    z -0.001640 0.000000 1.760590 
# 
# From -- ./inp_files/58341.got.cif
#   From: 2010.06.25/outbox.cif.g09.slc.cpg/sg10_30_cif.got.tgz:58341.got - 2010.06.27 22:07:45.
