data_PCOD8061692
_publ_section_title
;
Structure prediction by ZEFSAII (Michael W. Deem and Ramdas Pophale) SiO2 
 PCOD8061692
Probable space group: P 2/M
;
_chemical_formula_sum "Si O2"
_cell_formula_units_Z 28
_cell_length_a 14.283261
_cell_length_b 9.248420
_cell_length_c 14.352996
_cell_angle_alpha 90.000000
_cell_angle_beta 59.991705
_cell_angle_gamma 90.000000
_cell_volume 1641.843678
_symmetry_space_group_name_H-M "P 2/M"
_symmetry_group_IT_number 10
_symmetry_cell_setting 'monoclinic'
loop_
_space_group_symop_operation_xyz
x,y,z
-x,y,-z
-x,-y,-z
x,-y,z
loop_
_atom_site_type_symbol
_atom_site_label
_atom_site_fract_x
_atom_site_fract_y
_atom_site_fract_z
Si Si1 0.759285 0.833465 0.453576
Si Si2 0.430051 0.661045 0.788405
Si Si3 0.778819 0.170261 0.773302
Si Si4 0.614718 0.670515 0.984315
Si Si5 0.678491 0.663434 0.658156
Si Si6 0.406678 0.834519 0.614440
Si Si7 0.009261 0.830459 0.599550
O O1 0.683979 0.730119 0.552769
O O2 0.712003 0.817575 0.372894
O O3 0.882925 0.777250 0.400055
O O4 0.748683 0.000000 0.492121
O O5 0.393597 0.500000 0.778595
O O6 0.555680 0.662927 0.751985
O O7 0.399194 0.761476 0.718313
O O8 0.372913 0.710002 0.912708
O O9 0.714651 0.249396 0.886691
O O10 0.745294 0.229792 0.689782
O O11 0.906751 0.206758 0.716202
O O12 0.755514 0.000000 0.789753
O O13 0.626080 0.500000 0.960149
O O14 0.500000 0.725388 0.000000
O O15 0.725251 0.500000 0.637651
O O16 0.500000 0.768398 0.500000
O O17 0.437198 0.000000 0.618237
O O18 0.000000 0.760038 0.500000
O O19 0.016518 0.000000 0.581550
#
# Coordination Sequence:
#
# PCOD8061692 Si02
#       7
#     4   4   4   4   4   4   4
#     4  10  19  34  52  74 106 141 170 206 258 305
#     4  10  21  35  52  72 103 143 171 200 251 314
#     4  11  21  33  52  78 104 136 175 212 251 303
#     4  10  20  37  54  73 104 138 170 207 260 311
#     4  11  20  31  49  76 107 139 171 207 249 304
#     4  10  20  32  51  79 106 131 168 217 256 294
#     4   9  17  31  52  75 103 138 169 204 256 310
#
# _framework density 17.053999000000001
#
# number of rings (size 3 to 8) (size 9 to 14) (size 15 to 20)
#    0.000    1.857    4.286    0.857    0.000    2.286 
#    0.000    2.143    0.000    0.857    0.000    6.000 
#    0.000    0.000    0.000    0.000    0.000    0.000 
#
# Total GULP energy -347098.619631 kJ/mol
# GULP energy per Si atom -12396.379273 kJ/mol
# Density = 1.701518 g / cm^3
# Si number density = 17.053999 Si / 1000 Ang^3
#
#
#
# Elastic Constant Matrix: (Units=GPa)
#
#
# Indices 1 2 3 4 5 6 
#
# 1 97.7071 30.6361 43.5460 0.0000 1.9886 0.0000
# 2 30.6361 61.5063 49.2730 0.0000 5.3043 0.0000
# 3 43.5460 49.2730 94.2104 0.0000 3.9498 0.0000
# 4 0.0000 0.0000 0.0000 21.9292 0.0000 7.0014
# 5 1.9886 5.3043 3.9498 0.0000 24.8314 0.0000
# 6 0.0000 0.0000 0.0000 7.0014 0.0000 19.3139
#
#
#
# Elastic Compliance Matrix: (Units=1/GPa)
#
#
# Indices 1 2 3 4 5 6 
#
# 1 0.013186 -0.002928 -0.004576 0.000000 0.000297 0.000000
# 2 -0.002928 0.028970 -0.013640 0.000000 -0.003784 0.000000
# 3 -0.004576 -0.013640 0.019858 0.000000 0.000121 0.000000
# 4 0.000000 0.000000 0.000000 0.051570 0.000000 -0.018694
# 5 0.000297 -0.003784 0.000121 0.000000 0.041037 0.000000
# 6 0.000000 0.000000 0.000000 -0.018694 0.000000 0.058553
#
#
# Mechanical properties :
#
#
# Convention : Reuss Voigt Hill
#
# Bulk Modulus (GPa) = 50.69094 55.59268 53.14181
# Shear Modulus (GPa) = 19.08127 21.87946 20.48037
#
# Velocity S-wave (km/s) = 3.34859 3.58572 3.46918
# Velocity P-wave (km/s) = 6.68872 7.05776 6.87572
#
# Compressibility (1/GPa) = 0.01972739
#
# Stress axis : x y z
#
# Youngs Moduli (GPa) = 75.83751 34.51858 50.35651
#
# Poissons Ratio (x) = 0.10106 0.23044
# Poissons Ratio (y) = 0.22202 0.68685
# Poissons Ratio (z) = 0.34705 0.47082
#
# Static dielectric constant tensor:
#      x y z
#    x 3.226020 0.000000 -0.112890 
#    y 0.000000 3.087270 0.000000 
#    z -0.112890 0.000000 3.143330 
# 
# 
# High freq. dielectric constant tensor:
#      x y z
#    x 1.648110 0.000000 -0.000310 
#    y 0.000000 1.647660 0.000000 
#    z -0.000310 0.000000 1.646960 
# 
# From -- ./inp_files/49147.got.cif
#   From: 2010.06.25/outbox.cif.g09.slc.cpg/sg10_25_cif.got.tgz:49147.got - 2010.06.27 22:07:45.
