data_PCOD8061962
_publ_section_title
;
Structure prediction by ZEFSAII (Michael W. Deem and Ramdas Pophale) SiO2 
 PCOD8061962
Probable space group: P 2/M
;
_chemical_formula_sum "Si O2"
_cell_formula_units_Z 32
_cell_length_a 21.973429
_cell_length_b 8.988923
_cell_length_c 11.278115
_cell_angle_alpha 90.000000
_cell_angle_beta 131.633916
_cell_angle_gamma 90.000000
_cell_volume 1664.937688
_symmetry_space_group_name_H-M "P 2/M"
_symmetry_group_IT_number 10
_symmetry_cell_setting 'monoclinic'
loop_
_space_group_symop_operation_xyz
x,y,z
-x,y,-z
-x,-y,-z
x,-y,z
loop_
_atom_site_type_symbol
_atom_site_label
_atom_site_fract_x
_atom_site_fract_y
_atom_site_fract_z
Si Si1 0.971559 0.324030 0.832434
Si Si2 0.644648 0.667582 0.900991
Si Si3 0.195044 0.323888 0.494499
Si Si4 0.104662 0.825103 0.852519
Si Si5 0.239265 0.335780 0.157227
Si Si6 0.508414 0.175352 0.376192
Si Si7 0.666472 0.670092 0.488338
Si Si8 0.805779 0.323177 0.240870
O O1 0.983812 0.500000 0.835970
O O2 0.878192 0.274806 0.687817
O O3 0.021770 0.244006 0.794017
O O4 0.000000 0.270347 0.000000
O O5 0.617851 0.500000 0.898093
O O6 0.678392 0.678125 0.811409
O O7 0.565235 0.770679 0.802992
O O8 0.714693 0.723238 0.081630
O O9 0.196920 0.500000 0.502832
O O10 0.284351 0.271666 0.563773
O O11 0.181448 0.262337 0.609709
O O12 0.126600 0.753957 0.753846
O O13 0.094958 0.000000 0.824790
O O14 0.175231 0.789866 0.038923
O O15 0.199794 0.500000 0.084073
O O16 0.262984 0.316875 0.322912
O O17 0.500000 0.238866 0.500000
O O18 0.590884 0.226574 0.419956
O O19 0.508009 0.000000 0.379288
O O20 0.635660 0.500000 0.435986
O O21 0.816435 0.500000 0.242332
#
# Coordination Sequence:
#
# PCOD8061962 Si02
#       8
#     4   4   4   4   4   4   4   4
#     4  10  20  37  61  86 114 144 179 223 277 330
#     4   9  17  31  53  77 103 139 179 226 272 316
#     4   9  19  36  60  84 105 139 186 235 274 318
#     4  11  22  34  53  82 114 148 185 224 271 322
#     4   9  17  31  53  80 109 141 180 225 274 326
#     4  11  22  33  49  79 116 146 176 218 272 334
#     4  10  19  34  57  82 108 139 181 228 279 328
#     4   9  19  38  59  80 107 142 190 233 271 316
#
# _framework density 19.219937999999999
#
# number of rings (size 3 to 8) (size 9 to 14) (size 15 to 20)
#    0.000    2.250    1.250    3.000    0.000    5.750 
#    0.000    5.000    0.000    3.750    0.000    0.000 
#    0.000    0.000    0.000    0.000    0.000    0.000 
#
# Total GULP energy -396700.510442 kJ/mol
# GULP energy per Si atom -12396.890951 kJ/mol
# Density = 1.917619 g / cm^3
# Si number density = 19.219938 Si / 1000 Ang^3
#
#
#
# Elastic Constant Matrix: (Units=GPa)
#
#
# Indices 1 2 3 4 5 6 
#
# 1 131.8193 38.7628 54.5412 0.0000 3.3311 0.0000
# 2 38.7628 57.5758 27.4698 0.0000 3.6282 0.0000
# 3 54.5412 27.4698 82.0666 0.0000 -1.1602 0.0000
# 4 0.0000 0.0000 0.0000 9.8430 0.0000 0.0904
# 5 3.3311 3.6282 -1.1602 0.0000 29.6357 0.0000
# 6 0.0000 0.0000 0.0000 0.0904 0.0000 14.4672
#
#
#
# Elastic Compliance Matrix: (Units=1/GPa)
#
#
# Indices 1 2 3 4 5 6 
#
# 1 0.011536 -0.004811 -0.006070 0.000000 -0.000945 0.000000
# 2 -0.004811 0.022911 -0.004506 0.000000 -0.002441 0.000000
# 3 -0.006070 -0.004506 0.017755 0.000000 0.001929 0.000000
# 4 0.000000 0.000000 0.000000 0.101601 0.000000 -0.000635
# 5 -0.000945 -0.002441 0.001929 0.000000 0.034224 0.000000
# 6 0.000000 0.000000 0.000000 -0.000635 0.000000 0.069126
#
#
# Mechanical properties :
#
#
# Convention : Reuss Voigt Hill
#
# Bulk Modulus (GPa) = 46.66766 57.00102 51.83434
# Shear Modulus (GPa) = 16.94519 20.83505 18.89012
#
# Velocity S-wave (km/s) = 2.97247 3.29604 3.13843
# Velocity P-wave (km/s) = 6.00952 6.64882 6.33724
#
# Compressibility (1/GPa) = 0.02142812
#
# Stress axis : x y z
#
# Youngs Moduli (GPa) = 86.68300 43.64692 56.32284
#
# Poissons Ratio (x) = 0.20999 0.34187
# Poissons Ratio (y) = 0.41705 0.25379
# Poissons Ratio (z) = 0.52616 0.19667
#
# Static dielectric constant tensor:
#      x y z
#    x 3.623300 0.000000 -0.076020 
#    y 0.000000 3.203330 0.000000 
#    z -0.076020 0.000000 3.505370 
# 
# 
# High freq. dielectric constant tensor:
#      x y z
#    x 1.751200 0.000000 0.004300 
#    y 0.000000 1.716430 0.000000 
#    z 0.004300 0.000000 1.738780 
# 
# From -- ./inp_files/55361.got.cif
#   From: 2010.06.25/outbox.cif.g09.slc.cpg/sg10_28_cif.got.tgz:55361.got - 2010.06.27 22:07:45.
