data_PCOD8061829
_publ_section_title
;
Structure prediction by ZEFSAII (Michael W. Deem and Ramdas Pophale) SiO2 
 PCOD8061829
Probable space group: P 2/M
;
_chemical_formula_sum "Si O2"
_cell_formula_units_Z 28
_cell_length_a 11.876137
_cell_length_b 8.942355
_cell_length_c 15.088311
_cell_angle_alpha 90.000000
_cell_angle_beta 119.181296
_cell_angle_gamma 90.000000
_cell_volume 1399.015141
_symmetry_space_group_name_H-M "P 2/M"
_symmetry_group_IT_number 10
_symmetry_cell_setting 'monoclinic'
loop_
_space_group_symop_operation_xyz
x,y,z
-x,y,-z
-x,-y,-z
x,-y,z
loop_
_atom_site_type_symbol
_atom_site_label
_atom_site_fract_x
_atom_site_fract_y
_atom_site_fract_z
Si Si1 0.759501 0.826116 0.704654
Si Si2 0.627784 0.323904 0.807415
Si Si3 0.122991 0.324792 0.994290
Si Si4 0.919632 0.176489 0.383157
Si Si5 0.010712 0.673877 0.771999
Si Si6 0.361826 0.334787 0.490011
Si Si7 0.654961 0.329089 0.311874
O O1 0.644685 0.769322 0.723445
O O2 0.725369 0.791866 0.589144
O O3 0.884092 0.727599 0.776246
O O4 0.787375 0.000000 0.728138
O O5 0.639062 0.500000 0.789807
O O6 0.482522 0.291633 0.788904
O O7 0.738035 0.266117 0.917658
O O8 0.116612 0.500000 0.008859
O O9 0.121358 0.291332 0.887634
O O10 0.000000 0.252475 0.000000
O O11 0.979383 0.235990 0.315191
O O12 0.770443 0.224541 0.324612
O O13 0.000000 0.238103 0.500000
O O14 0.927915 0.000000 0.385211
O O15 0.004938 0.500000 0.746071
O O16 0.500000 0.329963 0.500000
O O17 0.300049 0.500000 0.452001
O O18 0.370906 0.297265 0.595810
O O19 0.695918 0.500000 0.308449
#
# Coordination Sequence:
#
# PCOD8061829 Si02
#       7
#     4   4   4   4   4   4   4
#     4  12  23  33  51  85 124 159 192 236 300 359
#     4  10  19  37  60  86 119 154 196 244 293 351
#     4   9  17  33  62  93 119 151 197 250 301 344
#     4  11  25  44  63  85 118 158 200 248 300 357
#     4  11  22  39  64  89 115 154 204 252 296 350
#     4  10  19  34  55  82 113 150 195 242 291 348
#     4  10  21  37  61  87 115 154 199 246 295 351
#
# _framework density 20.014081000000001
#
# number of rings (size 3 to 8) (size 9 to 14) (size 15 to 20)
#    0.000    1.571    2.857    3.000    0.000    4.857 
#    0.000    2.857    0.000    4.286    0.000    0.000 
#    0.000    0.000    0.000    0.000    0.000    0.000 
#
# Total GULP energy -347039.963430 kJ/mol
# GULP energy per Si atom -12394.284408 kJ/mol
# Density = 1.996853 g / cm^3
# Si number density = 20.014081 Si / 1000 Ang^3
#
#
#
# Elastic Constant Matrix: (Units=GPa)
#
#
# Indices 1 2 3 4 5 6 
#
# 1 84.2453 25.8454 33.8325 0.0000 13.5275 0.0000
# 2 25.8454 60.6979 37.0543 0.0000 2.1298 0.0000
# 3 33.8325 37.0543 104.5882 0.0000 18.8009 0.0000
# 4 0.0000 0.0000 0.0000 8.4919 0.0000 -2.9065
# 5 13.5275 2.1298 18.8009 0.0000 32.3505 0.0000
# 6 0.0000 0.0000 0.0000 -2.9065 0.0000 18.1016
#
#
#
# Elastic Compliance Matrix: (Units=1/GPa)
#
#
# Indices 1 2 3 4 5 6 
#
# 1 0.015022 -0.004816 -0.002324 0.000000 -0.004614 0.000000
# 2 -0.004816 0.022883 -0.007415 0.000000 0.004817 0.000000
# 3 -0.002324 -0.007415 0.014157 0.000000 -0.006768 0.000000
# 4 0.000000 0.000000 0.000000 0.124607 0.000000 0.020007
# 5 -0.004614 0.004817 -0.006768 0.000000 0.036457 0.000000
# 6 0.000000 0.000000 0.000000 0.020007 0.000000 0.058456
#
#
# Mechanical properties :
#
#
# Convention : Reuss Voigt Hill
#
# Bulk Modulus (GPa) = 43.56907 49.22174 46.39540
# Shear Modulus (GPa) = 16.21576 21.97542 19.09559
#
# Velocity S-wave (km/s) = 2.84952 3.31720 3.09221
# Velocity P-wave (km/s) = 5.71339 6.27046 5.99840
#
# Compressibility (1/GPa) = 0.02295206
#
# Stress axis : x y z
#
# Youngs Moduli (GPa) = 66.57098 43.69969 70.63810
#
# Poissons Ratio (x) = 0.21045 0.16414
# Poissons Ratio (y) = 0.32059 0.52381
# Poissons Ratio (z) = 0.15469 0.32405
#
# Static dielectric constant tensor:
#      x y z
#    x 3.748280 0.000000 0.275940 
#    y 0.000000 3.364040 0.000000 
#    z 0.275940 0.000000 3.952950 
# 
# 
# High freq. dielectric constant tensor:
#      x y z
#    x 1.770890 0.000000 0.015120 
#    y 0.000000 1.754310 0.000000 
#    z 0.015120 0.000000 1.785600 
# 
# From -- ./inp_files/63405.got.cif
#   From: 2010.06.25/outbox.cif.g09.slc.cpg/sg10_32_cif.got.tgz:63405.got - 2010.06.27 22:07:45.
