data_PCOD8061182
_publ_section_title
;
Structure prediction by ZEFSAII (Michael W. Deem and Ramdas Pophale) SiO2 
 PCOD8061182
Probable space group: P 2/M
;
_chemical_formula_sum "Si O2"
_cell_formula_units_Z 24
_cell_length_a 13.370307
_cell_length_b 10.333329
_cell_length_c 12.420513
_cell_angle_alpha 90.000000
_cell_angle_beta 131.910235
_cell_angle_gamma 90.000000
_cell_volume 1277.045306
_symmetry_space_group_name_H-M "P 2/M"
_symmetry_group_IT_number 10
_symmetry_cell_setting 'monoclinic'
loop_
_space_group_symop_operation_xyz
x,y,z
-x,y,-z
-x,-y,-z
x,-y,z
loop_
_atom_site_type_symbol
_atom_site_label
_atom_site_fract_x
_atom_site_fract_y
_atom_site_fract_z
Si Si1 0.348676 0.265416 0.393993
Si Si2 0.108912 0.152233 0.860854
Si Si3 0.065065 0.643258 0.161526
Si Si4 0.650168 0.146776 0.826284
Si Si5 0.641289 0.845617 0.368282
Si Si6 0.859350 0.150766 0.361538
O O1 0.500000 0.328943 0.500000
O O2 0.228488 0.363451 0.276321
O O3 0.343736 0.154840 0.298634
O O4 0.312236 0.205091 0.482501
O O5 0.164812 0.175167 0.781356
O O6 0.979415 0.242945 0.788020
O O7 0.071209 0.000000 0.852136
O O8 0.222656 0.210178 0.022625
O O9 0.016056 0.500000 0.162836
O O10 0.000000 0.677756 0.000000
O O11 0.508926 0.206820 0.765956
O O12 0.656457 0.000000 0.868020
O O13 0.738682 0.788770 0.345689
O O14 0.640861 0.000000 0.372408
O O15 0.000000 0.214485 0.500000
O O16 0.863752 0.000000 0.392508
#
# Coordination Sequence:
#
# PCOD8061182 Si02
#       6
#     4   4   4   4   4   4
#     4  10  19  33  53  76 106 140 178 217 263 313
#     4  10  20  34  55  80 107 138 178 223 261 309
#     4  11  23  38  55  79 109 140 174 216 271 323
#     4   9  17  29  47  78 110 138 175 219 266 312
#     4   9  17  29  49  77 112 145 173 214 268 315
#     4   9  17  29  46  72 105 141 178 215 260 311
#
# _framework density 18.793381
#
# number of rings (size 3 to 8) (size 9 to 14) (size 15 to 20)
#    0.000    2.333    1.667    1.500    0.000    6.000 
#    0.000    3.333    0.000    4.500    0.000    1.167 
#    0.000    0.000    0.000    0.000    0.000    0.000 
#
# Total GULP energy -297353.795854 kJ/mol
# GULP energy per Si atom -12389.741494 kJ/mol
# Density = 1.875061 g / cm^3
# Si number density = 18.793381 Si / 1000 Ang^3
#
#
#
# Elastic Constant Matrix: (Units=GPa)
#
#
# Indices 1 2 3 4 5 6 
#
# 1 135.9955 40.0551 51.4728 0.0000 4.1580 0.0000
# 2 40.0551 51.3954 21.0534 0.0000 1.5578 0.0000
# 3 51.4728 21.0534 110.6766 0.0000 12.7631 0.0000
# 4 0.0000 0.0000 0.0000 7.9443 0.0000 0.8018
# 5 4.1580 1.5578 12.7631 0.0000 30.9142 0.0000
# 6 0.0000 0.0000 0.0000 0.8018 0.0000 7.2836
#
#
#
# Elastic Compliance Matrix: (Units=1/GPa)
#
#
# Indices 1 2 3 4 5 6 
#
# 1 0.010790 -0.006882 -0.003761 0.000000 0.000448 0.000000
# 2 -0.006882 0.025502 -0.001689 0.000000 0.000338 0.000000
# 3 -0.003761 -0.001689 0.011589 0.000000 -0.004194 0.000000
# 4 0.000000 0.000000 0.000000 0.127290 0.000000 -0.014013
# 5 0.000448 0.000338 -0.004194 0.000000 0.034002 0.000000
# 6 0.000000 0.000000 0.000000 -0.014013 0.000000 0.138838
#
#
# Mechanical properties :
#
#
# Convention : Reuss Voigt Hill
#
# Bulk Modulus (GPa) = 43.07168 58.13668 50.60418
# Shear Modulus (GPa) = 13.14354 21.59416 17.36885
#
# Velocity S-wave (km/s) = 2.64743 3.39341 3.04336
# Velocity P-wave (km/s) = 5.68449 6.80849 6.27172
#
# Compressibility (1/GPa) = 0.02321711
#
# Stress axis : x y z
#
# Youngs Moduli (GPa) = 92.67962 39.21190 86.28658
#
# Poissons Ratio (x) = 0.26986 0.32449
# Poissons Ratio (y) = 0.63784 0.14578
# Poissons Ratio (z) = 0.34853 0.06625
#
# Static dielectric constant tensor:
#      x y z
#    x 3.665270 0.000000 0.264120 
#    y 0.000000 2.873180 0.000000 
#    z 0.264120 0.000000 3.638230 
# 
# 
# High freq. dielectric constant tensor:
#      x y z
#    x 1.734390 0.000000 0.012300 
#    y 0.000000 1.666090 0.000000 
#    z 0.012300 0.000000 1.745460 
# 
# From -- ./inp_files/36092.got.cif
#   From: 2010.06.25/outbox.cif.g09.slc.cpg/sg10_19_cif.got.tgz:36092.got - 2010.06.27 22:07:45.
