data_PCOD8061561
_publ_section_title
;
Structure prediction by ZEFSAII (Michael W. Deem and Ramdas Pophale) SiO2 
 PCOD8061561
Probable space group: P 2/M
;
_chemical_formula_sum "Si O2"
_cell_formula_units_Z 28
_cell_length_a 14.734152
_cell_length_b 12.888199
_cell_length_c 9.066372
_cell_angle_alpha 90.000000
_cell_angle_beta 60.566525
_cell_angle_gamma 90.000000
_cell_volume 1499.452092
_symmetry_space_group_name_H-M "P 2/M"
_symmetry_group_IT_number 10
_symmetry_cell_setting 'monoclinic'
loop_
_space_group_symop_operation_xyz
x,y,z
-x,y,-z
-x,-y,-z
x,-y,z
loop_
_atom_site_type_symbol
_atom_site_label
_atom_site_fract_x
_atom_site_fract_y
_atom_site_fract_z
Si Si1 0.170058 0.380701 0.457075
Si Si2 0.646318 0.307618 0.491241
Si Si3 0.957493 0.814213 0.381277
Si Si4 0.778639 0.117362 0.330063
Si Si5 0.759900 0.620927 0.922344
Si Si6 0.903376 0.233912 0.984611
Si Si7 0.563968 0.380750 0.251168
O O1 0.132009 0.500000 0.483399
O O2 0.261178 0.369347 0.503505
O O3 0.072257 0.308301 0.578044
O O4 0.213432 0.342441 0.263897
O O5 0.677401 0.187665 0.441685
O O6 0.626695 0.363940 0.352316
O O7 0.540328 0.310745 0.672825
O O8 0.856132 0.876824 0.408590
O O9 0.000000 0.860988 0.500000
O O10 0.050987 0.828619 0.190853
O O11 0.740296 0.000000 0.338755
O O12 0.837438 0.154674 0.136066
O O13 0.778642 0.500000 0.926169
O O14 0.832186 0.672995 0.987052
O O15 0.639251 0.648945 0.054448
O O16 0.000000 0.281423 0.000000
O O17 0.528452 0.500000 0.269699
#
# Coordination Sequence:
#
# PCOD8061561 Si02
#       7
#     4   4   4   4   4   4   4
#     4  10  20  33  52  80 115 148 176 212 262 321
#     4  10  19  35  56  78 107 141 175 225 271 315
#     4  10  20  34  56  80 109 141 178 221 267 319
#     4  10  22  39  58  78 102 136 182 234 278 318
#     4  10  20  33  52  80 113 147 180 211 255 321
#     4  10  20  36  53  75 109 143 179 223 269 314
#     4  10  19  33  56  84 113 143 178 211 257 324
#
# _framework density 18.673487999999999
#
# number of rings (size 3 to 8) (size 9 to 14) (size 15 to 20)
#    0.000    2.000    2.857    1.714    0.000    4.571 
#    0.000    3.571    0.000    0.000    0.000    4.000 
#    0.000    0.000    0.000    0.000    0.000    0.000 
#
# Total GULP energy -347185.820698 kJ/mol
# GULP energy per Si atom -12399.493596 kJ/mol
# Density = 1.863099 g / cm^3
# Si number density = 18.673488 Si / 1000 Ang^3
#
#
#
# Elastic Constant Matrix: (Units=GPa)
#
#
# Indices 1 2 3 4 5 6 
#
# 1 69.2059 22.7473 30.8785 0.0000 -4.0274 0.0000
# 2 22.7473 86.5058 38.2354 0.0000 -15.3777 0.0000
# 3 30.8785 38.2354 90.6430 0.0000 -4.5530 0.0000
# 4 0.0000 0.0000 0.0000 15.7463 0.0000 -1.0674
# 5 -4.0274 -15.3777 -4.5530 0.0000 30.2851 0.0000
# 6 0.0000 0.0000 0.0000 -1.0674 0.0000 13.9002
#
#
#
# Elastic Compliance Matrix: (Units=1/GPa)
#
#
# Indices 1 2 3 4 5 6 
#
# 1 0.017443 -0.002335 -0.004938 0.000000 0.000392 0.000000
# 2 -0.002335 0.015852 -0.005545 0.000000 0.006905 0.000000
# 3 -0.004938 -0.005545 0.014992 0.000000 -0.001218 0.000000
# 4 0.000000 0.000000 0.000000 0.063839 0.000000 0.004902
# 5 0.000392 0.006905 -0.001218 0.000000 0.036395 0.000000
# 6 0.000000 0.000000 0.000000 0.004902 0.000000 0.072318
#
#
# Mechanical properties :
#
#
# Convention : Reuss Voigt Hill
#
# Bulk Modulus (GPa) = 44.14391 47.78635 45.96513
# Shear Modulus (GPa) = 19.68320 22.28587 20.98453
#
# Velocity S-wave (km/s) = 3.25017 3.45838 3.35589
# Velocity P-wave (km/s) = 6.14622 6.44928 6.29957
#
# Compressibility (1/GPa) = 0.02265318
#
# Stress axis : x y z
#
# Youngs Moduli (GPa) = 57.32994 63.08347 66.70223
#
# Poissons Ratio (x) = 0.14728 0.32935
# Poissons Ratio (y) = 0.13385 0.36984
# Poissons Ratio (z) = 0.28307 0.34977
#
# Static dielectric constant tensor:
#      x y z
#    x 3.449010 0.000000 -0.027000 
#    y 0.000000 3.100650 0.000000 
#    z -0.027000 0.000000 3.769530 
# 
# 
# High freq. dielectric constant tensor:
#      x y z
#    x 1.723400 0.000000 0.000900 
#    y 0.000000 1.691990 0.000000 
#    z 0.000900 0.000000 1.735910 
# 
# From -- ./inp_files/28494.got.cif
#   From: 2010.06.25/outbox.cif.g09.slc.cpg/sg10_15_cif.got.tgz:28494.got - 2010.06.27 22:07:45.
