data_PCOD8061715
_publ_section_title
;
Structure prediction by ZEFSAII (Michael W. Deem and Ramdas Pophale) SiO2 
 PCOD8061715
Probable space group: P 2/M
;
_chemical_formula_sum "Si O2"
_cell_formula_units_Z 24
_cell_length_a 18.162909
_cell_length_b 14.798190
_cell_length_c 9.784659
_cell_angle_alpha 90.000000
_cell_angle_beta 30.245198
_cell_angle_gamma 90.000000
_cell_volume 1324.686198
_symmetry_space_group_name_H-M "P 2/M"
_symmetry_group_IT_number 10
_symmetry_cell_setting 'monoclinic'
loop_
_space_group_symop_operation_xyz
x,y,z
-x,y,-z
-x,-y,-z
x,-y,z
loop_
_atom_site_type_symbol
_atom_site_label
_atom_site_fract_x
_atom_site_fract_y
_atom_site_fract_z
Si Si1 0.163165 0.812405 0.214585
Si Si2 0.414971 0.600542 0.276327
Si Si3 0.560550 0.295281 0.254253
Si Si4 0.685105 0.215452 0.505073
Si Si5 0.218411 0.897702 0.411970
Si Si6 0.882908 0.898172 0.994097
O O1 0.224114 0.863871 0.248308
O O2 0.000000 0.773842 0.500000
O O3 0.268356 0.728281 0.012936
O O4 0.163254 0.882133 0.088661
O O5 0.346440 0.500000 0.395709
O O6 0.535616 0.614748 0.203204
O O7 0.288516 0.677696 0.497698
O O8 0.500000 0.615336 0.000000
O O9 0.500000 0.315737 0.500000
O O10 0.468858 0.211802 0.331220
O O11 0.673856 0.159906 0.664143
O O12 0.812050 0.176157 0.206025
O O13 0.273585 0.000000 0.326350
O O14 0.056082 0.888790 0.734056
O O15 0.832777 0.000000 0.114720
#
# Coordination Sequence:
#
# PCOD8061715 Si02
#       6
#     4   4   4   4   4   4
#     4  10  19  34  54  77 107 148 187 223 259 310
#     4   9  19  35  58  80 103 135 173 219 276 331
#     4  10  20  36  55  79 111 138 181 219 273 319
#     4  10  20  33  54  77 107 135 181 223 265 316
#     4  10  20  33  53  78 108 148 187 219 262 314
#     4  10  19  34  53  76 109 150 185 215 261 320
#
# _framework density 18.117497
#
# number of rings (size 3 to 8) (size 9 to 14) (size 15 to 20)
#    1.000    1.167    1.667    2.500    0.000    3.667 
#    0.000    5.000    0.000    2.500    0.000    4.667 
#    0.000    0.000    0.000    0.000    0.000    0.000 
#
# Total GULP energy -297388.151769 kJ/mol
# GULP energy per Si atom -12391.172990 kJ/mol
# Density = 1.807626 g / cm^3
# Si number density = 18.117497 Si / 1000 Ang^3
#
#
#
# Elastic Constant Matrix: (Units=GPa)
#
#
# Indices 1 2 3 4 5 6 
#
# 1 99.6006 25.4725 27.3276 0.0000 25.2969 0.0000
# 2 25.4725 103.7485 58.0471 0.0000 20.0288 0.0000
# 3 27.3276 58.0471 77.7339 0.0000 16.1792 0.0000
# 4 0.0000 0.0000 0.0000 4.8544 0.0000 1.0407
# 5 25.2969 20.0288 16.1792 0.0000 22.3469 0.0000
# 6 0.0000 0.0000 0.0000 1.0407 0.0000 18.7281
#
#
#
# Elastic Compliance Matrix: (Units=1/GPa)
#
#
# Indices 1 2 3 4 5 6 
#
# 1 0.014376 0.000792 -0.002485 0.000000 -0.015185 0.000000
# 2 0.000792 0.017565 -0.011694 0.000000 -0.008173 0.000000
# 3 -0.002485 -0.011694 0.023199 0.000000 -0.003503 0.000000
# 4 0.000000 0.000000 0.000000 0.208483 0.000000 -0.011585
# 5 -0.015185 -0.008173 -0.003503 0.000000 0.071799 0.000000
# 6 0.000000 0.000000 0.000000 -0.011585 0.000000 0.054039
#
#
# Mechanical properties :
#
#
# Convention : Reuss Voigt Hill
#
# Bulk Modulus (GPa) = 35.25244 55.86417 45.55830
# Shear Modulus (GPa) = 11.74563 20.53492 16.14028
#
# Velocity S-wave (km/s) = 2.54894 3.37030 2.98798
# Velocity P-wave (km/s) = 5.30686 6.78576 6.09136
#
# Compressibility (1/GPa) = 0.02836683
#
# Stress axis : x y z
#
# Youngs Moduli (GPa) = 69.56061 56.93293 43.10514
#
# Poissons Ratio (x) = -0.04510 0.10711
# Poissons Ratio (y) = -0.05510 0.50405
# Poissons Ratio (z) = 0.17286 0.66575
#
# Static dielectric constant tensor:
#      x y z
#    x 3.500990 0.000000 0.147730 
#    y 0.000000 3.147550 0.000000 
#    z 0.147730 0.000000 3.174800 
# 
# 
# High freq. dielectric constant tensor:
#      x y z
#    x 1.714660 0.000000 0.025320 
#    y 0.000000 1.674690 0.000000 
#    z 0.025320 0.000000 1.689500 
# 
# From -- ./inp_files/32964.got.cif
#   From: 2010.06.25/outbox.cif.g09.slc.cpg/sg10_17_cif.got.tgz:32964.got - 2010.06.27 22:07:45.
