data_PCOD8061606
_publ_section_title
;
Structure prediction by ZEFSAII (Michael W. Deem and Ramdas Pophale) SiO2 
 PCOD8061606
Probable space group: P 2/M
;
_chemical_formula_sum "Si O2"
_cell_formula_units_Z 32
_cell_length_a 18.812600
_cell_length_b 13.479241
_cell_length_c 17.912742
_cell_angle_alpha 90.000000
_cell_angle_beta 22.350121
_cell_angle_gamma 90.000000
_cell_volume 1727.281425
_symmetry_space_group_name_H-M "P 2/M"
_symmetry_group_IT_number 10
_symmetry_cell_setting 'monoclinic'
loop_
_space_group_symop_operation_xyz
x,y,z
-x,y,-z
-x,-y,-z
x,-y,z
loop_
_atom_site_type_symbol
_atom_site_label
_atom_site_fract_x
_atom_site_fract_y
_atom_site_fract_z
Si Si1 0.784868 0.113799 0.190485
Si Si2 0.354584 0.212386 0.819885
Si Si3 0.260392 0.387176 0.111457
Si Si4 0.298328 0.888297 0.566243
Si Si5 0.030573 0.114177 0.218560
Si Si6 0.788164 0.389951 0.681595
Si Si7 0.122142 0.289614 0.551573
Si Si8 0.464992 0.386198 0.285132
O O1 0.729851 0.190788 0.179468
O O2 0.677922 0.144975 0.370505
O O3 0.737562 0.000000 0.212383
O O4 0.000000 0.123343 0.000000
O O5 0.563353 0.169317 0.622823
O O6 0.392219 0.329467 0.797193
O O7 0.230144 0.164417 0.006771
O O8 0.195240 0.500000 0.181640
O O9 0.315415 0.350325 0.142279
O O10 0.084653 0.334850 0.243518
O O11 0.447704 0.374664 0.882095
O O12 0.084568 0.877884 0.746952
O O13 0.365071 0.000000 0.495651
O O14 0.913787 0.172966 0.395946
O O15 0.056274 0.000000 0.219316
O O16 0.712819 0.500000 0.728621
O O17 0.778884 0.308350 0.624624
O O18 0.000000 0.402838 0.500000
O O19 0.255982 0.339574 0.484584
O O20 0.453651 0.500000 0.322734
#
# Coordination Sequence:
#
# PCOD8061606 Si02
#       8
#     4   4   4   4   4   4   4   4
#     4  10  19  33  57  85 110 137 176 229 281 326
#     4  12  21  36  55  80 112 146 176 220 278 322
#     4   9  18  34  55  82 112 139 179 233 277 322
#     4  10  20  35  56  84 110 137 179 226 273 323
#     4  11  22  35  54  82 111 143 185 222 266 329
#     4   8  15  29  54  82 107 138 177 226 282 323
#     4  11  19  35  54  79 111 147 177 220 277 321
#     4  11  23  35  54  84 111 145 187 217 265 333
#
# _framework density 18.526223999999999
#
# number of rings (size 3 to 8) (size 9 to 14) (size 15 to 20)
#    0.000    1.750    3.750    3.375    0.000    1.500 
#    0.000    1.875    0.000    5.250    0.000    0.875 
#    0.000    0.000    0.000    0.000    0.000    0.000 
#
# Total GULP energy -396484.454212 kJ/mol
# GULP energy per Si atom -12390.139194 kJ/mol
# Density = 1.848406 g / cm^3
# Si number density = 18.526224 Si / 1000 Ang^3
#
#
#
# Elastic Constant Matrix: (Units=GPa)
#
#
# Indices 1 2 3 4 5 6 
#
# 1 73.6945 54.5587 18.1747 0.0000 3.1496 0.0000
# 2 54.5587 124.8064 40.7963 0.0000 4.6710 0.0000
# 3 18.1747 40.7963 64.5804 0.0000 0.3751 0.0000
# 4 0.0000 0.0000 0.0000 21.9221 0.0000 0.7739
# 5 3.1496 4.6710 0.3751 0.0000 29.8574 0.0000
# 6 0.0000 0.0000 0.0000 0.7739 0.0000 28.6664
#
#
#
# Elastic Compliance Matrix: (Units=1/GPa)
#
#
# Indices 1 2 3 4 5 6 
#
# 1 0.020080 -0.008701 -0.000151 0.000000 -0.000755 0.000000
# 2 -0.008701 0.013935 -0.006347 0.000000 -0.001182 0.000000
# 3 -0.000151 -0.006347 0.019532 0.000000 0.000764 0.000000
# 4 0.000000 0.000000 0.000000 0.045660 0.000000 -0.001233
# 5 -0.000755 -0.001182 0.000764 0.000000 0.033748 0.000000
# 6 0.000000 0.000000 0.000000 -0.001233 0.000000 0.034917
#
#
# Mechanical properties :
#
#
# Convention : Reuss Voigt Hill
#
# Bulk Modulus (GPa) = 43.19572 54.46008 48.82790
# Shear Modulus (GPa) = 24.27353 26.05929 25.16641
#
# Velocity S-wave (km/s) = 3.62363 3.75456 3.68967
# Velocity P-wave (km/s) = 6.39329 6.94663 6.67570
#
# Compressibility (1/GPa) = 0.02315044
#
# Stress axis : x y z
#
# Youngs Moduli (GPa) = 49.80015 71.76232 51.19746
#
# Poissons Ratio (x) = 0.62437 0.00771
# Poissons Ratio (y) = 0.43329 0.32497
# Poissons Ratio (z) = 0.00750 0.45550
#
# Static dielectric constant tensor:
#      x y z
#    x 3.648980 0.000000 0.225240 
#    y 0.000000 3.296800 0.000000 
#    z 0.225240 0.000000 3.653430 
# 
# 
# High freq. dielectric constant tensor:
#      x y z
#    x 1.704210 0.000000 -0.008020 
#    y 0.000000 1.685320 0.000000 
#    z -0.008020 0.000000 1.738650 
# 
# From -- ./inp_files/86274.got.cif
#   From: 2010.06.25/outbox.cif.g09.slc.cpg/sg10_44_cif.got.tgz:86274.got - 2010.06.27 22:07:45.
