data_PCOD8061395
_publ_section_title
;
Structure prediction by ZEFSAII (Michael W. Deem and Ramdas Pophale) SiO2 
 PCOD8061395
Probable space group: P 2/M
;
_chemical_formula_sum "Si O2"
_cell_formula_units_Z 32
_cell_length_a 21.595302
_cell_length_b 9.041070
_cell_length_c 27.913132
_cell_angle_alpha 90.000000
_cell_angle_beta 161.152178
_cell_angle_gamma 90.000000
_cell_volume 1760.617838
_symmetry_space_group_name_H-M "P 2/M"
_symmetry_group_IT_number 10
_symmetry_cell_setting 'monoclinic'
loop_
_space_group_symop_operation_xyz
x,y,z
-x,y,-z
-x,-y,-z
x,-y,z
loop_
_atom_site_type_symbol
_atom_site_label
_atom_site_fract_x
_atom_site_fract_y
_atom_site_fract_z
Si Si1 0.366115 0.826777 0.042927
Si Si2 0.972763 0.669766 0.424202
Si Si3 0.785212 0.825809 0.830158
Si Si4 0.907462 0.669990 0.090064
Si Si5 0.615163 0.673422 0.793702
Si Si6 0.662844 0.173378 0.342202
Si Si7 0.453666 0.326312 0.912254
Si Si8 0.297579 0.329302 0.328305
O O1 0.543409 0.784080 0.207184
O O2 0.399276 0.754320 0.015570
O O3 0.345070 0.000000 0.020583
O O4 0.168667 0.766945 0.921369
O O5 0.007035 0.500000 0.434000
O O6 0.762020 0.724815 0.256242
O O7 0.000000 0.691748 0.500000
O O8 0.119859 0.773775 0.503968
O O9 0.642347 0.745685 0.761938
O O10 0.731846 0.776759 0.737979
O O11 0.758593 0.000000 0.815566
O O12 0.000000 0.775848 0.000000
O O13 0.868304 0.500000 0.074485
O O14 0.131978 0.702382 0.246286
O O15 0.796425 0.712705 0.959970
O O16 0.586639 0.500000 0.766381
O O17 0.423545 0.741965 0.675702
O O18 0.655758 0.000000 0.347001
O O19 0.479060 0.500000 0.922699
O O20 0.500000 0.278015 0.000000
O O21 0.500000 0.290635 0.500000
O O22 0.287144 0.500000 0.303810
#
# Coordination Sequence:
#
# PCOD8061395 Si02
#       8
#     4   4   4   4   4   4   4   4
#     4  10  20  33  53  80 109 141 178 222 270 325
#     4  10  19  33  55  80 105 137 179 220 263 318
#     4  11  22  35  55  83 115 147 182 228 281 333
#     4   9  18  33  55  81 108 141 181 226 272 323
#     4  10  19  33  56  82 110 144 185 231 277 326
#     4  10  20  33  52  81 114 142 176 225 279 326
#     4  10  21  37  56  79 108 142 180 223 267 317
#     4  10  21  38  59  84 113 148 191 233 277 331
#
# _framework density 18.175439000000001
#
# number of rings (size 3 to 8) (size 9 to 14) (size 15 to 20)
#    0.000    2.000    2.500    1.500    0.000    3.750 
#    0.000    1.250    0.000    3.000    0.000    0.000 
#    0.000    0.000    0.000    0.000    0.000    0.000 
#
# Total GULP energy -396949.170426 kJ/mol
# GULP energy per Si atom -12404.661576 kJ/mol
# Density = 1.813407 g / cm^3
# Si number density = 18.175439 Si / 1000 Ang^3
#
#
#
# Elastic Constant Matrix: (Units=GPa)
#
#
# Indices 1 2 3 4 5 6 
#
# 1 131.4728 60.6557 50.3665 0.0000 12.0769 0.0000
# 2 60.6557 76.1849 32.6891 0.0000 6.4327 0.0000
# 3 50.3665 32.6891 94.0955 0.0000 8.9815 0.0000
# 4 0.0000 0.0000 0.0000 2.1478 0.0000 6.5357
# 5 12.0769 6.4327 8.9815 0.0000 26.9029 0.0000
# 6 0.0000 0.0000 0.0000 6.5357 0.0000 25.9436
#
#
#
# Elastic Compliance Matrix: (Units=1/GPa)
#
#
# Indices 1 2 3 4 5 6 
#
# 1 0.013371 -0.008768 -0.003861 0.000000 -0.002617 0.000000
# 2 -0.008768 0.021275 -0.002673 0.000000 -0.000259 0.000000
# 3 -0.003861 -0.002673 0.013838 0.000000 -0.002247 0.000000
# 4 0.000000 0.000000 0.000000 1.994735 0.000000 -0.502513
# 5 -0.002617 -0.000259 -0.002247 0.000000 0.039157 0.000000
# 6 0.000000 0.000000 0.000000 -0.502513 0.000000 0.165138
#
#
# Mechanical properties :
#
#
# Convention : Reuss Voigt Hill
#
# Bulk Modulus (GPa) = 55.93123 65.46397 60.69760
# Shear Modulus (GPa) = 2.18907 21.53499 11.86203
#
# Velocity S-wave (km/s) = 1.09865 3.44588 2.55745
# Velocity P-wave (km/s) = 5.69642 7.20612 6.49528
#
# Compressibility (1/GPa) = 0.01787910
#
# Stress axis : x y z
#
# Youngs Moduli (GPa) = 74.79042 47.00280 72.26703
#
# Poissons Ratio (x) = 0.41210 0.27904
# Poissons Ratio (y) = 0.65573 0.19320
# Poissons Ratio (z) = 0.28879 0.12566
#
# Static dielectric constant tensor:
#      x y z
#    x 3.416310 0.000000 0.323530 
#    y 0.000000 3.293730 0.000000 
#    z 0.323530 0.000000 3.558280 
# 
# 
# High freq. dielectric constant tensor:
#      x y z
#    x 1.707420 0.000000 0.017840 
#    y 0.000000 1.706890 0.000000 
#    z 0.017840 0.000000 1.683900 
# 
# From -- ./inp_files/86743.got.cif
#   From: 2010.06.25/outbox.cif.g09.slc.cpg/sg10_44_cif.got.tgz:86743.got - 2010.06.27 22:07:45.
