data_PCOD8061904
_publ_section_title
;
Structure prediction by ZEFSAII (Michael W. Deem and Ramdas Pophale) SiO2 
 PCOD8061904
Probable space group: P 2/M
;
_chemical_formula_sum "Si O2"
_cell_formula_units_Z 32
_cell_length_a 30.171468
_cell_length_b 9.450079
_cell_length_c 10.636952
_cell_angle_alpha 90.000000
_cell_angle_beta 148.022843
_cell_angle_gamma 90.000000
_cell_volume 1606.133246
_symmetry_space_group_name_H-M "P 2/M"
_symmetry_group_IT_number 10
_symmetry_cell_setting 'monoclinic'
loop_
_space_group_symop_operation_xyz
x,y,z
-x,y,-z
-x,-y,-z
x,-y,z
loop_
_atom_site_type_symbol
_atom_site_label
_atom_site_fract_x
_atom_site_fract_y
_atom_site_fract_z
Si Si1 0.643394 0.156132 0.399599
Si Si2 0.525104 0.335106 0.260660
Si Si3 0.223422 0.841981 0.061995
Si Si4 0.649794 0.337864 0.055964
Si Si5 0.067087 0.662962 0.767830
Si Si6 0.343595 0.660294 0.213375
Si Si7 0.768686 0.831894 0.488304
Si Si8 0.067689 0.662113 0.055888
O O1 0.563546 0.256103 0.231907
O O2 0.701833 0.149336 0.660732
O O3 0.700168 0.216857 0.425069
O O4 0.609803 0.000000 0.285308
O O5 0.528765 0.500000 0.240377
O O6 0.578946 0.295180 0.512996
O O7 0.429904 0.284889 0.054315
O O8 0.260650 0.756316 0.033141
O O9 0.195256 0.000000 0.953176
O O10 0.146418 0.762071 0.939984
O O11 0.672387 0.500000 0.143311
O O12 0.731733 0.239910 0.273697
O O13 0.623577 0.323201 0.848483
O O14 0.093744 0.500000 0.813429
O O15 0.000000 0.706182 0.500000
O O16 0.032867 0.686167 0.829080
O O17 0.315772 0.500000 0.176145
O O18 0.857189 0.768976 0.739215
O O19 0.777777 0.000000 0.496423
O O20 0.098153 0.500000 0.143793
O O21 0.000000 0.697848 0.000000
#
# Coordination Sequence:
#
# PCOD8061904 Si02
#       8
#     4   4   4   4   4   4   4   4
#     4   9  19  35  54  77 109 148 188 232 280 332
#     4   9  18  33  56  83 109 145 193 242 288 334
#     4  10  19  34  56  82 111 144 187 231 276 333
#     4  10  21  36  54  81 116 151 192 241 287 339
#     4  10  21  37  59  87 116 147 187 236 290 347
#     4   9  18  34  56  80 110 149 190 235 288 339
#     4  11  23  39  58  81 113 153 193 232 282 344
#     4  10  22  41  64  88 116 152 193 238 291 350
#
# _framework density 19.923625999999999
#
# number of rings (size 3 to 8) (size 9 to 14) (size 15 to 20)
#    0.000    2.250    1.250    1.125    0.000    6.000 
#    0.000    5.000    0.000    3.750    0.000    0.000 
#    0.000    0.000    0.000    0.000    0.000    0.000 
#
# Total GULP energy -396705.653702 kJ/mol
# GULP energy per Si atom -12397.051678 kJ/mol
# Density = 1.987828 g / cm^3
# Si number density = 19.923626 Si / 1000 Ang^3
#
#
#
# Elastic Constant Matrix: (Units=GPa)
#
#
# Indices 1 2 3 4 5 6 
#
# 1 87.3918 41.7349 40.5989 0.0000 15.8195 0.0000
# 2 41.7349 93.2525 47.9904 0.0000 12.1865 0.0000
# 3 40.5989 47.9904 81.3356 0.0000 1.6337 0.0000
# 4 0.0000 0.0000 0.0000 16.6323 0.0000 0.8568
# 5 15.8195 12.1865 1.6337 0.0000 20.7349 0.0000
# 6 0.0000 0.0000 0.0000 0.8568 0.0000 22.0926
#
#
#
# Elastic Compliance Matrix: (Units=1/GPa)
#
#
# Indices 1 2 3 4 5 6 
#
# 1 0.018291 -0.002998 -0.007127 0.000000 -0.011631 0.000000
# 2 -0.002998 0.017483 -0.008672 0.000000 -0.007305 0.000000
# 3 -0.007127 -0.008672 0.020791 0.000000 0.008897 0.000000
# 4 0.000000 0.000000 0.000000 0.060245 0.000000 -0.002336
# 5 -0.011631 -0.007305 0.008897 0.000000 0.060694 0.000000
# 6 0.000000 0.000000 0.000000 -0.002336 0.000000 0.045355
#
#
# Mechanical properties :
#
#
# Convention : Reuss Voigt Hill
#
# Bulk Modulus (GPa) = 52.71738 58.06981 55.39359
# Shear Modulus (GPa) = 18.74229 20.66900 19.70564
#
# Velocity S-wave (km/s) = 3.07042 3.22438 3.14834
# Velocity P-wave (km/s) = 6.25197 6.56290 6.40932
#
# Compressibility (1/GPa) = 0.01896908
#
# Stress axis : x y z
#
# Youngs Moduli (GPa) = 54.67131 57.19877 48.09875
#
# Poissons Ratio (x) = 0.17149 0.34282
# Poissons Ratio (y) = 0.16391 0.41712
# Poissons Ratio (z) = 0.38967 0.49604
#
# Static dielectric constant tensor:
#      x y z
#    x 3.697680 0.000000 -0.044710 
#    y 0.000000 3.756990 0.000000 
#    z -0.044710 0.000000 3.457930 
# 
# 
# High freq. dielectric constant tensor:
#      x y z
#    x 1.779790 0.000000 -0.003720 
#    y 0.000000 1.774270 0.000000 
#    z -0.003720 0.000000 1.766890 
# 
# From -- ./inp_files/58229.got.cif
#   From: 2010.06.25/outbox.cif.g09.slc.cpg/sg10_30_cif.got.tgz:58229.got - 2010.06.27 22:07:45.
