data_PCOD8061734
_publ_section_title
;
Structure prediction by ZEFSAII (Michael W. Deem and Ramdas Pophale) SiO2 
 PCOD8061734
Probable space group: P 2/M
;
_chemical_formula_sum "Si O2"
_cell_formula_units_Z 28
_cell_length_a 17.410485
_cell_length_b 7.649139
_cell_length_c 11.508727
_cell_angle_alpha 90.000000
_cell_angle_beta 109.770480
_cell_angle_gamma 90.000000
_cell_volume 1442.333847
_symmetry_space_group_name_H-M "P 2/M"
_symmetry_group_IT_number 10
_symmetry_cell_setting 'monoclinic'
loop_
_space_group_symop_operation_xyz
x,y,z
-x,y,-z
-x,-y,-z
x,-y,z
loop_
_atom_site_type_symbol
_atom_site_label
_atom_site_fract_x
_atom_site_fract_y
_atom_site_fract_z
Si Si1 0.161331 0.196796 0.848229
Si Si2 0.852309 0.204441 0.679440
Si Si3 0.442289 0.500000 0.856251
Si Si4 0.686143 0.200381 0.211746
Si Si5 0.312842 0.801403 0.522764
Si Si6 0.989484 0.697309 0.367823
Si Si7 0.908741 0.793322 0.957128
Si Si8 0.558837 0.500000 0.416851
O O1 0.238833 0.283032 0.823810
O O2 0.078641 0.191124 0.731728
O O3 0.189140 0.000000 0.885253
O O4 0.141016 0.290950 0.960368
O O5 0.763690 0.265763 0.591665
O O6 0.923730 0.304921 0.650875
O O7 0.857899 0.254155 0.817326
O O8 0.865426 0.000000 0.663945
O O9 0.391428 0.322920 0.846225
O O10 0.477785 0.500000 0.737761
O O11 0.500000 0.500000 0.000000
O O12 0.716193 0.206643 0.359457
O O13 0.663057 0.000000 0.165936
O O14 0.388656 0.675001 0.539631
O O15 0.338082 0.000000 0.500969
O O16 0.956440 0.500000 0.359867
O O17 0.000000 0.781090 0.500000
O O18 0.916531 0.000000 0.980986
O O19 0.000000 0.712789 0.000000
O O20 0.500000 0.500000 0.500000
#
# Coordination Sequence:
#
# PCOD8061734 Si02
#       8
#     4   4   2   4   4   4   4   2
#     4  10  19  34  54  75 104 143 188 229 272 325
#     4  10  19  34  54  75 104 143 188 229 272 325
#     4  10  22  42  66  89 120 149 177 226 287 350
#     4   9  19  36  60  87 113 147 189 232 281 334
#     4   9  19  36  60  87 113 147 189 232 281 334
#     4  11  23  32  45  72 106 143 186 233 274 317
#     4   9  16  30  50  72 104 146 184 224 274 321
#     4  10  22  42  66  89 120 149 177 226 287 350
#
# _framework density 19.412982
#
# number of rings (size 3 to 8) (size 9 to 14) (size 15 to 20)
#    0.000    2.286    1.429    1.286    2.000    2.857 
#    2.571    1.429    0.000    0.000    0.000    0.000 
#    0.000    0.000    0.000    0.000    0.000    0.000 
#
# Total GULP energy -346979.811212 kJ/mol
# GULP energy per Si atom -12392.136115 kJ/mol
# Density = 1.936880 g / cm^3
# Si number density = 19.412982 Si / 1000 Ang^3
#
#
#
# Elastic Constant Matrix: (Units=GPa)
#
#
# Indices 1 2 3 4 5 6 
#
# 1 124.5670 33.3258 70.0484 0.0000 -20.7221 0.0000
# 2 33.3258 61.6053 25.8854 0.0000 0.8276 0.0000
# 3 70.0484 25.8854 153.7576 0.0000 -4.4991 0.0000
# 4 0.0000 0.0000 0.0000 6.9820 0.0000 -1.8667
# 5 -20.7221 0.8276 -4.4991 0.0000 37.7736 0.0000
# 6 0.0000 0.0000 0.0000 -1.8667 0.0000 17.7806
#
#
#
# Elastic Compliance Matrix: (Units=1/GPa)
#
#
# Indices 1 2 3 4 5 6 
#
# 1 0.013390 -0.005227 -0.005020 0.000000 0.006862 0.000000
# 2 -0.005227 0.019529 -0.001006 0.000000 -0.003415 0.000000
# 3 -0.005020 -0.001006 0.008911 0.000000 -0.001670 0.000000
# 4 0.000000 0.000000 0.000000 0.147363 0.000000 0.015471
# 5 0.006862 -0.003415 -0.001670 0.000000 0.030114 0.000000
# 6 0.000000 0.000000 0.000000 0.015471 0.000000 0.057865
#
#
# Mechanical properties :
#
#
# Convention : Reuss Voigt Hill
#
# Bulk Modulus (GPa) = 51.74757 66.49435 59.12096
# Shear Modulus (GPa) = 16.33351 26.55193 21.44272
#
# Velocity S-wave (km/s) = 2.90379 3.70231 3.32709
# Velocity P-wave (km/s) = 6.16090 7.25279 6.72903
#
# Compressibility (1/GPa) = 0.01932458
#
# Stress axis : x y z
#
# Youngs Moduli (GPa) = 74.68020 51.20717 112.21902
#
# Poissons Ratio (x) = 0.26764 0.56330
# Poissons Ratio (y) = 0.39033 0.11294
# Poissons Ratio (z) = 0.37487 0.05154
#
# Static dielectric constant tensor:
#      x y z
#    x 3.435530 0.000000 -0.269460 
#    y 0.000000 3.441270 0.000000 
#    z -0.269460 0.000000 3.747300 
# 
# 
# High freq. dielectric constant tensor:
#      x y z
#    x 1.733790 0.000000 -0.015860 
#    y 0.000000 1.751260 0.000000 
#    z -0.015860 0.000000 1.758600 
# 
# From -- ./inp_files/49424.got.cif
#   From: 2010.06.25/outbox.cif.g09.slc.cpg/sg10_25_cif.got.tgz:49424.got - 2010.06.27 22:07:45.
