data_PCOD8061760
_publ_section_title
;
Structure prediction by ZEFSAII (Michael W. Deem and Ramdas Pophale) SiO2 
 PCOD8061760
Probable space group: P 2/M
;
_chemical_formula_sum "Si O2"
_cell_formula_units_Z 32
_cell_length_a 20.482895
_cell_length_b 12.773616
_cell_length_c 9.706721
_cell_angle_alpha 90.000000
_cell_angle_beta 47.271908
_cell_angle_gamma 90.000000
_cell_volume 1865.597831
_symmetry_space_group_name_H-M "P 2/M"
_symmetry_group_IT_number 10
_symmetry_cell_setting 'monoclinic'
loop_
_space_group_symop_operation_xyz
x,y,z
-x,y,-z
-x,-y,-z
x,-y,z
loop_
_atom_site_type_symbol
_atom_site_label
_atom_site_fract_x
_atom_site_fract_y
_atom_site_fract_z
Si Si1 0.056511 0.271443 0.803176
Si Si2 0.492784 0.794453 0.849038
Si Si3 0.698831 0.879772 0.917840
Si Si4 0.721156 0.260898 0.132864
Si Si5 0.885530 0.622354 0.025750
Si Si6 0.664651 0.880810 0.461686
Si Si7 0.554468 0.620403 0.286176
Si Si8 0.803509 0.119993 0.499042
O O1 0.110273 0.195035 0.626044
O O2 0.982793 0.341532 0.826656
O O3 0.119739 0.350512 0.802202
O O4 0.000000 0.204573 0.000000
O O5 0.577478 0.858704 0.676163
O O6 0.487177 0.682953 0.781848
O O7 0.500000 0.773231 0.000000
O O8 0.406610 0.862610 0.935859
O O9 0.741734 0.842933 0.712702
O O10 0.718993 0.000000 0.916741
O O11 0.745506 0.816742 0.973750
O O12 0.671168 0.196475 0.323763
O O13 0.656403 0.350406 0.168123
O O14 0.810600 0.314342 0.053529
O O15 0.870838 0.500000 0.023031
O O16 0.751077 0.865232 0.432230
O O17 0.659704 0.000000 0.414776
O O18 0.500000 0.647906 0.500000
O O19 0.547681 0.500000 0.254834
O O20 0.834455 0.000000 0.473455
#
# Coordination Sequence:
#
# PCOD8061760 Si02
#       8
#     4   4   4   4   4   4   4   4
#     4   8  17  33  56  85 106 131 172 226 268 312
#     4  11  21  35  55  78 109 145 186 226 265 308
#     4  10  22  35  52  79 114 149 175 215 268 319
#     4  11  20  36  55  80 109 143 181 220 267 316
#     4   9  18  34  58  82 105 135 176 227 272 315
#     4  11  20  32  54  81 108 142 186 222 257 312
#     4  10  21  36  53  75 106 143 184 224 267 315
#     4  10  19  34  54  80 114 144 173 211 268 329
#
# _framework density 17.152678999999999
#
# number of rings (size 3 to 8) (size 9 to 14) (size 15 to 20)
#    0.750    1.125    3.750    1.875    0.000    1.000 
#    0.000    3.750    0.000    9.750    0.000    0.000 
#    0.000    0.000    0.000    0.000    0.000    0.000 
#
# Total GULP energy -396642.662004 kJ/mol
# GULP energy per Si atom -12395.083188 kJ/mol
# Density = 1.711364 g / cm^3
# Si number density = 17.152679 Si / 1000 Ang^3
#
#
#
# Elastic Constant Matrix: (Units=GPa)
#
#
# Indices 1 2 3 4 5 6 
#
# 1 83.7363 43.8320 15.4960 0.0000 -3.7275 0.0000
# 2 43.8320 91.3828 39.8039 0.0000 -3.9771 0.0000
# 3 15.4960 39.8039 62.2004 0.0000 -0.5179 0.0000
# 4 0.0000 0.0000 0.0000 24.6868 0.0000 -4.3098
# 5 -3.7275 -3.9771 -0.5179 0.0000 24.6030 0.0000
# 6 0.0000 0.0000 0.0000 -4.3098 0.0000 15.8397
#
#
#
# Elastic Compliance Matrix: (Units=1/GPa)
#
#
# Indices 1 2 3 4 5 6 
#
# 1 0.016051 -0.008197 0.001256 0.000000 0.001133 0.000000
# 2 -0.008197 0.019483 -0.010412 0.000000 0.001688 0.000000
# 3 0.001256 -0.010412 0.022418 0.000000 -0.001021 0.000000
# 4 0.000000 0.000000 0.000000 0.042528 0.000000 0.011571
# 5 0.001133 0.001688 -0.001021 0.000000 0.041069 0.000000
# 6 0.000000 0.000000 0.000000 0.011571 0.000000 0.066281
#
#
# Mechanical properties :
#
#
# Convention : Reuss Voigt Hill
#
# Bulk Modulus (GPa) = 43.01521 48.39814 45.70668
# Shear Modulus (GPa) = 19.97737 22.23841 21.10789
#
# Velocity S-wave (km/s) = 3.41644 3.60460 3.51178
# Velocity P-wave (km/s) = 6.37927 6.75289 6.56873
#
# Compressibility (1/GPa) = 0.02324759
#
# Stress axis : x y z
#
# Youngs Moduli (GPa) = 62.30229 51.32672 44.60613
#
# Poissons Ratio (x) = 0.42070 -0.05602
# Poissons Ratio (y) = 0.51066 0.46443
# Poissons Ratio (z) = -0.07825 0.53440
#
# Static dielectric constant tensor:
#      x y z
#    x 3.149040 0.000000 0.004770 
#    y 0.000000 3.081710 0.000000 
#    z 0.004770 0.000000 3.102840 
# 
# 
# High freq. dielectric constant tensor:
#      x y z
#    x 1.661680 0.000000 -0.003500 
#    y 0.000000 1.659130 0.000000 
#    z -0.003500 0.000000 1.648690 
# 
# From -- ./inp_files/34806.got.cif
#   From: 2010.06.25/outbox.cif.g09.slc.cpg/sg10_18_cif.got.tgz:34806.got - 2010.06.27 22:07:45.
