data_PCOD8061601
_publ_section_title
;
Structure prediction by ZEFSAII (Michael W. Deem and Ramdas Pophale) SiO2 
 PCOD8061601
Probable space group: P 2/M
;
_chemical_formula_sum "Si O2"
_cell_formula_units_Z 28
_cell_length_a 16.996228
_cell_length_b 8.409811
_cell_length_c 14.241275
_cell_angle_alpha 90.000000
_cell_angle_beta 138.336925
_cell_angle_gamma 90.000000
_cell_volume 1353.148228
_symmetry_space_group_name_H-M "P 2/M"
_symmetry_group_IT_number 10
_symmetry_cell_setting 'monoclinic'
loop_
_space_group_symop_operation_xyz
x,y,z
-x,y,-z
-x,-y,-z
x,-y,z
loop_
_atom_site_type_symbol
_atom_site_label
_atom_site_fract_x
_atom_site_fract_y
_atom_site_fract_z
Si Si1 0.016335 0.688524 0.409736
Si Si2 0.454459 0.183829 0.058840
Si Si3 0.122902 0.687179 0.154857
Si Si4 0.705377 0.184135 0.837561
Si Si5 0.218225 0.315200 0.903953
Si Si6 0.201108 0.311846 0.427478
Si Si7 0.464227 0.315198 0.678974
O O1 0.025061 0.500000 0.425642
O O2 0.133186 0.754804 0.459758
O O3 0.000000 0.761724 0.500000
O O4 0.907421 0.739702 0.247463
O O5 0.515198 0.291161 0.192105
O O6 0.486140 0.000000 0.104462
O O7 0.500000 0.245261 0.000000
O O8 0.313958 0.208665 0.935422
O O9 0.137615 0.500000 0.152506
O O10 0.234375 0.774815 0.207264
O O11 0.126548 0.733432 0.267982
O O12 0.000000 0.748153 0.000000
O O13 0.565650 0.226167 0.709580
O O14 0.718401 0.000000 0.873617
O O15 0.774291 0.285338 0.978014
O O16 0.241940 0.500000 0.904728
O O17 0.210105 0.500000 0.445046
O O18 0.334629 0.243439 0.539315
O O19 0.472153 0.500000 0.660707
#
# Coordination Sequence:
#
# PCOD8061601 Si02
#       7
#     4   4   4   4   4   4   4
#     4   9  18  32  53  84 117 143 175 228 288 335
#     4  10  21  35  52  75 109 149 187 232 281 330
#     4  10  20  37  62  87 113 147 189 233 279 335
#     4  11  22  37  57  81 115 150 186 232 283 336
#     4  10  19  33  57  84 108 141 186 232 278 332
#     4   9  19  34  54  84 117 146 180 232 287 333
#     4  10  20  35  57  82 112 146 189 234 277 334
#
# _framework density 20.692485000000001
#
# number of rings (size 3 to 8) (size 9 to 14) (size 15 to 20)
#    0.000    2.143    0.000    5.143    2.000    4.286 
#    0.000    4.286    0.000    5.143    0.000    0.000 
#    0.000    0.000    0.000    0.000    0.000    0.000 
#
# Total GULP energy -347178.142962 kJ/mol
# GULP energy per Si atom -12399.219391 kJ/mol
# Density = 2.064539 g / cm^3
# Si number density = 20.692485 Si / 1000 Ang^3
#
#
#
# Elastic Constant Matrix: (Units=GPa)
#
#
# Indices 1 2 3 4 5 6 
#
# 1 156.4967 12.6532 64.5102 0.0000 1.3062 0.0000
# 2 12.6532 36.0998 11.9617 0.0000 1.6520 0.0000
# 3 64.5102 11.9617 118.6750 0.0000 21.8739 0.0000
# 4 0.0000 0.0000 0.0000 2.4395 0.0000 -3.3587
# 5 1.3062 1.6520 21.8739 0.0000 26.4720 0.0000
# 6 0.0000 0.0000 0.0000 -3.3587 0.0000 19.6274
#
#
#
# Elastic Compliance Matrix: (Units=1/GPa)
#
#
# Indices 1 2 3 4 5 6 
#
# 1 0.008662 -0.001463 -0.005308 0.000000 0.004050 0.000000
# 2 -0.001463 0.028916 -0.002124 0.000000 0.000022 0.000000
# 3 -0.005308 -0.002124 0.013511 0.000000 -0.010769 0.000000
# 4 0.000000 0.000000 0.000000 0.536255 0.000000 0.091764
# 5 0.004050 0.000022 -0.010769 0.000000 0.046473 0.000000
# 6 0.000000 0.000000 0.000000 0.091764 0.000000 0.066652
#
#
# Mechanical properties :
#
#
# Convention : Reuss Voigt Hill
#
# Bulk Modulus (GPa) = 30.02897 54.39129 42.21013
# Shear Modulus (GPa) = 6.85534 24.51754 15.68644
#
# Velocity S-wave (km/s) = 1.82213 3.44590 2.75630
# Velocity P-wave (km/s) = 4.35550 6.49422 5.52925
#
# Compressibility (1/GPa) = 0.03330118
#
# Stress axis : x y z
#
# Youngs Moduli (GPa) = 115.44305 34.58250 74.01592
#
# Poissons Ratio (x) = 0.05059 0.39285
# Poissons Ratio (y) = 0.16887 0.15718
# Poissons Ratio (z) = 0.61273 0.07344
#
# Static dielectric constant tensor:
#      x y z
#    x 3.961990 0.000000 0.111180 
#    y 0.000000 3.354690 0.000000 
#    z 0.111180 0.000000 3.788450 
# 
# 
# High freq. dielectric constant tensor:
#      x y z
#    x 1.821570 0.000000 0.006240 
#    y 0.000000 1.776250 0.000000 
#    z 0.006240 0.000000 1.805710 
# 
# From -- ./inp_files/68712.got.cif
#   From: 2010.06.25/outbox.cif.g09.slc.cpg/sg10_35_cif.got.tgz:68712.got - 2010.06.27 22:07:45.
