data_PCOD8061513
_publ_section_title
;
Structure prediction by ZEFSAII (Michael W. Deem and Ramdas Pophale) SiO2 
 PCOD8061513
Probable space group: P 2/M
;
_chemical_formula_sum "Si O2"
_cell_formula_units_Z 32
_cell_length_a 25.341776
_cell_length_b 9.457724
_cell_length_c 18.887278
_cell_angle_alpha 90.000000
_cell_angle_beta 157.236722
_cell_angle_gamma 90.000000
_cell_volume 1751.537636
_symmetry_space_group_name_H-M "P 2/M"
_symmetry_group_IT_number 10
_symmetry_cell_setting 'monoclinic'
loop_
_space_group_symop_operation_xyz
x,y,z
-x,y,-z
-x,-y,-z
x,-y,z
loop_
_atom_site_type_symbol
_atom_site_label
_atom_site_fract_x
_atom_site_fract_y
_atom_site_fract_z
Si Si1 0.887558 0.831544 0.916279
Si Si2 0.915040 0.167631 0.109132
Si Si3 0.580298 0.165677 0.531653
Si Si4 0.147390 0.844969 0.651191
Si Si5 0.647928 0.834363 0.860596
Si Si6 0.835525 0.834400 0.489054
Si Si7 0.661549 0.659605 0.019778
Si Si8 0.574027 0.659052 0.162150
O O1 0.733828 0.773142 0.710787
O O2 0.888093 0.000000 0.912306
O O3 0.928877 0.778340 0.045746
O O4 0.000000 0.770292 0.000000
O O5 0.041821 0.226541 0.311237
O O6 0.915025 0.000000 0.110678
O O7 0.773043 0.220549 0.967229
O O8 0.500000 0.232249 0.500000
O O9 0.493828 0.197584 0.354424
O O10 0.594815 0.000000 0.564373
O O11 0.130254 0.797821 0.549244
O O12 0.226195 0.725357 0.790336
O O13 0.000000 0.859785 0.500000
O O14 0.220274 0.000000 0.746464
O O15 0.664091 0.000000 0.897816
O O16 0.645979 0.750201 0.930498
O O17 0.697882 0.756102 0.339674
O O18 0.814862 0.000000 0.476963
O O19 0.705514 0.500000 0.054848
O O20 0.520880 0.660255 0.887289
O O21 0.624228 0.500000 0.206672
O O22 0.500000 0.721180 0.000000
#
# Coordination Sequence:
#
# PCOD8061513 Si02
#       8
#     4   4   4   4   4   4   4   4
#     4   9  16  26  44  74 113 148 178 218 267 321
#     4   9  17  31  49  76 114 146 171 216 276 322
#     4   9  15  27  49  78 106 142 184 217 264 328
#     4  10  20  35  54  78 108 139 173 216 270 323
#     4  10  19  33  56  81 111 144 179 225 274 321
#     4  10  20  32  53  80 105 137 178 220 265 322
#     4  11  23  37  54  77 105 138 181 226 267 318
#     4  10  21  39  56  70  99 143 181 218 271 323
#
# _framework density 18.269660999999999
#
# number of rings (size 3 to 8) (size 9 to 14) (size 15 to 20)
#    0.000    2.250    2.500    1.125    0.000    4.500 
#    0.000    4.375    0.000    0.375    0.000    0.000 
#    0.000    3.500    0.000    0.000    0.000    0.000 
#
# Total GULP energy -396726.050682 kJ/mol
# GULP energy per Si atom -12397.689084 kJ/mol
# Density = 1.822808 g / cm^3
# Si number density = 18.269661 Si / 1000 Ang^3
#
#
#
# Elastic Constant Matrix: (Units=GPa)
#
#
# Indices 1 2 3 4 5 6 
#
# 1 137.1612 37.0679 70.1748 0.0000 -6.4255 0.0000
# 2 37.0679 48.7856 41.1934 0.0000 -7.2371 0.0000
# 3 70.1748 41.1934 151.2772 0.0000 -7.1575 0.0000
# 4 0.0000 0.0000 0.0000 3.3795 0.0000 7.5377
# 5 -6.4255 -7.2371 -7.1575 0.0000 32.4532 0.0000
# 6 0.0000 0.0000 0.0000 7.5377 0.0000 11.8162
#
#
#
# Elastic Compliance Matrix: (Units=1/GPa)
#
#
# Indices 1 2 3 4 5 6 
#
# 1 0.010415 -0.004952 -0.003474 0.000000 0.000192 0.000000
# 2 -0.004952 0.029604 -0.005556 0.000000 0.004396 0.000000
# 3 -0.003474 -0.005556 0.009745 0.000000 0.000222 0.000000
# 4 0.000000 0.000000 0.000000 -0.699849 0.000000 0.446442
# 5 0.000192 0.004396 0.000222 0.000000 0.031881 0.000000
# 6 0.000000 0.000000 0.000000 0.446442 0.000000 -0.200161
#
#
# Mechanical properties :
#
#
# Convention : Reuss Voigt Hill
#
# Bulk Modulus (GPa) = 45.87042 70.45513 58.16277
# Shear Modulus (GPa) = -6.38461 22.11566 7.86552
#
# Velocity S-wave (km/s) = -1.87143 3.48302 2.07716
# Velocity P-wave (km/s) = 4.52684 7.40425 6.13658
#
# Compressibility (1/GPa) = 0.02180054
#
# Stress axis : x y z
#
# Youngs Moduli (GPa) = 96.01274 33.77927 102.61247
#
# Poissons Ratio (x) = 0.16727 0.35647
# Poissons Ratio (y) = 0.47544 0.57014
# Poissons Ratio (z) = 0.33355 0.18768
#
# Static dielectric constant tensor:
#      x y z
#    x 3.488850 0.000000 0.020350 
#    y 0.000000 3.102900 0.000000 
#    z 0.020350 0.000000 3.547570 
# 
# 
# High freq. dielectric constant tensor:
#      x y z
#    x 1.717120 0.000000 -0.000500 
#    y 0.000000 1.658450 0.000000 
#    z -0.000500 0.000000 1.716380 
# 
# From -- ./inp_files/86930.got.cif
#   From: 2010.06.25/outbox.cif.g09.slc.cpg/sg10_44_cif.got.tgz:86930.got - 2010.06.27 22:07:45.
