data_PCOD8061359
_publ_section_title
;
Structure prediction by ZEFSAII (Michael W. Deem and Ramdas Pophale) SiO2 
 PCOD8061359
Probable space group: P 2/M
;
_chemical_formula_sum "Si O2"
_cell_formula_units_Z 28
_cell_length_a 18.927783
_cell_length_b 8.677244
_cell_length_c 23.179097
_cell_angle_alpha 90.000000
_cell_angle_beta 23.284963
_cell_angle_gamma 90.000000
_cell_volume 1504.907377
_symmetry_space_group_name_H-M "P 2/M"
_symmetry_group_IT_number 10
_symmetry_cell_setting 'monoclinic'
loop_
_space_group_symop_operation_xyz
x,y,z
-x,y,-z
-x,-y,-z
x,-y,z
loop_
_atom_site_type_symbol
_atom_site_label
_atom_site_fract_x
_atom_site_fract_y
_atom_site_fract_z
Si Si1 0.306402 0.178224 0.132295
Si Si2 0.749975 0.321385 0.525708
Si Si3 0.541554 0.820379 0.588113
Si Si4 0.994944 0.317717 0.439776
Si Si5 0.140244 0.681089 0.723987
Si Si6 0.829409 0.319930 0.166075
Si Si7 0.945513 0.821929 0.775337
O O1 0.250723 0.200395 0.106248
O O2 0.167203 0.259683 0.277674
O O3 0.307261 0.000000 0.148632
O O4 0.500000 0.251763 0.000000
O O5 0.696280 0.500000 0.564265
O O6 0.587087 0.223594 0.620805
O O7 0.810184 0.269536 0.545295
O O8 0.921610 0.292069 0.357344
O O9 0.672863 0.733576 0.445017
O O10 0.338326 0.775550 0.730337
O O11 0.568340 0.000000 0.558155
O O12 0.006336 0.500000 0.433302
O O13 0.000000 0.246038 0.500000
O O14 0.119273 0.500000 0.731223
O O15 0.135637 0.726898 0.794206
O O16 0.966614 0.767473 0.825879
O O17 0.785692 0.500000 0.192828
O O18 0.000000 0.273079 0.000000
O O19 0.006148 0.000000 0.723439
#
# Coordination Sequence:
#
# PCOD8061359 Si02
#       7
#     4   4   4   4   4   4   4
#     4   9  18  32  49  71 100 134 168 201 243 295
#     4   9  16  29  50  72  98 130 164 204 246 288
#     4  11  21  33  53  79 103 127 162 206 246 289
#     4   9  18  32  50  74 101 129 165 208 249 288
#     4  10  19  33  55  78  98 125 165 207 245 291
#     4  10  22  39  55  72  99 134 166 198 243 296
#     4   9  16  28  48  72  99 128 162 206 248 286
#
# _framework density 18.605796000000002
#
# number of rings (size 3 to 8) (size 9 to 14) (size 15 to 20)
#    0.000    2.429    0.000    4.714    0.000    4.857 
#    0.000    1.429    0.000    5.143    0.000    0.000 
#    0.000    0.000    0.000    0.000    0.000    0.000 
#
# Total GULP energy -346965.622784 kJ/mol
# GULP energy per Si atom -12391.629385 kJ/mol
# Density = 1.856345 g / cm^3
# Si number density = 18.605796 Si / 1000 Ang^3
#
#
#
# Elastic Constant Matrix: (Units=GPa)
#
#
# Indices 1 2 3 4 5 6 
#
# 1 178.6421 46.6055 72.2830 0.0000 -21.7019 0.0000
# 2 46.6055 38.0345 21.5745 0.0000 -7.3308 0.0000
# 3 72.2830 21.5745 77.4566 0.0000 -15.4789 0.0000
# 4 0.0000 0.0000 0.0000 21.6667 0.0000 -6.9292
# 5 -21.7019 -7.3308 -15.4789 0.0000 28.7691 0.0000
# 6 0.0000 0.0000 0.0000 -6.9292 0.0000 25.0645
#
#
#
# Elastic Compliance Matrix: (Units=1/GPa)
#
#
# Indices 1 2 3 4 5 6 
#
# 1 0.011311 -0.009149 -0.007583 0.000000 0.002121 0.000000
# 2 -0.009149 0.038977 -0.001919 0.000000 0.001998 0.000000
# 3 -0.007583 -0.001919 0.021603 0.000000 0.005414 0.000000
# 4 0.000000 0.000000 0.000000 0.050630 0.000000 0.013997
# 5 0.002121 0.001998 0.005414 0.000000 0.039782 0.000000
# 6 0.000000 0.000000 0.000000 0.013997 0.000000 0.043767
#
#
# Mechanical properties :
#
#
# Convention : Reuss Voigt Hill
#
# Bulk Modulus (GPa) = 28.91159 63.89549 46.40354
# Shear Modulus (GPa) = 19.61547 25.34473 22.48010
#
# Velocity S-wave (km/s) = 3.25047 3.69480 3.47973
# Velocity P-wave (km/s) = 5.44611 7.25385 6.41399
#
# Compressibility (1/GPa) = 0.03458821
#
# Stress axis : x y z
#
# Youngs Moduli (GPa) = 88.41251 25.65636 46.28912
#
# Poissons Ratio (x) = 0.23474 0.35100
# Poissons Ratio (y) = 0.80892 0.08883
# Poissons Ratio (z) = 0.67042 0.04923
#
# Static dielectric constant tensor:
#      x y z
#    x 4.217920 0.000000 -0.317280 
#    y 0.000000 3.368970 0.000000 
#    z -0.317280 0.000000 3.137060 
# 
# 
# High freq. dielectric constant tensor:
#      x y z
#    x 1.744110 0.000000 -0.026540 
#    y 0.000000 1.723700 0.000000 
#    z -0.026540 0.000000 1.677120 
# 
# From -- ./inp_files/93519.got.cif
#   From: 2010.06.25/outbox.cif.g09.slc.cpg/sg10_47_cif.got.tgz:93519.got - 2010.06.27 22:07:45.
