data_PCOD8061006
_publ_section_title
;
Structure prediction by ZEFSAII (Michael W. Deem and Ramdas Pophale) SiO2 
 PCOD8061006
Probable space group: P 2/M
;
_chemical_formula_sum "Si O2"
_cell_formula_units_Z 24
_cell_length_a 23.014757
_cell_length_b 9.352471
_cell_length_c 11.131338
_cell_angle_alpha 90.000000
_cell_angle_beta 148.453072
_cell_angle_gamma 90.000000
_cell_volume 1253.560115
_symmetry_space_group_name_H-M "P 2/M"
_symmetry_group_IT_number 10
_symmetry_cell_setting 'monoclinic'
loop_
_space_group_symop_operation_xyz
x,y,z
-x,y,-z
-x,-y,-z
x,-y,z
loop_
_atom_site_type_symbol
_atom_site_label
_atom_site_fract_x
_atom_site_fract_y
_atom_site_fract_z
Si Si1 0.736013 0.830476 0.158666
Si Si2 0.041860 0.668084 0.439104
Si Si3 0.295092 0.837048 0.385605
Si Si4 0.621768 0.837446 0.725646
Si Si5 0.514886 0.169671 0.895475
Si Si6 0.076784 0.667322 0.021268
O O1 0.845287 0.749488 0.391984
O O2 0.759228 0.000000 0.202823
O O3 0.698748 0.769527 0.963417
O O4 0.635671 0.780950 0.066828
O O5 0.063944 0.500000 0.479196
O O6 0.000000 0.716029 0.500000
O O7 0.965774 0.709427 0.188834
O O8 0.301275 0.828567 0.253897
O O9 0.412126 0.771253 0.636488
O O10 0.192420 0.745672 0.251268
O O11 0.278214 0.000000 0.400489
O O12 0.500000 0.762194 0.500000
O O13 0.596685 0.000000 0.722547
O O14 0.508980 0.000000 0.880778
O O15 0.500000 0.234337 0.000000
O O16 0.099233 0.500000 0.064752
O O17 0.000000 0.712154 0.000000
#
# Coordination Sequence:
#
# PCOD8061006 Si02
#       6
#     4   4   4   4   4   4
#     4  10  19  32  56  83 108 138 175 219 263 316
#     4  10  22  40  58  76 106 146 182 221 270 317
#     4  10  19  33  57  82 106 137 177 221 261 314
#     4   9  15  28  50  79 110 137 166 206 263 317
#     4   9  18  31  49  79 113 140 167 211 270 317
#     4  10  23  41  57  75 106 146 181 220 272 319
#
# _framework density 19.145471000000001
#
# number of rings (size 3 to 8) (size 9 to 14) (size 15 to 20)
#    0.000    2.333    1.667    1.000    2.333    1.333 
#    0.000    0.833    0.000    2.000    0.000    0.000 
#    0.000    0.000    0.000    0.000    0.000    0.000 
#
# Total GULP energy -297368.149334 kJ/mol
# GULP energy per Si atom -12390.339556 kJ/mol
# Density = 1.910190 g / cm^3
# Si number density = 19.145471 Si / 1000 Ang^3
#
#
#
# Elastic Constant Matrix: (Units=GPa)
#
#
# Indices 1 2 3 4 5 6 
#
# 1 123.4980 24.7195 49.9905 0.0000 4.3538 0.0000
# 2 24.7195 24.1382 32.7551 0.0000 12.6982 0.0000
# 3 49.9905 32.7551 102.8892 0.0000 18.8586 0.0000
# 4 0.0000 0.0000 0.0000 -1.9926 0.0000 -7.3428
# 5 4.3538 12.6982 18.8586 0.0000 41.8468 0.0000
# 6 0.0000 0.0000 0.0000 -7.3428 0.0000 9.0611
#
#
#
# Elastic Compliance Matrix: (Units=1/GPa)
#
#
# Indices 1 2 3 4 5 6 
#
# 1 0.010966 -0.008431 -0.003165 0.000000 0.002844 0.000000
# 2 -0.008431 0.086207 -0.020399 0.000000 -0.016089 0.000000
# 3 -0.003165 -0.020399 0.018047 0.000000 -0.001614 0.000000
# 4 0.000000 0.000000 0.000000 -0.125897 0.000000 -0.102023
# 5 0.002844 -0.016089 -0.001614 0.000000 0.029210 0.000000
# 6 0.000000 0.000000 0.000000 -0.102023 0.000000 0.027686
#
#
# Mechanical properties :
#
#
# Convention : Reuss Voigt Hill
#
# Bulk Modulus (GPa) = 19.52000 51.71727 35.61864
# Shear Modulus (GPa) = 39.28199 19.32042 29.30121
#
# Velocity S-wave (km/s) = 4.53455 3.18014 3.91634
# Velocity P-wave (km/s) = 6.13466 6.36835 6.25259
#
# Compressibility (1/GPa) = 0.05122951
#
# Stress axis : x y z
#
# Youngs Moduli (GPa) = 91.19264 11.60001 55.41118
#
# Poissons Ratio (x) = 0.09780 0.17539
# Poissons Ratio (y) = 0.76883 1.13033
# Poissons Ratio (z) = 0.28864 0.23663
#
# Static dielectric constant tensor:
#      x y z
#    x 3.701430 0.000000 -0.157800 
#    y 0.000000 3.017680 0.000000 
#    z -0.157800 0.000000 3.643560 
# 
# 
# High freq. dielectric constant tensor:
#      x y z
#    x 1.758760 0.000000 -0.003200 
#    y 0.000000 1.690630 0.000000 
#    z -0.003200 0.000000 1.757650 
# 
# From -- ./inp_files/45040.got.cif
#   From: 2010.06.25/outbox.cif.g09.slc.cpg/sg10_23_cif.got.tgz:45040.got - 2010.06.27 22:07:45.
