data_PCOD8061232
_publ_section_title
;
Structure prediction by ZEFSAII (Michael W. Deem and Ramdas Pophale) SiO2 
 PCOD8061232
Probable space group: P 2/M
;
_chemical_formula_sum "Si O2"
_cell_formula_units_Z 32
_cell_length_a 22.095973
_cell_length_b 15.008239
_cell_length_c 18.578704
_cell_angle_alpha 90.000000
_cell_angle_beta 16.865898
_cell_angle_gamma 90.000000
_cell_volume 1787.536400
_symmetry_space_group_name_H-M "P 2/M"
_symmetry_group_IT_number 10
_symmetry_cell_setting 'monoclinic'
loop_
_space_group_symop_operation_xyz
x,y,z
-x,y,-z
-x,-y,-z
x,-y,z
loop_
_atom_site_type_symbol
_atom_site_label
_atom_site_fract_x
_atom_site_fract_y
_atom_site_fract_z
Si Si1 0.863154 0.599501 0.322703
Si Si2 0.018333 0.600512 0.652740
Si Si3 0.860449 0.899490 0.968487
Si Si4 0.429660 0.338077 0.863162
Si Si5 0.265101 0.900500 0.420764
Si Si6 0.626712 0.728103 0.782962
Si Si7 0.053922 0.228107 0.855754
Si Si8 0.484688 0.838063 0.308133
O O1 0.919685 0.500000 0.231671
O O2 0.976626 0.622873 0.268352
O O3 0.614136 0.604803 0.617137
O O4 0.949023 0.669669 0.167282
O O5 0.099961 0.500000 0.545999
O O6 0.163714 0.670023 0.444559
O O7 0.782177 0.606447 0.893868
O O8 0.033373 0.877145 0.711608
O O9 0.880252 0.829972 0.011475
O O10 0.891789 0.000000 0.962277
O O11 0.634232 0.893538 0.189732
O O12 0.488098 0.314688 0.878216
O O13 0.395540 0.250002 0.854467
O O14 0.318367 0.830322 0.297948
O O15 0.423298 0.895196 0.307982
O O16 0.277656 0.000000 0.373698
O O17 0.500000 0.726670 0.000000
O O18 0.279253 0.185321 0.587057
O O19 0.000000 0.226661 0.000000
#
# Coordination Sequence:
#
# PCOD8061232 Si02
#       8
#     4   4   4   4   4   4   4   4
#     4   9  18  33  54  77  97 124 166 208 244 287
#     4  10  19  33  54  74  95 127 168 209 244 283
#     4  10  19  33  54  74  95 127 168 209 244 283
#     4   9  17  32  53  73  97 129 165 205 244 284
#     4   9  18  33  54  77  97 124 166 208 244 287
#     4  10  21  34  48  73 107 134 159 196 244 299
#     4  10  21  34  48  73 107 134 159 196 244 299
#     4   9  17  32  53  73  97 129 165 205 244 284
#
# _framework density 17.901734000000001
#
# number of rings (size 3 to 8) (size 9 to 14) (size 15 to 20)
#    0.000    2.500    0.000    4.500    0.000    3.000 
#    0.000    1.250    0.000    0.000    0.000   14.000 
#    0.000    0.000    0.000    0.000    0.000    0.000 
#
# Total GULP energy -396825.377672 kJ/mol
# GULP energy per Si atom -12400.793052 kJ/mol
# Density = 1.786099 g / cm^3
# Si number density = 17.901734 Si / 1000 Ang^3
#
#
#
# Elastic Constant Matrix: (Units=GPa)
#
#
# Indices 1 2 3 4 5 6 
#
# 1 60.3442 26.4753 37.5096 0.0000 3.9177 0.0000
# 2 26.4753 84.1096 25.5376 0.0000 2.0764 0.0000
# 3 37.5096 25.5376 61.4981 0.0000 -6.4587 0.0000
# 4 0.0000 0.0000 0.0000 21.0240 0.0000 -3.4175
# 5 3.9177 2.0764 -6.4587 0.0000 33.3679 0.0000
# 6 0.0000 0.0000 0.0000 -3.4175 0.0000 19.4740
#
#
#
# Elastic Compliance Matrix: (Units=1/GPa)
#
#
# Indices 1 2 3 4 5 6 
#
# 1 0.029180 -0.003910 -0.016851 0.000000 -0.006444 0.000000
# 2 -0.003910 0.014258 -0.003655 0.000000 -0.001136 0.000000
# 3 -0.016851 -0.003655 0.028875 0.000000 0.007795 0.000000
# 4 0.000000 0.000000 0.000000 0.048961 0.000000 0.008592
# 5 -0.006444 -0.001136 0.007795 0.000000 0.032305 0.000000
# 6 0.000000 0.000000 0.000000 0.008592 0.000000 0.052858
#
#
# Mechanical properties :
#
#
# Convention : Reuss Voigt Hill
#
# Bulk Modulus (GPa) = 42.58781 42.77744 42.68263
# Shear Modulus (GPa) = 19.00448 22.53515 20.76982
#
# Velocity S-wave (km/s) = 3.26175 3.55184 3.40988
# Velocity P-wave (km/s) = 6.16659 6.38501 6.27675
#
# Compressibility (1/GPa) = 0.02348089
#
# Stress axis : x y z
#
# Youngs Moduli (GPa) = 34.27048 70.13729 34.63187
#
# Poissons Ratio (x) = 0.27420 0.58358
# Poissons Ratio (y) = 0.13398 0.12659
# Poissons Ratio (z) = 0.57749 0.25638
#
# Static dielectric constant tensor:
#      x y z
#    x 3.059060 0.000000 -0.158980 
#    y 0.000000 3.438260 0.000000 
#    z -0.158980 0.000000 3.131030 
# 
# 
# High freq. dielectric constant tensor:
#      x y z
#    x 1.671780 0.000000 -0.017560 
#    y 0.000000 1.708040 0.000000 
#    z -0.017560 0.000000 1.679750 
# 
# From -- ./inp_files/79695.got.cif
#   From: 2010.06.25/outbox.cif.g09.slc.cpg/sg10_40_cif.got.tgz:79695.got - 2010.06.27 22:07:45.
