data_PCOD8061724
_publ_section_title
;
Structure prediction by ZEFSAII (Michael W. Deem and Ramdas Pophale) SiO2 
 PCOD8061724
Probable space group: P 2/M
;
_chemical_formula_sum "Si O2"
_cell_formula_units_Z 28
_cell_length_a 22.054639
_cell_length_b 17.021955
_cell_length_c 19.397548
_cell_angle_alpha 90.000000
_cell_angle_beta 11.832334
_cell_angle_gamma 90.000000
_cell_volume 1493.181743
_symmetry_space_group_name_H-M "P 2/M"
_symmetry_group_IT_number 10
_symmetry_cell_setting 'monoclinic'
loop_
_space_group_symop_operation_xyz
x,y,z
-x,y,-z
-x,-y,-z
x,-y,z
loop_
_atom_site_type_symbol
_atom_site_label
_atom_site_fract_x
_atom_site_fract_y
_atom_site_fract_z
Si Si1 0.515249 0.670793 0.769096
Si Si2 0.321034 0.681014 0.129833
Si Si3 0.338452 0.317698 0.746927
Si Si4 0.266714 0.136037 0.156488
Si Si5 0.745905 0.589583 0.387714
Si Si6 0.077267 0.910624 0.591648
Si Si7 0.894716 0.765167 0.869636
O O1 0.559275 0.599440 0.666519
O O2 0.817508 0.715859 0.437613
O O3 0.444601 0.637362 0.924230
O O4 0.263349 0.730981 0.022845
O O5 0.311770 0.772868 0.122350
O O6 0.000000 0.645993 0.500000
O O7 0.500000 0.664064 0.000000
O O8 0.500000 0.282243 0.500000
O O9 0.532363 0.388535 0.562250
O O10 0.310983 0.246796 0.833676
O O11 0.024255 0.352831 0.074916
O O12 0.000000 0.100584 0.500000
O O13 0.167860 0.117040 0.189721
O O14 0.589288 0.097542 0.809747
O O15 0.848303 0.500000 0.266276
O O16 0.003719 0.855061 0.738916
O O17 0.022019 0.000000 0.675551
#
# Coordination Sequence:
#
# PCOD8061724 Si02
#       7
#     4   4   4   4   4   4   4
#     4  10  19  34  54  71 100 138 173 212 251 297
#     4  11  19  30  51  72  95 128 175 220 255 289
#     4  10  21  35  57  82 108 140 165 201 252 302
#     4  11  22  34  48  71 102 134 172 218 266 311
#     4  10  21  35  55  83 112 139 165 199 249 310
#     4  12  22  34  51  70 100 140 175 215 261 304
#     4  10  19  36  51  73 101 131 178 211 245 307
#
# _framework density 18.751902999999999
#
# number of rings (size 3 to 8) (size 9 to 14) (size 15 to 20)
#    0.000    1.429    2.857    4.286    0.000    3.429 
#    0.000    0.000    0.000    1.286    0.000    0.000 
#    0.000    9.143    0.000    0.000    0.000    1.429 
#
# Total GULP energy -347057.369704 kJ/mol
# GULP energy per Si atom -12394.906061 kJ/mol
# Density = 1.870922 g / cm^3
# Si number density = 18.751903 Si / 1000 Ang^3
#
#
#
# Elastic Constant Matrix: (Units=GPa)
#
#
# Indices 1 2 3 4 5 6 
#
# 1 103.9727 8.2539 42.0583 0.0000 16.0432 0.0000
# 2 8.2539 48.1883 7.9658 0.0000 9.6811 0.0000
# 3 42.0583 7.9658 89.4437 0.0000 3.2779 0.0000
# 4 0.0000 0.0000 0.0000 -58.3770 0.0000 86.5998
# 5 16.0432 9.6811 3.2779 0.0000 50.2826 0.0000
# 6 0.0000 0.0000 0.0000 86.5998 0.0000 -92.1506
#
#
#
# Elastic Compliance Matrix: (Units=1/GPa)
#
#
# Indices 1 2 3 4 5 6 
#
# 1 0.012510 -0.000491 -0.005710 0.000000 -0.003525 0.000000
# 2 -0.000491 0.021891 -0.001574 0.000000 -0.003956 0.000000
# 3 -0.005710 -0.001574 0.013961 0.000000 0.001215 0.000000
# 4 0.000000 0.000000 0.000000 0.043466 0.000000 0.040848
# 5 -0.003525 -0.003956 0.001215 0.000000 0.021695 0.000000
# 6 0.000000 0.000000 0.000000 0.040848 0.000000 0.027536
#
#
# Mechanical properties :
#
#
# Convention : Reuss Voigt Hill
#
# Bulk Modulus (GPa) = 30.47559 39.79562 35.13561
# Shear Modulus (GPa) = 29.84270 -7.82721 11.00774
#
# Velocity S-wave (km/s) = 3.99363 -2.04528 2.42548
# Velocity P-wave (km/s) = 6.12802 3.96115 5.15962
#
# Compressibility (1/GPa) = 0.03281315
#
# Stress axis : x y z
#
# Youngs Moduli (GPa) = 79.93321 45.68123 71.62956
#
# Poissons Ratio (x) = 0.02242 0.40899
# Poissons Ratio (y) = 0.03923 0.11273
# Poissons Ratio (z) = 0.45640 0.07189
#
# Static dielectric constant tensor:
#      x y z
#    x 3.396880 0.000000 0.007750 
#    y 0.000000 3.087970 0.000000 
#    z 0.007750 0.000000 3.775750 
# 
# 
# High freq. dielectric constant tensor:
#      x y z
#    x 1.735680 0.000000 -0.014170 
#    y 0.000000 1.678510 0.000000 
#    z -0.014170 0.000000 1.743880 
# 
# From -- ./inp_files/86636.got.cif
#   From: 2010.06.25/outbox.cif.g09.slc.cpg/sg10_44_cif.got.tgz:86636.got - 2010.06.27 22:07:45.
