data_PCOD8061386
_publ_section_title
;
Structure prediction by ZEFSAII (Michael W. Deem and Ramdas Pophale) SiO2 
 PCOD8061386
Probable space group: P 2/M
;
_chemical_formula_sum "Si O2"
_cell_formula_units_Z 28
_cell_length_a 23.039730
_cell_length_b 11.310764
_cell_length_c 28.300018
_cell_angle_alpha 90.000000
_cell_angle_beta 12.148422
_cell_angle_gamma 90.000000
_cell_volume 1552.009267
_symmetry_space_group_name_H-M "P 2/M"
_symmetry_group_IT_number 10
_symmetry_cell_setting 'monoclinic'
loop_
_space_group_symop_operation_xyz
x,y,z
-x,y,-z
-x,-y,-z
x,-y,z
loop_
_atom_site_type_symbol
_atom_site_label
_atom_site_fract_x
_atom_site_fract_y
_atom_site_fract_z
Si Si1 0.668881 0.859784 0.509894
Si Si2 0.304095 0.139881 0.615603
Si Si3 0.305633 0.500000 0.109476
Si Si4 0.799049 0.750644 0.783649
Si Si5 0.286461 0.500000 0.301455
Si Si6 0.754939 0.134892 0.913882
Si Si7 0.658111 0.744745 0.694848
Si Si8 0.668871 0.859201 0.130416
O O1 0.587377 0.815200 0.522179
O O2 0.451964 0.819319 0.722462
O O3 0.975502 0.809181 0.275648
O O4 0.685932 0.000000 0.497609
O O5 0.500000 0.196700 0.500000
O O6 0.329948 0.000000 0.596914
O O7 0.988930 0.176266 0.875807
O O8 0.124139 0.620584 0.255834
O O9 0.500000 0.500000 0.000000
O O10 0.469663 0.500000 0.930172
O O11 0.795598 0.851236 0.825882
O O12 0.028450 0.789441 0.562934
O O13 0.500000 0.744606 0.000000
O O14 0.319168 0.606902 0.311945
O O15 0.000000 0.500000 0.500000
O O16 0.724957 0.000000 0.951915
O O17 0.473455 0.196843 0.154141
O O18 0.478158 0.779814 0.792321
O O19 0.625371 0.000000 0.155247
#
# Coordination Sequence:
#
# PCOD8061386 Si02
#       8
#     4   4   2   4   2   4   4   4
#     4   9  17  31  50  75 110 150 187 219 264 328
#     4   9  17  29  48  79 117 150 184 226 267 319
#     4  10  20  40  58  77 103 136 175 230 294 341
#     4  11  23  39  57  77 107 142 185 240 290 333
#     4  12  24  40  62  85 108 139 187 244 300 339
#     4  11  22  36  56  81 110 149 188 226 280 341
#     4  12  23  37  60  82 108 145 189 235 282 340
#     4  10  19  33  55  79 111 153 186 221 275 335
#
# _framework density 18.041129000000002
#
# number of rings (size 3 to 8) (size 9 to 14) (size 15 to 20)
#    0.000    1.571    4.286    2.571    0.000    1.429 
#    0.000    3.571    0.000    0.000    0.000    0.500 
#    0.000    1.143    0.000    0.000    0.000    0.000 
#
# Total GULP energy -347008.605981 kJ/mol
# GULP energy per Si atom -12393.164499 kJ/mol
# Density = 1.800007 g / cm^3
# Si number density = 18.041129 Si / 1000 Ang^3
#
#
#
# Elastic Constant Matrix: (Units=GPa)
#
#
# Indices 1 2 3 4 5 6 
#
# 1 114.4341 34.0822 52.2047 0.0000 7.7381 0.0000
# 2 34.0822 43.5118 29.0894 0.0000 -5.2380 0.0000
# 3 52.2047 29.0894 108.9582 0.0000 11.8702 0.0000
# 4 0.0000 0.0000 0.0000 13.4154 0.0000 4.5549
# 5 7.7381 -5.2380 11.8702 0.0000 38.8814 0.0000
# 6 0.0000 0.0000 0.0000 4.5549 0.0000 20.3276
#
#
#
# Elastic Compliance Matrix: (Units=1/GPa)
#
#
# Indices 1 2 3 4 5 6 
#
# 1 0.013025 -0.007924 -0.003855 0.000000 -0.002483 0.000000
# 2 -0.007924 0.034350 -0.006258 0.000000 0.008115 0.000000
# 3 -0.003855 -0.006258 0.013141 0.000000 -0.004088 0.000000
# 4 0.000000 0.000000 0.000000 0.080679 0.000000 -0.018078
# 5 -0.002483 0.008115 -0.004088 0.000000 0.028555 0.000000
# 6 0.000000 0.000000 0.000000 -0.018078 0.000000 0.053245
#
#
# Mechanical properties :
#
#
# Convention : Reuss Voigt Hill
#
# Bulk Modulus (GPa) = 40.91322 55.29520 48.10421
# Shear Modulus (GPa) = 18.71146 24.62674 21.66910
#
# Velocity S-wave (km/s) = 3.22398 3.69864 3.46944
# Velocity P-wave (km/s) = 6.04861 6.99686 6.53994
#
# Compressibility (1/GPa) = 0.02444198
#
# Stress axis : x y z
#
# Youngs Moduli (GPa) = 76.77466 29.11212 76.09944
#
# Poissons Ratio (x) = 0.23070 0.29333
# Poissons Ratio (y) = 0.60839 0.47623
# Poissons Ratio (z) = 0.29593 0.18218
#
# Static dielectric constant tensor:
#      x y z
#    x 3.575150 0.000000 0.197590 
#    y 0.000000 3.258140 0.000000 
#    z 0.197590 0.000000 3.528660 
# 
# 
# High freq. dielectric constant tensor:
#      x y z
#    x 1.705780 0.000000 0.024020 
#    y 0.000000 1.653070 0.000000 
#    z 0.024020 0.000000 1.704910 
# 
# From -- ./inp_files/85837.got.cif
#   From: 2010.06.25/outbox.cif.g09.slc.cpg/sg10_43_cif.got.tgz:85837.got - 2010.06.27 22:07:45.
