data_PCOD8061116
_publ_section_title
;
Structure prediction by ZEFSAII (Michael W. Deem and Ramdas Pophale) SiO2 
 PCOD8061116
Probable space group: P 2/M
;
_chemical_formula_sum "Si O2"
_cell_formula_units_Z 28
_cell_length_a 13.495804
_cell_length_b 8.913373
_cell_length_c 13.361418
_cell_angle_alpha 90.000000
_cell_angle_beta 118.462547
_cell_angle_gamma 90.000000
_cell_volume 1413.012221
_symmetry_space_group_name_H-M "P 2/M"
_symmetry_group_IT_number 10
_symmetry_cell_setting 'monoclinic'
loop_
_space_group_symop_operation_xyz
x,y,z
-x,y,-z
-x,-y,-z
x,-y,z
loop_
_atom_site_type_symbol
_atom_site_label
_atom_site_fract_x
_atom_site_fract_y
_atom_site_fract_z
Si Si1 0.968313 0.323481 0.828852
Si Si2 0.238983 0.676548 0.557170
Si Si3 0.230872 0.172328 0.179858
Si Si4 0.963049 0.826181 0.624723
Si Si5 0.797577 0.172381 0.049576
Si Si6 0.227611 0.171750 0.745846
Si Si7 0.629091 0.176495 0.561781
O O1 0.963729 0.500000 0.808988
O O2 0.881737 0.274280 0.873622
O O3 0.919416 0.236627 0.709160
O O4 0.094434 0.276213 0.914554
O O5 0.240503 0.500000 0.550426
O O6 0.110521 0.739193 0.493610
O O7 0.288088 0.727958 0.689620
O O8 0.310771 0.741876 0.500857
O O9 0.321293 0.225888 0.305918
O O10 0.197083 0.000000 0.183199
O O11 0.278629 0.189137 0.087925
O O12 0.094486 0.795376 0.677886
O O13 0.932830 0.000000 0.599596
O O14 0.731658 0.216125 0.121094
O O15 0.839366 0.000000 0.083857
O O16 0.256563 0.000000 0.735627
O O17 0.500000 0.227607 0.500000
O O18 0.641897 0.000000 0.550713
#
# Coordination Sequence:
#
# PCOD8061116 Si02
#       7
#     4   4   4   4   4   4   4
#     4  11  20  29  46  77 113 147 181 219 265 320
#     4  12  23  34  53  80 110 142 177 223 278 330
#     4  10  19  34  56  77 104 141 181 226 274 325
#     4  10  19  33  52  75 107 148 187 223 263 316
#     4   9  19  34  52  76 107 147 186 218 261 318
#     4   9  19  34  52  75 107 146 185 220 258 316
#     4  10  22  40  62  84 105 137 183 232 281 329
#
# _framework density 19.815821
#
# number of rings (size 3 to 8) (size 9 to 14) (size 15 to 20)
#    0.000    1.857    1.429    4.714    0.000    7.143 
#    0.000    0.000    0.000    0.857    0.000    6.000 
#    0.000    0.000    0.000    0.000    0.000    0.000 
#
# Total GULP energy -347007.862399 kJ/mol
# GULP energy per Si atom -12393.137943 kJ/mol
# Density = 1.977072 g / cm^3
# Si number density = 19.815821 Si / 1000 Ang^3
#
#
#
# Elastic Constant Matrix: (Units=GPa)
#
#
# Indices 1 2 3 4 5 6 
#
# 1 47.2705 34.8843 53.5358 0.0000 -18.1879 0.0000
# 2 34.8843 80.0127 45.0174 0.0000 -13.3590 0.0000
# 3 53.5358 45.0174 139.7811 0.0000 -42.5169 0.0000
# 4 0.0000 0.0000 0.0000 7.7116 0.0000 0.2740
# 5 -18.1879 -13.3590 -42.5169 0.0000 33.2817 0.0000
# 6 0.0000 0.0000 0.0000 0.2740 0.0000 8.6077
#
#
#
# Elastic Compliance Matrix: (Units=1/GPa)
#
#
# Indices 1 2 3 4 5 6 
#
# 1 0.045830 -0.012365 -0.012205 0.000000 0.004491 0.000000
# 2 -0.012365 0.018601 -0.001700 0.000000 -0.001462 0.000000
# 3 -0.012205 -0.001700 0.016583 0.000000 0.013833 0.000000
# 4 0.000000 0.000000 0.000000 0.129822 0.000000 -0.004133
# 5 0.004491 -0.001462 0.013833 0.000000 0.049586 0.000000
# 6 0.000000 0.000000 0.000000 -0.004133 0.000000 0.116307
#
#
# Mechanical properties :
#
#
# Convention : Reuss Voigt Hill
#
# Bulk Modulus (GPa) = 35.11678 59.32659 47.22168
# Shear Modulus (GPa) = 11.39579 18.82863 15.11221
#
# Velocity S-wave (km/s) = 2.40070 3.08585 2.76458
# Velocity P-wave (km/s) = 5.04425 6.53457 5.83717
#
# Compressibility (1/GPa) = 0.02847642
#
# Stress axis : x y z
#
# Youngs Moduli (GPa) = 21.81989 53.76070 60.30131
#
# Poissons Ratio (x) = 0.66473 0.73595
# Poissons Ratio (y) = 0.26979 0.10249
# Poissons Ratio (z) = 0.26630 0.09138
#
# Static dielectric constant tensor:
#      x y z
#    x 3.300630 0.000000 -0.429800 
#    y 0.000000 3.432520 0.000000 
#    z -0.429800 0.000000 4.026470 
# 
# 
# High freq. dielectric constant tensor:
#      x y z
#    x 1.728870 0.000000 -0.041490 
#    y 0.000000 1.760120 0.000000 
#    z -0.041490 0.000000 1.783560 
# 
# From -- ./inp_files/66249.got.cif
#   From: 2010.06.25/outbox.cif.g09.slc.cpg/sg10_34_cif.got.tgz:66249.got - 2010.06.27 22:07:45.
