data_PCOD8061248
_publ_section_title
;
Structure prediction by ZEFSAII (Michael W. Deem and Ramdas Pophale) SiO2 
 PCOD8061248
Probable space group: P 2/M
;
_chemical_formula_sum "Si O2"
_cell_formula_units_Z 32
_cell_length_a 24.558917
_cell_length_b 8.212807
_cell_length_c 24.525132
_cell_angle_alpha 90.000000
_cell_angle_beta 18.419568
_cell_angle_gamma 90.000000
_cell_volume 1563.011853
_symmetry_space_group_name_H-M "P 2/M"
_symmetry_group_IT_number 10
_symmetry_cell_setting 'monoclinic'
loop_
_space_group_symop_operation_xyz
x,y,z
-x,y,-z
-x,-y,-z
x,-y,z
loop_
_atom_site_type_symbol
_atom_site_label
_atom_site_fract_x
_atom_site_fract_y
_atom_site_fract_z
Si Si1 0.138186 0.693969 0.119893
Si Si2 0.064785 0.694736 0.069166
Si Si3 0.718425 0.306426 0.343840
Si Si4 0.513707 0.692077 0.158450
Si Si5 0.418420 0.312670 0.023700
Si Si6 0.340402 0.693573 0.721363
Si Si7 0.865828 0.308422 0.467630
Si Si8 0.945402 0.811860 0.611601
O O1 0.137571 0.500000 0.119063
O O2 0.096328 0.763261 0.099810
O O3 0.991140 0.757400 0.301119
O O4 0.325138 0.763599 0.960466
O O5 0.064820 0.500000 0.068571
O O6 0.881031 0.763516 0.222730
O O7 0.217160 0.763630 0.885716
O O8 0.725179 0.500000 0.337581
O O9 0.727382 0.243790 0.272914
O O10 0.538326 0.247682 0.542412
O O11 0.542938 0.500000 0.126011
O O12 0.332439 0.733249 0.360018
O O13 0.511742 0.766517 0.098893
O O14 0.473794 0.500000 0.972022
O O15 0.213563 0.296889 0.218132
O O16 0.500000 0.225564 0.000000
O O17 0.334346 0.500000 0.727927
O O18 0.890083 0.500000 0.453404
O O19 0.902559 0.218728 0.489781
O O20 0.000000 0.751543 0.500000
O O21 0.891566 0.000000 0.661386
#
# Coordination Sequence:
#
# PCOD8061248 Si02
#       8
#     4   4   4   4   4   4   4   4
#     4   9  17  28  42  64  89 113 150 201 244 285
#     4   9  15  21  32  50  74 103 140 189 240 275
#     4   8  13  20  29  43  67 102 145 184 226 276
#     4   9  17  30  48  70  91 116 154 195 236 283
#     4  10  19  33  54  77 100 126 161 196 232 288
#     4   8  13  20  29  42  66 103 144 187 225 270
#     4  10  19  34  55  71  93 128 160 196 240 286
#     4  11  23  36  51  75 105 128 154 196 242 289
#
# _framework density 20.473293000000002
#
# number of rings (size 3 to 8) (size 9 to 14) (size 15 to 20)
#    0.000    2.750    1.250    2.250    0.000    4.750 
#    0.000    5.625    0.000    0.000    0.000    0.000 
#    0.000    0.000    0.000    0.000    0.000    2.500 
#
# Total GULP energy -396643.523069 kJ/mol
# GULP energy per Si atom -12395.110096 kJ/mol
# Density = 2.042669 g / cm^3
# Si number density = 20.473293 Si / 1000 Ang^3
#
#
#
# Elastic Constant Matrix: (Units=GPa)
#
#
# Indices 1 2 3 4 5 6 
#
# 1 180.3948 4.4266 105.1865 0.0000 -3.8667 0.0000
# 2 4.4266 7.4440 2.7728 0.0000 1.7044 0.0000
# 3 105.1865 2.7728 181.6972 0.0000 -6.8235 0.0000
# 4 0.0000 0.0000 0.0000 2.6810 0.0000 1.3252
# 5 -3.8667 1.7044 -6.8235 0.0000 33.4442 0.0000
# 6 0.0000 0.0000 0.0000 1.3252 0.0000 0.4104
#
#
#
# Elastic Compliance Matrix: (Units=1/GPa)
#
#
# Indices 1 2 3 4 5 6 
#
# 1 0.008445 -0.003257 -0.004833 0.000000 0.000156 0.000000
# 2 -0.003257 0.138183 -0.000506 0.000000 -0.007522 0.000000
# 3 -0.004833 -0.000506 0.008353 0.000000 0.001171 0.000000
# 4 0.000000 0.000000 0.000000 -0.625670 0.000000 2.020353
# 5 0.000156 -0.007522 0.001171 0.000000 0.030541 0.000000
# 6 0.000000 0.000000 0.000000 2.020353 0.000000 -4.087264
#
#
# Mechanical properties :
#
#
# Convention : Reuss Voigt Hill
#
# Bulk Modulus (GPa) = 7.25744 66.03420 36.64582
# Shear Modulus (GPa) = -1.12000 24.45046 11.66523
#
# Velocity S-wave (km/s) = -0.74043 3.45956 2.38959
# Velocity P-wave (km/s) = 1.67974 6.94852 5.05487
#
# Compressibility (1/GPa) = 0.13778961
#
# Stress axis : x y z
#
# Youngs Moduli (GPa) = 118.41446 7.23676 119.71168
#
# Poissons Ratio (x) = 0.02357 0.57860
# Poissons Ratio (y) = 0.38571 0.06052
# Poissons Ratio (z) = 0.57233 0.00366
#
# Static dielectric constant tensor:
#      x y z
#    x 3.947170 0.000000 -0.021580 
#    y 0.000000 2.872260 0.000000 
#    z -0.021580 0.000000 3.948060 
# 
# 
# High freq. dielectric constant tensor:
#      x y z
#    x 1.800400 0.000000 -0.003850 
#    y 0.000000 1.723550 0.000000 
#    z -0.003850 0.000000 1.813170 
# 
# From -- ./inp_files/90587.got.cif
#   From: 2010.06.25/outbox.cif.g09.slc.cpg/sg10_46_cif.got.tgz:90587.got - 2010.06.27 22:07:45.
