data_PCOD8061324
_publ_section_title
;
Structure prediction by ZEFSAII (Michael W. Deem and Ramdas Pophale) SiO2 
 PCOD8061324
Probable space group: P 2/M
;
_chemical_formula_sum "Si O2"
_cell_formula_units_Z 28
_cell_length_a 15.747884
_cell_length_b 10.728772
_cell_length_c 15.689409
_cell_angle_alpha 90.000000
_cell_angle_beta 36.618820
_cell_angle_gamma 90.000000
_cell_volume 1581.178555
_symmetry_space_group_name_H-M "P 2/M"
_symmetry_group_IT_number 10
_symmetry_cell_setting 'monoclinic'
loop_
_space_group_symop_operation_xyz
x,y,z
-x,y,-z
-x,-y,-z
x,-y,z
loop_
_atom_site_type_symbol
_atom_site_label
_atom_site_fract_x
_atom_site_fract_y
_atom_site_fract_z
Si Si1 0.486842 0.500000 0.368382
Si Si2 0.180751 0.143649 0.925533
Si Si3 0.557012 0.854575 0.863126
Si Si4 0.237264 0.857581 0.534876
Si Si5 0.477406 0.757445 0.752035
Si Si6 0.881744 0.244041 0.199280
Si Si7 0.262716 0.500000 0.697385
Si Si8 0.865901 0.145402 0.560169
O O1 0.487363 0.617934 0.305485
O O2 0.344626 0.500000 0.540803
O O3 0.624450 0.500000 0.317267
O O4 0.323519 0.201981 0.845786
O O5 0.179658 0.151885 0.823726
O O6 0.166137 0.000000 0.965120
O O7 0.051190 0.223840 0.069750
O O8 0.483433 0.770573 0.849648
O O9 0.725999 0.831238 0.729050
O O10 0.521849 0.000000 0.873893
O O11 0.500000 0.809852 0.000000
O O12 0.406581 0.849332 0.383560
O O13 0.193843 0.779522 0.650973
O O14 0.156219 0.800385 0.517371
O O15 0.194963 0.000000 0.584272
O O16 0.842963 0.384307 0.205840
O O17 0.000000 0.209567 0.500000
O O18 0.895889 0.000000 0.524875
#
# Coordination Sequence:
#
# PCOD8061324 Si02
#       8
#     2   4   4   4   4   4   2   4
#     4  11  22  39  59  83 108 145 206 246 271 323
#     4  11  23  37  54  83 119 148 181 230 293 352
#     4   9  18  33  54  82 114 144 180 227 286 348
#     4  10  19  33  54  81 111 145 187 234 285 338
#     4  11  21  37  57  82 111 151 190 238 279 332
#     4  11  22  37  54  78 113 148 189 231 284 331
#     4  11  22  40  59  80 109 150 204 243 273 320
#     4   8  15  28  48  75 105 138 177 217 268 332
#
# _framework density 17.708310000000001
#
# number of rings (size 3 to 8) (size 9 to 14) (size 15 to 20)
#    0.000    1.857    2.857    3.857    0.000    3.429 
#    0.000    4.643    0.000    0.000    0.000   12.500 
#    0.000    0.000    0.000    0.000    0.000    0.000 
#
# Total GULP energy -347179.382444 kJ/mol
# GULP energy per Si atom -12399.263659 kJ/mol
# Density = 1.766800 g / cm^3
# Si number density = 17.708310 Si / 1000 Ang^3
#
#
#
# Elastic Constant Matrix: (Units=GPa)
#
#
# Indices 1 2 3 4 5 6 
#
# 1 98.2812 11.4128 52.3466 0.0000 -6.2586 0.0000
# 2 11.4128 62.0313 9.7922 0.0000 1.7020 0.0000
# 3 52.3466 9.7922 90.6935 0.0000 9.7024 0.0000
# 4 0.0000 0.0000 0.0000 26.6278 0.0000 -1.9097
# 5 -6.2586 1.7020 9.7024 0.0000 38.5494 0.0000
# 6 0.0000 0.0000 0.0000 -1.9097 0.0000 15.8680
#
#
#
# Elastic Compliance Matrix: (Units=1/GPa)
#
#
# Indices 1 2 3 4 5 6 
#
# 1 0.015690 -0.001536 -0.009424 0.000000 0.004987 0.000000
# 2 -0.001536 0.016554 -0.000818 0.000000 -0.000774 0.000000
# 3 -0.009424 -0.000818 0.017176 0.000000 -0.005817 0.000000
# 4 0.000000 0.000000 0.000000 0.037882 0.000000 0.004559
# 5 0.004987 -0.000774 -0.005817 0.000000 0.028249 0.000000
# 6 0.000000 0.000000 0.000000 0.004559 0.000000 0.063569
#
#
# Mechanical properties :
#
#
# Convention : Reuss Voigt Hill
#
# Bulk Modulus (GPa) = 38.66280 44.23436 41.44858
# Shear Modulus (GPa) = 23.66355 28.03934 25.85144
#
# Velocity S-wave (km/s) = 3.65950 3.98351 3.82494
# Velocity P-wave (km/s) = 6.30369 6.79643 6.55469
#
# Compressibility (1/GPa) = 0.02586466
#
# Stress axis : x y z
#
# Youngs Moduli (GPa) = 63.73454 60.40891 58.22097
#
# Poissons Ratio (x) = 0.09279 0.54866
# Poissons Ratio (y) = 0.09789 0.04762
# Poissons Ratio (z) = 0.60062 0.04941
#
# Static dielectric constant tensor:
#      x y z
#    x 3.489590 0.000000 -0.020840 
#    y 0.000000 3.141730 0.000000 
#    z -0.020840 0.000000 3.313640 
# 
# 
# High freq. dielectric constant tensor:
#      x y z
#    x 1.687300 0.000000 -0.001940 
#    y 0.000000 1.659970 0.000000 
#    z -0.001940 0.000000 1.690160 
# 
# From -- ./inp_files/67119.got.cif
#   From: 2010.06.25/outbox.cif.g09.slc.cpg/sg10_34_cif.got.tgz:67119.got - 2010.06.27 22:07:45.
