data_PCOD8061180
_publ_section_title
;
Structure prediction by ZEFSAII (Michael W. Deem and Ramdas Pophale) SiO2 
 PCOD8061180
Probable space group: P 2/M
;
_chemical_formula_sum "Si O2"
_cell_formula_units_Z 32
_cell_length_a 24.188379
_cell_length_b 8.248131
_cell_length_c 25.447238
_cell_angle_alpha 90.000000
_cell_angle_beta 17.885474
_cell_angle_gamma 90.000000
_cell_volume 1559.209582
_symmetry_space_group_name_H-M "P 2/M"
_symmetry_group_IT_number 10
_symmetry_cell_setting 'monoclinic'
loop_
_space_group_symop_operation_xyz
x,y,z
-x,y,-z
-x,-y,-z
x,-y,z
loop_
_atom_site_type_symbol
_atom_site_label
_atom_site_fract_x
_atom_site_fract_y
_atom_site_fract_z
Si Si1 0.949591 0.307368 0.185824
Si Si2 0.677302 0.311902 0.189650
Si Si3 0.080913 0.312264 0.667764
Si Si4 0.548983 0.190316 0.816701
Si Si5 0.931473 0.806873 0.506625
Si Si6 0.564366 0.306185 0.498177
Si Si7 0.452874 0.813405 0.298609
Si Si8 0.835009 0.809654 0.802799
O O1 0.951347 0.500000 0.180994
O O2 0.967233 0.252174 0.230243
O O3 0.765243 0.239083 0.327461
O O4 0.122092 0.236105 0.998060
O O5 0.697500 0.500000 0.183209
O O6 0.570145 0.233516 0.335736
O O7 0.567289 0.291536 0.235611
O O8 0.139517 0.500000 0.615103
O O9 0.241884 0.202676 0.500772
O O10 0.909835 0.285481 0.785387
O O11 0.731852 0.264929 0.675841
O O12 0.511852 0.257167 0.791660
O O13 0.580873 0.000000 0.782326
O O14 0.378287 0.230391 0.008222
O O15 0.000000 0.735126 0.500000
O O16 0.068468 0.747955 0.337397
O O17 0.927867 0.000000 0.512458
O O18 0.500000 0.241340 0.500000
O O19 0.564877 0.500000 0.499703
O O20 0.511389 0.000000 0.250904
O O21 0.867116 0.000000 0.782448
#
# Coordination Sequence:
#
# PCOD8061180 Si02
#       8
#     4   4   4   4   4   4   4   4
#     4   9  18  31  49  76 105 132 167 209 252 300
#     4  10  19  33  53  76 105 135 166 208 254 299
#     4  11  20  33  53  77 106 135 167 206 253 306
#     4   9  18  31  49  76 105 132 167 209 252 300
#     4   9  17  30  49  75 105 134 168 210 252 294
#     4   9  17  30  49  75 105 134 168 210 252 294
#     4  11  20  33  53  77 106 135 167 206 253 306
#     4  10  19  33  53  76 105 135 166 208 254 299
#
# _framework density 20.523218
#
# number of rings (size 3 to 8) (size 9 to 14) (size 15 to 20)
#    0.000    2.250    2.500    1.500    0.000    1.000 
#    0.000    6.250    0.000    0.750    0.000    1.750 
#    0.000    0.000    0.000    0.000    0.000    0.000 
#
# Total GULP energy -396743.394801 kJ/mol
# GULP energy per Si atom -12398.231088 kJ/mol
# Density = 2.047651 g / cm^3
# Si number density = 20.523218 Si / 1000 Ang^3
#
#
#
# Elastic Constant Matrix: (Units=GPa)
#
#
# Indices 1 2 3 4 5 6 
#
# 1 176.6732 1.6876 93.9325 0.0000 3.3190 0.0000
# 2 1.6876 12.0100 3.9471 0.0000 1.4722 0.0000
# 3 93.9325 3.9471 197.4504 0.0000 -4.0594 0.0000
# 4 0.0000 0.0000 0.0000 11.5979 0.0000 0.0025
# 5 3.3190 1.4722 -4.0594 0.0000 20.9531 0.0000
# 6 0.0000 0.0000 0.0000 0.0025 0.0000 16.9617
#
#
#
# Elastic Compliance Matrix: (Units=1/GPa)
#
#
# Indices 1 2 3 4 5 6 
#
# 1 0.007655 0.000376 -0.003689 0.000000 -0.001954 0.000000
# 2 0.000376 0.084654 -0.002003 0.000000 -0.006396 0.000000
# 3 -0.003689 -0.002003 0.006902 0.000000 0.002062 0.000000
# 4 0.000000 0.000000 0.000000 0.086222 0.000000 -0.000013
# 5 -0.001954 -0.006396 0.002062 0.000000 0.048884 0.000000
# 6 0.000000 0.000000 0.000000 -0.000013 0.000000 0.058956
#
#
# Mechanical properties :
#
#
# Convention : Reuss Voigt Hill
#
# Bulk Modulus (GPa) = 11.28935 65.02978 38.15956
# Shear Modulus (GPa) = 14.99562 29.00698 22.00130
#
# Velocity S-wave (km/s) = 2.70602 3.76357 3.27772
# Velocity P-wave (km/s) = 3.90846 7.11622 5.74094
#
# Compressibility (1/GPa) = 0.08857907
#
# Stress axis : x y z
#
# Youngs Moduli (GPa) = 130.63764 11.81284 144.88376
#
# Poissons Ratio (x) = -0.00445 0.53452
# Poissons Ratio (y) = -0.04917 0.29018
# Poissons Ratio (z) = 0.48196 0.02366
#
# Static dielectric constant tensor:
#      x y z
#    x 3.808200 0.000000 0.006490 
#    y 0.000000 3.080180 0.000000 
#    z 0.006490 0.000000 4.079510 
# 
# 
# High freq. dielectric constant tensor:
#      x y z
#    x 1.798530 0.000000 -0.000990 
#    y 0.000000 1.743230 0.000000 
#    z -0.000990 0.000000 1.819850 
# 
# From -- ./inp_files/90567.got.cif
#   From: 2010.06.25/outbox.cif.g09.slc.cpg/sg10_46_cif.got.tgz:90567.got - 2010.06.27 22:07:45.
