data_PCOD8061802
_publ_section_title
;
Structure prediction by ZEFSAII (Michael W. Deem and Ramdas Pophale) SiO2 
 PCOD8061802
Probable space group: P 2/M
;
_chemical_formula_sum "Si O2"
_cell_formula_units_Z 32
_cell_length_a 26.407395
_cell_length_b 9.672506
_cell_length_c 20.418372
_cell_angle_alpha 90.000000
_cell_angle_beta 160.080285
_cell_angle_gamma 90.000000
_cell_volume 1776.894876
_symmetry_space_group_name_H-M "P 2/M"
_symmetry_group_IT_number 10
_symmetry_cell_setting 'monoclinic'
loop_
_space_group_symop_operation_xyz
x,y,z
-x,y,-z
-x,-y,-z
x,-y,z
loop_
_atom_site_type_symbol
_atom_site_label
_atom_site_fract_x
_atom_site_fract_y
_atom_site_fract_z
Si Si1 0.156849 0.157943 0.855566
Si Si2 0.961307 0.157710 0.144761
Si Si3 0.494689 0.840057 0.266655
Si Si4 0.284492 0.839371 0.580525
Si Si5 0.737295 0.659212 0.805247
Si Si6 0.540986 0.340415 0.445191
Si Si7 0.041453 0.340809 0.478305
Si Si8 0.655016 0.659170 0.219284
O O1 0.126858 0.179249 0.895308
O O2 0.047943 0.254406 0.683148
O O3 0.127422 0.000000 0.798605
O O4 0.325477 0.202998 0.046657
O O5 0.131124 0.205653 0.359716
O O6 0.953443 0.000000 0.111326
O O7 0.884414 0.250539 0.995702
O O8 0.582581 0.808385 0.307348
O O9 0.565120 0.751695 0.410662
O O10 0.506135 0.000000 0.301158
O O11 0.308522 0.751279 0.674233
O O12 0.276579 0.000000 0.591459
O O13 0.779047 0.500000 0.866770
O O14 0.609096 0.703961 0.700115
O O15 0.681053 0.684537 0.663101
O O16 0.531963 0.500000 0.413136
O O17 0.993853 0.500000 0.412446
O O18 0.217171 0.321044 0.679915
O O19 0.000000 0.286265 0.500000
O O20 0.644705 0.500000 0.229486
O O21 0.500000 0.709446 0.000000
#
# Coordination Sequence:
#
# PCOD8061802 Si02
#       8
#     4   4   4   4   4   4   4   4
#     4  10  20  35  55  80 107 136 179 225 261 307
#     4  10  19  34  55  79 105 138 179 221 262 310
#     4  10  21  36  54  79 109 140 177 221 265 312
#     4  10  22  39  56  77 109 143 176 217 265 317
#     4   9  18  32  53  80 109 140 176 219 266 314
#     4   9  18  33  52  79 111 140 175 220 266 313
#     4  10  22  38  56  81 110 139 174 218 266 313
#     4  10  22  39  57  79 108 141 178 217 259 315
#
# _framework density 18.008942999999999
#
# number of rings (size 3 to 8) (size 9 to 14) (size 15 to 20)
#    0.000    2.250    2.500    0.750    1.750    3.000 
#    0.000    1.875    0.000    3.750    0.000    0.000 
#    0.000    0.000    0.000    0.000    0.000    0.000 
#
# Total GULP energy -396892.886878 kJ/mol
# GULP energy per Si atom -12402.902715 kJ/mol
# Density = 1.796795 g / cm^3
# Si number density = 18.008943 Si / 1000 Ang^3
#
#
#
# Elastic Constant Matrix: (Units=GPa)
#
#
# Indices 1 2 3 4 5 6 
#
# 1 57.1359 26.4747 29.0932 0.0000 6.5529 0.0000
# 2 26.4747 61.6695 47.6009 0.0000 -10.7751 0.0000
# 3 29.0932 47.6009 121.7257 0.0000 4.4710 0.0000
# 4 0.0000 0.0000 0.0000 38.1230 0.0000 -12.9155
# 5 6.5529 -10.7751 4.4710 0.0000 30.5418 0.0000
# 6 0.0000 0.0000 0.0000 -12.9155 0.0000 36.9970
#
#
#
# Elastic Compliance Matrix: (Units=1/GPa)
#
#
# Indices 1 2 3 4 5 6 
#
# 1 0.024248 -0.011108 -0.001123 0.000000 -0.008957 0.000000
# 2 -0.011108 0.031479 -0.010205 0.000000 0.014983 0.000000
# 3 -0.001123 -0.010205 0.012666 0.000000 -0.005214 0.000000
# 4 0.000000 0.000000 0.000000 0.029749 0.000000 0.010385
# 5 -0.008957 0.014983 -0.005214 0.000000 0.040713 0.000000
# 6 0.000000 0.000000 0.000000 0.010385 0.000000 0.030655
#
#
# Mechanical properties :
#
#
# Convention : Reuss Voigt Hill
#
# Bulk Modulus (GPa) = 42.51540 49.65208 46.08374
# Shear Modulus (GPa) = 22.49986 30.28985 26.39485
#
# Velocity S-wave (km/s) = 3.53848 4.10559 3.83254
# Velocity P-wave (km/s) = 6.35245 7.07850 6.72528
#
# Compressibility (1/GPa) = 0.02352089
#
# Stress axis : x y z
#
# Youngs Moduli (GPa) = 41.24010 31.76672 78.95256
#
# Poissons Ratio (x) = 0.35288 0.08863
# Poissons Ratio (y) = 0.45811 0.80575
# Poissons Ratio (z) = 0.04629 0.32419
#
# Static dielectric constant tensor:
#      x y z
#    x 3.329230 0.000000 0.193540 
#    y 0.000000 3.291940 0.000000 
#    z 0.193540 0.000000 3.414080 
# 
# 
# High freq. dielectric constant tensor:
#      x y z
#    x 1.686370 0.000000 0.002950 
#    y 0.000000 1.695610 0.000000 
#    z 0.002950 0.000000 1.703750 
# 
# From -- ./inp_files/85751.got.cif
#   From: 2010.06.25/outbox.cif.g09.slc.cpg/sg10_43_cif.got.tgz:85751.got - 2010.06.27 22:07:45.
