data_PCOD8061186
_publ_section_title
;
Structure prediction by ZEFSAII (Michael W. Deem and Ramdas Pophale) SiO2 
 PCOD8061186
Probable space group: P 2/M
;
_chemical_formula_sum "Si O2"
_cell_formula_units_Z 32
_cell_length_a 12.392714
_cell_length_b 9.114058
_cell_length_c 23.253325
_cell_angle_alpha 90.000000
_cell_angle_beta 46.751094
_cell_angle_gamma 90.000000
_cell_volume 1913.038478
_symmetry_space_group_name_H-M "P 2/M"
_symmetry_group_IT_number 10
_symmetry_cell_setting 'monoclinic'
loop_
_space_group_symop_operation_xyz
x,y,z
-x,y,-z
-x,-y,-z
x,-y,z
loop_
_atom_site_type_symbol
_atom_site_label
_atom_site_fract_x
_atom_site_fract_y
_atom_site_fract_z
Si Si1 0.607289 0.831884 0.687923
Si Si2 0.836766 0.328322 0.415559
Si Si3 0.945044 0.830776 0.583046
Si Si4 0.323027 0.831954 0.857515
Si Si5 0.544406 0.671569 0.594402
Si Si6 0.883336 0.666000 0.991287
Si Si7 0.899971 0.829842 0.161018
Si Si8 0.749828 0.173790 0.333886
O O1 0.770470 0.802350 0.652000
O O2 0.495565 0.801067 0.781574
O O3 0.568447 0.724988 0.650217
O O4 0.589425 0.000000 0.672606
O O5 0.852526 0.500000 0.396757
O O6 0.690601 0.292789 0.505099
O O7 0.833959 0.238994 0.357644
O O8 0.978975 0.273997 0.398613
O O9 0.000000 0.784676 0.500000
O O10 0.986398 0.000000 0.580391
O O11 0.233592 0.787485 0.832820
O O12 0.292969 0.000000 0.884311
O O13 0.270553 0.738515 0.931733
O O14 0.507130 0.500000 0.608648
O O15 0.411886 0.755896 0.611840
O O16 0.849532 0.500000 0.987003
O O17 0.950031 0.744279 0.910617
O O18 0.000000 0.682206 0.000000
O O19 0.849456 0.783059 0.242787
O O20 0.938295 0.000000 0.143384
O O21 0.731298 0.000000 0.346402
#
# Coordination Sequence:
#
# PCOD8061186 Si02
#       8
#     4   4   4   4   4   4   4   4
#     4  10  19  33  53  77 101 132 174 213 254 298
#     4  11  24  38  51  72 103 137 173 212 259 307
#     4  10  20  35  57  77  97 129 174 221 257 295
#     4   9  16  29  47  69 100 131 164 204 246 295
#     4  11  22  34  50  73 104 137 169 208 257 306
#     4   9  17  27  42  68 100 132 164 196 238 296
#     4   9  17  30  48  70  97 131 165 200 247 297
#     4  11  22  36  54  75 100 134 176 214 250 300
#
# _framework density 16.727315999999998
#
# number of rings (size 3 to 8) (size 9 to 14) (size 15 to 20)
#    0.000    2.000    2.500    1.875    0.000    6.750 
#    0.000    0.000    0.000    0.000    0.000    0.875 
#    0.000    7.000    0.000    0.000    0.000    0.000 
#
# Total GULP energy -396888.444606 kJ/mol
# GULP energy per Si atom -12402.763894 kJ/mol
# Density = 1.668924 g / cm^3
# Si number density = 16.727316 Si / 1000 Ang^3
#
#
#
# Elastic Constant Matrix: (Units=GPa)
#
#
# Indices 1 2 3 4 5 6 
#
# 1 76.5229 36.2490 44.7519 0.0000 -5.0492 0.0000
# 2 36.2490 68.4168 43.8035 0.0000 -8.5034 0.0000
# 3 44.7519 43.8035 104.0058 0.0000 -23.6442 0.0000
# 4 0.0000 0.0000 0.0000 22.5761 0.0000 -1.5690
# 5 -5.0492 -8.5034 -23.6442 0.0000 15.8049 0.0000
# 6 0.0000 0.0000 0.0000 -1.5690 0.0000 21.5178
#
#
#
# Elastic Compliance Matrix: (Units=1/GPa)
#
#
# Indices 1 2 3 4 5 6 
#
# 1 0.020344 -0.006821 -0.007937 0.000000 -0.009044 0.000000
# 2 -0.006821 0.022381 -0.006439 0.000000 0.000230 0.000000
# 3 -0.007937 -0.006439 0.021788 0.000000 0.026595 0.000000
# 4 0.000000 0.000000 0.000000 0.044520 0.000000 0.003246
# 5 -0.009044 0.000230 0.026595 0.000000 0.100291 0.000000
# 6 0.000000 0.000000 0.000000 0.003246 0.000000 0.046710
#
#
# Mechanical properties :
#
#
# Convention : Reuss Voigt Hill
#
# Bulk Modulus (GPa) = 45.21014 55.39492 50.30253
# Shear Modulus (GPa) = 16.35045 20.25585 18.30315
#
# Velocity S-wave (km/s) = 3.12984 3.48364 3.31147
# Velocity P-wave (km/s) = 6.33622 7.02633 6.69018
#
# Compressibility (1/GPa) = 0.02211893
#
# Stress axis : x y z
#
# Youngs Moduli (GPa) = 49.15420 44.67976 45.89742
#
# Poissons Ratio (x) = 0.30478 0.36428
# Poissons Ratio (y) = 0.33530 0.29553
# Poissons Ratio (z) = 0.39013 0.28769
#
# Static dielectric constant tensor:
#      x y z
#    x 2.866610 0.000000 -0.105900 
#    y 0.000000 3.196350 0.000000 
#    z -0.105900 0.000000 3.271330 
# 
# 
# High freq. dielectric constant tensor:
#      x y z
#    x 1.606300 0.000000 -0.009740 
#    y 0.000000 1.652060 0.000000 
#    z -0.009740 0.000000 1.650730 
# 
# From -- ./inp_files/54780.got.cif
#   From: 2010.06.25/outbox.cif.g09.slc.cpg/sg10_28_cif.got.tgz:54780.got - 2010.06.27 22:07:45.
