data_PCOD8061225
_publ_section_title
;
Structure prediction by ZEFSAII (Michael W. Deem and Ramdas Pophale) SiO2 
 PCOD8061225
Probable space group: P 2/M
;
_chemical_formula_sum "Si O2"
_cell_formula_units_Z 28
_cell_length_a 13.286573
_cell_length_b 13.270608
_cell_length_c 8.872876
_cell_angle_alpha 90.000000
_cell_angle_beta 107.771480
_cell_angle_gamma 90.000000
_cell_volume 1489.819077
_symmetry_space_group_name_H-M "P 2/M"
_symmetry_group_IT_number 10
_symmetry_cell_setting 'monoclinic'
loop_
_space_group_symop_operation_xyz
x,y,z
-x,y,-z
-x,-y,-z
x,-y,z
loop_
_atom_site_type_symbol
_atom_site_label
_atom_site_fract_x
_atom_site_fract_y
_atom_site_fract_z
Si Si1 0.689416 0.381292 0.458858
Si Si2 0.551373 0.806088 0.363421
Si Si3 0.703915 0.391199 0.809296
Si Si4 0.597083 0.225357 0.951576
Si Si5 0.083785 0.388758 0.928069
Si Si6 0.731142 0.884933 0.263795
Si Si7 0.883783 0.711665 0.373665
O O1 0.662385 0.500000 0.425583
O O2 0.591973 0.310761 0.357292
O O3 0.702352 0.348705 0.638877
O O4 0.799457 0.358888 0.422551
O O5 0.500000 0.827231 0.500000
O O6 0.456617 0.837983 0.207644
O O7 0.652087 0.876337 0.371335
O O8 0.646000 0.500000 0.784871
O O9 0.653906 0.320012 0.908773
O O10 0.821785 0.404264 0.914805
O O11 0.500000 0.270739 0.000000
O O12 0.675632 0.158191 0.087502
O O13 0.044420 0.500000 0.855958
O O14 0.108846 0.322265 0.795164
O O15 0.000000 0.334180 0.000000
O O16 0.838910 0.825392 0.350966
O O17 0.762345 0.000000 0.249981
O O18 0.000000 0.707618 0.500000
#
# Coordination Sequence:
#
# PCOD8061225 Si02
#       7
#     4   4   4   4   4   4   4
#     4  10  21  35  55  87 124 157 188 225 271 329
#     4  10  20  35  59  86 116 149 191 231 275 333
#     4  10  19  33  53  80 116 154 188 222 265 326
#     4  10  20  36  56  79 112 150 188 229 276 335
#     4  10  20  34  55  84 115 151 190 223 265 331
#     4  10  23  42  61  82 108 144 190 243 299 344
#     4  11  22  38  61  85 112 149 185 239 288 341
#
# _framework density 18.794226999999999
#
# number of rings (size 3 to 8) (size 9 to 14) (size 15 to 20)
#    0.000    1.857    2.857    1.286    0.000    6.571 
#    0.000    0.000    0.000    0.429    0.000    0.000 
#    0.000    0.000    0.000    0.000    0.000    0.000 
#
# Total GULP energy -346905.102546 kJ/mol
# GULP energy per Si atom -12389.467948 kJ/mol
# Density = 1.875145 g / cm^3
# Si number density = 18.794227 Si / 1000 Ang^3
#
#
#
# Elastic Constant Matrix: (Units=GPa)
#
#
# Indices 1 2 3 4 5 6 
#
# 1 63.2554 19.2639 22.6364 0.0000 -17.2665 0.0000
# 2 19.2639 86.3532 17.3082 0.0000 -10.3863 0.0000
# 3 22.6364 17.3082 78.6889 0.0000 -10.0280 0.0000
# 4 0.0000 0.0000 0.0000 92.0212 0.0000 -7.7747
# 5 -17.2665 -10.3863 -10.0280 0.0000 38.8795 0.0000
# 6 0.0000 0.0000 0.0000 -7.7747 0.0000 14.6097
#
#
#
# Elastic Compliance Matrix: (Units=1/GPa)
#
#
# Indices 1 2 3 4 5 6 
#
# 1 0.020120 -0.002779 -0.004273 0.000000 0.007091 0.000000
# 2 -0.002779 0.012765 -0.001790 0.000000 0.001714 0.000000
# 3 -0.004273 -0.001790 0.014505 0.000000 0.001365 0.000000
# 4 0.000000 0.000000 0.000000 0.011379 0.000000 0.006055
# 5 0.007091 0.001714 0.001365 0.000000 0.029680 0.000000
# 6 0.000000 0.000000 0.000000 0.006055 0.000000 0.071670
#
#
# Mechanical properties :
#
#
# Convention : Reuss Voigt Hill
#
# Bulk Modulus (GPa) = 33.66272 38.52386 36.09329
# Shear Modulus (GPa) = 26.63755 40.37468 33.50612
#
# Velocity S-wave (km/s) = 3.76882 4.63995 4.22689
# Velocity P-wave (km/s) = 6.07361 7.01767 6.56264
#
# Compressibility (1/GPa) = 0.02970645
#
# Stress axis : x y z
#
# Youngs Moduli (GPa) = 49.70197 78.33769 68.94088
#
# Poissons Ratio (x) = 0.21771 0.29458
# Poissons Ratio (y) = 0.13813 0.12340
# Poissons Ratio (z) = 0.21238 0.14022
#
# Static dielectric constant tensor:
#      x y z
#    x 3.338660 0.000000 0.243610 
#    y 0.000000 3.223190 0.000000 
#    z 0.243610 0.000000 3.413050 
# 
# 
# High freq. dielectric constant tensor:
#      x y z
#    x 1.736540 0.000000 -0.006610 
#    y 0.000000 1.700980 0.000000 
#    z -0.006610 0.000000 1.741800 
# 
# From -- ./inp_files/24922.got.cif
#   From: 2010.06.25/outbox.cif.g09.slc.cpg/sg10_13_cif.got.tgz:24922.got - 2010.06.27 22:07:45.
