data_PCOD8061981
_publ_section_title
;
Structure prediction by ZEFSAII (Michael W. Deem and Ramdas Pophale) SiO2 
 PCOD8061981
Probable space group: P 2/M
;
_chemical_formula_sum "Si O2"
_cell_formula_units_Z 32
_cell_length_a 12.355330
_cell_length_b 9.088380
_cell_length_c 32.890235
_cell_angle_alpha 90.000000
_cell_angle_beta 26.947012
_cell_angle_gamma 90.000000
_cell_volume 1673.652918
_symmetry_space_group_name_H-M "P 2/M"
_symmetry_group_IT_number 10
_symmetry_cell_setting 'monoclinic'
loop_
_space_group_symop_operation_xyz
x,y,z
-x,y,-z
-x,-y,-z
x,-y,z
loop_
_atom_site_type_symbol
_atom_site_label
_atom_site_fract_x
_atom_site_fract_y
_atom_site_fract_z
Si Si1 0.980118 0.827616 0.886203
Si Si2 0.865779 0.173499 0.633105
Si Si3 0.760811 0.673725 0.750878
Si Si4 0.402568 0.826058 0.434812
Si Si5 0.492737 0.825335 0.691005
Si Si6 0.573384 0.831007 0.077009
Si Si7 0.832508 0.327553 0.323855
Si Si8 0.844563 0.833632 0.843902
O O1 0.246251 0.759536 0.792471
O O2 0.824981 0.793691 0.897850
O O3 0.004587 0.000000 0.884555
O O4 0.832639 0.769233 0.975116
O O5 0.758599 0.255738 0.707567
O O6 0.712755 0.223815 0.645375
O O7 0.135711 0.223862 0.534974
O O8 0.845905 0.000000 0.647240
O O9 0.738004 0.500000 0.755310
O O10 0.528560 0.732392 0.852599
O O11 0.005692 0.720399 0.691781
O O12 0.465204 0.765983 0.368730
O O13 0.576190 0.753002 0.410345
O O14 0.429596 0.000000 0.428429
O O15 0.476535 0.000000 0.694275
O O16 0.410993 0.818740 0.091254
O O17 0.586339 0.000000 0.087777
O O18 0.787915 0.500000 0.338477
O O19 0.967194 0.279122 0.238061
O O20 0.946543 0.000000 0.804298
#
# Coordination Sequence:
#
# PCOD8061981 Si02
#       8
#     4   4   4   4   4   4   4   4
#     4   9  15  26  50  82 109 134 166 210 264 311
#     4  10  21  36  57  80 101 135 181 221 257 307
#     4  10  22  39  54  71 105 146 180 216 260 306
#     4  10  19  34  57  83 108 133 166 214 270 318
#     4   9  17  32  55  83 111 134 165 213 266 313
#     4   9  17  29  51  80 106 135 175 215 253 307
#     4  10  20  33  51  77 107 140 175 212 259 312
#     4   9  15  27  48  76 109 139 168 207 259 312
#
# _framework density 19.119854
#
# number of rings (size 3 to 8) (size 9 to 14) (size 15 to 20)
#    0.000    2.500    1.250    1.500    0.000    5.500 
#    0.000    4.375    0.000    8.250    0.000    0.000 
#    0.000    0.000    0.000    0.000    0.000    0.000 
#
# Total GULP energy -396673.280984 kJ/mol
# GULP energy per Si atom -12396.040031 kJ/mol
# Density = 1.907634 g / cm^3
# Si number density = 19.119854 Si / 1000 Ang^3
#
#
#
# Elastic Constant Matrix: (Units=GPa)
#
#
# Indices 1 2 3 4 5 6 
#
# 1 30.6292 10.2104 9.3493 0.0000 10.5895 0.0000
# 2 10.2104 28.9934 13.0415 0.0000 3.3394 0.0000
# 3 9.3493 13.0415 92.8220 0.0000 3.6341 0.0000
# 4 0.0000 0.0000 0.0000 8.0698 0.0000 -3.8839
# 5 10.5895 3.3394 3.6341 0.0000 22.5211 0.0000
# 6 0.0000 0.0000 0.0000 -3.8839 0.0000 14.5764
#
#
#
# Elastic Compliance Matrix: (Units=1/GPa)
#
#
# Indices 1 2 3 4 5 6 
#
# 1 0.043745 -0.012411 -0.001941 0.000000 -0.018416 0.000000
# 2 -0.012411 0.040830 -0.004506 0.000000 0.000509 0.000000
# 3 -0.001941 -0.004506 0.011613 0.000000 -0.000293 0.000000
# 4 0.000000 0.000000 0.000000 0.142147 0.000000 0.037875
# 5 -0.018416 0.000509 -0.000293 0.000000 0.053034 0.000000
# 6 0.000000 0.000000 0.000000 0.037875 0.000000 0.078696
#
#
# Mechanical properties :
#
#
# Convention : Reuss Voigt Hill
#
# Bulk Modulus (GPa) = 17.10259 24.18300 20.64279
# Shear Modulus (GPa) = 11.70209 17.02302 14.36256
#
# Velocity S-wave (km/s) = 2.47663 2.98708 2.74375
# Velocity P-wave (km/s) = 4.14036 4.95706 4.56700
#
# Compressibility (1/GPa) = 0.05847068
#
# Stress axis : x y z
#
# Youngs Moduli (GPa) = 22.85950 24.49188 86.10690
#
# Poissons Ratio (x) = 0.30398 0.16717
# Poissons Ratio (y) = 0.28372 0.38803
# Poissons Ratio (z) = 0.04438 0.11037
#
# Static dielectric constant tensor:
#      x y z
#    x 3.476470 0.000000 -0.148590 
#    y 0.000000 3.123140 0.000000 
#    z -0.148590 0.000000 3.704410 
# 
# 
# High freq. dielectric constant tensor:
#      x y z
#    x 1.732550 0.000000 -0.004520 
#    y 0.000000 1.701870 0.000000 
#    z -0.004520 0.000000 1.752220 
# 
# From -- ./inp_files/94928.got.cif
#   From: 2010.06.25/outbox.cif.g09.slc.cpg/sg10_48_cif.got.tgz:94928.got - 2010.06.27 22:07:45.
