data_PCOD8061045
_publ_section_title
;
Structure prediction by ZEFSAII (Michael W. Deem and Ramdas Pophale) SiO2 
 PCOD8061045
Probable space group: P 2/M
;
_chemical_formula_sum "Si O2"
_cell_formula_units_Z 28
_cell_length_a 20.906830
_cell_length_b 7.798972
_cell_length_c 16.921600
_cell_angle_alpha 90.000000
_cell_angle_beta 146.183321
_cell_angle_gamma 90.000000
_cell_volume 1535.540948
_symmetry_space_group_name_H-M "P 2/M"
_symmetry_group_IT_number 10
_symmetry_cell_setting 'monoclinic'
loop_
_space_group_symop_operation_xyz
x,y,z
-x,y,-z
-x,-y,-z
x,-y,z
loop_
_atom_site_type_symbol
_atom_site_label
_atom_site_fract_x
_atom_site_fract_y
_atom_site_fract_z
Si Si1 0.770015 0.300378 0.433683
Si Si2 0.628966 0.500000 0.725030
Si Si3 0.353159 0.808755 0.541004
Si Si4 0.357353 0.500000 0.436316
Si Si5 0.767019 0.807108 0.129039
Si Si6 0.006424 0.305301 0.419603
Si Si7 0.370854 0.301119 0.865504
Si Si8 0.381664 0.199142 0.172311
O O1 0.776859 0.500000 0.463210
O O2 0.730785 0.197954 0.470360
O O3 0.677279 0.266568 0.270533
O O4 0.893216 0.223872 0.531568
O O5 0.493624 0.500000 0.574541
O O6 0.690484 0.500000 0.702496
O O7 0.665563 0.325527 0.807921
O O8 0.312513 0.671357 0.434001
O O9 0.483054 0.769043 0.702689
O O10 0.345833 0.000000 0.496581
O O11 0.884428 0.698675 0.250088
O O12 0.704139 0.799835 0.148177
O O13 0.805272 0.000000 0.151447
O O14 0.682126 0.742862 0.973220
O O15 0.046418 0.500000 0.474888
O O16 0.000000 0.215411 0.500000
O O17 0.365907 0.500000 0.883966
O O18 0.500000 0.229965 0.000000
O O19 0.356987 0.000000 0.169450
#
# Coordination Sequence:
#
# PCOD8061045 Si02
#       8
#     4   2   4   2   4   4   4   4
#     4  10  19  33  50  72 103 135 179 227 258 306
#     4   9  18  32  58  78 107 150 160 208 261 313
#     4  10  19  33  54  77 111 144 168 215 264 308
#     4   9  18  34  52  84 111 132 182 200 249 329
#     4  11  22  34  49  72 105 137 175 223 260 308
#     4  10  20  36  53  69  96 136 182 229 266 302
#     4  10  20  32  50  72  96 135 179 214 257 309
#     4   9  20  34  50  81 111 137 176 214 258 314
#
# _framework density 18.234615999999999
#
# number of rings (size 3 to 8) (size 9 to 14) (size 15 to 20)
#    0.000    2.143    2.143    1.286    2.000    2.286 
#    0.000    2.857    0.000    0.000    0.000    2.000 
#    0.000    3.429    0.000    0.000    0.000    0.000 
#
# Total GULP energy -347173.618539 kJ/mol
# GULP energy per Si atom -12399.057805 kJ/mol
# Density = 1.819311 g / cm^3
# Si number density = 18.234616 Si / 1000 Ang^3
#
#
#
# Elastic Constant Matrix: (Units=GPa)
#
#
# Indices 1 2 3 4 5 6 
#
# 1 117.7337 40.4054 49.3406 0.0000 -7.2809 0.0000
# 2 40.4054 76.8114 20.6823 0.0000 -11.2215 0.0000
# 3 49.3406 20.6823 47.3554 0.0000 7.2883 0.0000
# 4 0.0000 0.0000 0.0000 16.2325 0.0000 -1.5780
# 5 -7.2809 -11.2215 7.2883 0.0000 33.0162 0.0000
# 6 0.0000 0.0000 0.0000 -1.5780 0.0000 18.6877
#
#
#
# Elastic Compliance Matrix: (Units=1/GPa)
#
#
# Indices 1 2 3 4 5 6 
#
# 1 0.017549 -0.003476 -0.017784 0.000000 0.006614 0.000000
# 2 -0.003476 0.017009 -0.004739 0.000000 0.006061 0.000000
# 3 -0.017784 -0.004739 0.044065 0.000000 -0.015260 0.000000
# 4 0.000000 0.000000 0.000000 0.062115 0.000000 0.005245
# 5 0.006614 0.006061 -0.015260 0.000000 0.037175 0.000000
# 6 0.000000 0.000000 0.000000 0.005245 0.000000 0.053954
#
#
# Mechanical properties :
#
#
# Convention : Reuss Voigt Hill
#
# Bulk Modulus (GPa) = 37.56108 51.41748 44.48928
# Shear Modulus (GPa) = 17.07987 22.35209 19.71598
#
# Velocity S-wave (km/s) = 3.06383 3.50495 3.29179
# Velocity P-wave (km/s) = 5.75844 6.68121 6.23691
#
# Compressibility (1/GPa) = 0.02662330
#
# Stress axis : x y z
#
# Youngs Moduli (GPa) = 56.98291 58.79195 22.69357
#
# Poissons Ratio (x) = 0.20439 0.40359
# Poissons Ratio (y) = 0.19810 0.10755
# Poissons Ratio (z) = 1.01341 0.27863
#
# Static dielectric constant tensor:
#      x y z
#    x 3.329440 0.000000 -0.035400 
#    y 0.000000 3.328580 0.000000 
#    z -0.035400 0.000000 3.236930 
# 
# 
# High freq. dielectric constant tensor:
#      x y z
#    x 1.691290 0.000000 0.000270 
#    y 0.000000 1.708310 0.000000 
#    z 0.000270 0.000000 1.680220 
# 
# From -- ./inp_files/68738.got.cif
#   From: 2010.06.25/outbox.cif.g09.slc.cpg/sg10_35_cif.got.tgz:68738.got - 2010.06.27 22:07:45.
