data_PCOD8061752
_publ_section_title
;
Structure prediction by ZEFSAII (Michael W. Deem and Ramdas Pophale) SiO2 
 PCOD8061752
Probable space group: P 2/M
;
_chemical_formula_sum "Si O2"
_cell_formula_units_Z 28
_cell_length_a 12.160053
_cell_length_b 8.256985
_cell_length_c 15.480861
_cell_angle_alpha 90.000000
_cell_angle_beta 83.153029
_cell_angle_gamma 90.000000
_cell_volume 1543.276116
_symmetry_space_group_name_H-M "P 2/M"
_symmetry_group_IT_number 10
_symmetry_cell_setting 'monoclinic'
loop_
_space_group_symop_operation_xyz
x,y,z
-x,y,-z
-x,-y,-z
x,-y,z
loop_
_atom_site_type_symbol
_atom_site_label
_atom_site_fract_x
_atom_site_fract_y
_atom_site_fract_z
Si Si1 0.767812 0.317256 0.032236
Si Si2 0.365503 0.323396 0.228114
Si Si3 0.662112 0.500000 0.418369
Si Si4 0.732941 0.813385 0.314502
Si Si5 0.167127 0.814472 0.151472
Si Si6 0.589063 0.817534 0.163903
Si Si7 0.409441 0.500000 0.385540
Si Si8 0.079109 0.813286 0.835793
O O1 0.778430 0.500000 0.998939
O O2 0.647260 0.292863 0.086453
O O3 0.863610 0.282837 0.092249
O O4 0.779468 0.204446 0.947848
O O5 0.385041 0.500000 0.183664
O O6 0.242417 0.265644 0.218035
O O7 0.457182 0.205627 0.178277
O O8 0.379133 0.339910 0.331218
O O9 0.722808 0.668341 0.385229
O O10 0.538828 0.500000 0.393505
O O11 0.663593 0.500000 0.521757
O O12 0.637605 0.778235 0.253520
O O13 0.852928 0.794806 0.259213
O O14 0.720478 0.000000 0.352726
O O15 0.043425 0.739269 0.166426
O O16 0.159002 0.000000 0.177236
O O17 0.618342 0.000000 0.135394
O O18 0.073443 0.000000 0.865415
#
# Coordination Sequence:
#
# PCOD8061752 Si02
#       8
#     4   4   2   4   4   4   2   4
#     4  11  22  33  52  81 110 142 188 241 278 310
#     4  10  20  37  54  76 110 141 177 227 270 333
#     4  11  18  38  63  90 113 149 168 223 293 343
#     4   9  18  33  57  87 114 142 183 229 276 335
#     4  11  22  37  54  74 107 154 192 226 275 321
#     4  10  19  34  54  78 109 147 187 225 275 329
#     4   9  22  36  59  83 120 137 172 219 282 340
#     4   9  20  36  54  78 110 146 188 235 273 316
#
# _framework density 18.143221
#
# number of rings (size 3 to 8) (size 9 to 14) (size 15 to 20)
#    0.429    1.571    1.429    3.857    4.000    3.429 
#    0.000    5.714    0.000    1.714    0.000    3.000 
#    0.000    0.000    0.000    0.000    0.000    0.000 
#
# Total GULP energy -347079.450860 kJ/mol
# GULP energy per Si atom -12395.694674 kJ/mol
# Density = 1.810193 g / cm^3
# Si number density = 18.143221 Si / 1000 Ang^3
#
#
#
# Elastic Constant Matrix: (Units=GPa)
#
#
# Indices 1 2 3 4 5 6 
#
# 1 91.0070 13.8990 39.5841 0.0000 2.4536 0.0000
# 2 13.8990 70.4878 31.3251 0.0000 -4.3494 0.0000
# 3 39.5841 31.3251 85.3978 0.0000 -1.8267 0.0000
# 4 0.0000 0.0000 0.0000 20.7938 0.0000 -3.1539
# 5 2.4536 -4.3494 -1.8267 0.0000 16.3303 0.0000
# 6 0.0000 0.0000 0.0000 -3.1539 0.0000 24.7770
#
#
#
# Elastic Compliance Matrix: (Units=1/GPa)
#
#
# Indices 1 2 3 4 5 6 
#
# 1 0.013891 -0.000030 -0.006488 0.000000 -0.002821 0.000000
# 2 -0.000030 0.017192 -0.006209 0.000000 0.003889 0.000000
# 3 -0.006488 -0.006209 0.017021 0.000000 0.001225 0.000000
# 4 0.000000 0.000000 0.000000 0.049038 0.000000 0.006242
# 5 -0.002821 0.003889 0.001225 0.000000 0.062832 0.000000
# 6 0.000000 0.000000 0.000000 0.006242 0.000000 0.041155
#
#
# Mechanical properties :
#
#
# Convention : Reuss Voigt Hill
#
# Bulk Modulus (GPa) = 44.15072 46.27876 45.21474
# Shear Modulus (GPa) = 21.35532 23.18585 22.27058
#
# Velocity S-wave (km/s) = 3.43453 3.57870 3.50735
# Velocity P-wave (km/s) = 6.33367 6.52985 6.43251
#
# Compressibility (1/GPa) = 0.02264969
#
# Stress axis : x y z
#
# Youngs Moduli (GPa) = 71.98984 58.16611 58.75011
#
# Poissons Ratio (x) = 0.00173 0.38118
# Poissons Ratio (y) = 0.00214 0.36480
# Poissons Ratio (z) = 0.46709 0.36117
#
# Static dielectric constant tensor:
#      x y z
#    x 3.382090 0.000000 -0.071270 
#    y 0.000000 3.323370 0.000000 
#    z -0.071270 0.000000 3.098710 
# 
# 
# High freq. dielectric constant tensor:
#      x y z
#    x 1.699930 0.000000 -0.011330 
#    y 0.000000 1.706510 0.000000 
#    z -0.011330 0.000000 1.671580 
# 
# From -- ./inp_files/63433.got.cif
#   From: 2010.06.25/outbox.cif.g09.slc.cpg/sg10_32_cif.got.tgz:63433.got - 2010.06.27 22:07:45.
