data_PCOD8061444
_publ_section_title
;
Structure prediction by ZEFSAII (Michael W. Deem and Ramdas Pophale) SiO2 
 PCOD8061444
Probable space group: P 2/M
;
_chemical_formula_sum "Si O2"
_cell_formula_units_Z 28
_cell_length_a 14.546227
_cell_length_b 9.507066
_cell_length_c 12.472534
_cell_angle_alpha 90.000000
_cell_angle_beta 119.937297
_cell_angle_gamma 90.000000
_cell_volume 1494.707640
_symmetry_space_group_name_H-M "P 2/M"
_symmetry_group_IT_number 10
_symmetry_cell_setting 'monoclinic'
loop_
_space_group_symop_operation_xyz
x,y,z
-x,y,-z
-x,-y,-z
x,-y,z
loop_
_atom_site_type_symbol
_atom_site_label
_atom_site_fract_x
_atom_site_fract_y
_atom_site_fract_z
Si Si1 0.690121 0.661945 0.842169
Si Si2 0.781467 0.166937 0.510178
Si Si3 0.385697 0.662420 0.969327
Si Si4 0.918124 0.656949 0.047386
Si Si5 0.771787 0.162812 0.265903
Si Si6 0.989910 0.162431 0.286254
Si Si7 0.379660 0.835196 0.401316
O O1 0.690771 0.500000 0.804556
O O2 0.644623 0.757105 0.722332
O O3 0.618409 0.683042 0.905516
O O4 0.807786 0.715596 0.937833
O O5 0.747173 0.218795 0.371639
O O6 0.696623 0.221879 0.548066
O O7 0.899124 0.224577 0.605123
O O8 0.784492 0.000000 0.509903
O O9 0.370317 0.500000 0.928089
O O10 0.293322 0.748740 0.858087
O O11 0.500000 0.719815 0.000000
O O12 0.900416 0.500000 0.084954
O O13 0.961419 0.758298 0.162171
O O14 0.000000 0.652575 0.000000
O O15 0.897612 0.183200 0.320102
O O16 0.739681 0.000000 0.233427
O O17 0.003625 0.000000 0.263570
O O18 0.500000 0.800428 0.500000
O O19 0.361288 0.000000 0.372363
#
# Coordination Sequence:
#
# PCOD8061444 Si02
#       7
#     4   4   4   4   4   4   4
#     4  10  21  38  57  79 110 144 178 223 273 322
#     4   9  19  36  55  79 114 147 178 225 275 321
#     4  10  22  39  58  81 111 146 183 225 276 326
#     4  10  20  34  54  79 110 145 180 222 271 320
#     4  10  20  35  58  85 110 142 184 226 273 326
#     4  10  19  33  55  82 109 142 182 221 271 329
#     4  10  22  38  57  81 109 144 184 226 271 320
#
# _framework density 18.732759000000001
#
# number of rings (size 3 to 8) (size 9 to 14) (size 15 to 20)
#    0.000    2.143    1.429    1.286    2.000    3.714 
#    0.000    1.429    0.000    1.714    0.000    0.000 
#    0.000    0.000    0.000    0.000    0.000    0.000 
#
# Total GULP energy -347242.478830 kJ/mol
# GULP energy per Si atom -12401.517101 kJ/mol
# Density = 1.869012 g / cm^3
# Si number density = 18.732759 Si / 1000 Ang^3
#
#
#
# Elastic Constant Matrix: (Units=GPa)
#
#
# Indices 1 2 3 4 5 6 
#
# 1 112.2060 22.6226 36.7078 0.0000 -1.5042 0.0000
# 2 22.6226 44.3712 42.7268 0.0000 -1.9424 0.0000
# 3 36.7078 42.7268 112.3214 0.0000 -9.2955 0.0000
# 4 0.0000 0.0000 0.0000 140.4180 0.0000 -1.2178
# 5 -1.5042 -1.9424 -9.2955 0.0000 28.8731 0.0000
# 6 0.0000 0.0000 0.0000 -1.2178 0.0000 23.3612
#
#
#
# Elastic Compliance Matrix: (Units=1/GPa)
#
#
# Indices 1 2 3 4 5 6 
#
# 1 0.010256 -0.003137 -0.002190 0.000000 -0.000382 0.000000
# 2 -0.003137 0.036638 -0.013070 0.000000 -0.001906 0.000000
# 3 -0.002190 -0.013070 0.014905 0.000000 0.003805 0.000000
# 4 0.000000 0.000000 0.000000 0.007125 0.000000 0.000371
# 5 -0.000382 -0.001906 0.003805 0.000000 0.035711 0.000000
# 6 0.000000 0.000000 0.000000 0.000371 0.000000 0.042825
#
#
# Mechanical properties :
#
#
# Convention : Reuss Voigt Hill
#
# Bulk Modulus (GPa) = 39.98977 52.55701 46.27339
# Shear Modulus (GPa) = 25.96188 49.65321 37.80755
#
# Velocity S-wave (km/s) = 3.72682 5.15399 4.49738
# Velocity P-wave (km/s) = 6.31765 7.97090 7.19194
#
# Compressibility (1/GPa) = 0.02500640
#
# Stress axis : x y z
#
# Youngs Moduli (GPa) = 97.50409 27.29381 67.08960
#
# Poissons Ratio (x) = 0.08561 0.14694
# Poissons Ratio (y) = 0.30584 0.87685
# Poissons Ratio (z) = 0.21355 0.35672
#
# Static dielectric constant tensor:
#      x y z
#    x 3.698600 0.000000 -0.014220 
#    y 0.000000 3.294260 0.000000 
#    z -0.014220 0.000000 3.369640 
# 
# 
# High freq. dielectric constant tensor:
#      x y z
#    x 1.746140 0.000000 -0.001680 
#    y 0.000000 1.703990 0.000000 
#    z -0.001680 0.000000 1.729620 
# 
# From -- ./inp_files/46041.got.cif
#   From: 2010.06.25/outbox.cif.g09.slc.cpg/sg10_24_cif.got.tgz:46041.got - 2010.06.27 22:07:45.
