data_PCOD8061553
_publ_section_title
;
Structure prediction by ZEFSAII (Michael W. Deem and Ramdas Pophale) SiO2 
 PCOD8061553
Probable space group: P 2/M
;
_chemical_formula_sum "Si O2"
_cell_formula_units_Z 28
_cell_length_a 20.519680
_cell_length_b 9.005861
_cell_length_c 14.667357
_cell_angle_alpha 90.000000
_cell_angle_beta 32.613133
_cell_angle_gamma 90.000000
_cell_volume 1460.855773
_symmetry_space_group_name_H-M "P 2/M"
_symmetry_group_IT_number 10
_symmetry_cell_setting 'monoclinic'
loop_
_space_group_symop_operation_xyz
x,y,z
-x,y,-z
-x,-y,-z
x,-y,z
loop_
_atom_site_type_symbol
_atom_site_label
_atom_site_fract_x
_atom_site_fract_y
_atom_site_fract_z
Si Si1 0.695254 0.170764 0.931066
Si Si2 0.202697 0.673246 0.017883
Si Si3 0.636684 0.677226 0.339524
Si Si4 0.927028 0.673681 0.322182
Si Si5 0.239049 0.829254 0.347735
Si Si6 0.558943 0.671648 0.780552
Si Si7 0.265804 0.329207 0.588814
O O1 0.771373 0.188099 0.748615
O O2 0.663503 0.000000 0.988009
O O3 0.778110 0.234124 0.913575
O O4 0.573123 0.261989 0.067894
O O5 0.222945 0.500000 0.015335
O O6 0.294590 0.730410 0.832152
O O7 0.067682 0.704040 0.141026
O O8 0.500000 0.739145 0.500000
O O9 0.635103 0.500000 0.346862
O O10 0.705981 0.745238 0.346410
O O11 0.897608 0.500000 0.369270
O O12 0.879400 0.754029 0.469237
O O13 0.852968 0.737582 0.321725
O O14 0.362662 0.752961 0.235061
O O15 0.243824 0.000000 0.372053
O O16 0.550976 0.500000 0.817204
O O17 0.617499 0.692893 0.612258
O O18 0.238835 0.500000 0.639381
#
# Coordination Sequence:
#
# PCOD8061553 Si02
#       7
#     4   4   4   4   4   4   4
#     4  11  23  36  51  74 106 143 179 216 264 319
#     4  10  21  35  53  77 104 137 180 226 264 304
#     4   9  16  28  50  80 109 136 169 212 263 316
#     4   9  19  35  53  77 105 135 178 225 266 309
#     4  10  21  36  54  76 104 140 178 215 261 319
#     4  10  19  33  56  84 110 136 171 216 263 310
#     4   8  15  29  51  78 107 136 167 210 262 313
#
# _framework density 19.166846
#
# number of rings (size 3 to 8) (size 9 to 14) (size 15 to 20)
#    0.000    2.429    0.000    3.429    0.000    8.000 
#    0.000    5.714    0.000    7.286    0.000    5.000 
#    0.000    0.000    0.000    0.000    0.000    0.000 
#
# Total GULP energy -347186.971303 kJ/mol
# GULP energy per Si atom -12399.534689 kJ/mol
# Density = 1.912322 g / cm^3
# Si number density = 19.166846 Si / 1000 Ang^3
#
#
#
# Elastic Constant Matrix: (Units=GPa)
#
#
# Indices 1 2 3 4 5 6 
#
# 1 130.0098 40.8350 65.7558 0.0000 13.2183 0.0000
# 2 40.8350 68.9128 36.4816 0.0000 1.0135 0.0000
# 3 65.7558 36.4816 104.8540 0.0000 -11.3690 0.0000
# 4 0.0000 0.0000 0.0000 9.2574 0.0000 -7.6244
# 5 13.2183 1.0135 -11.3690 0.0000 26.7703 0.0000
# 6 0.0000 0.0000 0.0000 -7.6244 0.0000 8.7919
#
#
#
# Elastic Compliance Matrix: (Units=1/GPa)
#
#
# Indices 1 2 3 4 5 6 
#
# 1 0.014490 -0.003671 -0.008984 0.000000 -0.010831 0.000000
# 2 -0.003671 0.019028 -0.004403 0.000000 -0.000778 0.000000
# 3 -0.008984 -0.004403 0.018032 0.000000 0.012261 0.000000
# 4 0.000000 0.000000 0.000000 0.377993 0.000000 0.327796
# 5 -0.010831 -0.000778 0.012261 0.000000 0.047939 0.000000
# 6 0.000000 0.000000 0.000000 0.327796 0.000000 0.398006
#
#
# Mechanical properties :
#
#
# Convention : Reuss Voigt Hill
#
# Bulk Modulus (GPa) = 57.35462 65.54683 61.45072
# Shear Modulus (GPa) = 5.46200 19.67755 12.56977
#
# Velocity S-wave (km/s) = 1.68994 3.20761 2.56365
# Velocity P-wave (km/s) = 5.81349 6.92752 6.39481
#
# Compressibility (1/GPa) = 0.01743539
#
# Stress axis : x y z
#
# Youngs Moduli (GPa) = 69.01408 52.55276 55.45577
#
# Poissons Ratio (x) = 0.19291 0.49822
# Poissons Ratio (y) = 0.25333 0.24416
# Poissons Ratio (z) = 0.62002 0.23138
#
# Static dielectric constant tensor:
#      x y z
#    x 3.757540 0.000000 0.061040 
#    y 0.000000 3.286290 0.000000 
#    z 0.061040 0.000000 3.462090 
# 
# 
# High freq. dielectric constant tensor:
#      x y z
#    x 1.754740 0.000000 0.001330 
#    y 0.000000 1.714120 0.000000 
#    z 0.001330 0.000000 1.744630 
# 
# From -- ./inp_files/49404.got.cif
#   From: 2010.06.25/outbox.cif.g09.slc.cpg/sg10_25_cif.got.tgz:49404.got - 2010.06.27 22:07:45.
