data_PCOD8061776
_publ_section_title
;
Structure prediction by ZEFSAII (Michael W. Deem and Ramdas Pophale) SiO2 
 PCOD8061776
Probable space group: P 2/M
;
_chemical_formula_sum "Si O2"
_cell_formula_units_Z 28
_cell_length_a 8.966539
_cell_length_b 10.235839
_cell_length_c 28.629390
_cell_angle_alpha 90.000000
_cell_angle_beta 145.825646
_cell_angle_gamma 90.000000
_cell_volume 1475.961218
_symmetry_space_group_name_H-M "P 2/M"
_symmetry_group_IT_number 10
_symmetry_cell_setting 'monoclinic'
loop_
_space_group_symop_operation_xyz
x,y,z
-x,y,-z
-x,-y,-z
x,-y,z
loop_
_atom_site_type_symbol
_atom_site_label
_atom_site_fract_x
_atom_site_fract_y
_atom_site_fract_z
Si Si1 0.694732 0.644171 0.690280
Si Si2 0.786917 0.500000 0.871757
Si Si3 0.269753 0.272147 0.833671
Si Si4 0.347148 0.500000 0.054564
Si Si5 0.336039 0.747012 0.217612
Si Si6 0.776257 0.147023 0.086186
Si Si7 0.721322 0.653669 0.595541
Si Si8 0.206628 0.848816 0.721287
O O1 0.591358 0.500000 0.675835
O O2 0.613937 0.732739 0.713500
O O3 0.586392 0.689785 0.611220
O O4 0.009785 0.638421 0.762353
O O5 0.721583 0.500000 0.908897
O O6 0.646722 0.616949 0.808172
O O7 0.108452 0.500000 0.954760
O O8 0.496476 0.365663 0.913090
O O9 0.205726 0.156544 0.853303
O O10 0.343754 0.200735 0.804678
O O11 0.566370 0.843660 0.259714
O O12 0.037778 0.794643 0.130027
O O13 0.766408 0.000000 0.066117
O O14 0.500000 0.218025 0.000000
O O15 0.500000 0.680780 0.500000
O O16 0.811703 0.500000 0.618419
O O17 0.963457 0.751674 0.646314
O O18 0.110384 0.000000 0.700371
#
# Coordination Sequence:
#
# PCOD8061776 Si02
#       8
#     4   2   4   2   4   4   4   4
#     4   9  17  31  56  84 110 142 180 226 279 331
#     4  11  22  31  51  81 112 148 186 246 304 327
#     4  10  19  34  55  76 107 142 190 238 282 340
#     4  11  20  33  51  81 110 143 194 248 294 334
#     4  11  21  35  54  81 113 148 192 238 285 336
#     4  10  21  36  51  70 105 151 194 239 288 336
#     4   9  20  39  65  93 118 145 181 228 281 341
#     4  11  23  37  59  85 114 151 190 232 282 342
#
# _framework density 18.970689
#
# number of rings (size 3 to 8) (size 9 to 14) (size 15 to 20)
#    0.000    1.857    2.857    1.714    2.000    0.286 
#    0.000    3.571    0.000    6.857    0.000    0.000 
#    0.000    0.000    0.000    0.000    0.000    0.000 
#
# Total GULP energy -346893.908976 kJ/mol
# GULP energy per Si atom -12389.068178 kJ/mol
# Density = 1.892751 g / cm^3
# Si number density = 18.970689 Si / 1000 Ang^3
#
#
#
# Elastic Constant Matrix: (Units=GPa)
#
#
# Indices 1 2 3 4 5 6 
#
# 1 96.2316 27.2025 24.3171 0.0000 -5.6794 0.0000
# 2 27.2025 88.7883 26.2680 0.0000 5.5657 0.0000
# 3 24.3171 26.2680 78.2291 0.0000 -10.4927 0.0000
# 4 0.0000 0.0000 0.0000 43.9896 0.0000 16.6588
# 5 -5.6794 5.5657 -10.4927 0.0000 26.0857 0.0000
# 6 0.0000 0.0000 0.0000 16.6588 0.0000 27.5455
#
#
#
# Elastic Compliance Matrix: (Units=1/GPa)
#
#
# Indices 1 2 3 4 5 6 
#
# 1 0.012012 -0.003124 -0.002373 0.000000 0.002327 0.000000
# 2 -0.003124 0.013864 -0.004410 0.000000 -0.005412 0.000000
# 3 -0.002373 -0.004410 0.015917 0.000000 0.006827 0.000000
# 4 0.000000 0.000000 0.000000 0.029486 0.000000 -0.017832
# 5 0.002327 -0.005412 0.006827 0.000000 0.042743 0.000000
# 6 0.000000 0.000000 0.000000 -0.017832 0.000000 0.047088
#
#
# Mechanical properties :
#
#
# Convention : Reuss Voigt Hill
#
# Bulk Modulus (GPa) = 45.49786 46.53603 46.01694
# Shear Modulus (GPa) = 26.56064 31.88825 29.22445
#
# Velocity S-wave (km/s) = 3.74583 4.10435 3.92919
# Velocity P-wave (km/s) = 6.53786 6.85891 6.70031
#
# Compressibility (1/GPa) = 0.02197905
#
# Stress axis : x y z
#
# Youngs Moduli (GPa) = 83.25301 72.13004 62.82603
#
# Poissons Ratio (x) = 0.22534 0.14906
# Poissons Ratio (y) = 0.26008 0.27707
# Poissons Ratio (z) = 0.19752 0.31810
#
# Static dielectric constant tensor:
#      x y z
#    x 3.423090 0.000000 -0.125080 
#    y 0.000000 3.296100 0.000000 
#    z -0.125080 0.000000 3.471210 
# 
# 
# High freq. dielectric constant tensor:
#      x y z
#    x 1.735700 0.000000 -0.014790 
#    y 0.000000 1.729230 0.000000 
#    z -0.014790 0.000000 1.721250 
# 
# From -- ./inp_files/92013.got.cif
#   From: 2010.06.25/outbox.cif.g09.slc.cpg/sg10_47_cif.got.tgz:92013.got - 2010.06.27 22:07:45.
