data_PCOD8061454
_publ_section_title
;
Structure prediction by ZEFSAII (Michael W. Deem and Ramdas Pophale) SiO2 
 PCOD8061454
Probable space group: P 2/M
;
_chemical_formula_sum "Si O2"
_cell_formula_units_Z 28
_cell_length_a 10.979618
_cell_length_b 18.292516
_cell_length_c 13.558504
_cell_angle_alpha 90.000000
_cell_angle_beta 145.878365
_cell_angle_gamma 90.000000
_cell_volume 1527.558543
_symmetry_space_group_name_H-M "P 2/M"
_symmetry_group_IT_number 10
_symmetry_cell_setting 'monoclinic'
loop_
_space_group_symop_operation_xyz
x,y,z
-x,y,-z
-x,-y,-z
x,-y,z
loop_
_atom_site_type_symbol
_atom_site_label
_atom_site_fract_x
_atom_site_fract_y
_atom_site_fract_z
Si Si1 0.067512 0.694165 0.703611
Si Si2 0.448498 0.834284 0.206783
Si Si3 0.353867 0.419542 0.996889
Si Si4 0.711576 0.914920 0.708844
Si Si5 0.868230 0.077089 0.507282
Si Si6 0.349036 0.687540 0.701962
Si Si7 0.931835 0.844615 0.187055
O O1 0.146535 0.629514 0.828551
O O2 0.246338 0.713407 0.738719
O O3 0.023163 0.763070 0.744196
O O4 0.843356 0.668497 0.502852
O O5 0.327866 0.869483 0.218476
O O6 0.690127 0.864119 0.362253
O O7 0.488149 0.747443 0.236250
O O8 0.311104 0.852859 0.017172
O O9 0.276051 0.500000 0.980944
O O10 0.500000 0.429442 0.000000
O O11 0.499744 0.383178 0.180707
O O12 0.500000 0.912370 0.500000
O O13 0.900140 0.868810 0.784142
O O14 0.777129 0.000000 0.773810
O O15 0.000000 0.060663 0.500000
O O16 0.041389 0.101171 0.704285
O O17 0.759652 0.000000 0.470271
#
# Coordination Sequence:
#
# PCOD8061454 Si02
#       7
#     4   4   4   4   4   4   4
#     4  10  19  33  55  82 114 152 189 229 280 337
#     4  12  23  37  59  83 110 148 195 239 288 340
#     4   9  18  32  52  83 119 150 184 227 280 342
#     4  11  23  41  61  80 109 148 190 246 303 342
#     4  11  24  39  55  79 112 149 189 236 289 344
#     4  10  19  33  55  82 114 152 189 229 280 337
#     4  12  23  37  59  83 110 148 195 239 288 340
#
# _framework density 18.329903000000002
#
# number of rings (size 3 to 8) (size 9 to 14) (size 15 to 20)
#    0.000    1.286    4.286    2.143    0.000    5.143 
#    0.000    4.286    0.000    0.000    0.000    2.000 
#    0.000    3.429    0.000    0.000    0.000    0.000 
#
# Total GULP energy -347048.246730 kJ/mol
# GULP energy per Si atom -12394.580240 kJ/mol
# Density = 1.828818 g / cm^3
# Si number density = 18.329903 Si / 1000 Ang^3
#
#
#
# Elastic Constant Matrix: (Units=GPa)
#
#
# Indices 1 2 3 4 5 6 
#
# 1 57.8678 47.1002 29.9382 0.0000 -5.3433 0.0000
# 2 47.1002 136.7789 39.1966 0.0000 -11.1685 0.0000
# 3 29.9382 39.1966 130.4766 0.0000 -24.0844 0.0000
# 4 0.0000 0.0000 0.0000 24.5139 0.0000 1.7545
# 5 -5.3433 -11.1685 -24.0844 0.0000 18.8476 0.0000
# 6 0.0000 0.0000 0.0000 1.7545 0.0000 20.6434
#
#
#
# Elastic Compliance Matrix: (Units=1/GPa)
#
#
# Indices 1 2 3 4 5 6 
#
# 1 0.025479 -0.007845 -0.003945 0.000000 -0.002466 0.000000
# 2 -0.007845 0.010484 -0.000803 0.000000 0.002963 0.000000
# 3 -0.003945 -0.000803 0.011145 0.000000 0.012648 0.000000
# 4 0.000000 0.000000 0.000000 0.041043 0.000000 -0.003488
# 5 -0.002466 0.002963 0.012648 0.000000 0.070276 0.000000
# 6 0.000000 0.000000 0.000000 -0.003488 0.000000 0.048738
#
#
# Mechanical properties :
#
#
# Convention : Reuss Voigt Hill
#
# Bulk Modulus (GPa) = 45.61195 61.95484 53.78339
# Shear Modulus (GPa) = 20.86312 26.72687 23.79499
#
# Velocity S-wave (km/s) = 3.37738 3.82265 3.60690
# Velocity P-wave (km/s) = 6.33616 7.30457 6.83753
#
# Compressibility (1/GPa) = 0.02192408
#
# Stress axis : x y z
#
# Youngs Moduli (GPa) = 39.24820 95.38009 89.72531
#
# Poissons Ratio (x) = 0.74822 0.35395
# Poissons Ratio (y) = 0.30789 0.07202
# Poissons Ratio (z) = 0.15483 0.07656
#
# Static dielectric constant tensor:
#      x y z
#    x 3.296860 0.000000 -0.094880 
#    y 0.000000 3.708050 0.000000 
#    z -0.094880 0.000000 3.681700 
# 
# 
# High freq. dielectric constant tensor:
#      x y z
#    x 1.677360 0.000000 -0.009520 
#    y 0.000000 1.709800 0.000000 
#    z -0.009520 0.000000 1.731080 
# 
# From -- ./inp_files/65285.got.cif
#   From: 2010.06.25/outbox.cif.g09.slc.cpg/sg10_33_cif.got.tgz:65285.got - 2010.06.27 22:07:45.
