data_PCOD8061152
_publ_section_title
;
Structure prediction by ZEFSAII (Michael W. Deem and Ramdas Pophale) SiO2 
 PCOD8061152
Probable space group: P 2/M
;
_chemical_formula_sum "Si O2"
_cell_formula_units_Z 24
_cell_length_a 18.470628
_cell_length_b 8.616967
_cell_length_c 24.033003
_cell_angle_alpha 90.000000
_cell_angle_beta 20.120632
_cell_angle_gamma 90.000000
_cell_volume 1315.830181
_symmetry_space_group_name_H-M "P 2/M"
_symmetry_group_IT_number 10
_symmetry_cell_setting 'monoclinic'
loop_
_space_group_symop_operation_xyz
x,y,z
-x,y,-z
-x,-y,-z
x,-y,z
loop_
_atom_site_type_symbol
_atom_site_label
_atom_site_fract_x
_atom_site_fract_y
_atom_site_fract_z
Si Si1 0.558701 0.818107 0.180414
Si Si2 0.369423 0.179801 0.539162
Si Si3 0.077145 0.315216 0.155916
Si Si4 0.489248 0.671749 0.343895
Si Si5 0.001314 0.330149 0.668987
Si Si6 0.116702 0.314166 0.470622
O O1 0.604203 0.756857 0.209770
O O2 0.355578 0.742956 0.297966
O O3 0.524076 0.000000 0.207995
O O4 0.759270 0.776850 0.999036
O O5 0.500000 0.213737 0.500000
O O6 0.515160 0.230985 0.381937
O O7 0.156955 0.279535 0.696400
O O8 0.309832 0.000000 0.575734
O O9 0.114081 0.500000 0.126328
O O10 0.105430 0.251170 0.199756
O O11 0.588114 0.500000 0.280165
O O12 0.246362 0.655758 0.504915
O O13 0.899123 0.500000 0.736931
O O14 0.987729 0.246917 0.618080
O O15 0.119655 0.500000 0.471153
O O16 0.000000 0.251980 0.500000
#
# Coordination Sequence:
#
# PCOD8061152 Si02
#       6
#     4   4   4   4   4   4
#     4  11  21  33  51  75 104 134 168 214 265 308
#     4  10  20  34  53  79 109 136 164 204 255 304
#     4  10  19  33  53  74 100 135 176 215 250 299
#     4   9  17  32  53  74  98 132 174 209 244 301
#     4   7  13  27  48  72  94 123 164 206 245 289
#     4   9  17  32  54  77 101 131 170 213 255 305
#
# _framework density 18.239435
#
# number of rings (size 3 to 8) (size 9 to 14) (size 15 to 20)
#    0.000    2.667    0.000    5.000    0.000    1.667 
#    0.000    2.500    0.000   10.000    0.000    0.000 
#    0.000    0.000    0.000    0.000    0.000    0.000 
#
# Total GULP energy -297366.713852 kJ/mol
# GULP energy per Si atom -12390.279744 kJ/mol
# Density = 1.819792 g / cm^3
# Si number density = 18.239435 Si / 1000 Ang^3
#
#
#
# Elastic Constant Matrix: (Units=GPa)
#
#
# Indices 1 2 3 4 5 6 
#
# 1 148.4758 29.0690 47.7158 0.0000 26.3251 0.0000
# 2 29.0690 50.5837 7.4298 0.0000 4.8143 0.0000
# 3 47.7158 7.4298 73.5165 0.0000 26.6544 0.0000
# 4 0.0000 0.0000 0.0000 24.1726 0.0000 2.8655
# 5 26.3251 4.8143 26.6544 0.0000 29.5569 0.0000
# 6 0.0000 0.0000 0.0000 2.8655 0.0000 22.1212
#
#
#
# Elastic Compliance Matrix: (Units=1/GPa)
#
#
# Indices 1 2 3 4 5 6 
#
# 1 0.009758 -0.004580 -0.004442 0.000000 -0.003939 0.000000
# 2 -0.004580 0.022308 0.000827 0.000000 -0.000300 0.000000
# 3 -0.004442 0.000827 0.022311 0.000000 -0.016298 0.000000
# 4 0.000000 0.000000 0.000000 0.042014 0.000000 -0.005442
# 5 -0.003939 -0.000300 -0.016298 0.000000 0.052088 0.000000
# 6 0.000000 0.000000 0.000000 -0.005442 0.000000 0.045911
#
#
# Mechanical properties :
#
#
# Convention : Reuss Voigt Hill
#
# Bulk Modulus (GPa) = 26.32521 49.00058 37.66290
# Shear Modulus (GPa) = 22.37702 27.72755 25.05228
#
# Velocity S-wave (km/s) = 3.50644 3.90320 3.71013
# Velocity P-wave (km/s) = 5.55499 6.87290 6.24879
#
# Compressibility (1/GPa) = 0.03798640
#
# Stress axis : x y z
#
# Youngs Moduli (GPa) = 102.48196 44.82614 44.82032
#
# Poissons Ratio (x) = 0.20531 0.19911
# Poissons Ratio (y) = 0.46939 -0.03707
# Poissons Ratio (z) = 0.45526 -0.03707
#
# Static dielectric constant tensor:
#      x y z
#    x 3.806910 0.000000 0.465400 
#    y 0.000000 3.294720 0.000000 
#    z 0.465400 0.000000 3.157390 
# 
# 
# High freq. dielectric constant tensor:
#      x y z
#    x 1.714430 0.000000 0.032420 
#    y 0.000000 1.696900 0.000000 
#    z 0.032420 0.000000 1.678220 
# 
# From -- ./inp_files/31232.got.cif
#   From: 2010.06.25/outbox.cif.g09.slc.cpg/sg10_16_cif.got.tgz:31232.got - 2010.06.27 22:07:45.
