data_PCOD8061253
_publ_section_title
;
Structure prediction by ZEFSAII (Michael W. Deem and Ramdas Pophale) SiO2 
 PCOD8061253
Probable space group: P 2/M
;
_chemical_formula_sum "Si O2"
_cell_formula_units_Z 32
_cell_length_a 12.118082
_cell_length_b 18.337498
_cell_length_c 14.325673
_cell_angle_alpha 90.000000
_cell_angle_beta 32.231581
_cell_angle_gamma 90.000000
_cell_volume 1697.834219
_symmetry_space_group_name_H-M "P 2/M"
_symmetry_group_IT_number 10
_symmetry_cell_setting 'monoclinic'
loop_
_space_group_symop_operation_xyz
x,y,z
-x,y,-z
-x,-y,-z
x,-y,z
loop_
_atom_site_type_symbol
_atom_site_label
_atom_site_fract_x
_atom_site_fract_y
_atom_site_fract_z
Si Si1 0.298088 0.414190 0.701912
Si Si2 0.123032 0.660116 0.500000
Si Si3 0.976049 0.336360 0.805123
Si Si4 0.586295 0.336359 0.194877
Si Si5 0.122197 0.167074 0.500000
Si Si6 0.792797 0.081600 0.207203
Si Si7 0.582639 0.167402 0.202840
Si Si8 0.011679 0.832598 0.202841
O O1 0.500000 0.391504 0.500000
O O2 0.270470 0.500000 0.729531
O O3 0.099124 0.382240 0.793234
O O4 0.314408 0.382240 0.793233
O O5 0.017955 0.633264 0.671373
O O6 0.360702 0.633264 0.328627
O O7 0.113120 0.746380 0.500000
O O8 0.000000 0.625430 0.500000
O O9 0.044561 0.252410 0.765981
O O10 0.731832 0.344618 0.000000
O O11 0.576523 0.252410 0.234019
O O12 0.360519 0.141185 0.323386
O O13 0.000000 0.132196 0.500000
O O14 0.007294 0.141185 0.676613
O O15 0.620309 0.123986 0.271596
O O16 0.836498 0.123987 0.271596
O O17 0.714049 0.000000 0.285951
O O18 0.000000 0.079319 0.000000
O O19 0.757185 0.150492 1.000000
#
# Coordination Sequence:
#
# PCOD8061253 Si02
#       8
#     4   4   4   4   4   4   4   4
#     4  11  22  35  53  77 105 135 166 205 253 302
#     4   9  18  33  51  76 106 131 166 211 250 295
#     4  10  19  33  54  77 103 134 167 206 252 300
#     4  10  19  33  54  77 103 134 167 206 252 300
#     4   9  18  31  49  74 100 131 168 205 248 293
#     4   9  17  31  51  74 102 133 165 204 251 301
#     4   9  18  32  51  76 102 130 165 205 248 295
#     4   9  18  32  51  76 102 130 165 205 248 295
#
# _framework density 18.847542000000001
#
# number of rings (size 3 to 8) (size 9 to 14) (size 15 to 20)
#    0.000    2.500    1.250    1.125    0.000    4.500 
#    0.000    6.250    0.000    3.000    0.000    5.250 
#    0.000    0.000    0.000    0.000    0.000    0.000 
#
# Total GULP energy -396785.848434 kJ/mol
# GULP energy per Si atom -12399.557764 kJ/mol
# Density = 1.880464 g / cm^3
# Si number density = 18.847542 Si / 1000 Ang^3
#
#
#
# Elastic Constant Matrix: (Units=GPa)
#
#
# Indices 1 2 3 4 5 6 
#
# 1 173.9275 37.7933 75.1370 0.0000 -3.1201 0.0000
# 2 37.7933 50.4080 30.8474 0.0000 -0.4585 0.0000
# 3 75.1370 30.8474 123.6628 0.0000 -0.1983 0.0000
# 4 0.0000 0.0000 0.0000 11.7665 0.0000 0.8491
# 5 -3.1201 -0.4585 -0.1983 0.0000 25.9574 0.0000
# 6 0.0000 0.0000 0.0000 0.8491 0.0000 -1.0946
#
#
#
# Elastic Compliance Matrix: (Units=1/GPa)
#
#
# Indices 1 2 3 4 5 6 
#
# 1 0.008370 -0.003724 -0.004155 0.000000 0.000909 0.000000
# 2 -0.003724 0.025073 -0.003991 0.000000 -0.000035 0.000000
# 3 -0.004155 -0.003991 0.011606 0.000000 -0.000481 0.000000
# 4 0.000000 0.000000 0.000000 0.080482 0.000000 0.062432
# 5 0.000909 -0.000035 -0.000481 0.000000 0.038630 0.000000
# 6 0.000000 0.000000 0.000000 0.062432 0.000000 -0.865123
#
#
# Mechanical properties :
#
#
# Convention : Reuss Voigt Hill
#
# Bulk Modulus (GPa) = 46.93326 70.61707 58.77517
# Shear Modulus (GPa) = -7.46137 20.94056 6.73960
#
# Velocity S-wave (km/s) = -1.99183 3.33686 1.89304
# Velocity P-wave (km/s) = 4.43461 7.23844 6.00253
#
# Compressibility (1/GPa) = 0.02130685
#
# Stress axis : x y z
#
# Youngs Moduli (GPa) = 119.47212 39.88390 86.16205
#
# Poissons Ratio (x) = 0.14855 0.35802
# Poissons Ratio (y) = 0.44497 0.34391
# Poissons Ratio (z) = 0.49642 0.15919
#
# Static dielectric constant tensor:
#      x y z
#    x 3.539090 0.000000 0.002180 
#    y 0.000000 3.208660 0.000000 
#    z 0.002180 0.000000 3.572180 
# 
# 
# High freq. dielectric constant tensor:
#      x y z
#    x 1.727300 0.000000 0.001030 
#    y 0.000000 1.696730 0.000000 
#    z 0.001030 0.000000 1.742870 
# 
# From -- ./inp_files/65394.got.cif
#   From: 2010.06.25/outbox.cif.g09.slc.cpg/sg10_33_cif.got.tgz:65394.got - 2010.06.27 22:07:45.
