data_PCOD8061755
_publ_section_title
;
Structure prediction by ZEFSAII (Michael W. Deem and Ramdas Pophale) SiO2 
 PCOD8061755
Probable space group: P 2/M
;
_chemical_formula_sum "Si O2"
_cell_formula_units_Z 32
_cell_length_a 13.747161
_cell_length_b 13.674728
_cell_length_c 15.621118
_cell_angle_alpha 90.000000
_cell_angle_beta 37.673300
_cell_angle_gamma 90.000000
_cell_volume 1794.723359
_symmetry_space_group_name_H-M "P 2/M"
_symmetry_group_IT_number 10
_symmetry_cell_setting 'monoclinic'
loop_
_space_group_symop_operation_xyz
x,y,z
-x,y,-z
-x,-y,-z
x,-y,z
loop_
_atom_site_type_symbol
_atom_site_label
_atom_site_fract_x
_atom_site_fract_y
_atom_site_fract_z
Si Si1 0.418773 0.884366 0.832975
Si Si2 0.275265 0.790648 0.450081
Si Si3 0.173913 0.387924 0.414102
Si Si4 0.317182 0.395946 0.136451
Si Si5 0.671354 0.109250 0.419765
Si Si6 0.173589 0.115632 0.860815
Si Si7 0.672993 0.807828 0.922492
Si Si8 0.033046 0.886261 0.384147
O O1 0.592034 0.833297 0.707489
O O2 0.305960 0.844388 0.835246
O O3 0.446048 0.000000 0.808411
O O4 0.331082 0.858026 0.982535
O O5 0.230142 0.680030 0.454288
O O6 0.338990 0.804960 0.502080
O O7 0.114157 0.853378 0.570576
O O8 0.180378 0.500000 0.442191
O O9 0.291012 0.368214 0.253676
O O10 0.000000 0.360425 0.500000
O O11 0.227716 0.500000 0.176288
O O12 0.266878 0.305376 0.110987
O O13 0.500000 0.416378 0.000000
O O14 0.500000 0.097294 0.500000
O O15 0.788783 0.144565 0.262865
O O16 0.719908 0.000000 0.421346
O O17 0.170267 0.000000 0.875143
O O18 0.000000 0.161282 0.000000
O O19 0.797387 0.860569 0.774190
O O20 0.500000 0.812764 0.000000
O O21 0.000000 0.835869 0.500000
O O22 0.030970 0.000000 0.397348
#
# Coordination Sequence:
#
# PCOD8061755 Si02
#       8
#     4   4   4   4   4   4   4   4
#     4  11  22  35  52  77 111 150 183 221 270 324
#     4  12  21  34  57  81 106 139 185 227 272 325
#     4  10  21  38  58  80 108 139 176 228 282 330
#     4   9  17  32  53  73  96 129 172 221 266 309
#     4  10  19  34  54  79 109 145 184 221 265 319
#     4   9  19  35  53  74 104 142 184 225 263 308
#     4  11  22  35  50  73 106 142 179 220 269 325
#     4  11  23  35  48  72 107 144 178 213 259 324
#
# _framework density 17.830045999999999
#
# number of rings (size 3 to 8) (size 9 to 14) (size 15 to 20)
#    0.000    1.625    1.250    5.625    1.750    2.000 
#    0.000    0.000    0.000    0.375    0.000    0.000 
#    0.000    2.500    0.000    0.000    0.000    0.000 
#
# Total GULP energy -396539.836387 kJ/mol
# GULP energy per Si atom -12391.869887 kJ/mol
# Density = 1.778946 g / cm^3
# Si number density = 17.830046 Si / 1000 Ang^3
#
#
#
# Elastic Constant Matrix: (Units=GPa)
#
#
# Indices 1 2 3 4 5 6 
#
# 1 70.0162 42.0295 32.1177 0.0000 7.7702 0.0000
# 2 42.0295 96.9328 32.3000 0.0000 3.8769 0.0000
# 3 32.1177 32.3000 124.0669 0.0000 8.6934 0.0000
# 4 0.0000 0.0000 0.0000 23.8592 0.0000 10.8241
# 5 7.7702 3.8769 8.6934 0.0000 27.0478 0.0000
# 6 0.0000 0.0000 0.0000 10.8241 0.0000 48.0021
#
#
#
# Elastic Compliance Matrix: (Units=1/GPa)
#
#
# Indices 1 2 3 4 5 6 
#
# 1 0.020840 -0.007855 -0.003078 0.000000 -0.003871 0.000000
# 2 -0.007855 0.014270 -0.001735 0.000000 0.000769 0.000000
# 3 -0.003078 -0.001735 0.009442 0.000000 -0.001902 0.000000
# 4 0.000000 0.000000 0.000000 0.046689 0.000000 -0.010528
# 5 -0.003871 0.000769 -0.001902 0.000000 0.038585 0.000000
# 6 0.000000 0.000000 0.000000 -0.010528 0.000000 0.023206
#
#
# Mechanical properties :
#
#
# Convention : Reuss Voigt Hill
#
# Bulk Modulus (GPa) = 52.04728 55.99001 54.01865
# Shear Modulus (GPa) = 27.06004 32.08640 29.57322
#
# Velocity S-wave (km/s) = 3.89995 4.24674 4.07703
# Velocity P-wave (km/s) = 7.03801 7.45094 7.24742
#
# Compressibility (1/GPa) = 0.01921330
#
# Stress axis : x y z
#
# Youngs Moduli (GPa) = 47.98564 70.07736 105.90782
#
# Poissons Ratio (x) = 0.55048 0.32604
# Poissons Ratio (y) = 0.37694 0.18380
# Poissons Ratio (z) = 0.14772 0.12162
#
# Static dielectric constant tensor:
#      x y z
#    x 3.336250 0.000000 0.180430 
#    y 0.000000 3.375610 0.000000 
#    z 0.180430 0.000000 3.875320 
# 
# 
# High freq. dielectric constant tensor:
#      x y z
#    x 1.661770 0.000000 -0.001620 
#    y 0.000000 1.668620 0.000000 
#    z -0.001620 0.000000 1.717940 
# 
# From -- ./inp_files/65093.got.cif
#   From: 2010.06.25/outbox.cif.g09.slc.cpg/sg10_33_cif.got.tgz:65093.got - 2010.06.27 22:07:45.
