data_PCOD8061988
_publ_section_title
;
Structure prediction by ZEFSAII (Michael W. Deem and Ramdas Pophale) SiO2 
 PCOD8061988
Probable space group: P 2/M
;
_chemical_formula_sum "Si O2"
_cell_formula_units_Z 24
_cell_length_a 21.962591
_cell_length_b 8.427866
_cell_length_c 9.654997
_cell_angle_alpha 90.000000
_cell_angle_beta 135.805503
_cell_angle_gamma 90.000000
_cell_volume 1245.793560
_symmetry_space_group_name_H-M "P 2/M"
_symmetry_group_IT_number 10
_symmetry_cell_setting 'monoclinic'
loop_
_space_group_symop_operation_xyz
x,y,z
-x,y,-z
-x,-y,-z
x,-y,z
loop_
_atom_site_type_symbol
_atom_site_label
_atom_site_fract_x
_atom_site_fract_y
_atom_site_fract_z
Si Si1 0.903355 0.811951 0.356014
Si Si2 0.709464 0.316825 0.543695
Si Si3 0.478065 0.815490 0.810007
Si Si4 0.243463 0.811891 0.092797
Si Si5 0.640235 0.685273 0.946882
Si Si6 0.774846 0.185830 0.378844
O O1 0.860285 0.759717 0.431619
O O2 0.000000 0.736271 0.500000
O O3 0.908780 0.000000 0.359549
O O4 0.842432 0.753682 0.130554
O O5 0.683427 0.500000 0.502895
O O6 0.622512 0.212938 0.389301
O O7 0.761130 0.270035 0.765995
O O8 0.773887 0.281179 0.520701
O O9 0.537324 0.718382 0.797525
O O10 0.499516 0.000000 0.829627
O O11 0.500000 0.754325 0.000000
O O12 0.329560 0.753888 0.151666
O O13 0.246592 0.000000 0.114041
O O14 0.661156 0.500000 0.989097
O O15 0.688623 0.776934 0.149796
O O16 0.776429 0.000000 0.414226
#
# Coordination Sequence:
#
# PCOD8061988 Si02
#       6
#     4   4   4   4   4   4
#     4   8  16  34  62  90 110 136 182 233 274 326
#     4  12  24  37  55  81 115 150 188 233 282 328
#     4  11  22  36  57  81 110 147 194 237 273 322
#     4  10  21  38  59  82 114 149 185 229 282 334
#     4  11  21  35  56  82 113 148 190 232 276 327
#     4  10  19  34  57  83 112 148 188 227 276 332
#
# _framework density 19.264828000000001
#
# number of rings (size 3 to 8) (size 9 to 14) (size 15 to 20)
#    0.000    1.667    1.667    5.500    0.000    1.333 
#    0.000    4.167    0.000   23.000    0.000    0.000 
#    0.000    0.000    0.000    0.000    0.000    0.000 
#
# Total GULP energy -297684.932504 kJ/mol
# GULP energy per Si atom -12403.538854 kJ/mol
# Density = 1.922098 g / cm^3
# Si number density = 19.264828 Si / 1000 Ang^3
#
#
#
# Elastic Constant Matrix: (Units=GPa)
#
#
# Indices 1 2 3 4 5 6 
#
# 1 136.5518 19.9741 66.1840 0.0000 -4.1696 0.0000
# 2 19.9741 64.9711 13.6717 0.0000 -6.9422 0.0000
# 3 66.1840 13.6717 92.9761 0.0000 -12.8143 0.0000
# 4 0.0000 0.0000 0.0000 17.3997 0.0000 -7.0843
# 5 -4.1696 -6.9422 -12.8143 0.0000 35.8918 0.0000
# 6 0.0000 0.0000 0.0000 -7.0843 0.0000 16.0332
#
#
#
# Elastic Compliance Matrix: (Units=1/GPa)
#
#
# Indices 1 2 3 4 5 6 
#
# 1 0.011523 -0.002033 -0.008175 0.000000 -0.001973 0.000000
# 2 -0.002033 0.016433 -0.000593 0.000000 0.002731 0.000000
# 3 -0.008175 -0.000593 0.017370 0.000000 0.005137 0.000000
# 4 0.000000 0.000000 0.000000 0.070080 0.000000 0.030965
# 5 -0.001973 0.002731 0.005137 0.000000 0.029995 0.000000
# 6 0.000000 0.000000 0.000000 0.030965 0.000000 0.076052
#
#
# Mechanical properties :
#
#
# Convention : Reuss Voigt Hill
#
# Bulk Modulus (GPa) = 42.15241 54.90651 48.52946
# Shear Modulus (GPa) = 19.92326 26.84289 23.38307
#
# Velocity S-wave (km/s) = 3.21935 3.73683 3.48770
# Velocity P-wave (km/s) = 5.97888 6.86886 6.43926
#
# Compressibility (1/GPa) = 0.02372343
#
# Stress axis : x y z
#
# Youngs Moduli (GPa) = 86.78441 60.85317 57.56975
#
# Poissons Ratio (x) = 0.12371 0.47066
# Poissons Ratio (y) = 0.17643 0.03413
# Poissons Ratio (z) = 0.70950 0.03608
#
# Static dielectric constant tensor:
#      x y z
#    x 3.813530 0.000000 -0.010010 
#    y 0.000000 3.364070 0.000000 
#    z -0.010010 0.000000 3.443280 
# 
# 
# High freq. dielectric constant tensor:
#      x y z
#    x 1.755040 0.000000 -0.010160 
#    y 0.000000 1.746160 0.000000 
#    z -0.010160 0.000000 1.727050 
# 
# From -- ./inp_files/27315.got.cif
#   From: 2010.06.25/outbox.cif.g09.slc.cpg/sg10_14_cif.got.tgz:27315.got - 2010.06.27 22:07:45.
