data_PCOD8061031
_publ_section_title
;
Structure prediction by ZEFSAII (Michael W. Deem and Ramdas Pophale) SiO2 
 PCOD8061031
Probable space group: P 2/M
;
_chemical_formula_sum "Si O2"
_cell_formula_units_Z 28
_cell_length_a 11.817201
_cell_length_b 8.845921
_cell_length_c 15.728390
_cell_angle_alpha 90.000000
_cell_angle_beta 123.613177
_cell_angle_gamma 90.000000
_cell_volume 1369.239784
_symmetry_space_group_name_H-M "P 2/M"
_symmetry_group_IT_number 10
_symmetry_cell_setting 'monoclinic'
loop_
_space_group_symop_operation_xyz
x,y,z
-x,y,-z
-x,-y,-z
x,-y,z
loop_
_atom_site_type_symbol
_atom_site_label
_atom_site_fract_x
_atom_site_fract_y
_atom_site_fract_z
Si Si1 0.673290 0.677433 0.736549
Si Si2 0.402147 0.322658 0.706077
Si Si3 0.408965 0.177882 0.882553
Si Si4 0.843011 0.324022 0.148259
Si Si5 0.141446 0.821508 0.519539
Si Si6 0.856274 0.323720 0.661270
Si Si7 0.146839 0.680043 0.037590
O O1 0.701832 0.500000 0.749907
O O2 0.512812 0.713321 0.677868
O O3 0.738574 0.738434 0.676051
O O4 0.747491 0.747508 0.850158
O O5 0.377475 0.500000 0.704060
O O6 0.461751 0.260992 0.819823
O O7 0.261360 0.243460 0.626678
O O8 0.252358 0.225491 0.830606
O O9 0.418931 0.000000 0.873031
O O10 0.500000 0.232465 0.000000
O O11 0.807664 0.500000 0.145790
O O12 0.999190 0.292562 0.235499
O O13 0.813569 0.266947 0.040427
O O14 0.158121 0.768918 0.430419
O O15 0.000000 0.761496 0.500000
O O16 0.149046 0.000000 0.526588
O O17 0.836096 0.500000 0.631668
O O18 0.142791 0.500000 0.037607
O O19 0.000000 0.746124 0.000000
#
# Coordination Sequence:
#
# PCOD8061031 Si02
#       7
#     4   4   4   4   4   4   4
#     4   9  18  33  55  88 124 153 185 234 295 348
#     4  11  23  40  64  90 117 150 193 245 293 344
#     4  11  24  40  57  81 120 163 197 235 287 345
#     4  10  19  32  58  90 117 151 197 247 291 340
#     4  11  25  44  63  83 113 154 196 241 295 352
#     4  10  20  36  60  90 119 148 190 242 294 347
#     4   9  14  26  51  85 122 153 184 228 283 337
#
# _framework density 20.449303
#
# number of rings (size 3 to 8) (size 9 to 14) (size 15 to 20)
#    0.000    1.857    1.429    3.000    0.000    6.857 
#    0.000    4.286    0.000    1.286    0.000    0.000 
#    0.000    0.000    0.000    0.000    0.000    0.000 
#
# Total GULP energy -347224.379498 kJ/mol
# GULP energy per Si atom -12400.870696 kJ/mol
# Density = 2.040276 g / cm^3
# Si number density = 20.449303 Si / 1000 Ang^3
#
#
#
# Elastic Constant Matrix: (Units=GPa)
#
#
# Indices 1 2 3 4 5 6 
#
# 1 135.7448 32.4512 48.8677 0.0000 -7.6853 0.0000
# 2 32.4512 44.0858 31.8690 0.0000 0.3714 0.0000
# 3 48.8677 31.8690 115.1804 0.0000 -9.1603 0.0000
# 4 0.0000 0.0000 0.0000 27.5216 0.0000 0.3875
# 5 -7.6853 0.3714 -9.1603 0.0000 36.6952 0.0000
# 6 0.0000 0.0000 0.0000 0.3875 0.0000 5.9135
#
#
#
# Elastic Compliance Matrix: (Units=1/GPa)
#
#
# Indices 1 2 3 4 5 6 
#
# 1 0.009611 -0.005277 -0.002503 0.000000 0.001442 0.000000
# 2 -0.005277 0.031442 -0.006707 0.000000 -0.003098 0.000000
# 3 -0.002503 -0.006707 0.011798 0.000000 0.002489 0.000000
# 4 0.000000 0.000000 0.000000 0.036369 0.000000 -0.002383
# 5 0.001442 -0.003098 0.002489 0.000000 0.028206 0.000000
# 6 0.000000 0.000000 0.000000 -0.002383 0.000000 0.169261
#
#
# Mechanical properties :
#
#
# Convention : Reuss Voigt Hill
#
# Bulk Modulus (GPa) = 41.88253 57.93186 49.90720
# Shear Modulus (GPa) = 15.45023 26.14758 20.79891
#
# Velocity S-wave (km/s) = 2.75169 3.57971 3.19265
# Velocity P-wave (km/s) = 5.53365 6.74364 6.16839
#
# Compressibility (1/GPa) = 0.02387630
#
# Stress axis : x y z
#
# Youngs Moduli (GPa) = 104.04718 31.80435 84.76323
#
# Poissons Ratio (x) = 0.16785 0.21215
# Poissons Ratio (y) = 0.54911 0.56850
# Poissons Ratio (z) = 0.26041 0.21331
#
# Static dielectric constant tensor:
#      x y z
#    x 3.912490 0.000000 -0.091150 
#    y 0.000000 3.300700 0.000000 
#    z -0.091150 0.000000 3.798450 
# 
# 
# High freq. dielectric constant tensor:
#      x y z
#    x 1.816580 0.000000 -0.004770 
#    y 0.000000 1.759980 0.000000 
#    z -0.004770 0.000000 1.804020 
# 
# From -- ./inp_files/63906.got.cif
#   From: 2010.06.25/outbox.cif.g09.slc.cpg/sg10_32_cif.got.tgz:63906.got - 2010.06.27 22:07:45.
