data_PCOD8061552
_publ_section_title
;
Structure prediction by ZEFSAII (Michael W. Deem and Ramdas Pophale) SiO2 
 PCOD8061552
Probable space group: P 2/M
;
_chemical_formula_sum "Si O2"
_cell_formula_units_Z 28
_cell_length_a 19.661754
_cell_length_b 9.082358
_cell_length_c 14.045654
_cell_angle_alpha 90.000000
_cell_angle_beta 37.526398
_cell_angle_gamma 90.000000
_cell_volume 1527.814441
_symmetry_space_group_name_H-M "P 2/M"
_symmetry_group_IT_number 10
_symmetry_cell_setting 'monoclinic'
loop_
_space_group_symop_operation_xyz
x,y,z
-x,y,-z
-x,-y,-z
x,-y,z
loop_
_atom_site_type_symbol
_atom_site_label
_atom_site_fract_x
_atom_site_fract_y
_atom_site_fract_z
Si Si1 0.797570 0.827469 0.253192
Si Si2 0.412704 0.831111 0.393561
Si Si3 0.745823 0.173128 0.602885
Si Si4 0.377922 0.673159 0.097927
Si Si5 0.917261 0.670031 0.286846
Si Si6 0.828432 0.668366 0.023885
Si Si7 0.629048 0.671958 0.109785
O O1 0.671466 0.793503 0.427013
O O2 0.885456 0.741108 0.220988
O O3 0.810144 0.776815 0.131717
O O4 0.824248 0.000000 0.233281
O O5 0.353608 0.789861 0.359866
O O6 0.447810 0.000000 0.356218
O O7 0.524930 0.739150 0.282434
O O8 0.715258 0.241159 0.738414
O O9 0.859096 0.247017 0.439097
O O10 0.766509 0.000000 0.588970
O O11 0.354859 0.500000 0.132702
O O12 0.365483 0.731595 0.004088
O O13 0.500000 0.715331 0.000000
O O14 0.880173 0.500000 0.327374
O O15 0.049068 0.687419 0.155720
O O16 0.808427 0.500000 0.079483
O O17 0.742860 0.714782 0.036315
O O18 0.608104 0.500000 0.130564
#
# Coordination Sequence:
#
# PCOD8061552 Si02
#       7
#     4   4   4   4   4   4   4
#     4  10  21  36  56  82 109 140 179 224 269 316
#     4   9  19  34  51  77 109 139 173 215 269 322
#     4  10  20  34  55  83 111 139 176 223 272 318
#     4  10  19  33  56  84 108 138 181 222 266 319
#     4  10  20  36  58  80 106 140 182 225 265 314
#     4  10  22  38  54  77 108 145 182 221 268 316
#     4  10  21  36  54  78 110 142 179 222 266 320
#
# _framework density 18.326833000000001
#
# number of rings (size 3 to 8) (size 9 to 14) (size 15 to 20)
#    0.000    2.143    1.429    2.571    0.000    7.714 
#    0.000    3.571    0.000    4.286    0.000    0.000 
#    0.000    0.000    0.000    0.000    0.000    0.000 
#
# Total GULP energy -347305.012626 kJ/mol
# GULP energy per Si atom -12403.750451 kJ/mol
# Density = 1.828512 g / cm^3
# Si number density = 18.326833 Si / 1000 Ang^3
#
#
#
# Elastic Constant Matrix: (Units=GPa)
#
#
# Indices 1 2 3 4 5 6 
#
# 1 72.1299 28.7515 49.8601 0.0000 -15.9338 0.0000
# 2 28.7515 70.8558 50.0261 0.0000 -7.9182 0.0000
# 3 49.8601 50.0261 113.4016 0.0000 -6.9580 0.0000
# 4 0.0000 0.0000 0.0000 29.7012 0.0000 7.6443
# 5 -15.9338 -7.9182 -6.9580 0.0000 26.4158 0.0000
# 6 0.0000 0.0000 0.0000 7.6443 0.0000 15.9852
#
#
#
# Elastic Compliance Matrix: (Units=1/GPa)
#
#
# Indices 1 2 3 4 5 6 
#
# 1 0.023024 -0.002094 -0.008523 0.000000 0.011015 0.000000
# 2 -0.002094 0.021075 -0.008199 0.000000 0.002895 0.000000
# 3 -0.008523 -0.008199 0.015975 0.000000 -0.003391 0.000000
# 4 0.000000 0.000000 0.000000 0.038394 0.000000 -0.018361
# 5 0.011015 0.002895 -0.003391 0.000000 0.044475 0.000000
# 6 0.000000 0.000000 0.000000 -0.018361 0.000000 0.071338
#
#
# Mechanical properties :
#
#
# Convention : Reuss Voigt Hill
#
# Bulk Modulus (GPa) = 44.56129 57.07363 50.81746
# Shear Modulus (GPa) = 19.27585 22.93711 21.10648
#
# Velocity S-wave (km/s) = 3.24664 3.54158 3.39731
# Velocity P-wave (km/s) = 6.19853 6.92339 6.57097
#
# Compressibility (1/GPa) = 0.02244100
#
# Stress axis : x y z
#
# Youngs Moduli (GPa) = 43.43383 47.45004 62.59953
#
# Poissons Ratio (x) = 0.09934 0.53357
# Poissons Ratio (y) = 0.09093 0.51324
# Poissons Ratio (z) = 0.37021 0.38903
#
# Static dielectric constant tensor:
#      x y z
#    x 3.270000 0.000000 0.032220 
#    y 0.000000 3.362770 0.000000 
#    z 0.032220 0.000000 3.397320 
# 
# 
# High freq. dielectric constant tensor:
#      x y z
#    x 1.691020 0.000000 0.002780 
#    y 0.000000 1.714240 0.000000 
#    z 0.002780 0.000000 1.718910 
# 
# From -- ./inp_files/57440.got.cif
#   From: 2010.06.25/outbox.cif.g09.slc.cpg/sg10_29_cif.got.tgz:57440.got - 2010.06.27 22:07:45.
