data_PCOD8061759
_publ_section_title
;
Structure prediction by ZEFSAII (Michael W. Deem and Ramdas Pophale) SiO2 
 PCOD8061759
Probable space group: P 2/M
;
_chemical_formula_sum "Si O2"
_cell_formula_units_Z 30
_cell_length_a 14.677234
_cell_length_b 10.980847
_cell_length_c 12.225606
_cell_angle_alpha 90.000000
_cell_angle_beta 129.056372
_cell_angle_gamma 90.000000
_cell_volume 1530.053744
_symmetry_space_group_name_H-M "P 2/M"
_symmetry_group_IT_number 10
_symmetry_cell_setting 'monoclinic'
loop_
_space_group_symop_operation_xyz
x,y,z
-x,y,-z
-x,-y,-z
x,-y,z
loop_
_atom_site_type_symbol
_atom_site_label
_atom_site_fract_x
_atom_site_fract_y
_atom_site_fract_z
Si Si1 0.021524 0.364870 0.780610
Si Si2 0.000000 0.744034 0.000000
Si Si3 0.565377 0.856142 0.765323
Si Si4 0.628886 0.136066 0.053195
Si Si5 0.306625 0.858931 0.534603
Si Si6 0.226988 0.365045 0.780575
Si Si7 0.760247 0.856356 0.750434
Si Si8 0.102244 0.239224 0.505828
O O1 0.971160 0.500000 0.726744
O O2 0.155218 0.356877 0.839350
O O3 0.018595 0.336230 0.906468
O O4 0.943114 0.275657 0.648174
O O5 0.114860 0.825532 0.102642
O O6 0.624627 0.822393 0.924658
O O7 0.434123 0.798696 0.656314
O O8 0.651984 0.801671 0.738761
O O9 0.554304 0.000000 0.745671
O O10 0.689436 0.000000 0.112113
O O11 0.500000 0.121101 0.000000
O O12 0.689282 0.247145 0.163536
O O13 0.253871 0.802231 0.382592
O O14 0.216889 0.842376 0.568050
O O15 0.327003 0.000000 0.531774
O O16 0.288328 0.500000 0.820128
O O17 0.139884 0.354162 0.610000
O O18 0.750605 0.000000 0.742536
O O19 0.000000 0.169877 0.500000
#
# Coordination Sequence:
#
# PCOD8061759 Si02
#       8
#     4   2   4   4   4   4   4   4
#     4  10  21  37  55  78 105 142 188 233 282 340
#     4  12  20  34  56  82 112 140 178 234 290 348
#     4   9  18  33  54  78 109 153 195 229 275 340
#     4  10  20  35  55  83 116 149 186 235 293 344
#     4  10  19  34  54  80 112 148 192 236 279 338
#     4  10  21  37  58  81 111 150 193 236 280 339
#     4  10  20  33  52  80 114 148 184 229 283 343
#     4  10  20  36  55  79 110 145 188 236 285 337
#
# _framework density 19.607154999999999
#
# number of rings (size 3 to 8) (size 9 to 14) (size 15 to 20)
#    0.000    2.000    1.333    2.800    0.000    5.333 
#    0.000    2.667    0.000    0.000    0.000    0.933 
#    0.000    0.000    0.000    0.000    0.000    0.000 
#
# Total GULP energy -371679.895865 kJ/mol
# GULP energy per Si atom -12389.329862 kJ/mol
# Density = 1.956253 g / cm^3
# Si number density = 19.607155 Si / 1000 Ang^3
#
#
#
# Elastic Constant Matrix: (Units=GPa)
#
#
# Indices 1 2 3 4 5 6 
#
# 1 118.4641 13.9013 37.6880 0.0000 0.3169 0.0000
# 2 13.9013 59.4359 29.5869 0.0000 5.4821 0.0000
# 3 37.6880 29.5869 93.1280 0.0000 -2.1969 0.0000
# 4 0.0000 0.0000 0.0000 19.1356 0.0000 2.0448
# 5 0.3169 5.4821 -2.1969 0.0000 40.7537 0.0000
# 6 0.0000 0.0000 0.0000 2.0448 0.0000 24.3900
#
#
#
# Elastic Compliance Matrix: (Units=1/GPa)
#
#
# Indices 1 2 3 4 5 6 
#
# 1 0.009698 -0.000345 -0.003821 0.000000 -0.000235 0.000000
# 2 -0.000345 0.020380 -0.006408 0.000000 -0.003084 0.000000
# 3 -0.003821 -0.006408 0.014359 0.000000 0.001666 0.000000
# 4 0.000000 0.000000 0.000000 0.052731 0.000000 -0.004421
# 5 -0.000235 -0.003084 0.001666 0.000000 0.025044 0.000000
# 6 0.000000 0.000000 0.000000 -0.004421 0.000000 0.041371
#
#
# Mechanical properties :
#
#
# Convention : Reuss Voigt Hill
#
# Bulk Modulus (GPa) = 42.93625 48.15337 45.54481
# Shear Modulus (GPa) = 25.97492 29.51263 27.74378
#
# Velocity S-wave (km/s) = 3.64368 3.88390 3.76571
# Velocity P-wave (km/s) = 6.29664 6.68769 6.49511
#
# Compressibility (1/GPa) = 0.02329034
#
# Stress axis : x y z
#
# Youngs Moduli (GPa) = 103.11440 49.06823 69.64150
#
# Poissons Ratio (x) = 0.01691 0.26608
# Poissons Ratio (y) = 0.03553 0.44626
# Poissons Ratio (z) = 0.39397 0.31443
#
# Static dielectric constant tensor:
#      x y z
#    x 3.770520 0.000000 -0.181100 
#    y 0.000000 3.189220 0.000000 
#    z -0.181100 0.000000 3.957860 
# 
# 
# High freq. dielectric constant tensor:
#      x y z
#    x 1.776320 0.000000 -0.011060 
#    y 0.000000 1.717090 0.000000 
#    z -0.011060 0.000000 1.772290 
# 
# From -- ./inp_files/46758.got.cif
#   From: 2010.06.25/outbox.cif.g09.slc.cpg/sg10_24_cif.got.tgz:46758.got - 2010.06.27 22:07:45.
