data_PCOD8061684
_publ_section_title
;
Structure prediction by ZEFSAII (Michael W. Deem and Ramdas Pophale) SiO2 
 PCOD8061684
Probable space group: P 2/M
;
_chemical_formula_sum "Si O2"
_cell_formula_units_Z 32
_cell_length_a 11.770184
_cell_length_b 8.789588
_cell_length_c 20.086587
_cell_angle_alpha 90.000000
_cell_angle_beta 120.938548
_cell_angle_gamma 90.000000
_cell_volume 1782.391309
_symmetry_space_group_name_H-M "P 2/M"
_symmetry_group_IT_number 10
_symmetry_cell_setting 'monoclinic'
loop_
_space_group_symop_operation_xyz
x,y,z
-x,y,-z
-x,-y,-z
x,-y,z
loop_
_atom_site_type_symbol
_atom_site_label
_atom_site_fract_x
_atom_site_fract_y
_atom_site_fract_z
Si Si1 0.385002 0.178386 0.771127
Si Si2 0.404380 0.677376 0.530443
Si Si3 0.845182 0.179157 0.598078
Si Si4 0.893035 0.666240 0.165203
Si Si5 0.173083 0.680499 0.265082
Si Si6 0.390404 0.317645 0.914919
Si Si7 0.448309 0.676000 0.288700
Si Si8 0.884879 0.668626 0.320726
O O1 0.424864 0.252510 0.853312
O O2 0.501902 0.217509 0.755378
O O3 0.247844 0.241408 0.699211
O O4 0.372032 0.000000 0.777325
O O5 0.500000 0.732511 0.500000
O O6 0.371489 0.500000 0.512221
O O7 0.267972 0.771323 0.487856
O O8 0.474144 0.714545 0.620760
O O9 0.801667 0.240800 0.656937
O O10 0.984754 0.245323 0.613874
O O11 0.858712 0.000000 0.605351
O O12 0.892193 0.500000 0.131610
O O13 0.754098 0.747209 0.103077
O O14 0.891809 0.655176 0.244066
O O15 0.034782 0.744277 0.189769
O O16 0.160123 0.500000 0.274976
O O17 0.293415 0.715629 0.251948
O O18 0.384267 0.500000 0.907521
O O19 0.500000 0.261540 0.000000
O O20 0.467297 0.500000 0.274711
O O21 0.878829 0.500000 0.350943
#
# Coordination Sequence:
#
# PCOD8061684 Si02
#       8
#     4   4   4   4   4   4   4   4
#     4  11  22  35  52  77 109 135 165 210 265 320
#     4  10  19  34  52  71  97 134 182 224 260 307
#     4  11  20  29  47  76 106 131 165 218 275 313
#     4   7  12  24  47  76  99 121 159 212 253 283
#     4   9  16  30  50  71  97 135 180 218 253 302
#     4   9  17  32  56  83 108 136 171 208 249 305
#     4  10  20  34  53  72  97 137 181 218 256 310
#     4   9  17  33  54  71  95 133 176 213 251 305
#
# _framework density 17.953408
#
# number of rings (size 3 to 8) (size 9 to 14) (size 15 to 20)
#    0.000    2.500    1.250    4.125    0.000    1.500 
#    0.000    0.625    0.000    4.500    0.000    5.250 
#    0.000    0.000    0.000    0.000    0.000    0.000 
#
# Total GULP energy -396588.079765 kJ/mol
# GULP energy per Si atom -12393.377493 kJ/mol
# Density = 1.791255 g / cm^3
# Si number density = 17.953408 Si / 1000 Ang^3
#
#
#
# Elastic Constant Matrix: (Units=GPa)
#
#
# Indices 1 2 3 4 5 6 
#
# 1 125.3772 35.4363 60.5444 0.0000 25.5053 0.0000
# 2 35.4363 72.0441 29.6254 0.0000 7.6340 0.0000
# 3 60.5444 29.6254 85.2544 0.0000 25.1256 0.0000
# 4 0.0000 0.0000 0.0000 11.8577 0.0000 1.1307
# 5 25.5053 7.6340 25.1256 0.0000 31.9740 0.0000
# 6 0.0000 0.0000 0.0000 1.1307 0.0000 17.7825
#
#
#
# Elastic Compliance Matrix: (Units=1/GPa)
#
#
# Indices 1 2 3 4 5 6 
#
# 1 0.013077 -0.003124 -0.006958 0.000000 -0.004218 0.000000
# 2 -0.003124 0.016954 -0.004183 0.000000 0.001731 0.000000
# 3 -0.006958 -0.004183 0.021075 0.000000 -0.010012 0.000000
# 4 0.000000 0.000000 0.000000 0.084848 0.000000 -0.005395
# 5 -0.004218 0.001731 -0.010012 0.000000 0.042094 0.000000
# 6 0.000000 0.000000 0.000000 -0.005395 0.000000 0.056578
#
#
# Mechanical properties :
#
#
# Convention : Reuss Voigt Hill
#
# Bulk Modulus (GPa) = 44.29563 59.32088 51.80826
# Shear Modulus (GPa) = 18.47192 22.79415 20.63304
#
# Velocity S-wave (km/s) = 3.21110 3.56705 3.39374
# Velocity P-wave (km/s) = 6.20277 7.07661 6.65405
#
# Compressibility (1/GPa) = 0.02257559
#
# Stress axis : x y z
#
# Youngs Moduli (GPa) = 76.47017 58.98448 47.44893
#
# Poissons Ratio (x) = 0.18427 0.33016
# Poissons Ratio (y) = 0.23889 0.19848
# Poissons Ratio (z) = 0.53210 0.24673
#
# Static dielectric constant tensor:
#      x y z
#    x 3.611260 0.000000 0.486220 
#    y 0.000000 3.136120 0.000000 
#    z 0.486220 0.000000 3.190260 
# 
# 
# High freq. dielectric constant tensor:
#      x y z
#    x 1.700130 0.000000 0.032680 
#    y 0.000000 1.675410 0.000000 
#    z 0.032680 0.000000 1.662350 
# 
# From -- ./inp_files/83387.got.cif
#   From: 2010.06.25/outbox.cif.g09.slc.cpg/sg10_42_cif.got.tgz:83387.got - 2010.06.27 22:07:45.
