data_PCOD8061972
_publ_section_title
;
Structure prediction by ZEFSAII (Michael W. Deem and Ramdas Pophale) SiO2 
 PCOD8061972
Probable space group: P 2/M
;
_chemical_formula_sum "Si O2"
_cell_formula_units_Z 24
_cell_length_a 8.954785
_cell_length_b 8.696406
_cell_length_c 30.923296
_cell_angle_alpha 90.000000
_cell_angle_beta 150.077108
_cell_angle_gamma 90.000000
_cell_volume 1201.259533
_symmetry_space_group_name_H-M "P 2/M"
_symmetry_group_IT_number 10
_symmetry_cell_setting 'monoclinic'
loop_
_space_group_symop_operation_xyz
x,y,z
-x,y,-z
-x,-y,-z
x,-y,z
loop_
_atom_site_type_symbol
_atom_site_label
_atom_site_fract_x
_atom_site_fract_y
_atom_site_fract_z
Si Si1 0.688013 0.321570 0.339782
Si Si2 0.310717 0.816624 0.992886
Si Si3 0.342307 0.182972 0.836315
Si Si4 0.335312 0.822195 0.328240
Si Si5 0.363680 0.182223 0.177229
Si Si6 0.677834 0.176716 0.502203
O O1 0.646708 0.500000 0.320083
O O2 0.527214 0.278727 0.343845
O O3 0.548054 0.228322 0.265331
O O4 0.035881 0.283214 0.431946
O O5 0.973679 0.752310 0.904793
O O6 0.311865 0.000000 0.992897
O O7 0.500000 0.752314 0.000000
O O8 0.458838 0.754463 0.074158
O O9 0.476985 0.249967 0.825575
O O10 0.003403 0.240156 0.757421
O O11 0.347357 0.000000 0.836065
O O12 0.458005 0.799425 0.407007
O O13 0.352930 0.000000 0.318151
O O14 0.353855 0.000000 0.172147
O O15 0.500000 0.229171 0.500000
O O16 0.783754 0.000000 0.532693
#
# Coordination Sequence:
#
# PCOD8061972 Si02
#       6
#     4   4   4   4   4   4
#     4  12  25  38  54  79 113 150 187 226 270 322
#     4   9  16  27  50  85 117 142 174 223 279 329
#     4   9  17  31  55  87 113 137 178 230 280 327
#     4  10  20  36  59  83 109 142 181 226 275 328
#     4  10  19  34  57  82 111 146 185 229 274 324
#     4  10  21  39  63  88 111 139 179 225 274 328
#
# _framework density 19.979030000000002
#
# number of rings (size 3 to 8) (size 9 to 14) (size 15 to 20)
#    0.000    2.000    0.000    4.500    0.000   10.333 
#    0.000    2.500    0.000    6.500    0.000    0.000 
#    0.000    0.000    0.000    0.000    0.000    0.000 
#
# Total GULP energy -297685.234358 kJ/mol
# GULP energy per Si atom -12403.551432 kJ/mol
# Density = 1.993356 g / cm^3
# Si number density = 19.979030 Si / 1000 Ang^3
#
#
#
# Elastic Constant Matrix: (Units=GPa)
#
#
# Indices 1 2 3 4 5 6 
#
# 1 122.4704 18.4250 11.1786 0.0000 5.9293 0.0000
# 2 18.4250 18.3649 10.4626 0.0000 6.8892 0.0000
# 3 11.1786 10.4626 83.2903 0.0002 8.3502 0.0000
# 4 0.0000 0.0000 0.0002 3.0727 0.0000 -2.7479
# 5 5.9293 6.8892 8.3502 0.0000 43.2037 0.0000
# 6 0.0000 0.0000 0.0000 -2.7479 0.0000 0.2515
#
#
#
# Elastic Compliance Matrix: (Units=1/GPa)
#
#
# Indices 1 2 3 4 5 6 
#
# 1 0.009620 -0.009686 -0.000099 0.000000 0.000243 0.000000
# 2 -0.009686 0.071309 -0.006782 0.000000 -0.008731 0.000000
# 3 -0.000099 -0.006782 0.013014 0.000000 -0.001420 0.000001
# 4 0.000000 0.000000 0.000000 -0.037098 0.000000 -0.405404
# 5 0.000243 -0.008731 -0.001420 0.000000 0.024779 0.000000
# 6 0.000000 0.000000 0.000001 -0.405404 0.000000 -0.453334
#
#
# Mechanical properties :
#
#
# Convention : Reuss Voigt Hill
#
# Bulk Modulus (GPa) = 16.44526 33.80647 25.12586
# Shear Modulus (GPa) = -15.70816 21.57620 2.93402
#
# Velocity S-wave (km/s) = -2.80703 3.28981 1.21315
# Velocity P-wave (km/s) = 1.50224 5.60252 3.81651
#
# Compressibility (1/GPa) = 0.06080779
#
# Stress axis : x y z
#
# Youngs Moduli (GPa) = 103.95318 14.02350 76.84156
#
# Poissons Ratio (x) = 0.13584 0.00759
# Poissons Ratio (y) = 1.00692 0.52116
# Poissons Ratio (z) = 0.01026 0.09511
#
# Static dielectric constant tensor:
#      x y z
#    x 3.885690 0.000000 0.059780 
#    y 0.000000 3.125730 0.000000 
#    z 0.059780 0.000000 3.777280 
# 
# 
# High freq. dielectric constant tensor:
#      x y z
#    x 1.800200 0.000000 0.000020 
#    y 0.000000 1.722620 0.000000 
#    z 0.000020 0.000000 1.798380 
# 
# From -- ./inp_files/27061.got.cif
#   From: 2010.06.25/outbox.cif.g09.slc.cpg/sg10_14_cif.got.tgz:27061.got - 2010.06.27 22:07:45.
