data_PCOD8061566
_publ_section_title
;
Structure prediction by ZEFSAII (Michael W. Deem and Ramdas Pophale) SiO2 
 PCOD8061566
Probable space group: P 2/M
;
_chemical_formula_sum "Si O2"
_cell_formula_units_Z 28
_cell_length_a 22.648756
_cell_length_b 11.635749
_cell_length_c 13.616719
_cell_angle_alpha 90.000000
_cell_angle_beta 24.106891
_cell_angle_gamma 90.000000
_cell_volume 1465.681817
_symmetry_space_group_name_H-M "P 2/M"
_symmetry_group_IT_number 10
_symmetry_cell_setting 'monoclinic'
loop_
_space_group_symop_operation_xyz
x,y,z
-x,y,-z
-x,-y,-z
x,-y,z
loop_
_atom_site_type_symbol
_atom_site_label
_atom_site_fract_x
_atom_site_fract_y
_atom_site_fract_z
Si Si1 0.144805 0.784291 0.832066
Si Si2 0.294637 0.630967 0.444735
Si Si3 0.123627 0.633451 0.054897
Si Si4 0.619060 0.244979 0.233932
Si Si5 0.815965 0.366536 0.591287
Si Si6 0.689273 0.000000 0.340170
Si Si7 0.347101 0.000000 0.818373
Si Si8 0.594205 0.369882 0.079057
O O1 0.223393 0.697729 0.641378
O O2 0.254290 0.887796 0.689073
O O3 0.101666 0.713567 0.994261
O O4 0.000000 0.833102 0.000000
O O5 0.238070 0.500000 0.536911
O O6 0.248352 0.687683 0.411454
O O7 0.466983 0.637400 0.192630
O O8 0.133234 0.500000 0.007939
O O9 0.987887 0.653279 0.334184
O O10 0.266158 0.666056 0.897854
O O11 0.500000 0.216654 0.500000
O O12 0.696589 0.126805 0.076418
O O13 0.546953 0.301135 0.248143
O O14 0.773683 0.500000 0.654605
O O15 0.736548 0.315744 0.809042
O O16 0.518702 0.000000 0.578733
O O17 0.742057 0.000000 0.148814
O O18 0.622362 0.500000 0.070646
#
# Coordination Sequence:
#
# PCOD8061566 Si02
#       8
#     4   4   4   4   4   2   2   4
#     4  12  22  35  56  86 117 145 185 232 280 333
#     4  10  19  33  56  84 116 149 185 228 277 333
#     4  11  22  35  56  84 118 151 182 228 280 336
#     4  12  22  38  59  84 109 144 187 235 285 334
#     4   9  19  36  54  78 114 156 189 218 271 336
#     4  11  21  38  56  82 108 149 191 226 280 336
#     4  11  20  40  62  75 110 148 184 230 282 341
#     4  10  21  35  56  84 113 147 189 232 273 329
#
# _framework density 19.103738
#
# number of rings (size 3 to 8) (size 9 to 14) (size 15 to 20)
#    0.000    1.286    4.286    3.214    0.000    5.143 
#    0.000    2.143    0.000    3.429    0.000    3.000 
#    0.000    0.000    0.000    0.000    0.000    0.000 
#
# Total GULP energy -346877.163806 kJ/mol
# GULP energy per Si atom -12388.470136 kJ/mol
# Density = 1.906026 g / cm^3
# Si number density = 19.103738 Si / 1000 Ang^3
#
#
#
# Elastic Constant Matrix: (Units=GPa)
#
#
# Indices 1 2 3 4 5 6 
#
# 1 88.5119 26.7898 15.2577 0.0000 -7.6228 0.0000
# 2 26.7898 76.4980 16.5184 0.0000 5.9149 0.0000
# 3 15.2577 16.5184 72.1903 0.0000 5.9159 0.0000
# 4 0.0000 0.0000 0.0000 2.8112 0.0000 -11.7034
# 5 -7.6228 5.9149 5.9159 0.0000 26.8800 0.0000
# 6 0.0000 0.0000 0.0000 -11.7034 0.0000 19.2902
#
#
#
# Elastic Compliance Matrix: (Units=1/GPa)
#
#
# Indices 1 2 3 4 5 6 
#
# 1 0.013563 -0.004682 -0.002235 0.000000 0.005368 0.000000
# 2 -0.004682 0.015519 -0.002213 0.000000 -0.004256 0.000000
# 3 -0.002235 -0.002213 0.015116 0.000000 -0.003474 0.000000
# 4 0.000000 0.000000 0.000000 -0.233137 0.000000 -0.141445
# 5 0.005368 -0.004256 -0.003474 0.000000 0.040426 0.000000
# 6 0.000000 0.000000 0.000000 -0.141445 0.000000 -0.033975
#
#
# Mechanical properties :
#
#
# Convention : Reuss Voigt Hill
#
# Bulk Modulus (GPa) = 38.55448 39.37023 38.96235
# Shear Modulus (GPa) = -32.13690 21.70522 -5.21584
#
# Velocity S-wave (km/s) = -4.10595 3.37438 -1.65415
# Velocity P-wave (km/s) = 1.50099 5.98626 4.09770
#
# Compressibility (1/GPa) = 0.02593733
#
# Stress axis : x y z
#
# Youngs Moduli (GPa) = 73.73181 64.43808 66.15666
#
# Poissons Ratio (x) = 0.30171 0.14787
# Poissons Ratio (y) = 0.34522 0.14638
# Poissons Ratio (z) = 0.16480 0.14258
#
# Static dielectric constant tensor:
#      x y z
#    x 3.694440 0.000000 -0.075840 
#    y 0.000000 3.474000 0.000000 
#    z -0.075840 0.000000 3.455000 
# 
# 
# High freq. dielectric constant tensor:
#      x y z
#    x 1.755900 0.000000 -0.012690 
#    y 0.000000 1.725380 0.000000 
#    z -0.012690 0.000000 1.724100 
# 
# From -- ./inp_files/55818.got.cif
#   From: 2010.06.25/outbox.cif.g09.slc.cpg/sg10_28_cif.got.tgz:55818.got - 2010.06.27 22:07:45.
