data_PCOD8061797
_publ_section_title
;
Structure prediction by ZEFSAII (Michael W. Deem and Ramdas Pophale) SiO2 
 PCOD8061797
Probable space group: P 2/M
;
_chemical_formula_sum "Si O2"
_cell_formula_units_Z 28
_cell_length_a 10.303611
_cell_length_b 8.884802
_cell_length_c 28.095265
_cell_angle_alpha 90.000000
_cell_angle_beta 145.336623
_cell_angle_gamma 90.000000
_cell_volume 1462.832929
_symmetry_space_group_name_H-M "P 2/M"
_symmetry_group_IT_number 10
_symmetry_cell_setting 'monoclinic'
loop_
_space_group_symop_operation_xyz
x,y,z
-x,y,-z
-x,-y,-z
x,-y,z
loop_
_atom_site_type_symbol
_atom_site_label
_atom_site_fract_x
_atom_site_fract_y
_atom_site_fract_z
Si Si1 0.125177 0.676989 0.491587
Si Si2 0.498018 0.321384 0.053058
Si Si3 0.612862 0.677348 0.672101
Si Si4 0.395173 0.176613 0.227942
Si Si5 0.067276 0.678822 0.758350
Si Si6 0.170948 0.320731 0.684515
Si Si7 0.940529 0.175276 0.035359
O O1 0.084582 0.500000 0.479960
O O2 0.393242 0.715801 0.573372
O O3 0.000000 0.748119 0.500000
O O4 0.010189 0.741518 0.408973
O O5 0.498916 0.500000 0.053007
O O6 0.722059 0.258263 0.147226
O O7 0.500000 0.257317 0.000000
O O8 0.276557 0.268228 0.013872
O O9 0.628906 0.500000 0.687531
O O10 0.587331 0.761408 0.713888
O O11 0.832802 0.739230 0.710484
O O12 0.580476 0.254687 0.250314
O O13 0.148262 0.216686 0.132632
O O14 0.441022 0.000000 0.241724
O O15 0.066121 0.500000 0.758394
O O16 0.087066 0.738473 0.710456
O O17 0.189134 0.500000 0.689116
O O18 0.879676 0.000000 0.019067
O O19 0.000000 0.225599 0.000000
#
# Coordination Sequence:
#
# PCOD8061797 Si02
#       7
#     4   4   4   4   4   4   4
#     4   9  16  29  52  82 106 133 175 214 254 307
#     4  10  20  35  54  78 108 138 175 217 259 314
#     4  10  19  35  57  78 107 140 172 213 260 308
#     4  11  22  35  53  79 105 135 179 219 259 312
#     4   9  19  33  53  82 107 136 176 216 262 310
#     4  10  19  34  55  78 108 139 174 218 260 309
#     4  10  22  38  54  75 104 137 176 220 263 311
#
# _framework density 19.140941999999999
#
# number of rings (size 3 to 8) (size 9 to 14) (size 15 to 20)
#    0.000    2.143    1.429    2.143    0.000    3.429 
#    0.000    5.714    0.000    0.000    0.000    2.000 
#    0.000    0.000    0.000    0.000    0.000    0.000 
#
# Total GULP energy -347243.775562 kJ/mol
# GULP energy per Si atom -12401.563413 kJ/mol
# Density = 1.909738 g / cm^3
# Si number density = 19.140942 Si / 1000 Ang^3
#
#
#
# Elastic Constant Matrix: (Units=GPa)
#
#
# Indices 1 2 3 4 5 6 
#
# 1 130.9340 15.8504 52.8748 0.0000 1.6586 0.0000
# 2 15.8504 19.3223 19.2943 0.0000 0.5438 0.0000
# 3 52.8748 19.2943 129.9711 0.0000 -0.5604 0.0000
# 4 0.0000 0.0000 0.0000 2.0465 0.0000 -2.9772
# 5 1.6586 0.5438 -0.5604 0.0000 39.0396 0.0000
# 6 0.0000 0.0000 0.0000 -2.9772 0.0000 7.4298
#
#
#
# Elastic Compliance Matrix: (Units=1/GPa)
#
#
# Indices 1 2 3 4 5 6 
#
# 1 0.009481 -0.004595 -0.003177 0.000000 -0.000384 0.000000
# 2 -0.004595 0.063024 -0.007490 0.000000 -0.000790 0.000000
# 3 -0.003177 -0.007490 0.010100 0.000000 0.000384 0.000000
# 4 0.000000 0.000000 0.000000 1.171634 0.000000 0.469482
# 5 -0.000384 -0.000790 0.000384 0.000000 0.025648 0.000000
# 6 0.000000 0.000000 0.000000 0.469482 0.000000 0.322719
#
#
# Mechanical properties :
#
#
# Convention : Reuss Voigt Hill
#
# Bulk Modulus (GPa) = 19.20040 50.69627 34.94833
# Shear Modulus (GPa) = 3.02940 22.51702 12.77321
#
# Velocity S-wave (km/s) = 1.25941 3.43356 2.58606
# Velocity P-wave (km/s) = 3.48822 6.50095 5.21680
#
# Compressibility (1/GPa) = 0.05208225
#
# Stress axis : x y z
#
# Youngs Moduli (GPa) = 105.46968 15.86690 99.01008
#
# Poissons Ratio (x) = 0.07290 0.31453
# Poissons Ratio (y) = 0.48460 0.74161
# Poissons Ratio (z) = 0.33505 0.11885
#
# Static dielectric constant tensor:
#      x y z
#    x 3.696990 0.000000 -0.112640 
#    y 0.000000 3.114080 0.000000 
#    z -0.112640 0.000000 4.048150 
# 
# 
# High freq. dielectric constant tensor:
#      x y z
#    x 1.754640 0.000000 -0.000830 
#    y 0.000000 1.702450 0.000000 
#    z -0.000830 0.000000 1.763570 
# 
# From -- ./inp_files/28196.got.cif
#   From: 2010.06.25/outbox.cif.g09.slc.cpg/sg10_15_cif.got.tgz:28196.got - 2010.06.27 22:07:45.
