data_PCOD8061867
_publ_section_title
;
Structure prediction by ZEFSAII (Michael W. Deem and Ramdas Pophale) SiO2 
 PCOD8061867
Probable space group: P 2/M
;
_chemical_formula_sum "Si O2"
_cell_formula_units_Z 32
_cell_length_a 11.359843
_cell_length_b 8.997864
_cell_length_c 20.354536
_cell_angle_alpha 90.000000
_cell_angle_beta 53.193213
_cell_angle_gamma 90.000000
_cell_volume 1665.794078
_symmetry_space_group_name_H-M "P 2/M"
_symmetry_group_IT_number 10
_symmetry_cell_setting 'monoclinic'
loop_
_space_group_symop_operation_xyz
x,y,z
-x,y,-z
-x,-y,-z
x,-y,z
loop_
_atom_site_type_symbol
_atom_site_label
_atom_site_fract_x
_atom_site_fract_y
_atom_site_fract_z
Si Si1 0.942840 0.171859 0.122739
Si Si2 0.897282 0.676607 0.272019
Si Si3 0.854313 0.670674 0.583630
Si Si4 0.173608 0.669711 0.256067
Si Si5 0.772012 0.171243 0.047895
Si Si6 0.491743 0.323375 0.176009
Si Si7 0.607723 0.173914 0.406137
Si Si8 0.442664 0.826337 0.327446
O O1 0.887299 0.274291 0.199953
O O2 0.846252 0.213012 0.092044
O O3 0.920137 0.000000 0.149648
O O4 0.113951 0.203936 0.049030
O O5 0.891013 0.500000 0.279575
O O6 0.762652 0.741356 0.359372
O O7 0.050571 0.743442 0.250233
O O8 0.819556 0.500000 0.576644
O O9 0.881694 0.688204 0.651479
O O10 0.721727 0.772029 0.602916
O O11 0.000000 0.729656 0.500000
O O12 0.185140 0.500000 0.230937
O O13 0.338853 0.737825 0.195049
O O14 0.627240 0.271327 0.085434
O O15 0.724693 0.000000 0.063433
O O16 0.486462 0.500000 0.184014
O O17 0.512526 0.257893 0.241995
O O18 0.500000 0.230896 0.500000
O O19 0.538659 0.211443 0.358782
O O20 0.638002 0.000000 0.404579
O O21 0.442053 0.000000 0.311869
#
# Coordination Sequence:
#
# PCOD8061867 Si02
#       8
#     4   4   4   4   4   4   4   4
#     4   9  19  36  56  80 111 146 174 210 268 320
#     4  11  22  36  56  79 107 140 179 221 261 316
#     4   9  18  33  55  76  99 133 173 220 269 311
#     4   8  18  35  50  73 106 140 174 214 267 318
#     4   9  18  34  57  82 109 139 177 219 261 313
#     4  10  19  34  56  79 107 140 175 219 269 314
#     4  10  23  40  54  73 106 144 176 214 268 321
#     4  10  20  34  52  75 104 135 173 218 261 313
#
# _framework density 19.210058
#
# number of rings (size 3 to 8) (size 9 to 14) (size 15 to 20)
#    0.000    2.500    0.000    3.375    1.750    5.500 
#    0.000    8.125    0.000    3.750    0.000    0.000 
#    0.000    0.000    0.000    0.000    0.000    0.000 
#
# Total GULP energy -396757.617849 kJ/mol
# GULP energy per Si atom -12398.675558 kJ/mol
# Density = 1.916634 g / cm^3
# Si number density = 19.210058 Si / 1000 Ang^3
#
#
#
# Elastic Constant Matrix: (Units=GPa)
#
#
# Indices 1 2 3 4 5 6 
#
# 1 84.0302 32.9615 34.3971 0.0000 -14.9298 0.0000
# 2 32.9615 54.4211 29.8886 0.0000 -6.0738 0.0000
# 3 34.3971 29.8886 95.7294 0.0000 -25.4054 0.0000
# 4 0.0000 0.0000 0.0000 28.3662 0.0000 -11.4097
# 5 -14.9298 -6.0738 -25.4054 0.0000 28.1452 0.0000
# 6 0.0000 0.0000 0.0000 -11.4097 0.0000 21.6918
#
#
#
# Elastic Compliance Matrix: (Units=1/GPa)
#
#
# Indices 1 2 3 4 5 6 
#
# 1 0.017064 -0.008631 -0.002010 0.000000 0.005375 0.000000
# 2 -0.008631 0.026624 -0.006445 0.000000 -0.004651 0.000000
# 3 -0.002010 -0.006445 0.016475 0.000000 0.012414 0.000000
# 4 0.000000 0.000000 0.000000 0.044713 0.000000 0.023519
# 5 0.005375 -0.004651 0.012414 0.000000 0.048583 0.000000
# 6 0.000000 0.000000 0.000000 0.023519 0.000000 0.058471
#
#
# Mechanical properties :
#
#
# Convention : Reuss Voigt Hill
#
# Bulk Modulus (GPa) = 38.47740 47.63059 43.05399
# Shear Modulus (GPa) = 19.62573 24.76952 22.19763
#
# Velocity S-wave (km/s) = 3.19978 3.59472 3.40298
# Velocity P-wave (km/s) = 5.80730 6.48674 6.15640
#
# Compressibility (1/GPa) = 0.02598928
#
# Stress axis : x y z
#
# Youngs Moduli (GPa) = 58.60311 37.56028 60.69653
#
# Poissons Ratio (x) = 0.32420 0.12201
# Poissons Ratio (y) = 0.50583 0.39122
# Poissons Ratio (z) = 0.11780 0.24209
#
# Static dielectric constant tensor:
#      x y z
#    x 3.656490 0.000000 -0.259810 
#    y 0.000000 3.312270 0.000000 
#    z -0.259810 0.000000 3.558900 
# 
# 
# High freq. dielectric constant tensor:
#      x y z
#    x 1.745060 0.000000 -0.018960 
#    y 0.000000 1.730120 0.000000 
#    z -0.018960 0.000000 1.749270 
# 
# From -- ./inp_files/83552.got.cif
#   From: 2010.06.25/outbox.cif.g09.slc.cpg/sg10_42_cif.got.tgz:83552.got - 2010.06.27 22:07:45.
