data_PCOD8061315
_publ_section_title
;
Structure prediction by ZEFSAII (Michael W. Deem and Ramdas Pophale) SiO2 
 PCOD8061315
Probable space group: P 2/M
;
_chemical_formula_sum "Si O2"
_cell_formula_units_Z 20
_cell_length_a 17.978043
_cell_length_b 12.891193
_cell_length_c 12.656564
_cell_angle_alpha 90.000000
_cell_angle_beta 19.764697
_cell_angle_gamma 90.000000
_cell_volume 991.907506
_symmetry_space_group_name_H-M "P 2/M"
_symmetry_group_IT_number 10
_symmetry_cell_setting 'monoclinic'
loop_
_space_group_symop_operation_xyz
x,y,z
-x,y,-z
-x,-y,-z
x,-y,z
loop_
_atom_site_type_symbol
_atom_site_label
_atom_site_fract_x
_atom_site_fract_y
_atom_site_fract_z
Si Si1 0.502263 0.621104 0.753645
Si Si2 0.829008 0.317683 0.641964
Si Si3 0.755534 0.115301 0.631807
Si Si4 0.909657 0.763039 0.227990
Si Si5 0.137521 0.615964 0.067715
O O1 0.552119 0.500000 0.685898
O O2 0.726044 0.681487 0.436284
O O3 0.411400 0.654788 0.991679
O O4 0.330207 0.650821 0.890546
O O5 0.862074 0.195648 0.571765
O O6 0.000000 0.354504 0.500000
O O7 0.896330 0.382586 0.447654
O O8 0.807233 0.150530 0.442445
O O9 0.854752 0.000000 0.515407
O O10 0.500000 0.114609 0.000000
O O11 0.116609 0.699821 0.002188
O O12 0.000000 0.817273 0.000000
O O13 0.182304 0.500000 0.963854
#
# Coordination Sequence:
#
# PCOD8061315 Si02
#       5
#     4   4   4   4   4
#     4  10  19  33  54  80 114 149 178 215 263 311
#     4   9  17  32  54  83 110 138 174 224 273 319
#     4  10  20  37  59  80 102 133 180 230 276 323
#     4  11  23  37  54  79 111 146 182 219 267 319
#     4   9  19  33  52  81 112 144 183 220 257 315
#
# _framework density 20.163170000000001
#
# number of rings (size 3 to 8) (size 9 to 14) (size 15 to 20)
#    0.000    2.200    2.000    1.200    0.000    5.600 
#    0.000    5.000    0.000    0.000    0.000    5.600 
#    0.000    0.000    0.000    0.000    0.000    0.000 
#
# Total GULP energy -247848.449158 kJ/mol
# GULP energy per Si atom -12392.422458 kJ/mol
# Density = 2.011728 g / cm^3
# Si number density = 20.163170 Si / 1000 Ang^3
#
#
#
# Elastic Constant Matrix: (Units=GPa)
#
#
# Indices 1 2 3 4 5 6 
#
# 1 43.9733 5.9477 15.2881 0.0000 10.6643 0.0000
# 2 5.9477 83.1517 9.6131 0.0000 0.4306 0.0000
# 3 15.2881 9.6131 57.0754 0.0000 14.0731 0.0000
# 4 0.0000 0.0000 0.0000 5.5676 0.0000 0.6580
# 5 10.6643 0.4306 14.0731 0.0000 32.0845 0.0000
# 6 0.0000 0.0000 0.0000 0.6580 0.0000 19.2546
#
#
#
# Elastic Compliance Matrix: (Units=1/GPa)
#
#
# Indices 1 2 3 4 5 6 
#
# 1 0.026291 -0.001240 -0.005251 0.000000 -0.006419 0.000000
# 2 -0.001240 0.012343 -0.002027 0.000000 0.001136 0.000000
# 3 -0.005251 -0.002027 0.021115 0.000000 -0.007489 0.000000
# 4 0.000000 0.000000 0.000000 0.180338 0.000000 -0.006162
# 5 -0.006419 0.001136 -0.007489 0.000000 0.036571 0.000000
# 6 0.000000 0.000000 0.000000 -0.006162 0.000000 0.052146
#
#
# Mechanical properties :
#
#
# Convention : Reuss Voigt Hill
#
# Bulk Modulus (GPa) = 23.41147 27.32202 25.36674
# Shear Modulus (GPa) = 13.88590 21.60478 17.74534
#
# Velocity S-wave (km/s) = 2.62711 3.27692 2.96984
# Velocity P-wave (km/s) = 4.56492 5.28181 4.93640
#
# Compressibility (1/GPa) = 0.04271410
#
# Stress axis : x y z
#
# Youngs Moduli (GPa) = 38.03589 81.01521 47.35951
#
# Poissons Ratio (x) = 0.10048 0.24867
# Poissons Ratio (y) = 0.04718 0.09599
# Poissons Ratio (z) = 0.19971 0.16420
#
# Static dielectric constant tensor:
#      x y z
#    x 3.721970 0.000000 0.163880 
#    y 0.000000 3.640890 0.000000 
#    z 0.163880 0.000000 3.632750 
# 
# 
# High freq. dielectric constant tensor:
#      x y z
#    x 1.784470 0.000000 0.008620 
#    y 0.000000 1.763870 0.000000 
#    z 0.008620 0.000000 1.781590 
# 
# From -- ./inp_files/18520.got.cif
#   From: 2010.06.25/outbox.cif.g09.slc.cpg/sg10_10_cif.got.tgz:18520.got - 2010.06.27 22:07:45.
