data_PCOD8061285
_publ_section_title
;
Structure prediction by ZEFSAII (Michael W. Deem and Ramdas Pophale) SiO2 
 PCOD8061285
Probable space group: P 2/M
;
_chemical_formula_sum "Si O2"
_cell_formula_units_Z 28
_cell_length_a 8.723922
_cell_length_b 9.146440
_cell_length_c 23.870049
_cell_angle_alpha 90.000000
_cell_angle_beta 47.729491
_cell_angle_gamma 90.000000
_cell_volume 1409.404436
_symmetry_space_group_name_H-M "P 2/M"
_symmetry_group_IT_number 10
_symmetry_cell_setting 'monoclinic'
loop_
_space_group_symop_operation_xyz
x,y,z
-x,y,-z
-x,-y,-z
x,-y,z
loop_
_atom_site_type_symbol
_atom_site_label
_atom_site_fract_x
_atom_site_fract_y
_atom_site_fract_z
Si Si1 0.467231 0.663894 0.097641
Si Si2 0.921941 0.167401 0.619756
Si Si3 0.169143 0.665673 0.064947
Si Si4 0.858929 0.830846 0.762158
Si Si5 0.387792 0.831781 0.471173
Si Si6 0.548979 0.673546 0.656455
Si Si7 0.152195 0.172625 0.790829
O O1 0.485986 0.500000 0.115974
O O2 0.318432 0.670693 0.081195
O O3 0.366228 0.758592 0.172030
O O4 0.696832 0.718666 0.022207
O O5 0.939839 0.208910 0.680690
O O6 0.768780 0.277353 0.626789
O O7 0.142889 0.188177 0.536761
O O8 0.844871 0.000000 0.631408
O O9 0.088645 0.500000 0.075543
O O10 0.976285 0.773709 0.123036
O O11 0.032676 0.778666 0.763550
O O12 0.819799 0.000000 0.779970
O O13 0.500000 0.780946 0.500000
O O14 0.474804 0.729848 0.400999
O O15 0.445479 0.000000 0.443205
O O16 0.530323 0.500000 0.662578
O O17 0.370966 0.745326 0.738217
O O18 0.187440 0.000000 0.785909
#
# Coordination Sequence:
#
# PCOD8061285 Si02
#       7
#     4   4   4   4   4   4   4
#     4   8  14  25  44  71 106 143 174 211 264 320
#     4  10  21  38  58  79 107 143 178 215 261 312
#     4   8  14  26  44  71 106 141 176 215 263 316
#     4   9  18  32  53  80 106 135 178 226 266 311
#     4  10  21  40  65  87 108 137 174 215 261 313
#     4  12  25  38  54  79 111 144 178 217 262 314
#     4  10  19  33  54  79 106 139 181 225 269 316
#
# _framework density 19.866548000000002
#
# number of rings (size 3 to 8) (size 9 to 14) (size 15 to 20)
#    0.000    2.429    0.000    3.857    0.000    6.571 
#    0.000    4.286    0.000    0.857    0.000    6.000 
#    0.000    0.000    0.000    0.000    0.000    0.000 
#
# Total GULP energy -347167.850829 kJ/mol
# GULP energy per Si atom -12398.851815 kJ/mol
# Density = 1.982133 g / cm^3
# Si number density = 19.866548 Si / 1000 Ang^3
#
#
#
# Elastic Constant Matrix: (Units=GPa)
#
#
# Indices 1 2 3 4 5 6 
#
# 1 38.0608 19.1618 -2.0385 0.0000 -16.5101 0.0000
# 2 19.1618 87.0138 37.6799 0.0000 -13.2989 0.0000
# 3 -2.0385 37.6799 88.3792 0.0000 -18.2065 0.0000
# 4 0.0000 0.0000 0.0000 37.1934 0.0000 -0.3657
# 5 -16.5101 -13.2989 -18.2065 0.0000 20.7303 0.0000
# 6 0.0000 0.0000 0.0000 -0.3657 0.0000 16.5795
#
#
#
# Elastic Compliance Matrix: (Units=1/GPa)
#
#
# Indices 1 2 3 4 5 6 
#
# 1 0.055285 -0.011602 0.016798 0.000000 0.051340 0.000000
# 2 -0.011602 0.016897 -0.008720 0.000000 -0.006058 0.000000
# 3 0.016798 -0.008720 0.020784 0.000000 0.026038 0.000000
# 4 0.000000 0.000000 0.000000 0.026892 0.000000 0.000593
# 5 0.051340 -0.006058 0.026038 0.000000 0.108109 0.000000
# 6 0.000000 0.000000 0.000000 0.000593 0.000000 0.060329
#
#
# Mechanical properties :
#
#
# Convention : Reuss Voigt Hill
#
# Bulk Modulus (GPa) = 11.63895 35.89558 23.76726
# Shear Modulus (GPa) = 15.43293 25.47734 20.45513
#
# Velocity S-wave (km/s) = 2.79019 3.58498 3.21226
# Velocity P-wave (km/s) = 4.03131 5.93664 5.07421
#
# Compressibility (1/GPa) = 0.08591842
#
# Stress axis : x y z
#
# Youngs Moduli (GPa) = 18.08813 59.18085 48.11442
#
# Poissons Ratio (x) = 0.68661 -0.80822
# Poissons Ratio (y) = 0.20986 0.41954
# Poissons Ratio (z) = -0.30384 0.51604
#
# Static dielectric constant tensor:
#      x y z
#    x 3.329400 0.000000 -0.037640 
#    y 0.000000 3.541080 0.000000 
#    z -0.037640 0.000000 4.035290 
# 
# 
# High freq. dielectric constant tensor:
#      x y z
#    x 1.741550 0.000000 -0.005570 
#    y 0.000000 1.760680 0.000000 
#    z -0.005570 0.000000 1.793930 
# 
# From -- ./inp_files/85597.got.cif
#   From: 2010.06.25/outbox.cif.g09.slc.cpg/sg10_43_cif.got.tgz:85597.got - 2010.06.27 22:07:45.
