data_PCOD8061778
_publ_section_title
;
Structure prediction by ZEFSAII (Michael W. Deem and Ramdas Pophale) SiO2 
 PCOD8061778
Probable space group: P 2/M
;
_chemical_formula_sum "Si O2"
_cell_formula_units_Z 28
_cell_length_a 19.523219
_cell_length_b 8.832828
_cell_length_c 15.324667
_cell_angle_alpha 90.000000
_cell_angle_beta 143.534491
_cell_angle_gamma 90.000000
_cell_volume 1570.638752
_symmetry_space_group_name_H-M "P 2/M"
_symmetry_group_IT_number 10
_symmetry_cell_setting 'monoclinic'
loop_
_space_group_symop_operation_xyz
x,y,z
-x,y,-z
-x,-y,-z
x,-y,z
loop_
_atom_site_type_symbol
_atom_site_label
_atom_site_fract_x
_atom_site_fract_y
_atom_site_fract_z
Si Si1 0.854429 0.177680 0.022979
Si Si2 0.100983 0.678717 0.293503
Si Si3 0.863296 0.333236 0.857934
Si Si4 0.248771 0.323697 0.610453
Si Si5 0.496303 0.676625 0.093140
Si Si6 0.265510 0.679547 0.943279
Si Si7 0.868683 0.177039 0.347214
O O1 0.758673 0.249703 0.987251
O O2 0.979900 0.237256 0.178729
O O3 0.853469 0.000000 0.032921
O O4 0.819570 0.219574 0.887771
O O5 0.075477 0.500000 0.267633
O O6 0.167501 0.723975 0.271612
O O7 0.182518 0.729110 0.456077
O O8 0.810190 0.500000 0.821239
O O9 0.000000 0.344002 0.000000
O O10 0.226544 0.500000 0.608798
O O11 0.384291 0.292258 0.734154
O O12 0.208104 0.224802 0.649692
O O13 0.471563 0.500000 0.056622
O O14 0.500000 0.750187 0.000000
O O15 0.389756 0.743796 0.039122
O O16 0.262886 0.500000 0.949000
O O17 0.167767 0.731072 0.775523
O O18 0.000000 0.220420 0.500000
O O19 0.852603 0.000000 0.312820
#
# Coordination Sequence:
#
# PCOD8061778 Si02
#       7
#     4   4   4   4   4   4   4
#     4  11  21  32  49  76 108 136 167 206 251 304
#     4   9  18  32  53  79 105 134 168 206 249 302
#     4   8  15  30  50  74 103 133 168 206 246 297
#     4  10  19  34  55  76  99 130 169 208 251 300
#     4   9  17  33  55  77  96 123 170 219 253 289
#     4  11  21  35  55  73  97 133 171 211 253 297
#     4  11  23  35  47  71 106 136 163 202 250 299
#
# _framework density 17.827141999999998
#
# number of rings (size 3 to 8) (size 9 to 14) (size 15 to 20)
#    0.000    2.143    1.429    3.857    0.000    6.571 
#    0.000    2.143    0.000    0.857    0.000    6.000 
#    0.000    0.000    0.000    0.000    0.000    0.000 
#
# Total GULP energy -347169.737249 kJ/mol
# GULP energy per Si atom -12398.919187 kJ/mol
# Density = 1.778657 g / cm^3
# Si number density = 17.827142 Si / 1000 Ang^3
#
#
#
# Elastic Constant Matrix: (Units=GPa)
#
#
# Indices 1 2 3 4 5 6 
#
# 1 131.7545 41.7038 32.0117 0.0000 -2.8379 0.0000
# 2 41.7038 65.1874 14.1746 0.0000 2.5001 0.0000
# 3 32.0117 14.1746 33.3829 0.0000 1.8319 0.0000
# 4 0.0000 0.0000 0.0000 11.0630 0.0000 -4.0834
# 5 -2.8379 2.5001 1.8319 0.0000 30.8892 0.0000
# 6 0.0000 0.0000 0.0000 -4.0834 0.0000 11.2208
#
#
#
# Elastic Compliance Matrix: (Units=1/GPa)
#
#
# Indices 1 2 3 4 5 6 
#
# 1 0.011528 -0.005536 -0.008815 0.000000 0.002030 0.000000
# 2 -0.005536 0.019587 -0.002903 0.000000 -0.001922 0.000000
# 3 -0.008815 -0.002903 0.039802 0.000000 -0.002935 0.000000
# 4 0.000000 0.000000 0.000000 0.104416 0.000000 0.037998
# 5 0.002030 -0.001922 -0.002935 0.000000 0.032890 0.000000
# 6 0.000000 0.000000 0.000000 0.037998 0.000000 0.102948
#
#
# Mechanical properties :
#
#
# Convention : Reuss Voigt Hill
#
# Bulk Modulus (GPa) = 27.46551 45.12276 36.29414
# Shear Modulus (GPa) = 13.97374 20.13026 17.05200
#
# Velocity S-wave (km/s) = 2.80276 3.36399 3.09612
# Velocity P-wave (km/s) = 5.09058 6.36041 5.76059
#
# Compressibility (1/GPa) = 0.03640930
#
# Stress axis : x y z
#
# Youngs Moduli (GPa) = 86.74864 51.05461 25.12444
#
# Poissons Ratio (x) = 0.28263 0.22147
# Poissons Ratio (y) = 0.48023 0.07293
# Poissons Ratio (z) = 0.76468 0.14820
#
# Static dielectric constant tensor:
#      x y z
#    x 3.570710 0.000000 -0.232340 
#    y 0.000000 3.137480 0.000000 
#    z -0.232340 0.000000 3.373970 
# 
# 
# High freq. dielectric constant tensor:
#      x y z
#    x 1.693130 0.000000 -0.014380 
#    y 0.000000 1.674870 0.000000 
#    z -0.014380 0.000000 1.671680 
# 
# From -- ./inp_files/54975.got.cif
#   From: 2010.06.25/outbox.cif.g09.slc.cpg/sg10_28_cif.got.tgz:54975.got - 2010.06.27 22:07:45.
