data_PCOD8061855
_publ_section_title
;
Structure prediction by ZEFSAII (Michael W. Deem and Ramdas Pophale) SiO2 
 PCOD8061855
Probable space group: P 2/M
;
_chemical_formula_sum "Si O2"
_cell_formula_units_Z 20
_cell_length_a 8.868905
_cell_length_b 11.491162
_cell_length_c 10.196462
_cell_angle_alpha 90.000000
_cell_angle_beta 93.854296
_cell_angle_gamma 90.000000
_cell_volume 1036.812113
_symmetry_space_group_name_H-M "P 2/M"
_symmetry_group_IT_number 10
_symmetry_cell_setting 'monoclinic'
loop_
_space_group_symop_operation_xyz
x,y,z
-x,y,-z
-x,-y,-z
x,-y,z
loop_
_atom_site_type_symbol
_atom_site_label
_atom_site_fract_x
_atom_site_fract_y
_atom_site_fract_z
Si Si1 0.668069 0.636365 0.979262
Si Si2 0.199198 0.753043 0.257912
Si Si3 0.167408 0.000000 0.859171
Si Si4 0.179537 0.368321 0.518225
Si Si5 0.841403 0.751207 0.220078
Si Si6 0.189845 0.000000 0.154323
O O1 0.680141 0.500000 0.000059
O O2 0.711781 0.668848 0.834431
O O3 0.500000 0.681695 0.000000
O O4 0.786402 0.695311 0.082845
O O5 0.246400 0.712244 0.406441
O O6 0.249078 0.886558 0.235682
O O7 0.021001 0.738502 0.228145
O O8 0.213008 0.885675 0.779504
O O9 0.988911 0.000000 0.865897
O O10 0.248848 0.000000 0.006976
O O11 0.242737 0.500000 0.511003
O O12 0.231724 0.313235 0.659331
O O13 0.000000 0.369346 0.500000
#
# Coordination Sequence:
#
# PCOD8061855 Si02
#       6
#     4   4   2   4   4   2
#     4  11  23  36  51  76 106 137 180 223 260 311
#     4  10  19  34  56  78 106 140 173 216 264 310
#     4   9  16  29  51  81 108 132 173 218 257 309
#     4   9  18  31  50  80 109 135 176 219 256 308
#     4  10  19  34  56  78 106 140 173 216 264 310
#     4   9  16  29  51  81 108 132 173 218 257 309
#
# _framework density 19.289897
#
# number of rings (size 3 to 8) (size 9 to 14) (size 15 to 20)
#    0.000    2.200    2.000    1.800    0.000    4.000 
#    0.000    7.000    0.000    3.600    0.000    2.800 
#    0.000    0.000    0.000    0.000    0.000    0.000 
#
# Total GULP energy -247990.716446 kJ/mol
# GULP energy per Si atom -12399.535822 kJ/mol
# Density = 1.924599 g / cm^3
# Si number density = 19.289897 Si / 1000 Ang^3
#
#
#
# Elastic Constant Matrix: (Units=GPa)
#
#
# Indices 1 2 3 4 5 6 
#
# 1 27.6314 14.9831 11.9523 0.0000 -9.3392 0.0000
# 2 14.9831 127.9000 43.9468 0.0000 -4.6805 0.0000
# 3 11.9523 43.9468 105.5730 0.0000 -16.7619 0.0000
# 4 0.0000 0.0000 0.0000 40.6376 0.0000 -2.9942
# 5 -9.3392 -4.6805 -16.7619 0.0000 10.5792 0.0000
# 6 0.0000 0.0000 0.0000 -2.9942 0.0000 11.3373
#
#
#
# Elastic Compliance Matrix: (Units=1/GPa)
#
#
# Indices 1 2 3 4 5 6 
#
# 1 0.055786 -0.006230 0.004889 0.000000 0.054237 0.000000
# 2 -0.006230 0.009875 -0.004790 0.000000 -0.008720 0.000000
# 3 0.004889 -0.004790 0.015046 0.000000 0.026036 0.000000
# 4 0.000000 0.000000 0.000000 0.025096 0.000000 0.006628
# 5 0.054237 -0.008720 0.026036 0.000000 0.179800 0.000000
# 6 0.000000 0.000000 0.000000 0.006628 0.000000 0.089955
#
#
# Mechanical properties :
#
#
# Convention : Reuss Voigt Hill
#
# Bulk Modulus (GPa) = 14.61023 44.76320 29.68672
# Shear Modulus (GPa) = 12.17624 25.19229 18.68427
#
# Velocity S-wave (km/s) = 2.51514 3.61776 3.11562
# Velocity P-wave (km/s) = 4.00313 6.38019 5.32597
#
# Compressibility (1/GPa) = 0.06844517
#
# Stress axis : x y z
#
# Youngs Moduli (GPa) = 17.92564 101.26421 66.46143
#
# Poissons Ratio (x) = 0.63090 -0.32493
# Poissons Ratio (y) = 0.11168 0.31834
# Poissons Ratio (z) = -0.08764 0.48504
#
# Static dielectric constant tensor:
#      x y z
#    x 3.086750 0.000000 -0.094440 
#    y 0.000000 3.888590 0.000000 
#    z -0.094440 0.000000 3.644320 
# 
# 
# High freq. dielectric constant tensor:
#      x y z
#    x 1.698480 0.000000 -0.005930 
#    y 0.000000 1.767380 0.000000 
#    z -0.005930 0.000000 1.754550 
# 
# From -- ./inp_files/17880.got.cif
#   From: 2010.06.25/outbox.cif.g09.slc.cpg/sg10_9_cif.got.tgz:17880.got - 2010.06.27 22:07:45.
