data_PCOD8061422
_publ_section_title
;
Structure prediction by ZEFSAII (Michael W. Deem and Ramdas Pophale) SiO2 
 PCOD8061422
Probable space group: P 2/M
;
_chemical_formula_sum "Si O2"
_cell_formula_units_Z 28
_cell_length_a 13.511622
_cell_length_b 9.432637
_cell_length_c 11.691498
_cell_angle_alpha 90.000000
_cell_angle_beta 72.370405
_cell_angle_gamma 90.000000
_cell_volume 1420.101303
_symmetry_space_group_name_H-M "P 2/M"
_symmetry_group_IT_number 10
_symmetry_cell_setting 'monoclinic'
loop_
_space_group_symop_operation_xyz
x,y,z
-x,y,-z
-x,-y,-z
x,-y,z
loop_
_atom_site_type_symbol
_atom_site_label
_atom_site_fract_x
_atom_site_fract_y
_atom_site_fract_z
Si Si1 0.879258 0.659989 0.240900
Si Si2 0.053002 0.151639 0.102692
Si Si3 0.624740 0.668316 0.676412
Si Si4 0.392631 0.657121 0.069795
Si Si5 0.725169 0.164389 0.444709
Si Si6 0.424183 0.843283 0.705985
Si Si7 0.249567 0.741879 0.926633
O O1 0.886440 0.500000 0.285266
O O2 0.821589 0.760611 0.350029
O O3 0.819745 0.653847 0.139393
O O4 0.996542 0.721079 0.190328
O O5 0.038435 0.000000 0.172155
O O6 0.175296 0.172170 0.038579
O O7 0.000000 0.139938 0.000000
O O8 0.632702 0.500000 0.648370
O O9 0.656291 0.716186 0.794777
O O10 0.704502 0.753312 0.569354
O O11 0.506122 0.718790 0.697767
O O12 0.427234 0.500000 0.094009
O O13 0.500000 0.740601 0.000000
O O14 0.314869 0.645353 0.990622
O O15 0.621912 0.178382 0.404439
O O16 0.753051 0.000000 0.457526
O O17 0.329290 0.840936 0.829743
O O18 0.476002 0.000000 0.696585
#
# Coordination Sequence:
#
# PCOD8061422 Si02
#       7
#     4   4   4   4   4   4   4
#     4  10  20  33  56  87 111 136 178 227 273 325
#     4   9  18  33  53  79 113 146 176 217 275 330
#     4  11  22  35  53  76 105 143 186 225 264 316
#     4  10  20  35  52  75 112 151 182 219 270 315
#     4  10  21  37  55  75 105 142 178 223 279 325
#     4  10  20  34  52  76 107 142 180 224 272 320
#     4  10  19  33  55  80 112 147 184 220 264 320
#
# _framework density 19.716902999999999
#
# number of rings (size 3 to 8) (size 9 to 14) (size 15 to 20)
#    0.000    2.000    1.429    2.571    0.000   11.143 
#    0.000    3.571    0.000    0.857    0.000    5.000 
#    0.000    0.000    0.000    0.000    0.000    0.000 
#
# Total GULP energy -346947.376278 kJ/mol
# GULP energy per Si atom -12390.977724 kJ/mol
# Density = 1.967203 g / cm^3
# Si number density = 19.716903 Si / 1000 Ang^3
#
#
#
# Elastic Constant Matrix: (Units=GPa)
#
#
# Indices 1 2 3 4 5 6 
#
# 1 46.8614 17.5660 30.2319 0.0000 -16.2836 0.0000
# 2 17.5660 131.2177 47.7490 0.0000 -14.0058 0.0000
# 3 30.2319 47.7490 127.4980 0.0000 -8.3571 0.0000
# 4 0.0000 0.0000 0.0000 30.3962 0.0000 -3.9437
# 5 -16.2836 -14.0058 -8.3571 0.0000 28.4539 0.0000
# 6 0.0000 0.0000 0.0000 -3.9437 0.0000 20.1382
#
#
#
# Elastic Compliance Matrix: (Units=1/GPa)
#
#
# Indices 1 2 3 4 5 6 
#
# 1 0.030903 -0.000190 -0.006223 0.000000 0.015764 0.000000
# 2 -0.000190 0.009167 -0.003160 0.000000 0.003476 0.000000
# 3 -0.006223 -0.003160 0.010367 0.000000 -0.002072 0.000000
# 4 0.000000 0.000000 0.000000 0.033757 0.000000 0.006611
# 5 0.015764 0.003476 -0.002072 0.000000 0.045268 0.000000
# 6 0.000000 0.000000 0.000000 0.006611 0.000000 0.050952
#
#
# Mechanical properties :
#
#
# Convention : Reuss Voigt Hill
#
# Bulk Modulus (GPa) = 31.95877 55.18566 43.57222
# Shear Modulus (GPa) = 23.81056 29.79966 26.80511
#
# Velocity S-wave (km/s) = 3.47886 3.89186 3.69114
# Velocity P-wave (km/s) = 5.69039 6.94588 6.34924
#
# Compressibility (1/GPa) = 0.03129032
#
# Stress axis : x y z
#
# Youngs Moduli (GPa) = 32.35895 109.08262 96.46288
#
# Poissons Ratio (x) = 0.02070 0.60032
# Poissons Ratio (y) = 0.00614 0.30487
# Poissons Ratio (z) = 0.20138 0.34475
#
# Static dielectric constant tensor:
#      x y z
#    x 3.493870 0.000000 -0.240240 
#    y 0.000000 3.540820 0.000000 
#    z -0.240240 0.000000 3.725150 
# 
# 
# High freq. dielectric constant tensor:
#      x y z
#    x 1.737170 0.000000 -0.022720 
#    y 0.000000 1.764160 0.000000 
#    z -0.022720 0.000000 1.767160 
# 
# From -- ./inp_files/49200.got.cif
#   From: 2010.06.25/outbox.cif.g09.slc.cpg/sg10_25_cif.got.tgz:49200.got - 2010.06.27 22:07:45.
