data_PCOD8061664
_publ_section_title
;
Structure prediction by ZEFSAII (Michael W. Deem and Ramdas Pophale) SiO2 
 PCOD8061664
Probable space group: P 2/M
;
_chemical_formula_sum "Si O2"
_cell_formula_units_Z 30
_cell_length_a 9.422313
_cell_length_b 13.730496
_cell_length_c 11.611610
_cell_angle_alpha 90.000000
_cell_angle_beta 65.808156
_cell_angle_gamma 90.000000
_cell_volume 1370.301099
_symmetry_space_group_name_H-M "P 2/M"
_symmetry_group_IT_number 10
_symmetry_cell_setting 'monoclinic'
loop_
_space_group_symop_operation_xyz
x,y,z
-x,y,-z
-x,-y,-z
x,-y,z
loop_
_atom_site_type_symbol
_atom_site_label
_atom_site_fract_x
_atom_site_fract_y
_atom_site_fract_z
Si Si1 0.264130 0.109984 0.324144
Si Si2 0.378514 0.112119 0.830385
Si Si3 0.546560 0.613854 0.655488
Si Si4 0.229786 0.276910 0.743152
Si Si5 0.000000 0.737581 0.000000
Si Si6 0.355105 0.605971 0.126961
Si Si7 0.231540 0.804085 0.091077
Si Si8 0.848111 0.280750 0.484456
O O1 0.447531 0.125287 0.272821
O O2 0.209874 0.133921 0.212897
O O3 0.182261 0.177087 0.445778
O O4 0.215399 0.000000 0.368734
O O5 0.270744 0.168923 0.775343
O O6 0.326784 0.000000 0.850247
O O7 0.371728 0.156219 0.963067
O O8 0.525301 0.500000 0.642434
O O9 0.387354 0.663359 0.665890
O O10 0.575927 0.644477 0.776469
O O11 0.699763 0.648558 0.537902
O O12 0.125496 0.267420 0.661589
O O13 0.125163 0.325606 0.882167
O O14 0.922275 0.811648 0.934748
O O15 0.268452 0.500000 0.169510
O O16 0.244371 0.688691 0.114128
O O17 0.500000 0.588093 0.000000
O O18 0.000000 0.326156 0.500000
#
# Coordination Sequence:
#
# PCOD8061664 Si02
#       8
#     4   4   4   4   2   4   4   4
#     4  11  22  38  64  96 129 171 221 275 331 394
#     4  10  21  37  64  99 129 172 225 274 328 389
#     4  11  24  45  72 101 130 173 226 273 331 401
#     4  11  23  44  68  96 133 175 219 276 329 390
#     4  10  24  40  66  94 132 178 218 266 334 388
#     4  10  19  33  62  96 127 164 212 268 325 382
#     4  11  19  38  59  91 135 174 216 272 325 391
#     4  12  26  44  66  97 136 177 219 273 333 396
#
# _framework density 21.892997000000001
#
# number of rings (size 3 to 8) (size 9 to 14) (size 15 to 20)
#    0.000    1.200    2.667    4.400    0.000    3.200 
#    0.000   13.667    0.000    0.000    0.000    0.000 
#    0.000    0.000    0.000    0.000    0.000    0.000 
#
# Total GULP energy -371838.383229 kJ/mol
# GULP energy per Si atom -12394.612774 kJ/mol
# Density = 2.184317 g / cm^3
# Si number density = 21.892997 Si / 1000 Ang^3
#
#
#
# Elastic Constant Matrix: (Units=GPa)
#
#
# Indices 1 2 3 4 5 6 
#
# 1 115.8452 35.0265 49.6028 0.0000 11.5764 0.0000
# 2 35.0265 102.3292 24.3251 0.0000 5.6234 0.0000
# 3 49.6028 24.3251 121.9089 0.0000 19.2597 0.0000
# 4 0.0000 0.0000 0.0000 25.2542 0.0000 3.6220
# 5 11.5764 5.6234 19.2597 0.0000 43.3992 0.0000
# 6 0.0000 0.0000 0.0000 3.6220 0.0000 10.8463
#
#
#
# Elastic Compliance Matrix: (Units=1/GPa)
#
#
# Indices 1 2 3 4 5 6 
#
# 1 0.011246 -0.002883 -0.003856 0.000000 -0.000915 0.000000
# 2 -0.002883 0.011006 -0.000989 0.000000 -0.000218 0.000000
# 3 -0.003856 -0.000989 0.010524 0.000000 -0.003514 0.000000
# 4 0.000000 0.000000 0.000000 0.041589 0.000000 -0.013888
# 5 -0.000915 -0.000218 -0.003514 0.000000 0.024874 0.000000
# 6 0.000000 0.000000 0.000000 -0.013888 0.000000 0.096835
#
#
# Mechanical properties :
#
#
# Convention : Reuss Voigt Hill
#
# Bulk Modulus (GPa) = 57.73107 61.99915 59.86511
# Shear Modulus (GPa) = 23.00927 31.30853 27.15890
#
# Velocity S-wave (km/s) = 3.24541 3.78573 3.52594
# Velocity P-wave (km/s) = 6.36164 6.89127 6.63175
#
# Compressibility (1/GPa) = 0.01732169
#
# Stress axis : x y z
#
# Youngs Moduli (GPa) = 88.91741 90.85867 95.01830
#
# Poissons Ratio (x) = 0.26191 0.36641
# Poissons Ratio (y) = 0.25631 0.09395
# Poissons Ratio (z) = 0.34289 0.08983
#
# Static dielectric constant tensor:
#      x y z
#    x 3.964700 0.000000 0.001170 
#    y 0.000000 4.049150 0.000000 
#    z 0.001170 0.000000 4.190720 
# 
# 
# High freq. dielectric constant tensor:
#      x y z
#    x 1.860030 0.000000 0.006220 
#    y 0.000000 1.843240 0.000000 
#    z 0.006220 0.000000 1.874150 
# 
# From -- ./inp_files/42936.got.cif
#   From: 2010.06.25/outbox.cif.g09.slc.cpg/sg10_22_cif.got.tgz:42936.got - 2010.06.27 22:07:45.
