data_PCOD8061905
_publ_section_title
;
Structure prediction by ZEFSAII (Michael W. Deem and Ramdas Pophale) SiO2 
 PCOD8061905
Probable space group: P 2/M
;
_chemical_formula_sum "Si O2"
_cell_formula_units_Z 30
_cell_length_a 13.055542
_cell_length_b 20.194642
_cell_length_c 10.733731
_cell_angle_alpha 90.000000
_cell_angle_beta 147.580058
_cell_angle_gamma 90.000000
_cell_volume 1517.205102
_symmetry_space_group_name_H-M "P 2/M"
_symmetry_group_IT_number 10
_symmetry_cell_setting 'monoclinic'
loop_
_space_group_symop_operation_xyz
x,y,z
-x,y,-z
-x,-y,-z
x,-y,z
loop_
_atom_site_type_symbol
_atom_site_label
_atom_site_fract_x
_atom_site_fract_y
_atom_site_fract_z
Si Si1 0.415775 0.195192 0.550186
Si Si2 0.894859 0.285708 0.695672
Si Si3 0.000000 0.388149 0.000000
Si Si4 0.323082 0.299439 0.049768
Si Si5 0.635831 0.426762 0.751542
Si Si6 0.778060 0.116607 0.281086
Si Si7 0.510157 0.925734 0.211240
Si Si8 0.214475 0.268727 0.678859
O O1 0.500000 0.200614 0.500000
O O2 0.193961 0.219675 0.330120
O O3 0.432835 0.119934 0.613692
O O4 0.530108 0.244998 0.755241
O O5 0.876435 0.344280 0.776349
O O6 0.768846 0.302259 0.441155
O O7 0.115417 0.274757 0.884348
O O8 0.852020 0.432884 0.923190
O O9 0.342647 0.302308 0.918832
O O10 0.376282 0.372532 0.152535
O O11 0.500000 0.404069 0.500000
O O12 0.577936 0.500000 0.742467
O O13 0.680705 0.071063 0.285444
O O14 0.735524 0.191373 0.280381
O O15 0.000000 0.099602 0.500000
O O16 0.683687 0.102381 0.050148
O O17 0.475717 0.000000 0.225999
O O18 0.000000 0.278055 0.500000
#
# Coordination Sequence:
#
# PCOD8061905 Si02
#       8
#     4   4   2   4   4   4   4   4
#     4  12  23  36  56  78 108 149 191 228 278 326
#     4  10  20  35  55  83 112 137 180 235 276 322
#     4  10  19  34  56  82 111 146 186 226 273 316
#     4  10  20  36  57  84 110 141 184 234 280 325
#     4  10  20  35  55  81 114 150 187 224 270 329
#     4  10  19  38  60  82 111 142 179 230 283 335
#     4  11  24  37  54  83 113 144 187 230 278 336
#     4   9  17  31  57  84 108 136 176 227 284 322
#
# _framework density 19.773199999999999
#
# number of rings (size 3 to 8) (size 9 to 14) (size 15 to 20)
#    0.000    1.733    2.667    3.800    0.000    1.867 
#    0.000    0.000    0.000   10.800    0.000    7.000 
#    0.000    0.000    0.000    0.000    0.000    0.267 
#
# Total GULP energy -371888.943394 kJ/mol
# GULP energy per Si atom -12396.298113 kJ/mol
# Density = 1.972819 g / cm^3
# Si number density = 19.773200 Si / 1000 Ang^3
#
#
#
# Elastic Constant Matrix: (Units=GPa)
#
#
# Indices 1 2 3 4 5 6 
#
# 1 69.6149 36.9002 27.6428 0.0000 -8.3950 0.0000
# 2 36.9002 90.2632 51.5455 0.0000 -22.5307 0.0000
# 3 27.6428 51.5455 91.1263 0.0000 -6.4015 0.0000
# 4 0.0000 0.0000 0.0000 -40.6829 0.0000 59.2972
# 5 -8.3950 -22.5307 -6.4015 0.0000 33.7209 0.0000
# 6 0.0000 0.0000 0.0000 59.2972 0.0000 -42.7054
#
#
#
# Elastic Compliance Matrix: (Units=1/GPa)
#
#
# Indices 1 2 3 4 5 6 
#
# 1 0.018577 -0.006491 -0.001970 0.000000 -0.000086 0.000000
# 2 -0.006491 0.022126 -0.009751 0.000000 0.011316 0.000000
# 3 -0.001970 -0.009751 0.016819 0.000000 -0.003813 0.000000
# 4 0.000000 0.000000 0.000000 0.024008 0.000000 0.033336
# 5 -0.000086 0.011316 -0.003813 0.000000 0.036471 0.000000
# 6 0.000000 0.000000 0.000000 0.033336 0.000000 0.022871
#
#
# Mechanical properties :
#
#
# Convention : Reuss Voigt Hill
#
# Bulk Modulus (GPa) = 47.39849 53.68682 50.54266
# Shear Modulus (GPa) = 27.12539 -0.93911 13.09314
#
# Velocity S-wave (km/s) = 3.70784 -0.68991 2.57605
# Velocity P-wave (km/s) = 6.50798 5.15515 5.87067
#
# Compressibility (1/GPa) = 0.02109772
#
# Stress axis : x y z
#
# Youngs Moduli (GPa) = 53.82941 45.19670 59.45580
#
# Poissons Ratio (x) = 0.29338 0.11711
# Poissons Ratio (y) = 0.34942 0.57977
# Poissons Ratio (z) = 0.10602 0.44072
#
# Static dielectric constant tensor:
#      x y z
#    x 3.794570 0.000000 -0.052250 
#    y 0.000000 3.387840 0.000000 
#    z -0.052250 0.000000 3.932910 
# 
# 
# High freq. dielectric constant tensor:
#      x y z
#    x 1.770300 0.000000 0.009240 
#    y 0.000000 1.745390 0.000000 
#    z 0.009240 0.000000 1.780730 
# 
# From -- ./inp_files/51892.got.cif
#   From: 2010.06.25/outbox.cif.g09.slc.cpg/sg10_26_cif.got.tgz:51892.got - 2010.06.27 22:07:45.
