data_PCOD8061322
_publ_section_title
;
Structure prediction by ZEFSAII (Michael W. Deem and Ramdas Pophale) SiO2 
 PCOD8061322
Probable space group: P 2/M
;
_chemical_formula_sum "Si O2"
_cell_formula_units_Z 28
_cell_length_a 14.082715
_cell_length_b 8.756910
_cell_length_c 17.547545
_cell_angle_alpha 90.000000
_cell_angle_beta 136.316810
_cell_angle_gamma 90.000000
_cell_volume 1494.598023
_symmetry_space_group_name_H-M "P 2/M"
_symmetry_group_IT_number 10
_symmetry_cell_setting 'monoclinic'
loop_
_space_group_symop_operation_xyz
x,y,z
-x,y,-z
-x,-y,-z
x,-y,z
loop_
_atom_site_type_symbol
_atom_site_label
_atom_site_fract_x
_atom_site_fract_y
_atom_site_fract_z
Si Si1 0.581525 0.823207 0.243348
Si Si2 0.653059 0.179535 0.710317
Si Si3 0.635499 0.322428 0.424873
Si Si4 0.353422 0.823725 0.887256
Si Si5 0.868020 0.320356 0.134791
Si Si6 0.294491 0.679829 0.105126
Si Si7 0.820882 0.677752 0.673734
O O1 0.671875 0.764604 0.367200
O O2 0.665127 0.798643 0.214006
O O3 0.442785 0.725366 0.158735
O O4 0.542330 0.000000 0.232329
O O5 0.505237 0.260205 0.620577
O O6 0.736393 0.234495 0.833496
O O7 0.737610 0.222224 0.685074
O O8 0.629856 0.000000 0.700138
O O9 0.615053 0.500000 0.395347
O O10 0.760096 0.293266 0.554758
O O11 0.226488 0.743344 0.853342
O O12 0.348698 0.000000 0.907831
O O13 0.500000 0.754993 0.000000
O O14 0.859378 0.500000 0.136420
O O15 0.023001 0.262624 0.236590
O O16 0.817709 0.267117 0.022069
O O17 0.288646 0.500000 0.116602
O O18 0.810570 0.500000 0.690957
#
# Coordination Sequence:
#
# PCOD8061322 Si02
#       7
#     4   4   4   4   4   4   4
#     4  10  19  33  55  82 111 140 175 223 269 315
#     4  11  22  35  56  83 109 140 181 225 268 319
#     4  10  20  36  59  81 106 142 182 225 269 315
#     4  10  20  35  56  82 112 144 176 216 271 324
#     4  10  22  37  56  81 109 143 183 224 265 318
#     4  10  19  33  54  81 110 140 177 222 270 317
#     4  10  22  40  56  76 109 146 182 223 271 316
#
# _framework density 18.734133
#
# number of rings (size 3 to 8) (size 9 to 14) (size 15 to 20)
#    0.000    1.857    1.429    4.714    0.000    6.000 
#    0.000    3.571    0.000    4.286    0.000    0.000 
#    0.000    0.000    0.000    0.000    0.000    0.000 
#
# Total GULP energy -347250.494999 kJ/mol
# GULP energy per Si atom -12401.803393 kJ/mol
# Density = 1.869149 g / cm^3
# Si number density = 18.734133 Si / 1000 Ang^3
#
#
#
# Elastic Constant Matrix: (Units=GPa)
#
#
# Indices 1 2 3 4 5 6 
#
# 1 47.9784 18.8817 39.7497 0.0000 -12.4477 0.0000
# 2 18.8817 39.0929 27.8842 0.0000 -10.9571 0.0000
# 3 39.7497 27.8842 133.0190 0.0000 -7.1999 0.0000
# 4 0.0000 0.0000 0.0000 -0.5792 0.0000 -20.0282
# 5 -12.4477 -10.9571 -7.1999 0.0000 23.5604 0.0000
# 6 0.0000 0.0000 0.0000 -20.0282 0.0000 24.9967
#
#
#
# Elastic Compliance Matrix: (Units=1/GPa)
#
#
# Indices 1 2 3 4 5 6 
#
# 1 0.033164 -0.007165 -0.007769 0.000000 0.011815 0.000000
# 2 -0.007165 0.035567 -0.004702 0.000000 0.011318 0.000000
# 3 -0.007769 -0.004702 0.010661 0.000000 -0.003033 0.000000
# 4 0.000000 0.000000 0.000000 -0.060145 0.000000 -0.048190
# 5 0.011815 0.011318 -0.003033 0.000000 0.053023 0.000000
# 6 0.000000 0.000000 0.000000 -0.048190 0.000000 0.001394
#
#
# Mechanical properties :
#
#
# Convention : Reuss Voigt Hill
#
# Bulk Modulus (GPa) = 24.92517 43.68014 34.30266
# Shear Modulus (GPa) = 39.58527 18.50056 29.04291
#
# Velocity S-wave (km/s) = 4.60173 3.14591 3.94161
# Velocity P-wave (km/s) = 6.44733 6.04666 6.25021
#
# Compressibility (1/GPa) = 0.04012009
#
# Stress axis : x y z
#
# Youngs Moduli (GPa) = 30.15283 28.11594 93.80213
#
# Poissons Ratio (x) = 0.20146 0.72874
# Poissons Ratio (y) = 0.21605 0.44105
# Poissons Ratio (z) = 0.23425 0.13220
#
# Static dielectric constant tensor:
#      x y z
#    x 3.317880 0.000000 -0.169830 
#    y 0.000000 3.457840 0.000000 
#    z -0.169830 0.000000 3.693770 
# 
# 
# High freq. dielectric constant tensor:
#      x y z
#    x 1.716920 0.000000 -0.019840 
#    y 0.000000 1.731220 0.000000 
#    z -0.019840 0.000000 1.729250 
# 
# From -- ./inp_files/77788.got.cif
#   From: 2010.06.25/outbox.cif.g09.slc.cpg/sg10_39_cif.got.tgz:77788.got - 2010.06.27 22:07:45.
