data_PCOD8061494
_publ_section_title
;
Structure prediction by ZEFSAII (Michael W. Deem and Ramdas Pophale) SiO2 
 PCOD8061494
Probable space group: P 2/M
;
_chemical_formula_sum "Si O2"
_cell_formula_units_Z 32
_cell_length_a 15.205667
_cell_length_b 9.119122
_cell_length_c 22.703920
_cell_angle_alpha 90.000000
_cell_angle_beta 32.547204
_cell_angle_gamma 90.000000
_cell_volume 1693.701986
_symmetry_space_group_name_H-M "P 2/M"
_symmetry_group_IT_number 10
_symmetry_cell_setting 'monoclinic'
loop_
_space_group_symop_operation_xyz
x,y,z
-x,y,-z
-x,-y,-z
x,-y,z
loop_
_atom_site_type_symbol
_atom_site_label
_atom_site_fract_x
_atom_site_fract_y
_atom_site_fract_z
Si Si1 0.921480 0.669726 0.799806
Si Si2 0.985480 0.673639 0.633730
Si Si3 0.078256 0.667772 0.828103
Si Si4 0.587821 0.173614 0.011121
Si Si5 0.648168 0.329195 0.239673
Si Si6 0.143836 0.837975 0.965342
Si Si7 0.648333 0.674404 0.765701
Si Si8 0.693178 0.672104 0.607912
O O1 0.864997 0.500000 0.827376
O O2 0.986849 0.728197 0.700448
O O3 0.770899 0.766590 0.906243
O O4 0.072732 0.686822 0.760587
O O5 0.999964 0.500000 0.623306
O O6 0.819676 0.726372 0.696816
O O7 0.141513 0.743955 0.511765
O O8 0.051780 0.500000 0.861707
O O9 0.251497 0.722510 0.758436
O O10 0.922596 0.756211 0.939838
O O11 0.589750 0.000000 0.018707
O O12 0.500000 0.219450 0.000000
O O13 0.497430 0.246136 0.117677
O O14 0.675418 0.500000 0.213085
O O15 0.707070 0.249219 0.147334
O O16 0.455425 0.292854 0.353752
O O17 0.203642 0.000000 0.949883
O O18 0.000000 0.846742 0.000000
O O19 0.623333 0.500000 0.785063
O O20 0.650852 0.731248 0.696927
O O21 0.721658 0.500000 0.598070
#
# Coordination Sequence:
#
# PCOD8061494 Si02
#       8
#     4   4   4   4   4   4   4   4
#     4  10  20  34  54  77 103 138 178 210 249 308
#     4   9  17  32  53  77 103 131 171 220 256 297
#     4   9  18  31  48  71 101 137 172 206 252 305
#     4  11  23  37  53  77 110 139 166 209 264 313
#     4   9  17  31  48  70 103 136 168 212 257 298
#     4   9  17  29  46  68  96 131 169 210 255 301
#     4  10  19  33  56  80 103 134 172 211 256 309
#     4   9  18  31  52  80 104 131 172 217 259 300
#
# _framework density 18.893523999999999
#
# number of rings (size 3 to 8) (size 9 to 14) (size 15 to 20)
#    0.000    2.500    1.250    1.125    1.750    4.000 
#    0.000    0.625    0.000    7.500    0.000    0.000 
#    0.000    5.000    0.000    0.000    0.000    0.000 
#
# Total GULP energy -396657.400110 kJ/mol
# GULP energy per Si atom -12395.543753 kJ/mol
# Density = 1.885052 g / cm^3
# Si number density = 18.893524 Si / 1000 Ang^3
#
#
#
# Elastic Constant Matrix: (Units=GPa)
#
#
# Indices 1 2 3 4 5 6 
#
# 1 124.3491 20.8543 54.8267 0.0000 8.0437 0.0000
# 2 20.8543 40.2086 22.5336 0.0000 1.9515 0.0000
# 3 54.8267 22.5336 117.7846 0.0000 14.2696 0.0000
# 4 0.0000 0.0000 0.0000 0.5637 0.0000 -2.9295
# 5 8.0437 1.9515 14.2696 0.0000 22.0921 0.0000
# 6 0.0000 0.0000 0.0000 -2.9295 0.0000 12.5064
#
#
#
# Elastic Compliance Matrix: (Units=1/GPa)
#
#
# Indices 1 2 3 4 5 6 
#
# 1 0.010449 -0.003035 -0.004182 0.000000 -0.000835 0.000000
# 2 -0.003035 0.028762 -0.004248 0.000000 0.001308 0.000000
# 3 -0.004182 -0.004248 0.011955 0.000000 -0.005824 0.000000
# 4 0.000000 0.000000 0.000000 -8.159667 0.000000 -1.911330
# 5 -0.000835 0.001308 -0.005824 0.000000 0.049215 0.000000
# 6 0.000000 0.000000 0.000000 -1.911330 0.000000 -0.367753
#
#
# Mechanical properties :
#
#
# Convention : Reuss Voigt Hill
#
# Bulk Modulus (GPa) = 35.41693 53.19682 44.30687
# Shear Modulus (GPa) = -0.59561 19.30761 9.35600
#
# Velocity S-wave (km/s) = -0.56208 3.20021 2.22771
# Velocity P-wave (km/s) = 4.28544 6.47089 5.48805
#
# Compressibility (1/GPa) = 0.02823508
#
# Stress axis : x y z
#
# Youngs Moduli (GPa) = 95.70533 34.76844 83.64727
#
# Poissons Ratio (x) = 0.10553 0.34980
# Poissons Ratio (y) = 0.29048 0.35535
# Poissons Ratio (z) = 0.40023 0.14770
#
# Static dielectric constant tensor:
#      x y z
#    x 3.667070 0.000000 0.002500 
#    y 0.000000 3.243520 0.000000 
#    z 0.002500 0.000000 3.499630 
# 
# 
# High freq. dielectric constant tensor:
#      x y z
#    x 1.746370 0.000000 -0.004700 
#    y 0.000000 1.698050 0.000000 
#    z -0.004700 0.000000 1.719700 
# 
# From -- ./inp_files/89494.got.cif
#   From: 2010.06.25/outbox.cif.g09.slc.cpg/sg10_45_cif.got.tgz:89494.got - 2010.06.27 22:07:45.
