data_PCOD8061769
_publ_section_title
;
Structure prediction by ZEFSAII (Michael W. Deem and Ramdas Pophale) SiO2 
 PCOD8061769
Probable space group: P 2/M
;
_chemical_formula_sum "Si O2"
_cell_formula_units_Z 28
_cell_length_a 12.686489
_cell_length_b 13.348393
_cell_length_c 13.870839
_cell_angle_alpha 90.000000
_cell_angle_beta 140.437781
_cell_angle_gamma 90.000000
_cell_volume 1496.081203
_symmetry_space_group_name_H-M "P 2/M"
_symmetry_group_IT_number 10
_symmetry_cell_setting 'monoclinic'
loop_
_space_group_symop_operation_xyz
x,y,z
-x,y,-z
-x,-y,-z
x,-y,z
loop_
_atom_site_type_symbol
_atom_site_label
_atom_site_fract_x
_atom_site_fract_y
_atom_site_fract_z
Si Si1 0.421910 0.390248 0.839797
Si Si2 0.178195 0.615208 0.399377
Si Si3 0.654215 0.110817 0.367491
Si Si4 0.329306 0.815192 0.822228
Si Si5 0.984560 0.784918 0.604027
Si Si6 0.168555 0.616983 0.171781
Si Si7 0.479377 0.689729 0.281336
O O1 0.342376 0.500000 0.760658
O O2 0.295448 0.296519 0.750722
O O3 0.552364 0.360052 0.847021
O O4 0.500000 0.395638 0.000000
O O5 0.129488 0.500000 0.377990
O O6 0.050276 0.676185 0.375417
O O7 0.154120 0.649260 0.272303
O O8 0.367735 0.631545 0.563060
O O9 0.657429 0.104503 0.253344
O O10 0.836899 0.141677 0.533531
O O11 0.517545 0.191248 0.304317
O O12 0.609833 0.000000 0.375815
O O13 0.161928 0.830335 0.767583
O O14 0.500000 0.818947 0.000000
O O15 0.000000 0.779490 0.500000
O O16 0.209465 0.500000 0.189637
O O17 0.316359 0.679527 0.229233
O O18 0.000000 0.646548 0.000000
#
# Coordination Sequence:
#
# PCOD8061769 Si02
#       7
#     4   4   4   4   4   4   4
#     4   9  17  28  45  72 106 141 170 200 245 301
#     4  10  20  33  52  77 104 136 174 212 247 294
#     4   9  19  35  53  72  95 129 171 214 262 307
#     4   9  18  30  46  73 103 133 171 207 246 299
#     4   9  19  33  50  74 104 136 166 204 254 303
#     4  10  21  35  53  79 108 139 170 202 249 304
#     4  10  19  34  55  75 100 133 175 219 254 298
#
# _framework density 18.715561000000001
#
# number of rings (size 3 to 8) (size 9 to 14) (size 15 to 20)
#    0.000    2.571    0.000    2.571    0.000    8.286 
#    0.000    4.286    0.000    7.286    0.000    0.000 
#    0.000    0.000    0.000    0.000    0.000    0.000 
#
# Total GULP energy -346915.067582 kJ/mol
# GULP energy per Si atom -12389.823842 kJ/mol
# Density = 1.867296 g / cm^3
# Si number density = 18.715561 Si / 1000 Ang^3
#
#
#
# Elastic Constant Matrix: (Units=GPa)
#
#
# Indices 1 2 3 4 5 6 
#
# 1 79.3114 28.8594 42.1521 0.0000 5.1370 0.0000
# 2 28.8594 101.3165 20.6281 0.0000 -0.8887 0.0000
# 3 42.1521 20.6281 96.4680 0.0000 11.4991 0.0000
# 4 0.0000 0.0000 0.0000 10.3182 0.0000 1.4400
# 5 5.1370 -0.8887 11.4991 0.0000 33.2188 0.0000
# 6 0.0000 0.0000 0.0000 1.4400 0.0000 17.3492
#
#
#
# Elastic Compliance Matrix: (Units=1/GPa)
#
#
# Indices 1 2 3 4 5 6 
#
# 1 0.017603 -0.003620 -0.006865 0.000000 -0.000443 0.000000
# 2 -0.003620 0.011102 -0.000933 0.000000 0.001180 0.000000
# 3 -0.006865 -0.000933 0.014020 0.000000 -0.003817 0.000000
# 4 0.000000 0.000000 0.000000 0.098052 0.000000 -0.008139
# 5 -0.000443 0.001180 -0.003817 0.000000 0.031525 0.000000
# 6 0.000000 0.000000 0.000000 -0.008139 0.000000 0.058315
#
#
# Mechanical properties :
#
#
# Convention : Reuss Voigt Hill
#
# Bulk Modulus (GPa) = 50.27847 51.15278 50.71563
# Shear Modulus (GPa) = 19.22478 24.54100 21.88289
#
# Velocity S-wave (km/s) = 3.20849 3.62506 3.42312
# Velocity P-wave (km/s) = 6.37563 6.70168 6.54069
#
# Compressibility (1/GPa) = 0.01988923
#
# Stress axis : x y z
#
# Youngs Moduli (GPa) = 56.80845 90.07780 71.32620
#
# Poissons Ratio (x) = 0.32611 0.48964
# Poissons Ratio (y) = 0.20566 0.06652
# Poissons Ratio (z) = 0.38998 0.08401
#
# Static dielectric constant tensor:
#      x y z
#    x 3.366880 0.000000 0.006660 
#    y 0.000000 3.475080 0.000000 
#    z 0.006660 0.000000 3.536320 
# 
# 
# High freq. dielectric constant tensor:
#      x y z
#    x 1.708550 0.000000 -0.001170 
#    y 0.000000 1.713540 0.000000 
#    z -0.001170 0.000000 1.721660 
# 
# From -- ./inp_files/64941.got.cif
#   From: 2010.06.25/outbox.cif.g09.slc.cpg/sg10_33_cif.got.tgz:64941.got - 2010.06.27 22:07:45.
