data_PCOD8061030
_publ_section_title
;
Structure prediction by ZEFSAII (Michael W. Deem and Ramdas Pophale) SiO2 
 PCOD8061030
Probable space group: P 2/M
;
_chemical_formula_sum "Si O2"
_cell_formula_units_Z 32
_cell_length_a 10.484700
_cell_length_b 8.812463
_cell_length_c 28.932653
_cell_angle_alpha 90.000000
_cell_angle_beta 34.817150
_cell_angle_gamma 90.000000
_cell_volume 1526.324055
_symmetry_space_group_name_H-M "P 2/M"
_symmetry_group_IT_number 10
_symmetry_cell_setting 'monoclinic'
loop_
_space_group_symop_operation_xyz
x,y,z
-x,y,-z
-x,-y,-z
x,-y,z
loop_
_atom_site_type_symbol
_atom_site_label
_atom_site_fract_x
_atom_site_fract_y
_atom_site_fract_z
Si Si1 0.325932 0.327905 0.950676
Si Si2 0.504624 0.825672 0.447991
Si Si3 0.758870 0.672248 0.880425
Si Si4 0.360518 0.322585 0.223751
Si Si5 0.013267 0.823961 0.107653
Si Si6 0.544864 0.677077 0.268414
Si Si7 0.749707 0.819269 0.564354
Si Si8 0.008664 0.173683 0.270852
O O1 0.243292 0.500000 0.969435
O O2 0.506149 0.314012 0.938155
O O3 0.434467 0.269029 0.870385
O O4 0.108651 0.228881 0.029224
O O5 0.500000 0.744390 0.500000
O O6 0.328940 0.757314 0.462846
O O7 0.747794 0.806856 0.354751
O O8 0.437931 0.000000 0.475232
O O9 0.810221 0.500000 0.880838
O O10 0.795284 0.786322 0.911990
O O11 0.927072 0.716149 0.789659
O O12 0.315301 0.500000 0.227755
O O13 0.413965 0.286106 0.260431
O O14 0.139177 0.226688 0.278030
O O15 0.795675 0.733787 0.188105
O O16 0.956307 0.000000 0.122910
O O17 0.548993 0.500000 0.278024
O O18 0.420992 0.760853 0.346561
O O19 0.000000 0.759216 0.500000
O O20 0.739614 0.000000 0.568523
O O21 0.072013 0.000000 0.240604
#
# Coordination Sequence:
#
# PCOD8061030 Si02
#       8
#     4   4   4   4   4   4   4   4
#     4   9  19  37  58  82 114 154 199 244 299 362
#     4   9  19  35  56  87 123 156 192 237 297 365
#     4  10  20  36  58  82 115 158 200 242 297 364
#     4   9  21  40  60  83 115 158 203 249 300 365
#     4  12  24  36  55  85 120 153 197 254 306 360
#     4  11  24  42  63  84 115 160 204 246 304 370
#     4  10  22  40  65  94 125 159 200 251 306 365
#     4  10  19  32  58  87 116 152 197 252 303 355
#
# _framework density 20.965402000000001
#
# number of rings (size 3 to 8) (size 9 to 14) (size 15 to 20)
#    0.000    2.000    0.000    4.125    1.750    6.750 
#    0.000    3.125    0.000    1.875    0.000    0.000 
#    0.000    0.000    0.000    0.000    0.000    0.000 
#
# Total GULP energy -396784.499591 kJ/mol
# GULP energy per Si atom -12399.515612 kJ/mol
# Density = 2.091768 g / cm^3
# Si number density = 20.965402 Si / 1000 Ang^3
#
#
#
# Elastic Constant Matrix: (Units=GPa)
#
#
# Indices 1 2 3 4 5 6 
#
# 1 109.2551 25.2773 58.5089 0.0000 8.9458 0.0000
# 2 25.2773 33.0431 14.4721 0.0000 -6.0380 0.0000
# 3 58.5089 14.4721 78.1282 0.0000 -4.0524 0.0000
# 4 0.0000 0.0000 0.0000 24.5308 0.0000 5.6853
# 5 8.9458 -6.0380 -4.0524 0.0000 21.4784 0.0000
# 6 0.0000 0.0000 0.0000 5.6853 0.0000 22.8215
#
#
#
# Elastic Compliance Matrix: (Units=1/GPa)
#
#
# Indices 1 2 3 4 5 6 
#
# 1 0.020727 -0.012429 -0.013986 0.000000 -0.014766 0.000000
# 2 -0.012429 0.041878 0.002453 0.000000 0.017412 0.000000
# 3 -0.013986 0.002453 0.023386 0.000000 0.010927 0.000000
# 4 0.000000 0.000000 0.000000 0.043263 0.000000 -0.010778
# 5 -0.014766 0.017412 0.010927 0.000000 0.059665 0.000000
# 6 0.000000 0.000000 0.000000 -0.010778 0.000000 0.046503
#
#
# Mechanical properties :
#
#
# Convention : Reuss Voigt Hill
#
# Bulk Modulus (GPa) = 26.26813 46.32701 36.29757
# Shear Modulus (GPa) = 16.88993 21.91068 19.40031
#
# Velocity S-wave (km/s) = 2.84141 3.23629 3.04525
# Velocity P-wave (km/s) = 4.82921 6.00913 5.45119
#
# Compressibility (1/GPa) = 0.03806894
#
# Stress axis : x y z
#
# Youngs Moduli (GPa) = 48.24571 23.87867 42.76122
#
# Poissons Ratio (x) = 0.29678 0.59806
# Poissons Ratio (y) = 0.59962 -0.10491
# Poissons Ratio (z) = 0.67476 -0.05858
#
# Static dielectric constant tensor:
#      x y z
#    x 4.042110 0.000000 0.087110 
#    y 0.000000 3.597980 0.000000 
#    z 0.087110 0.000000 3.740990 
# 
# 
# High freq. dielectric constant tensor:
#      x y z
#    x 1.827100 0.000000 0.005060 
#    y 0.000000 1.799370 0.000000 
#    z 0.005060 0.000000 1.827070 
# 
# From -- ./inp_files/95007.got.cif
#   From: 2010.06.25/outbox.cif.g09.slc.cpg/sg10_48_cif.got.tgz:95007.got - 2010.06.27 22:07:45.
