data_PCOD8061538
_publ_section_title
;
Structure prediction by ZEFSAII (Michael W. Deem and Ramdas Pophale) SiO2 
 PCOD8061538
Probable space group: P 2/M
;
_chemical_formula_sum "Si O2"
_cell_formula_units_Z 28
_cell_length_a 14.204716
_cell_length_b 9.166043
_cell_length_c 19.318567
_cell_angle_alpha 90.000000
_cell_angle_beta 34.963028
_cell_angle_gamma 90.000000
_cell_volume 1441.385510
_symmetry_space_group_name_H-M "P 2/M"
_symmetry_group_IT_number 10
_symmetry_cell_setting 'monoclinic'
loop_
_space_group_symop_operation_xyz
x,y,z
-x,y,-z
-x,-y,-z
x,-y,z
loop_
_atom_site_type_symbol
_atom_site_label
_atom_site_fract_x
_atom_site_fract_y
_atom_site_fract_z
Si Si1 0.486381 0.327560 0.715213
Si Si2 0.979790 0.667943 0.293919
Si Si3 0.166098 0.833845 0.937779
Si Si4 0.587328 0.173180 0.789080
Si Si5 0.380517 0.673447 0.512490
Si Si6 0.766712 0.165539 0.948030
Si Si7 0.094729 0.331878 0.374395
O O1 0.503297 0.500000 0.716062
O O2 0.297299 0.280884 0.831055
O O3 0.589072 0.245543 0.712296
O O4 0.554619 0.275124 0.600643
O O5 0.995803 0.500000 0.264529
O O6 0.139085 0.743639 0.166300
O O7 0.978095 0.688953 0.378067
O O8 0.807850 0.730461 0.366616
O O9 0.222982 0.000000 0.887297
O O10 0.139640 0.815805 0.035627
O O11 0.000000 0.792549 0.000000
O O12 0.743809 0.234032 0.735757
O O13 0.595962 0.000000 0.775298
O O14 0.422074 0.218754 0.929970
O O15 0.500000 0.739297 0.500000
O O16 0.381400 0.500000 0.516384
O O17 0.768662 0.000000 0.921154
O O18 0.148279 0.500000 0.350999
O O19 0.000000 0.277276 0.500000
#
# Coordination Sequence:
#
# PCOD8061538 Si02
#       7
#     4   4   4   4   4   4   4
#     4  10  19  33  56  83 109 141 185 235 280 329
#     4  10  21  36  57  83 112 146 184 232 283 334
#     4   9  19  35  54  76 109 150 188 231 280 330
#     4  10  21  38  59  82 112 150 187 228 281 337
#     4   9  19  35  54  79 113 148 181 226 283 335
#     4   9  20  37  54  77 112 150 185 228 281 332
#     4  10  21  38  60  86 114 146 186 232 283 334
#
# _framework density 19.425754999999999
#
# number of rings (size 3 to 8) (size 9 to 14) (size 15 to 20)
#    0.000    2.429    0.000    2.571    2.000    6.857 
#    0.000    5.714    0.000    2.143    0.000    0.000 
#    0.000    0.000    0.000    0.000    0.000    0.000 
#
# Total GULP energy -347193.426823 kJ/mol
# GULP energy per Si atom -12399.765244 kJ/mol
# Density = 1.938154 g / cm^3
# Si number density = 19.425755 Si / 1000 Ang^3
#
#
#
# Elastic Constant Matrix: (Units=GPa)
#
#
# Indices 1 2 3 4 5 6 
#
# 1 90.4173 28.0102 50.9963 0.0000 -14.3400 0.0000
# 2 28.0102 54.0103 37.8241 0.0000 0.1158 0.0000
# 3 50.9963 37.8241 110.3807 0.0000 4.4924 0.0000
# 4 0.0000 0.0000 0.0000 9.4246 0.0000 -1.0914
# 5 -14.3400 0.1158 4.4924 0.0000 32.3531 0.0000
# 6 0.0000 0.0000 0.0000 -1.0914 0.0000 26.2949
#
#
#
# Elastic Compliance Matrix: (Units=1/GPa)
#
#
# Indices 1 2 3 4 5 6 
#
# 1 0.017815 -0.004263 -0.007132 0.000000 0.008902 0.000000
# 2 -0.004263 0.025419 -0.006698 0.000000 -0.001051 0.000000
# 3 -0.007132 -0.006698 0.014861 0.000000 -0.005201 0.000000
# 4 0.000000 0.000000 0.000000 0.106618 0.000000 0.004425
# 5 0.008902 -0.001051 -0.005201 0.000000 0.035580 0.000000
# 6 0.000000 0.000000 0.000000 0.004425 0.000000 0.038214
#
#
# Mechanical properties :
#
#
# Convention : Reuss Voigt Hill
#
# Bulk Modulus (GPa) = 45.64379 54.27439 49.95909
# Shear Modulus (GPa) = 17.73071 22.81303 20.27187
#
# Velocity S-wave (km/s) = 3.02444 3.43063 3.23392
# Velocity P-wave (km/s) = 5.97862 6.61002 6.30223
#
# Compressibility (1/GPa) = 0.02190879
#
# Stress axis : x y z
#
# Youngs Moduli (GPa) = 56.13301 39.34087 67.28903
#
# Poissons Ratio (x) = 0.16773 0.47989
# Poissons Ratio (y) = 0.23932 0.45069
# Poissons Ratio (z) = 0.40033 0.26350
#
# Static dielectric constant tensor:
#      x y z
#    x 3.672350 0.000000 -0.117140 
#    y 0.000000 3.345010 0.000000 
#    z -0.117140 0.000000 3.523450 
# 
# 
# High freq. dielectric constant tensor:
#      x y z
#    x 1.763170 0.000000 -0.006530 
#    y 0.000000 1.736250 0.000000 
#    z -0.006530 0.000000 1.757170 
# 
# From -- ./inp_files/70206.got.cif
#   From: 2010.06.25/outbox.cif.g09.slc.cpg/sg10_36_cif.got.tgz:70206.got - 2010.06.27 22:07:45.
