data_PCOD8061750
_publ_section_title
;
Structure prediction by ZEFSAII (Michael W. Deem and Ramdas Pophale) SiO2 
 PCOD8061750
Probable space group: P 2/M
;
_chemical_formula_sum "Si O2"
_cell_formula_units_Z 28
_cell_length_a 9.029560
_cell_length_b 17.402570
_cell_length_c 22.237374
_cell_angle_alpha 90.000000
_cell_angle_beta 154.937341
_cell_angle_gamma 90.000000
_cell_volume 1480.228673
_symmetry_space_group_name_H-M "P 2/M"
_symmetry_group_IT_number 10
_symmetry_cell_setting 'monoclinic'
loop_
_space_group_symop_operation_xyz
x,y,z
-x,y,-z
-x,-y,-z
x,-y,z
loop_
_atom_site_type_symbol
_atom_site_label
_atom_site_fract_x
_atom_site_fract_y
_atom_site_fract_z
Si Si1 0.607517 0.583401 0.132726
Si Si2 0.262638 0.255259 0.236515
Si Si3 0.615766 0.000000 0.297422
Si Si4 0.469111 0.837402 0.557852
Si Si5 0.300343 0.272285 0.063623
Si Si6 0.913654 0.583640 0.798722
Si Si7 0.660907 0.833692 0.281063
Si Si8 0.556457 0.000000 0.408269
O O1 0.637251 0.500000 0.176934
O O2 0.568121 0.655605 0.162693
O O3 0.955837 0.596185 0.221545
O O4 0.257727 0.582899 0.965271
O O5 0.277490 0.213635 0.306808
O O6 0.536868 0.216615 0.292254
O O7 0.343179 0.346530 0.276367
O O8 0.870361 0.250283 0.063789
O O9 0.505651 0.920410 0.224918
O O10 0.417963 0.000000 0.288939
O O11 0.031756 0.000000 0.450703
O O12 0.500000 0.811391 0.500000
O O13 0.583248 0.926364 0.606570
O O14 0.076215 0.829152 0.436937
O O15 0.519124 0.199172 0.166258
O O16 0.000000 0.294579 0.000000
O O17 0.723106 0.500000 0.734508
#
# Coordination Sequence:
#
# PCOD8061750 Si02
#       8
#     4   4   2   4   4   4   4   2
#     4   8  14  27  48  74 104 139 176 214 258 306
#     4  10  19  34  54  78 107 139 174 216 262 311
#     4   9  16  32  58  74  98 144 177 211 258 310
#     4  11  22  34  55  82 103 134 176 223 265 310
#     4   9  19  32  49  78 113 138 173 217 261 315
#     4   8  15  28  50  76 101 137 179 215 257 309
#     4  10  20  36  54  77 109 139 177 215 262 316
#     4   9  17  34  55  77 100 130 180 221 259 302
#
# _framework density 18.915996
#
# number of rings (size 3 to 8) (size 9 to 14) (size 15 to 20)
#    0.000    2.714    1.429    1.500    2.000    0.286 
#    0.000    6.071    0.000    3.000    0.000    4.000 
#    0.000    0.000    0.000    0.000    0.000    0.000 
#
# Total GULP energy -346889.465349 kJ/mol
# GULP energy per Si atom -12388.909477 kJ/mol
# Density = 1.887294 g / cm^3
# Si number density = 18.915996 Si / 1000 Ang^3
#
#
#
# Elastic Constant Matrix: (Units=GPa)
#
#
# Indices 1 2 3 4 5 6 
#
# 1 55.1224 56.5330 22.8749 0.0000 -14.2707 0.0000
# 2 56.5330 191.5950 49.9299 0.0000 -11.1537 0.0000
# 3 22.8749 49.9299 52.2824 0.0000 -21.0585 0.0000
# 4 0.0000 0.0000 0.0000 -2.8598 0.0000 6.6208
# 5 -14.2707 -11.1537 -21.0585 0.0000 27.4914 0.0000
# 6 0.0000 0.0000 0.0000 6.6208 0.0000 29.0127
#
#
#
# Elastic Compliance Matrix: (Units=1/GPa)
#
#
# Indices 1 2 3 4 5 6 
#
# 1 0.029471 -0.007821 -0.000783 0.000000 0.011525 0.000000
# 2 -0.007821 0.009234 -0.007987 0.000000 -0.006432 0.000000
# 3 -0.000783 -0.007987 0.037064 0.000000 0.024744 0.000000
# 4 0.000000 0.000000 0.000000 -0.228794 0.000000 0.052212
# 5 0.011525 -0.006432 0.024744 0.000000 0.058702 0.000000
# 6 0.000000 0.000000 0.000000 0.052212 0.000000 0.022553
#
#
# Mechanical properties :
#
#
# Convention : Reuss Voigt Hill
#
# Bulk Modulus (GPa) = 23.48168 61.96394 42.72281
# Shear Modulus (GPa) = -204.99048 22.03965 -91.47541
#
# Velocity S-wave (km/s) = -10.42133 3.41711 -6.96159
# Velocity P-wave (km/s) = 11.50499 6.95682 6.47949
#
# Compressibility (1/GPa) = 0.04258640
#
# Stress axis : x y z
#
# Youngs Moduli (GPa) = 33.93128 108.29425 26.98042
#
# Poissons Ratio (x) = 0.84696 0.02113
# Poissons Ratio (y) = 0.26537 0.21550
# Poissons Ratio (z) = 0.02658 0.86498
#
# Static dielectric constant tensor:
#      x y z
#    x 3.367480 0.000000 -0.165190 
#    y 0.000000 4.191380 0.000000 
#    z -0.165190 0.000000 3.146210 
# 
# 
# High freq. dielectric constant tensor:
#      x y z
#    x 1.718050 0.000000 -0.012960 
#    y 0.000000 1.755050 0.000000 
#    z -0.012960 0.000000 1.684800 
# 
# From -- ./inp_files/83037.got.cif
#   From: 2010.06.25/outbox.cif.g09.slc.cpg/sg10_42_cif.got.tgz:83037.got - 2010.06.27 22:07:45.
