data_PCOD8061501
_publ_section_title
;
Structure prediction by ZEFSAII (Michael W. Deem and Ramdas Pophale) SiO2 
 PCOD8061501
Probable space group: P 2/M
;
_chemical_formula_sum "Si O2"
_cell_formula_units_Z 32
_cell_length_a 19.817217
_cell_length_b 9.101338
_cell_length_c 25.769104
_cell_angle_alpha 90.000000
_cell_angle_beta 21.029969
_cell_angle_gamma 90.000000
_cell_volume 1667.891137
_symmetry_space_group_name_H-M "P 2/M"
_symmetry_group_IT_number 10
_symmetry_cell_setting 'monoclinic'
loop_
_space_group_symop_operation_xyz
x,y,z
-x,y,-z
-x,-y,-z
x,-y,z
loop_
_atom_site_type_symbol
_atom_site_label
_atom_site_fract_x
_atom_site_fract_y
_atom_site_fract_z
Si Si1 0.944994 0.331506 0.404464
Si Si2 0.059838 0.670145 0.088821
Si Si3 0.391286 0.665990 0.288439
Si Si4 0.305043 0.172813 0.615371
Si Si5 0.319617 0.829591 0.485924
Si Si6 0.674222 0.665786 0.004142
Si Si7 0.353740 0.167993 0.819090
Si Si8 0.696836 0.826828 0.882283
O O1 0.991872 0.500000 0.358362
O O2 0.832305 0.316763 0.540397
O O3 0.820034 0.270673 0.446997
O O4 0.138717 0.243274 0.270483
O O5 0.024406 0.500000 0.105548
O O6 0.182659 0.702471 0.052000
O O7 0.860969 0.748892 0.234745
O O8 0.169049 0.732377 0.959678
O O9 0.454641 0.500000 0.260817
O O10 0.491534 0.791812 0.249120
O O11 0.458679 0.685459 0.180262
O O12 0.500000 0.226826 0.500000
O O13 0.298899 0.220051 0.559880
O O14 0.279776 0.000000 0.640241
O O15 0.539604 0.805779 0.312275
O O16 0.263513 0.000000 0.517798
O O17 0.704832 0.500000 0.961789
O O18 0.714410 0.777450 0.929176
O O19 0.291974 0.000000 0.870468
O O20 0.717531 0.000000 0.865023
O O21 0.500000 0.772599 0.000000
#
# Coordination Sequence:
#
# PCOD8061501 Si02
#       8
#     4   4   4   4   4   4   4   4
#     4  10  19  33  56  81 103 131 166 206 254 304
#     4  10  20  34  53  78 105 132 166 208 253 302
#     4   8  16  31  51  78 106 127 157 205 254 299
#     4  10  21  36  52  72 101 137 175 213 253 298
#     4   9  18  33  54  79 104 131 167 210 253 299
#     4   9  18  34  56  79 101 128 165 207 250 299
#     4   9  16  28  50  78 103 129 163 204 251 299
#     4  11  24  38  50  70 103 139 173 209 248 293
#
# _framework density 19.185905000000002
#
# number of rings (size 3 to 8) (size 9 to 14) (size 15 to 20)
#    0.000    2.500    0.000    3.000    0.000    7.250 
#    0.000    1.250    0.000    7.500    0.000    0.000 
#    0.000    0.000    0.000    0.000    0.000    0.000 
#
# Total GULP energy -396662.028359 kJ/mol
# GULP energy per Si atom -12395.688386 kJ/mol
# Density = 1.914224 g / cm^3
# Si number density = 19.185905 Si / 1000 Ang^3
#
#
#
# Elastic Constant Matrix: (Units=GPa)
#
#
# Indices 1 2 3 4 5 6 
#
# 1 15.2959 13.6913 20.8314 0.0000 -10.1403 0.0000
# 2 13.6913 65.1304 48.1572 0.0000 -7.3286 0.0000
# 3 20.8314 48.1572 156.5672 0.0000 -5.4307 0.0000
# 4 0.0000 0.0000 0.0000 34.6584 0.0000 1.8638
# 5 -10.1403 -7.3286 -5.4307 0.0000 21.3761 0.0000
# 6 0.0000 0.0000 0.0000 1.8638 0.0000 15.4992
#
#
#
# Elastic Compliance Matrix: (Units=1/GPa)
#
#
# Indices 1 2 3 4 5 6 
#
# 1 0.127028 -0.012412 -0.011240 0.000000 0.053148 0.000000
# 2 -0.012412 0.021702 -0.005014 0.000000 0.000279 0.000000
# 3 -0.011240 -0.005014 0.009262 0.000000 -0.004698 0.000000
# 4 0.000000 0.000000 0.000000 0.029041 0.000000 -0.003492
# 5 0.053148 0.000279 -0.004698 0.000000 0.070895 0.000000
# 6 0.000000 0.000000 0.000000 -0.003492 0.000000 0.064939
#
#
# Mechanical properties :
#
#
# Convention : Reuss Voigt Hill
#
# Bulk Modulus (GPa) = 9.93446 44.70592 27.32019
# Shear Modulus (GPa) = 12.08456 24.59433 18.33944
#
# Velocity S-wave (km/s) = 2.51244 3.58424 3.09509
# Velocity P-wave (km/s) = 3.68859 6.36247 5.20033
#
# Compressibility (1/GPa) = 0.10065976
#
# Stress axis : x y z
#
# Youngs Moduli (GPa) = 7.87228 46.07954 107.97057
#
# Poissons Ratio (x) = 0.57193 1.21360
# Poissons Ratio (y) = 0.09771 0.54136
# Poissons Ratio (z) = 0.08848 0.23104
#
# Static dielectric constant tensor:
#      x y z
#    x 3.104950 0.000000 0.214230 
#    y 0.000000 3.489530 0.000000 
#    z 0.214230 0.000000 3.935280 
# 
# 
# High freq. dielectric constant tensor:
#      x y z
#    x 1.695150 0.000000 0.018890 
#    y 0.000000 1.750950 0.000000 
#    z 0.018890 0.000000 1.769680 
# 
# From -- ./inp_files/93611.got.cif
#   From: 2010.06.25/outbox.cif.g09.slc.cpg/sg10_47_cif.got.tgz:93611.got - 2010.06.27 22:07:45.
