data_PCOD8061231
_publ_section_title
;
Structure prediction by ZEFSAII (Michael W. Deem and Ramdas Pophale) SiO2 
 PCOD8061231
Probable space group: P 2/M
;
_chemical_formula_sum "Si O2"
_cell_formula_units_Z 28
_cell_length_a 30.221017
_cell_length_b 7.913756
_cell_length_c 22.953679
_cell_angle_alpha 90.000000
_cell_angle_beta 164.039130
_cell_angle_gamma 90.000000
_cell_volume 1509.546191
_symmetry_space_group_name_H-M "P 2/M"
_symmetry_group_IT_number 10
_symmetry_cell_setting 'monoclinic'
loop_
_space_group_symop_operation_xyz
x,y,z
-x,y,-z
-x,-y,-z
x,-y,z
loop_
_atom_site_type_symbol
_atom_site_label
_atom_site_fract_x
_atom_site_fract_y
_atom_site_fract_z
Si Si1 0.247997 0.199010 0.186768
Si Si2 0.051746 0.304905 0.127133
Si Si3 0.411008 0.802850 0.599119
Si Si4 0.252115 0.500000 0.712763
Si Si5 0.476071 0.201151 0.378718
Si Si6 0.490330 0.805845 0.148854
Si Si7 0.591380 0.500000 0.205324
Si Si8 0.839889 0.810076 0.333320
O O1 0.315813 0.267022 0.209952
O O2 0.365509 0.265867 0.386540
O O3 0.253637 0.000000 0.192632
O O4 0.066855 0.256675 0.969977
O O5 0.039191 0.500000 0.100635
O O6 0.229522 0.260741 0.372422
O O7 0.000000 0.215171 0.000000
O O8 0.510174 0.724807 0.669695
O O9 0.503721 0.756419 0.775638
O O10 0.401786 0.000000 0.578053
O O11 0.262492 0.500000 0.655813
O O12 0.161021 0.671424 0.616599
O O13 0.426338 0.500000 0.961572
O O14 0.472579 0.000000 0.373361
O O15 0.604031 0.672392 0.259018
O O16 0.549700 0.000000 0.213217
O O17 0.307289 0.782670 0.897218
O O18 0.000000 0.781588 0.500000
O O19 0.833358 0.000000 0.352035
#
# Coordination Sequence:
#
# PCOD8061231 Si02
#       8
#     4   4   4   2   4   4   2   4
#     4   9  16  30  50  70  93 120 159 211 260 303
#     4  11  22  32  45  71 101 130 168 214 261 309
#     4  10  19  33  54  73  93 130 175 214 255 311
#     4   9  17  30  52  82 105 135 175 205 254 306
#     4   8  15  28  50  74  91 118 162 211 258 302
#     4   9  19  33  52  77 103 137 176 209 256 316
#     4   9  18  32  52  76 107 137 165 215 255 294
#     4   9  17  31  53  81 111 139 171 216 258 299
#
# _framework density 18.548621000000001
#
# number of rings (size 3 to 8) (size 9 to 14) (size 15 to 20)
#    0.000    2.714    1.429    1.500    1.000    1.143 
#    0.000    5.000    3.143    0.000    0.000    0.000 
#    0.000    0.000    0.000    0.000    0.000    0.000 
#
# Total GULP energy -346966.180119 kJ/mol
# GULP energy per Si atom -12391.649290 kJ/mol
# Density = 1.850640 g / cm^3
# Si number density = 18.548621 Si / 1000 Ang^3
#
#
#
# Elastic Constant Matrix: (Units=GPa)
#
#
# Indices 1 2 3 4 5 6 
#
# 1 172.3440 68.5026 54.7397 0.0000 20.0899 0.0000
# 2 68.5026 80.0083 23.3196 0.0000 1.8857 0.0000
# 3 54.7397 23.3196 57.3991 0.0000 13.5593 0.0000
# 4 0.0000 0.0000 0.0000 -102.8063 0.0000 -93.7721
# 5 20.0899 1.8857 13.5593 0.0000 28.3521 0.0000
# 6 0.0000 0.0000 0.0000 -93.7721 0.0000 -55.1837
#
#
#
# Elastic Compliance Matrix: (Units=1/GPa)
#
#
# Indices 1 2 3 4 5 6 
#
# 1 0.011607 -0.007841 -0.006836 0.000000 -0.004434 0.000000
# 2 -0.007841 0.019580 -0.001671 0.000000 0.005053 0.000000
# 3 -0.006836 -0.001671 0.026436 0.000000 -0.007688 0.000000
# 4 0.000000 0.000000 0.000000 0.017687 0.000000 -0.030055
# 5 -0.004434 0.005053 -0.007688 0.000000 0.041753 0.000000
# 6 0.000000 0.000000 0.000000 -0.030055 0.000000 0.032951
#
#
# Mechanical properties :
#
#
# Convention : Reuss Voigt Hill
#
# Bulk Modulus (GPa) = 40.11671 66.98614 53.55142
# Shear Modulus (GPa) = 26.17529 -15.04829 5.56350
#
# Velocity S-wave (km/s) = 3.76063 -2.85140 1.73376
# Velocity P-wave (km/s) = 6.36642 5.03503 5.73946
#
# Compressibility (1/GPa) = 0.02492727
#
# Stress axis : x y z
#
# Youngs Moduli (GPa) = 86.15403 51.07287 37.82659
#
# Poissons Ratio (x) = 0.40046 0.25860
# Poissons Ratio (y) = 0.67552 0.06320
# Poissons Ratio (z) = 0.58899 0.08533
#
# Static dielectric constant tensor:
#      x y z
#    x 4.070140 0.000000 0.167850 
#    y 0.000000 3.404730 0.000000 
#    z 0.167850 0.000000 3.079950 
# 
# 
# High freq. dielectric constant tensor:
#      x y z
#    x 1.722070 0.000000 0.015020 
#    y 0.000000 1.715740 0.000000 
#    z 0.015020 0.000000 1.684300 
# 
# From -- ./inp_files/86720.got.cif
#   From: 2010.06.25/outbox.cif.g09.slc.cpg/sg10_44_cif.got.tgz:86720.got - 2010.06.27 22:07:45.
