data_PCOD8061210
_publ_section_title
;
Structure prediction by ZEFSAII (Michael W. Deem and Ramdas Pophale) SiO2 
 PCOD8061210
Probable space group: P 2/M
;
_chemical_formula_sum "Si O2"
_cell_formula_units_Z 32
_cell_length_a 12.049992
_cell_length_b 9.014178
_cell_length_c 29.155523
_cell_angle_alpha 90.000000
_cell_angle_beta 149.119526
_cell_angle_gamma 90.000000
_cell_volume 1625.405283
_symmetry_space_group_name_H-M "P 2/M"
_symmetry_group_IT_number 10
_symmetry_cell_setting 'monoclinic'
loop_
_space_group_symop_operation_xyz
x,y,z
-x,y,-z
-x,-y,-z
x,-y,z
loop_
_atom_site_type_symbol
_atom_site_label
_atom_site_fract_x
_atom_site_fract_y
_atom_site_fract_z
Si Si1 0.945129 0.325003 0.177345
Si Si2 0.734516 0.172075 0.181747
Si Si3 0.536682 0.175133 0.276961
Si Si4 0.275404 0.826411 0.978858
Si Si5 0.105635 0.826149 0.662748
Si Si6 0.611097 0.825581 0.677228
Si Si7 0.622991 0.823380 0.498349
Si Si8 0.087115 0.176241 0.078799
O O1 0.950153 0.500000 0.177519
O O2 0.910143 0.268579 0.216684
O O3 0.746352 0.262533 0.076419
O O4 0.167473 0.260860 0.236772
O O5 0.758852 0.209362 0.243676
O O6 0.783784 0.000000 0.189389
O O7 0.494529 0.218136 0.082111
O O8 0.754233 0.240116 0.330112
O O9 0.539416 0.212782 0.332190
O O10 0.322921 0.240618 0.175943
O O11 0.533102 0.000000 0.268105
O O12 0.079071 0.775300 0.941083
O O13 0.269757 0.000000 0.965309
O O14 0.865616 0.755951 0.581441
O O15 0.074181 0.000000 0.644268
O O16 0.498256 0.770503 0.590626
O O17 0.662904 0.000000 0.693994
O O18 0.500000 0.761051 0.500000
O O19 0.629756 0.000000 0.503536
O O20 0.097462 0.000000 0.078685
O O21 0.000000 0.243556 0.000000
#
# Coordination Sequence:
#
# PCOD8061210 Si02
#       8
#     4   4   4   4   4   4   4   4
#     4  12  24  36  52  75 107 144 182 227 273 317
#     4  10  20  34  55  79 106 141 179 220 267 321
#     4   9  16  27  47  77 110 138 170 218 267 314
#     4  10  19  33  53  79 107 140 181 220 264 321
#     4   9  17  30  50  83 115 136 170 220 273 321
#     4  10  19  34  56  79 106 142 180 222 271 322
#     4   9  17  29  49  78 112 145 175 215 268 321
#     4   9  15  25  45  74 107 138 171 215 262 306
#
# _framework density 19.687397000000001
#
# number of rings (size 3 to 8) (size 9 to 14) (size 15 to 20)
#    0.000    2.250    1.250    3.000    0.000    7.500 
#    0.000    2.500    0.000    4.500    0.000    0.875 
#    0.000    0.000    0.000    0.000    0.000    0.000 
#
# Total GULP energy -396747.211751 kJ/mol
# GULP energy per Si atom -12398.350367 kJ/mol
# Density = 1.964259 g / cm^3
# Si number density = 19.687397 Si / 1000 Ang^3
#
#
#
# Elastic Constant Matrix: (Units=GPa)
#
#
# Indices 1 2 3 4 5 6 
#
# 1 155.0791 26.3517 65.9084 0.0000 2.9678 0.0000
# 2 26.3517 39.0089 22.0224 0.0000 -1.2799 0.0000
# 3 65.9084 22.0224 125.4015 0.0000 -1.3522 0.0000
# 4 0.0000 0.0000 0.0000 2.2080 0.0000 1.6963
# 5 2.9678 -1.2799 -1.3522 0.0000 38.5739 0.0000
# 6 0.0000 0.0000 0.0000 1.6963 0.0000 3.3265
#
#
#
# Elastic Compliance Matrix: (Units=1/GPa)
#
#
# Indices 1 2 3 4 5 6 
#
# 1 0.008788 -0.003723 -0.003975 0.000000 -0.000939 0.000000
# 2 -0.003723 0.030057 -0.003309 0.000000 0.001168 0.000000
# 3 -0.003975 -0.003309 0.010651 0.000000 0.000569 0.000000
# 4 0.000000 0.000000 0.000000 0.744591 0.000000 -0.379697
# 5 -0.000939 0.001168 0.000569 0.000000 0.026055 0.000000
# 6 0.000000 0.000000 0.000000 -0.379697 0.000000 0.494238
#
#
# Mechanical properties :
#
#
# Convention : Reuss Voigt Hill
#
# Bulk Modulus (GPa) = 36.38871 60.89496 48.64183
# Shear Modulus (GPa) = 3.71594 22.50216 13.10905
#
# Velocity S-wave (km/s) = 1.37534 3.38446 2.58323
# Velocity P-wave (km/s) = 4.58753 6.80226 5.80156
#
# Compressibility (1/GPa) = 0.02748105
#
# Stress axis : x y z
#
# Youngs Moduli (GPa) = 113.78514 33.27027 93.88847
#
# Poissons Ratio (x) = 0.12388 0.37323
# Poissons Ratio (y) = 0.42368 0.31066
# Poissons Ratio (z) = 0.45233 0.11009
#
# Static dielectric constant tensor:
#      x y z
#    x 3.900460 0.000000 0.057270 
#    y 0.000000 2.853080 0.000000 
#    z 0.057270 0.000000 3.750670 
# 
# 
# High freq. dielectric constant tensor:
#      x y z
#    x 1.786960 0.000000 -0.000190 
#    y 0.000000 1.685000 0.000000 
#    z -0.000190 0.000000 1.774010 
# 
# From -- ./inp_files/95045.got.cif
#   From: 2010.06.25/outbox.cif.g09.slc.cpg/sg10_48_cif.got.tgz:95045.got - 2010.06.27 22:07:45.
