data_PCOD8061443
_publ_section_title
;
Structure prediction by ZEFSAII (Michael W. Deem and Ramdas Pophale) SiO2 
 PCOD8061443
Probable space group: P 2/M
;
_chemical_formula_sum "Si O2"
_cell_formula_units_Z 30
_cell_length_a 14.257311
_cell_length_b 10.081761
_cell_length_c 12.256133
_cell_angle_alpha 90.000000
_cell_angle_beta 114.636596
_cell_angle_gamma 90.000000
_cell_volume 1601.316038
_symmetry_space_group_name_H-M "P 2/M"
_symmetry_group_IT_number 10
_symmetry_cell_setting 'monoclinic'
loop_
_space_group_symop_operation_xyz
x,y,z
-x,y,-z
-x,-y,-z
x,-y,z
loop_
_atom_site_type_symbol
_atom_site_label
_atom_site_fract_x
_atom_site_fract_y
_atom_site_fract_z
Si Si1 0.500000 0.734235 0.500000
Si Si2 0.294988 0.845267 0.494204
Si Si3 0.879501 0.846346 0.745962
Si Si4 0.572109 0.351369 0.137423
Si Si5 0.736746 0.846159 0.277670
Si Si6 0.770981 0.845676 0.912750
Si Si7 0.896046 0.846432 0.179007
Si Si8 0.591713 0.352907 0.761481
O O1 0.413399 0.821342 0.518858
O O2 0.440934 0.647549 0.381231
O O3 0.213328 0.779682 0.369629
O O4 0.265786 0.790805 0.600233
O O5 0.277159 0.000000 0.486145
O O6 0.858397 0.826867 0.863473
O O7 0.990362 0.779301 0.770977
O O8 0.884262 0.000000 0.716488
O O9 0.619529 0.500000 0.159913
O O10 0.660339 0.242029 0.168468
O O11 0.510362 0.325767 0.218436
O O12 0.500000 0.329978 0.000000
O O13 0.849467 0.826847 0.277662
O O14 0.702364 0.000000 0.254382
O O15 0.672548 0.760027 0.831124
O O16 0.735845 0.000000 0.903150
O O17 0.818605 0.789768 0.048711
O O18 0.908983 0.000000 0.154883
O O19 0.636547 0.500000 0.809246
#
# Coordination Sequence:
#
# PCOD8061443 Si02
#       8
#     2   4   4   4   4   4   4   4
#     4  12  20  36  54  74 105 144 179 218 261 322
#     4  10  20  32  52  81 110 138 174 221 268 312
#     4   9  17  31  52  80 109 141 177 214 262 317
#     4  10  21  37  54  74 104 143 180 213 258 321
#     4  10  20  34  52  79 107 136 176 223 266 304
#     4  10  19  33  55  82 108 140 176 215 264 316
#     4   9  18  32  53  80 110 139 175 221 264 310
#     4  11  23  36  54  81 107 139 178 218 267 317
#
# _framework density 18.734591000000002
#
# number of rings (size 3 to 8) (size 9 to 14) (size 15 to 20)
#    0.000    2.000    2.667    1.600    0.000    3.467 
#    0.000    2.667    0.000    2.400    0.000    0.933 
#    0.000    0.000    0.000    0.000    0.000    0.000 
#
# Total GULP energy -371870.241639 kJ/mol
# GULP energy per Si atom -12395.674721 kJ/mol
# Density = 1.869195 g / cm^3
# Si number density = 18.734591 Si / 1000 Ang^3
#
#
#
# Elastic Constant Matrix: (Units=GPa)
#
#
# Indices 1 2 3 4 5 6 
#
# 1 102.6019 26.3510 46.4869 0.0000 1.0888 0.0000
# 2 26.3510 43.6933 17.3348 0.0000 6.1733 0.0000
# 3 46.4869 17.3348 98.9898 0.0000 -4.5601 0.0000
# 4 0.0000 0.0000 0.0000 16.0440 0.0000 -4.9330
# 5 1.0888 6.1733 -4.5601 0.0000 32.8037 0.0000
# 6 0.0000 0.0000 0.0000 -4.9330 0.0000 5.4657
#
#
#
# Elastic Compliance Matrix: (Units=1/GPa)
#
#
# Indices 1 2 3 4 5 6 
#
# 1 0.013771 -0.006160 -0.005391 0.000000 -0.000047 0.000000
# 2 -0.006160 0.028288 -0.002311 0.000000 -0.005440 0.000000
# 3 -0.005391 -0.002311 0.013151 0.000000 0.002442 0.000000
# 4 0.000000 0.000000 0.000000 0.086268 0.000000 0.077860
# 5 -0.000047 -0.005440 0.002442 0.000000 0.031849 0.000000
# 6 0.000000 0.000000 0.000000 0.077860 0.000000 0.253231
#
#
# Mechanical properties :
#
#
# Convention : Reuss Voigt Hill
#
# Bulk Modulus (GPa) = 36.38279 47.29227 41.83753
# Shear Modulus (GPa) = 10.78879 21.20351 15.99615
#
# Velocity S-wave (km/s) = 2.40234 3.36785 2.92521
# Velocity P-wave (km/s) = 5.21127 6.35778 5.81286
#
# Compressibility (1/GPa) = 0.02748552
#
# Stress axis : x y z
#
# Youngs Moduli (GPa) = 72.61438 35.35129 76.04081
#
# Poissons Ratio (x) = 0.21777 0.40991
# Poissons Ratio (y) = 0.44731 0.17576
# Poissons Ratio (z) = 0.39144 0.08171
#
# Static dielectric constant tensor:
#      x y z
#    x 3.551440 0.000000 -0.047390 
#    y 0.000000 3.081990 0.000000 
#    z -0.047390 0.000000 3.713990 
# 
# 
# High freq. dielectric constant tensor:
#      x y z
#    x 1.730880 0.000000 -0.011740 
#    y 0.000000 1.680950 0.000000 
#    z -0.011740 0.000000 1.739370 
# 
# From -- ./inp_files/50016.got.cif
#   From: 2010.06.25/outbox.cif.g09.slc.cpg/sg10_26_cif.got.tgz:50016.got - 2010.06.27 22:07:45.
