data_PCOD8061623
_publ_section_title
;
Structure prediction by ZEFSAII (Michael W. Deem and Ramdas Pophale) SiO2 
 PCOD8061623
Probable space group: P 2/M
;
_chemical_formula_sum "Si O2"
_cell_formula_units_Z 28
_cell_length_a 12.572195
_cell_length_b 9.191162
_cell_length_c 14.404618
_cell_angle_alpha 90.000000
_cell_angle_beta 60.925239
_cell_angle_gamma 90.000000
_cell_volume 1454.748557
_symmetry_space_group_name_H-M "P 2/M"
_symmetry_group_IT_number 10
_symmetry_cell_setting 'monoclinic'
loop_
_space_group_symop_operation_xyz
x,y,z
-x,y,-z
-x,-y,-z
x,-y,z
loop_
_atom_site_type_symbol
_atom_site_label
_atom_site_fract_x
_atom_site_fract_y
_atom_site_fract_z
Si Si1 0.045563 0.829191 0.880851
Si Si2 0.014861 0.336037 0.602364
Si Si3 0.389114 0.669366 0.115592
Si Si4 0.145873 0.828545 0.194592
Si Si5 0.718489 0.670297 0.477941
Si Si6 0.707447 0.670011 0.273640
Si Si7 0.539136 0.326872 0.710083
O O1 0.171269 0.753233 0.803861
O O2 0.942271 0.783059 0.851892
O O3 0.069707 0.000000 0.868943
O O4 0.000000 0.775617 0.000000
O O5 0.002342 0.500000 0.648319
O O6 0.908893 0.235336 0.687545
O O7 0.000000 0.339256 0.500000
O O8 0.145231 0.265202 0.572750
O O9 0.353942 0.500000 0.134751
O O10 0.277112 0.758667 0.121328
O O11 0.423273 0.727957 0.203822
O O12 0.500000 0.697960 0.000000
O O13 0.160740 0.000000 0.197363
O O14 0.728093 0.500000 0.494580
O O15 0.667334 0.702194 0.396982
O O16 0.630943 0.739570 0.593713
O O17 0.733170 0.500000 0.248917
O O18 0.597685 0.726196 0.255050
O O19 0.541060 0.500000 0.704123
#
# Coordination Sequence:
#
# PCOD8061623 Si02
#       7
#     4   4   4   4   4   4   4
#     4  10  23  41  58  79 112 154 191 230 286 340
#     4  10  19  33  57  86 116 152 189 229 281 339
#     4  10  22  39  59  83 113 149 189 235 286 339
#     4  11  23  39  59  83 113 150 192 238 283 336
#     4   9  16  29  51  82 114 143 177 222 278 334
#     4  10  19  33  58  88 111 139 186 237 280 330
#     4   9  18  33  54  83 116 146 180 228 284 335
#
# _framework density 19.247313999999999
#
# number of rings (size 3 to 8) (size 9 to 14) (size 15 to 20)
#    0.000    2.143    1.429    1.714    2.000    5.429 
#    0.000    0.714    0.000    2.571    0.000    0.000 
#    0.000    0.000    0.000    0.000    0.000    0.000 
#
# Total GULP energy -347234.743880 kJ/mol
# GULP energy per Si atom -12401.240853 kJ/mol
# Density = 1.920351 g / cm^3
# Si number density = 19.247314 Si / 1000 Ang^3
#
#
#
# Elastic Constant Matrix: (Units=GPa)
#
#
# Indices 1 2 3 4 5 6 
#
# 1 125.0292 38.2430 51.9153 0.0000 -18.4780 0.0000
# 2 38.2430 42.7008 38.6317 0.0000 -11.0182 0.0000
# 3 51.9153 38.6317 128.2046 0.0000 -8.5735 0.0000
# 4 0.0000 0.0000 0.0000 8.6794 0.0000 -0.5076
# 5 -18.4780 -11.0182 -8.5735 0.0000 30.0765 0.0000
# 6 0.0000 0.0000 0.0000 -0.5076 0.0000 8.9142
#
#
#
# Elastic Compliance Matrix: (Units=1/GPa)
#
#
# Indices 1 2 3 4 5 6 
#
# 1 0.011810 -0.007548 -0.002251 0.000000 0.003849 0.000000
# 2 -0.007548 0.039730 -0.008412 0.000000 0.007519 0.000000
# 3 -0.002251 -0.008412 0.011160 0.000000 -0.001283 0.000000
# 4 0.000000 0.000000 0.000000 0.115600 0.000000 0.006582
# 5 0.003849 0.007519 -0.001283 0.000000 0.038002 0.000000
# 6 0.000000 0.000000 0.000000 0.006582 0.000000 0.112556
#
#
# Mechanical properties :
#
#
# Convention : Reuss Voigt Hill
#
# Bulk Modulus (GPa) = 38.05383 61.50162 49.77773
# Shear Modulus (GPa) = 13.36755 20.67699 17.02227
#
# Velocity S-wave (km/s) = 2.63822 3.28118 2.97711
# Velocity P-wave (km/s) = 5.39390 6.81011 6.14295
#
# Compressibility (1/GPa) = 0.02627856
#
# Stress axis : x y z
#
# Youngs Moduli (GPa) = 84.67251 25.17007 89.60184
#
# Poissons Ratio (x) = 0.18998 0.20166
# Poissons Ratio (y) = 0.63910 0.75377
# Poissons Ratio (z) = 0.19057 0.21174
#
# Static dielectric constant tensor:
#      x y z
#    x 3.878740 0.000000 0.093470 
#    y 0.000000 3.146700 0.000000 
#    z 0.093470 0.000000 3.622420 
# 
# 
# High freq. dielectric constant tensor:
#      x y z
#    x 1.765940 0.000000 -0.000420 
#    y 0.000000 1.704260 0.000000 
#    z -0.000420 0.000000 1.758220 
# 
# From -- ./inp_files/49621.got.cif
#   From: 2010.06.25/outbox.cif.g09.slc.cpg/sg10_25_cif.got.tgz:49621.got - 2010.06.27 22:07:45.
