data_PCOD8061540
_publ_section_title
;
Structure prediction by ZEFSAII (Michael W. Deem and Ramdas Pophale) SiO2 
 PCOD8061540
Probable space group: P 2/M
;
_chemical_formula_sum "Si O2"
_cell_formula_units_Z 24
_cell_length_a 17.086418
_cell_length_b 8.968840
_cell_length_c 15.168018
_cell_angle_alpha 90.000000
_cell_angle_beta 31.297880
_cell_angle_gamma 90.000000
_cell_volume 1207.511393
_symmetry_space_group_name_H-M "P 2/M"
_symmetry_group_IT_number 10
_symmetry_cell_setting 'monoclinic'
loop_
_space_group_symop_operation_xyz
x,y,z
-x,y,-z
-x,-y,-z
x,-y,z
loop_
_atom_site_type_symbol
_atom_site_label
_atom_site_fract_x
_atom_site_fract_y
_atom_site_fract_z
Si Si1 0.152879 0.174877 0.665393
Si Si2 0.327536 0.674582 0.649438
Si Si3 0.612689 0.826917 0.078616
Si Si4 0.705265 0.323468 0.629355
Si Si5 0.675846 0.335614 0.850307
Si Si6 0.181158 0.827684 0.953311
O O1 0.279147 0.239374 0.608459
O O2 0.170186 0.250023 0.553125
O O3 0.178049 0.000000 0.631029
O O4 0.989100 0.214240 0.859553
O O5 0.500000 0.717197 0.500000
O O6 0.304819 0.500000 0.656067
O O7 0.227150 0.725078 0.828048
O O8 0.459419 0.736525 0.237586
O O9 0.715113 0.791153 0.063535
O O10 0.573773 0.000000 0.107512
O O11 0.706046 0.777315 0.901515
O O12 0.701904 0.500000 0.619710
O O13 0.751791 0.281398 0.685386
O O14 0.736138 0.500000 0.818792
O O15 0.500000 0.345377 0.000000
O O16 0.194943 0.000000 0.911632
#
# Coordination Sequence:
#
# PCOD8061540 Si02
#       6
#     4   4   4   4   4   4
#     4  11  23  39  58  80 110 146 182 222 269 322
#     4  11  24  40  60  86 111 138 177 223 269 321
#     4  10  19  33  56  83 110 143 184 227 271 321
#     4  10  20  35  55  81 112 144 183 229 273 320
#     4   8  16  31  51  77 110 144 180 227 274 315
#     4  10  23  40  56  80 113 146 180 221 270 321
#
# _framework density 19.875588
#
# number of rings (size 3 to 8) (size 9 to 14) (size 15 to 20)
#    0.000    2.000    0.000    4.500    0.000   12.333 
#    0.000    0.833    0.000    5.000    0.000    0.000 
#    0.000    0.000    0.000    0.000    0.000    0.000 
#
# Total GULP energy -297648.553851 kJ/mol
# GULP energy per Si atom -12402.023077 kJ/mol
# Density = 1.983035 g / cm^3
# Si number density = 19.875588 Si / 1000 Ang^3
#
#
#
# Elastic Constant Matrix: (Units=GPa)
#
#
# Indices 1 2 3 4 5 6 
#
# 1 26.1246 12.7325 20.2228 0.0000 17.6122 0.0000
# 2 12.7325 75.9716 42.6954 0.0000 11.4009 0.0000
# 3 20.2228 42.6954 102.9292 0.0000 23.1337 0.0000
# 4 0.0000 0.0000 0.0000 35.3894 0.0000 10.3100
# 5 17.6122 11.4009 23.1337 0.0000 35.3918 0.0000
# 6 0.0000 0.0000 0.0000 10.3100 0.0000 21.7264
#
#
#
# Elastic Compliance Matrix: (Units=1/GPa)
#
#
# Indices 1 2 3 4 5 6 
#
# 1 0.061434 -0.003764 -0.004584 0.000000 -0.026363 0.000000
# 2 -0.003764 0.017426 -0.006621 0.000000 0.000587 0.000000
# 3 -0.004584 -0.006621 0.014501 0.000000 -0.005064 0.000000
# 4 0.000000 0.000000 0.000000 0.032790 0.000000 -0.015560
# 5 -0.026363 0.000587 -0.005064 0.000000 0.044496 0.000000
# 6 0.000000 0.000000 0.000000 -0.015560 0.000000 0.053411
#
#
# Mechanical properties :
#
#
# Convention : Reuss Voigt Hill
#
# Bulk Modulus (GPa) = 15.76693 39.59186 27.67940
# Shear Modulus (GPa) = 18.17284 27.12648 22.64966
#
# Velocity S-wave (km/s) = 3.02707 3.69835 3.37942
# Velocity P-wave (km/s) = 4.49083 6.18062 5.40221
#
# Compressibility (1/GPa) = 0.06342387
#
# Stress axis : x y z
#
# Youngs Moduli (GPa) = 16.27772 57.38394 68.96232
#
# Poissons Ratio (x) = 0.21598 0.31610
# Poissons Ratio (y) = 0.06127 0.45660
# Poissons Ratio (z) = 0.07461 0.37994
#
# Static dielectric constant tensor:
#      x y z
#    x 3.734410 0.000000 0.375650 
#    y 0.000000 3.665000 0.000000 
#    z 0.375650 0.000000 3.793400 
# 
# 
# High freq. dielectric constant tensor:
#      x y z
#    x 1.772690 0.000000 0.021990 
#    y 0.000000 1.780810 0.000000 
#    z 0.021990 0.000000 1.775010 
# 
# From -- ./inp_files/27193.got.cif
#   From: 2010.06.25/outbox.cif.g09.slc.cpg/sg10_14_cif.got.tgz:27193.got - 2010.06.27 22:07:45.
