data_PCOD8061516
_publ_section_title
;
Structure prediction by ZEFSAII (Michael W. Deem and Ramdas Pophale) SiO2 
 PCOD8061516
Probable space group: P 2/M
;
_chemical_formula_sum "Si O2"
_cell_formula_units_Z 24
_cell_length_a 12.734074
_cell_length_b 8.911169
_cell_length_c 11.690539
_cell_angle_alpha 90.000000
_cell_angle_beta 90.174196
_cell_angle_gamma 90.000000
_cell_volume 1326.583457
_symmetry_space_group_name_H-M "P 2/M"
_symmetry_group_IT_number 10
_symmetry_cell_setting 'monoclinic'
loop_
_space_group_symop_operation_xyz
x,y,z
-x,y,-z
-x,-y,-z
x,-y,z
loop_
_atom_site_type_symbol
_atom_site_label
_atom_site_fract_x
_atom_site_fract_y
_atom_site_fract_z
Si Si1 0.519997 0.325317 0.632261
Si Si2 0.378596 0.324658 0.012093
Si Si3 0.316822 0.677140 0.762144
Si Si4 0.889267 0.322327 0.639992
Si Si5 0.875975 0.322135 0.381671
Si Si6 0.704181 0.177037 0.762760
O O1 0.500000 0.296754 0.500000
O O2 0.538555 0.500000 0.659775
O O3 0.421757 0.259424 0.702877
O O4 0.623496 0.237376 0.668379
O O5 0.368762 0.500000 0.041421
O O6 0.325694 0.230261 0.111209
O O7 0.500000 0.279503 0.000000
O O8 0.317282 0.281893 0.895777
O O9 0.316864 0.500000 0.743506
O O10 0.213603 0.747440 0.701314
O O11 0.876383 0.500000 0.655859
O O12 0.854738 0.272208 0.512147
O O13 0.819386 0.238027 0.733006
O O14 0.009459 0.269691 0.660698
O O15 0.873234 0.500000 0.377336
O O16 0.705002 0.000000 0.759793
#
# Coordination Sequence:
#
# PCOD8061516 Si02
#       6
#     4   4   4   4   4   4
#     4  10  19  33  56  82 107 135 170 217 269 318
#     4  10  19  35  56  75 100 138 183 225 265 311
#     4   9  16  29  52  81 105 127 168 222 271 314
#     4   9  17  33  57  81 107 136 173 216 265 319
#     4   8  15  30  56  86 106 128 168 223 272 313
#     4  12  24  35  50  75 111 146 180 215 258 318
#
# _framework density 18.091588000000002
#
# number of rings (size 3 to 8) (size 9 to 14) (size 15 to 20)
#    0.000    2.333    1.667    3.500    0.000    3.333 
#    0.000    2.500    0.000    8.000    0.000    0.000 
#    0.000    0.000    0.000    0.000    0.000    0.000 
#
# Total GULP energy -297588.201126 kJ/mol
# GULP energy per Si atom -12399.508380 kJ/mol
# Density = 1.805041 g / cm^3
# Si number density = 18.091588 Si / 1000 Ang^3
#
#
#
# Elastic Constant Matrix: (Units=GPa)
#
#
# Indices 1 2 3 4 5 6 
#
# 1 110.3031 33.0728 49.7634 0.0000 -10.3718 0.0000
# 2 33.0728 57.2014 36.8959 0.0000 -12.3917 0.0000
# 3 49.7634 36.8959 90.8922 0.0000 -11.0938 0.0000
# 4 0.0000 0.0000 0.0000 6.3463 0.0000 4.2312
# 5 -10.3718 -12.3917 -11.0938 0.0000 34.7715 0.0000
# 6 0.0000 0.0000 0.0000 4.2312 0.0000 2.3592
#
#
#
# Elastic Compliance Matrix: (Units=1/GPa)
#
#
# Indices 1 2 3 4 5 6 
#
# 1 0.012655 -0.003718 -0.005328 0.000000 0.000750 0.000000
# 2 -0.003718 0.025868 -0.007778 0.000000 0.005628 0.000000
# 3 -0.005328 -0.007778 0.017214 0.000000 0.001131 0.000000
# 4 0.000000 0.000000 0.000000 -0.804801 0.000000 1.443434
# 5 0.000750 0.005628 0.001131 0.000000 0.031349 0.000000
# 6 0.000000 0.000000 0.000000 1.443434 0.000000 -2.164961
#
#
# Mechanical properties :
#
#
# Convention : Reuss Voigt Hill
#
# Bulk Modulus (GPa) = 45.26996 55.31789 50.29393
# Shear Modulus (GPa) = -1.75953 17.93969 8.09008
#
# Velocity S-wave (km/s) = -0.98726 3.15239 2.11694
# Velocity P-wave (km/s) = 4.87621 6.62518 5.81681
#
# Compressibility (1/GPa) = 0.02208970
#
# Stress axis : x y z
#
# Youngs Moduli (GPa) = 79.02125 38.65791 58.09069
#
# Poissons Ratio (x) = 0.14372 0.30950
# Poissons Ratio (y) = 0.29378 0.45184
# Poissons Ratio (z) = 0.42101 0.30069
#
# Static dielectric constant tensor:
#      x y z
#    x 3.660150 0.000000 0.124040 
#    y 0.000000 2.888770 0.000000 
#    z 0.124040 0.000000 3.421720 
# 
# 
# High freq. dielectric constant tensor:
#      x y z
#    x 1.708470 0.000000 -0.001200 
#    y 0.000000 1.653140 0.000000 
#    z -0.001200 0.000000 1.704750 
# 
# From -- ./inp_files/45124.got.cif
#   From: 2010.06.25/outbox.cif.g09.slc.cpg/sg10_23_cif.got.tgz:45124.got - 2010.06.27 22:07:45.
