data_PCOD8061851
_publ_section_title
;
Structure prediction by ZEFSAII (Michael W. Deem and Ramdas Pophale) SiO2 
 PCOD8061851
Probable space group: P 2/M
;
_chemical_formula_sum "Si O2"
_cell_formula_units_Z 28
_cell_length_a 15.695608
_cell_length_b 9.177528
_cell_length_c 23.677701
_cell_angle_alpha 90.000000
_cell_angle_beta 26.373805
_cell_angle_gamma 90.000000
_cell_volume 1515.119889
_symmetry_space_group_name_H-M "P 2/M"
_symmetry_group_IT_number 10
_symmetry_cell_setting 'monoclinic'
loop_
_space_group_symop_operation_xyz
x,y,z
-x,y,-z
-x,-y,-z
x,-y,z
loop_
_atom_site_type_symbol
_atom_site_label
_atom_site_fract_x
_atom_site_fract_y
_atom_site_fract_z
Si Si1 0.281620 0.333773 0.931691
Si Si2 0.209755 0.829576 0.203744
Si Si3 0.845557 0.667170 0.199936
Si Si4 0.170565 0.671645 0.569929
Si Si5 0.277054 0.167187 0.620397
Si Si6 0.393593 0.830154 0.977602
Si Si7 0.551322 0.671190 0.282044
O O1 0.342622 0.500000 0.905737
O O2 0.328605 0.250637 0.960637
O O3 0.399519 0.264334 0.809023
O O4 0.058138 0.322280 0.048252
O O5 0.391578 0.782570 0.133149
O O6 0.029704 0.737049 0.332962
O O7 0.166268 0.000000 0.236671
O O8 0.249516 0.792048 0.114424
O O9 0.792175 0.500000 0.247048
O O10 0.841980 0.764659 0.257878
O O11 0.695618 0.734247 0.243844
O O12 0.151211 0.500000 0.590657
O O13 0.229411 0.744272 0.593145
O O14 0.332233 0.709172 0.427357
O O15 0.500000 0.181966 0.500000
O O16 0.213156 0.000000 0.650330
O O17 0.388502 0.000000 0.968187
O O18 0.589972 0.500000 0.256816
#
# Coordination Sequence:
#
# PCOD8061851 Si02
#       7
#     4   4   4   4   4   4   4
#     4  10  20  34  55  80 104 137 180 222 262 305
#     4   9  19  37  59  80 106 137 170 213 267 321
#     4  10  19  34  56  78 103 140 182 221 260 307
#     4  11  21  34  55  80 107 141 177 215 262 311
#     4  11  22  34  50  75 109 142 173 213 260 309
#     4   9  19  37  58  79 105 138 171 213 269 317
#     4   9  19  35  52  74 108 144 177 215 260 310
#
# _framework density 18.480387
#
# number of rings (size 3 to 8) (size 9 to 14) (size 15 to 20)
#    0.000    2.143    1.429    3.000    0.000    6.286 
#    0.000    4.286    0.000    6.000    0.000    0.000 
#    0.000    0.000    0.000    0.000    0.000    0.000 
#
# Total GULP energy -347231.857506 kJ/mol
# GULP energy per Si atom -12401.137768 kJ/mol
# Density = 1.843832 g / cm^3
# Si number density = 18.480387 Si / 1000 Ang^3
#
#
#
# Elastic Constant Matrix: (Units=GPa)
#
#
# Indices 1 2 3 4 5 6 
#
# 1 66.5563 31.2442 37.0102 0.0000 -1.2433 0.0000
# 2 31.2442 61.2140 46.0451 0.0000 -5.1992 0.0000
# 3 37.0102 46.0451 118.7340 0.0000 -2.1283 0.0000
# 4 0.0000 0.0000 0.0000 12.4539 0.0000 -26.2022
# 5 -1.2433 -5.1992 -2.1283 0.0000 28.1515 0.0000
# 6 0.0000 0.0000 0.0000 -26.2022 0.0000 -4.2325
#
#
#
# Elastic Compliance Matrix: (Units=1/GPa)
#
#
# Indices 1 2 3 4 5 6 
#
# 1 0.020664 -0.008135 -0.003301 0.000000 -0.000839 0.000000
# 2 -0.008135 0.026634 -0.007722 0.000000 0.003976 0.000000
# 3 -0.003301 -0.007722 0.012434 0.000000 -0.000632 0.000000
# 4 0.000000 0.000000 0.000000 0.005725 0.000000 -0.035444
# 5 -0.000839 0.003976 -0.000632 0.000000 0.036172 0.000000
# 6 0.000000 0.000000 0.000000 -0.035444 0.000000 -0.016846
#
#
# Mechanical properties :
#
#
# Convention : Reuss Voigt Hill
#
# Bulk Modulus (GPa) = 46.69344 52.78925 49.74134
# Shear Modulus (GPa) = 38.39111 16.08824 27.23967
#
# Velocity S-wave (km/s) = 4.56279 2.95372 3.84341
# Velocity P-wave (km/s) = 7.28561 6.34505 6.83154
#
# Compressibility (1/GPa) = 0.02141629
#
# Stress axis : x y z
#
# Youngs Moduli (GPa) = 48.39351 37.54540 80.42188
#
# Poissons Ratio (x) = 0.30544 0.26550
# Poissons Ratio (y) = 0.39369 0.62100
# Poissons Ratio (z) = 0.15976 0.28992
#
# Static dielectric constant tensor:
#      x y z
#    x 3.364770 0.000000 -0.098620 
#    y 0.000000 3.257970 0.000000 
#    z -0.098620 0.000000 3.680960 
# 
# 
# High freq. dielectric constant tensor:
#      x y z
#    x 1.711780 0.000000 -0.007690 
#    y 0.000000 1.700320 0.000000 
#    z -0.007690 0.000000 1.724700 
# 
# From -- ./inp_files/49087.got.cif
#   From: 2010.06.25/outbox.cif.g09.slc.cpg/sg10_25_cif.got.tgz:49087.got - 2010.06.27 22:07:45.
