data_PCOD8061675
_publ_section_title
;
Structure prediction by ZEFSAII (Michael W. Deem and Ramdas Pophale) SiO2 
 PCOD8061675
Probable space group: P 2/M
;
_chemical_formula_sum "Si O2"
_cell_formula_units_Z 32
_cell_length_a 11.758047
_cell_length_b 9.125604
_cell_length_c 24.842661
_cell_angle_alpha 90.000000
_cell_angle_beta 46.983089
_cell_angle_gamma 90.000000
_cell_volume 1948.959523
_symmetry_space_group_name_H-M "P 2/M"
_symmetry_group_IT_number 10
_symmetry_cell_setting 'monoclinic'
loop_
_space_group_symop_operation_xyz
x,y,z
-x,y,-z
-x,-y,-z
x,-y,z
loop_
_atom_site_type_symbol
_atom_site_label
_atom_site_fract_x
_atom_site_fract_y
_atom_site_fract_z
Si Si1 0.021650 0.331610 0.931538
Si Si2 0.404667 0.327405 0.583188
Si Si3 0.497253 0.673736 0.124963
Si Si4 0.381467 0.668418 0.798478
Si Si5 0.745160 0.830220 0.970727
Si Si6 0.588537 0.164946 0.316087
Si Si7 0.221256 0.830215 0.163569
Si Si8 0.871238 0.165189 0.291530
O O1 0.969478 0.500000 0.940540
O O2 0.916253 0.228303 0.928941
O O3 0.197981 0.306702 0.857856
O O4 0.000000 0.284092 0.000000
O O5 0.500000 0.280289 0.500000
O O6 0.400673 0.500000 0.592591
O O7 0.487116 0.254033 0.609099
O O8 0.226565 0.266932 0.635139
O O9 0.502427 0.500000 0.117157
O O10 0.546281 0.723371 0.168831
O O11 0.324601 0.733481 0.170253
O O12 0.615341 0.740960 0.044104
O O13 0.423609 0.500000 0.774862
O O14 0.455625 0.761180 0.726135
O O15 0.716606 0.807689 0.916765
O O16 0.733367 0.000000 0.990628
O O17 0.776642 0.166155 0.265095
O O18 0.522442 0.000000 0.337152
O O19 0.044031 0.773218 0.226316
O O20 0.233815 0.000000 0.175946
O O21 0.877747 0.000000 0.312544
#
# Coordination Sequence:
#
# PCOD8061675 Si02
#       8
#     4   4   4   4   4   4   4   4
#     4  10  19  34  51  68  94 125 161 207 257 304
#     4   9  17  30  50  79 111 136 160 190 231 287
#     4  11  23  37  50  68  93 129 175 215 254 298
#     4  10  20  34  49  67  96 128 162 207 251 294
#     4  11  22  35  51  71  95 126 167 215 261 303
#     4   9  18  31  50  75 102 130 160 192 236 293
#     4  10  21  37  51  69  97 128 166 213 255 291
#     4   8  17  32  50  74 103 131 162 198 241 292
#
# _framework density 16.419017
#
# number of rings (size 3 to 8) (size 9 to 14) (size 15 to 20)
#    0.750    1.500    1.250    2.250    0.000    6.750 
#    0.000    0.000    0.000    0.000    0.000    0.875 
#    0.000    7.000    0.000    0.000    0.000    0.000 
#
# Total GULP energy -396664.897767 kJ/mol
# GULP energy per Si atom -12395.778055 kJ/mol
# Density = 1.638165 g / cm^3
# Si number density = 16.419017 Si / 1000 Ang^3
#
#
#
# Elastic Constant Matrix: (Units=GPa)
#
#
# Indices 1 2 3 4 5 6 
#
# 1 71.2710 36.0210 32.3096 0.0000 -1.5770 0.0000
# 2 36.0210 79.5990 50.0323 0.0000 6.8296 0.0000
# 3 32.3096 50.0323 98.9513 0.0000 13.3328 0.0000
# 4 0.0000 0.0000 0.0000 22.8470 0.0000 0.1616
# 5 -1.5770 6.8296 13.3328 0.0000 12.4095 0.0000
# 6 0.0000 0.0000 0.0000 0.1616 0.0000 27.3761
#
#
#
# Elastic Compliance Matrix: (Units=1/GPa)
#
#
# Indices 1 2 3 4 5 6 
#
# 1 0.019906 -0.007234 -0.004349 0.000000 0.011183 0.000000
# 2 -0.007234 0.021045 -0.007711 0.000000 -0.004217 0.000000
# 3 -0.004349 -0.007711 0.017454 0.000000 -0.015062 0.000000
# 4 0.000000 0.000000 0.000000 0.043771 0.000000 -0.000258
# 5 0.011183 -0.004217 -0.015062 0.000000 0.100508 0.000000
# 6 0.000000 0.000000 0.000000 -0.000258 0.000000 0.036530
#
#
# Mechanical properties :
#
#
# Convention : Reuss Voigt Hill
#
# Bulk Modulus (GPa) = 50.45906 54.06079 52.25993
# Shear Modulus (GPa) = 17.58045 21.29044 19.43544
#
# Velocity S-wave (km/s) = 3.27576 3.60487 3.44425
# Velocity P-wave (km/s) = 6.71612 7.09394 6.90761
#
# Compressibility (1/GPa) = 0.01981805
#
# Stress axis : x y z
#
# Youngs Moduli (GPa) = 50.23588 47.51726 57.29328
#
# Poissons Ratio (x) = 0.34375 0.24916
# Poissons Ratio (y) = 0.36341 0.44176
# Poissons Ratio (z) = 0.21847 0.36638
#
# Static dielectric constant tensor:
#      x y z
#    x 3.045750 0.000000 0.039150 
#    y 0.000000 3.115140 0.000000 
#    z 0.039150 0.000000 2.880410 
# 
# 
# High freq. dielectric constant tensor:
#      x y z
#    x 1.614650 0.000000 0.007240 
#    y 0.000000 1.640710 0.000000 
#    z 0.007240 0.000000 1.609100 
# 
# From -- ./inp_files/92449.got.cif
#   From: 2010.06.25/outbox.cif.g09.slc.cpg/sg10_47_cif.got.tgz:92449.got - 2010.06.27 22:07:45.
