data_PCOD8061693
_publ_section_title
;
Structure prediction by ZEFSAII (Michael W. Deem and Ramdas Pophale) SiO2 
 PCOD8061693
Probable space group: P 2/M
;
_chemical_formula_sum "Si O2"
_cell_formula_units_Z 28
_cell_length_a 14.110123
_cell_length_b 9.139563
_cell_length_c 17.623600
_cell_angle_alpha 90.000000
_cell_angle_beta 42.873523
_cell_angle_gamma 90.000000
_cell_volume 1546.335947
_symmetry_space_group_name_H-M "P 2/M"
_symmetry_group_IT_number 10
_symmetry_cell_setting 'monoclinic'
loop_
_space_group_symop_operation_xyz
x,y,z
-x,y,-z
-x,-y,-z
x,-y,z
loop_
_atom_site_type_symbol
_atom_site_label
_atom_site_fract_x
_atom_site_fract_y
_atom_site_fract_z
Si Si1 0.305896 0.328594 0.248010
Si Si2 0.818012 0.671477 0.835859
Si Si3 0.651383 0.830606 0.382364
Si Si4 0.415350 0.832736 0.747386
Si Si5 0.373274 0.670250 0.919097
Si Si6 0.863811 0.328068 0.363003
Si Si7 0.266511 0.172190 0.422277
O O1 0.275929 0.500000 0.278354
O O2 0.236421 0.265718 0.212305
O O3 0.469970 0.296121 0.146734
O O4 0.236507 0.239535 0.357451
O O5 0.788022 0.500000 0.851392
O O6 0.979102 0.708200 0.753872
O O7 0.730079 0.739266 0.957294
O O8 0.500000 0.782046 0.500000
O O9 0.662916 0.804117 0.285668
O O10 0.766234 0.730176 0.353544
O O11 0.677736 0.000000 0.388713
O O12 0.340433 0.740487 0.856760
O O13 0.577031 0.789018 0.642983
O O14 0.405352 0.000000 0.778305
O O15 0.345422 0.500000 0.925553
O O16 0.839416 0.500000 0.388606
O O17 0.836785 0.247223 0.457876
O O18 0.238106 0.000000 0.437327
#
# Coordination Sequence:
#
# PCOD8061693 Si02
#       7
#     4   4   4   4   4   4   4
#     4   9  17  32  56  80 100 132 179 219 252 300
#     4   9  19  35  52  74 108 142 169 210 264 304
#     4  10  19  36  57  76 101 137 170 208 263 310
#     4   9  18  33  54  77 102 131 165 211 265 306
#     4   9  17  32  56  80 101 132 176 216 252 298
#     4  11  22  34  51  77 107 138 173 211 254 309
#     4  10  19  34  52  75 107 138 169 212 264 309
#
# _framework density 18.107320000000001
#
# number of rings (size 3 to 8) (size 9 to 14) (size 15 to 20)
#    0.000    2.429    1.429    1.286    0.000    3.714 
#    0.000    7.143    0.000    7.714    0.000    0.000 
#    0.000    0.000    0.000    0.000    0.000    0.000 
#
# Total GULP energy -347252.800650 kJ/mol
# GULP energy per Si atom -12401.885738 kJ/mol
# Density = 1.806611 g / cm^3
# Si number density = 18.107320 Si / 1000 Ang^3
#
#
#
# Elastic Constant Matrix: (Units=GPa)
#
#
# Indices 1 2 3 4 5 6 
#
# 1 99.5953 41.3036 58.2322 0.0000 10.9542 0.0000
# 2 41.3036 62.9902 47.1786 0.0000 4.6480 0.0000
# 3 58.2322 47.1786 94.8412 0.0000 11.9642 0.0000
# 4 0.0000 0.0000 0.0000 17.3675 0.0000 2.2760
# 5 10.9542 4.6480 11.9642 0.0000 23.0830 0.0000
# 6 0.0000 0.0000 0.0000 2.2760 0.0000 20.9350
#
#
#
# Elastic Compliance Matrix: (Units=1/GPa)
#
#
# Indices 1 2 3 4 5 6 
#
# 1 0.016880 -0.005373 -0.007295 0.000000 -0.003148 0.000000
# 2 -0.005373 0.027064 -0.010484 0.000000 0.002534 0.000000
# 3 -0.007295 -0.010484 0.020901 0.000000 -0.005261 0.000000
# 4 0.000000 0.000000 0.000000 0.058411 0.000000 -0.006350
# 5 -0.003148 0.002534 -0.005261 0.000000 0.047032 0.000000
# 6 0.000000 0.000000 0.000000 -0.006350 0.000000 0.048457
#
#
# Mechanical properties :
#
#
# Convention : Reuss Voigt Hill
#
# Bulk Modulus (GPa) = 53.92754 61.20617 57.56685
# Shear Modulus (GPa) = 18.43465 19.65790 19.04627
#
# Velocity S-wave (km/s) = 3.19419 3.29847 3.24675
# Velocity P-wave (km/s) = 6.59171 6.95570 6.77615
#
# Compressibility (1/GPa) = 0.01854340
#
# Stress axis : x y z
#
# Youngs Moduli (GPa) = 59.24161 36.95013 47.84362
#
# Poissons Ratio (x) = 0.19852 0.34900
# Poissons Ratio (y) = 0.31829 0.50157
# Poissons Ratio (z) = 0.43214 0.38737
#
# Static dielectric constant tensor:
#      x y z
#    x 3.311460 0.000000 0.173210 
#    y 0.000000 3.195150 0.000000 
#    z 0.173210 0.000000 3.403190 
# 
# 
# High freq. dielectric constant tensor:
#      x y z
#    x 1.698290 0.000000 0.015980 
#    y 0.000000 1.685880 0.000000 
#    z 0.015980 0.000000 1.700300 
# 
# From -- ./inp_files/48737.got.cif
#   From: 2010.06.25/outbox.cif.g09.slc.cpg/sg10_25_cif.got.tgz:48737.got - 2010.06.27 22:07:45.
