data_PCOD8061807
_publ_section_title
;
Structure prediction by ZEFSAII (Michael W. Deem and Ramdas Pophale) SiO2 
 PCOD8061807
Probable space group: P 2/M
;
_chemical_formula_sum "Si O2"
_cell_formula_units_Z 28
_cell_length_a 25.949388
_cell_length_b 8.888555
_cell_length_c 10.075795
_cell_angle_alpha 90.000000
_cell_angle_beta 39.813895
_cell_angle_gamma 90.000000
_cell_volume 1488.052985
_symmetry_space_group_name_H-M "P 2/M"
_symmetry_group_IT_number 10
_symmetry_cell_setting 'monoclinic'
loop_
_space_group_symop_operation_xyz
x,y,z
-x,y,-z
-x,-y,-z
x,-y,z
loop_
_atom_site_type_symbol
_atom_site_label
_atom_site_fract_x
_atom_site_fract_y
_atom_site_fract_z
Si Si1 0.666371 0.675935 0.303179
Si Si2 0.090784 0.176440 0.791062
Si Si3 0.907846 0.827336 0.689051
Si Si4 0.491414 0.833829 0.360008
Si Si5 0.332362 0.821777 0.984866
Si Si6 0.812031 0.827537 0.141133
Si Si7 0.178991 0.323284 0.375320
O O1 0.668184 0.500000 0.272037
O O2 0.579840 0.720064 0.538299
O O3 0.735052 0.721807 0.271395
O O4 0.682268 0.761230 0.134427
O O5 0.147314 0.220638 0.801903
O O6 0.120331 0.264944 0.604703
O O7 0.093852 0.000000 0.753975
O O8 0.000000 0.227984 0.000000
O O9 0.856607 0.719486 0.696878
O O10 0.000000 0.777317 0.500000
O O11 0.897071 0.000000 0.663292
O O12 0.878804 0.804028 0.896241
O O13 0.500000 0.843411 0.500000
O O14 0.470854 0.000000 0.344243
O O15 0.578849 0.778386 0.134344
O O16 0.267432 0.751201 0.213605
O O17 0.321618 0.000000 0.999244
O O18 0.782774 0.000000 0.202545
O O19 0.188679 0.500000 0.367407
#
# Coordination Sequence:
#
# PCOD8061807 Si02
#       7
#     4   4   4   4   4   4   4
#     4  11  20  30  50  82 118 149 180 225 284 340
#     4  10  22  42  64  83 105 146 199 239 277 334
#     4  10  20  36  59  83 107 142 187 235 280 329
#     4   8  16  30  50  76 108 146 186 228 273 324
#     4  10  19  34  55  79 110 149 192 233 271 325
#     4  10  20  35  58  82 109 146 189 236 278 329
#     4  12  24  36  55  85 118 150 181 229 292 342
#
# _framework density 18.816533
#
# number of rings (size 3 to 8) (size 9 to 14) (size 15 to 20)
#    0.000    1.857    1.429    4.714    0.000    6.571 
#    0.000    1.429    0.000    0.857    0.000    6.000 
#    0.000    0.000    0.000    0.000    0.000    0.000 
#
# Total GULP energy -347244.842407 kJ/mol
# GULP energy per Si atom -12401.601515 kJ/mol
# Density = 1.877371 g / cm^3
# Si number density = 18.816533 Si / 1000 Ang^3
#
#
#
# Elastic Constant Matrix: (Units=GPa)
#
#
# Indices 1 2 3 4 5 6 
#
# 1 62.5238 28.9723 24.2576 0.0000 -19.7624 0.0000
# 2 28.9723 92.6639 39.5829 0.0000 -14.9935 0.0000
# 3 24.2576 39.5829 86.0540 0.0000 -25.3054 0.0000
# 4 0.0000 0.0000 0.0000 18.2786 0.0000 -0.6835
# 5 -19.7624 -14.9935 -25.3054 0.0000 37.9899 0.0000
# 6 0.0000 0.0000 0.0000 -0.6835 0.0000 9.2789
#
#
#
# Elastic Compliance Matrix: (Units=1/GPa)
#
#
# Indices 1 2 3 4 5 6 
#
# 1 0.021357 -0.004736 -0.001399 0.000000 0.008310 0.000000
# 2 -0.004736 0.014547 -0.005463 0.000000 -0.000361 0.000000
# 3 -0.001399 -0.005463 0.017012 0.000000 0.008448 0.000000
# 4 0.000000 0.000000 0.000000 0.054860 0.000000 0.004041
# 5 0.008310 -0.000361 0.008448 0.000000 0.036130 0.000000
# 6 0.000000 0.000000 0.000000 0.004041 0.000000 0.108068
#
#
# Mechanical properties :
#
#
# Convention : Reuss Voigt Hill
#
# Bulk Modulus (GPa) = 33.64405 47.42970 40.53688
# Shear Modulus (GPa) = 17.53913 23.00475 20.27194
#
# Velocity S-wave (km/s) = 3.05636 3.50034 3.28586
# Velocity P-wave (km/s) = 5.51126 6.44962 5.99882
#
# Compressibility (1/GPa) = 0.02972294
#
# Stress axis : x y z
#
# Youngs Moduli (GPa) = 46.82226 68.74065 58.78245
#
# Poissons Ratio (x) = 0.32553 0.08221
# Poissons Ratio (y) = 0.22173 0.32111
# Poissons Ratio (z) = 0.06548 0.37551
#
# Static dielectric constant tensor:
#      x y z
#    x 3.430540 0.000000 -0.435870 
#    y 0.000000 3.359120 0.000000 
#    z -0.435870 0.000000 3.637910 
# 
# 
# High freq. dielectric constant tensor:
#      x y z
#    x 1.717270 0.000000 -0.031370 
#    y 0.000000 1.723100 0.000000 
#    z -0.031370 0.000000 1.727010 
# 
# From -- ./inp_files/37023.got.cif
#   From: 2010.06.25/outbox.cif.g09.slc.cpg/sg10_19_cif.got.tgz:37023.got - 2010.06.27 22:07:45.
