data_PCOD8061650
_publ_section_title
;
Structure prediction by ZEFSAII (Michael W. Deem and Ramdas Pophale) SiO2 
 PCOD8061650
Probable space group: P 2/M
;
_chemical_formula_sum "Si O2"
_cell_formula_units_Z 28
_cell_length_a 14.608682
_cell_length_b 7.507005
_cell_length_c 18.534491
_cell_angle_alpha 90.000000
_cell_angle_beta 140.490127
_cell_angle_gamma 90.000000
_cell_volume 1293.182138
_symmetry_space_group_name_H-M "P 2/M"
_symmetry_group_IT_number 10
_symmetry_cell_setting 'monoclinic'
loop_
_space_group_symop_operation_xyz
x,y,z
-x,y,-z
-x,-y,-z
x,-y,z
loop_
_atom_site_type_symbol
_atom_site_label
_atom_site_fract_x
_atom_site_fract_y
_atom_site_fract_z
Si Si1 0.163762 0.197312 0.403829
Si Si2 0.756771 0.500000 0.299539
Si Si3 0.956322 0.788954 0.819240
Si Si4 0.262944 0.788352 0.196086
Si Si5 0.267858 0.210843 0.035732
Si Si6 0.908894 0.500000 0.534494
Si Si7 0.538581 0.700714 0.446484
Si Si8 0.460535 0.211173 0.892567
O O1 0.126808 0.275949 0.302302
O O2 0.099285 0.320577 0.425247
O O3 0.336076 0.185868 0.514660
O O4 0.098204 0.000000 0.374985
O O5 0.770118 0.500000 0.395081
O O6 0.678310 0.324257 0.218742
O O7 0.927794 0.500000 0.392163
O O8 0.875909 0.719985 0.842873
O O9 0.959522 0.000000 0.825782
O O10 0.119307 0.716015 0.911332
O O11 0.261514 0.719038 0.113566
O O12 0.402249 0.698556 0.313063
O O13 0.274408 0.000000 0.207179
O O14 0.405212 0.280285 0.074284
O O15 0.273194 0.000000 0.036812
O O16 0.500000 0.788284 0.500000
O O17 0.596205 0.500000 0.492395
O O18 0.428069 0.000000 0.862479
O O19 0.500000 0.251462 0.000000
#
# Coordination Sequence:
#
# PCOD8061650 Si02
#       8
#     4   2   4   4   4   2   4   4
#     4  11  23  40  66  93 127 174 220 269 326 385
#     4  11  27  50  72  94 134 168 211 272 350 402
#     4   9  18  34  58  89 127 169 213 258 310 375
#     4  10  19  33  58  88 123 167 213 259 309 376
#     4   9  19  35  59  93 126 162 207 261 322 379
#     4  11  28  48  67 100 129 167 218 277 329 410
#     4  11  22  36  56  84 128 176 219 264 313 371
#     4  10  23  44  73 104 132 167 218 275 332 400
#
# _framework density 21.652018000000002
#
# number of rings (size 3 to 8) (size 9 to 14) (size 15 to 20)
#    0.000    1.857    2.143    1.071    4.000    3.429 
#    0.000    1.429    0.000    0.857    0.000    0.000 
#    0.000    0.000    0.000    0.000    0.000    0.000 
#
# Total GULP energy -347014.420360 kJ/mol
# GULP energy per Si atom -12393.372156 kJ/mol
# Density = 2.160274 g / cm^3
# Si number density = 21.652018 Si / 1000 Ang^3
#
#
#
# Elastic Constant Matrix: (Units=GPa)
#
#
# Indices 1 2 3 4 5 6 
#
# 1 105.3556 28.1716 60.1139 0.0000 -3.7041 0.0000
# 2 28.1716 76.6995 34.3988 0.0000 -7.3531 0.0000
# 3 60.1139 34.3988 137.3938 0.0000 7.2523 0.0000
# 4 0.0000 0.0000 0.0000 -73.3094 0.0000 -4.2452
# 5 -3.7041 -7.3531 7.2523 0.0000 41.3712 0.0000
# 6 0.0000 0.0000 0.0000 -4.2452 0.0000 13.3836
#
#
#
# Elastic Compliance Matrix: (Units=1/GPa)
#
#
# Indices 1 2 3 4 5 6 
#
# 1 0.013181 -0.002312 -0.005278 0.000000 0.001694 0.000000
# 2 -0.002312 0.015549 -0.003044 0.000000 0.003090 0.000000
# 3 -0.005278 -0.003044 0.010500 0.000000 -0.002854 0.000000
# 4 0.000000 0.000000 0.000000 -0.013395 0.000000 -0.004249
# 5 0.001694 0.003090 -0.002854 0.000000 0.025373 0.000000
# 6 0.000000 0.000000 0.000000 -0.004249 0.000000 0.073371
#
#
# Mechanical properties :
#
#
# Convention : Reuss Voigt Hill
#
# Bulk Modulus (GPa) = 55.67340 62.75748 59.21544
# Shear Modulus (GPa) = 32.93082 9.40672 21.16877
#
# Velocity S-wave (km/s) = 3.90412 2.08661 3.13018
# Velocity P-wave (km/s) = 6.78907 5.90362 6.36177
#
# Compressibility (1/GPa) = 0.01796190
#
# Stress axis : x y z
#
# Youngs Moduli (GPa) = 75.86851 64.31403 95.23503
#
# Poissons Ratio (x) = 0.14869 0.50261
# Poissons Ratio (y) = 0.17540 0.28994
# Poissons Ratio (z) = 0.40040 0.19580
#
# Static dielectric constant tensor:
#      x y z
#    x 4.089460 0.000000 -0.042550 
#    y 0.000000 3.610260 0.000000 
#    z -0.042550 0.000000 4.056020 
# 
# 
# High freq. dielectric constant tensor:
#      x y z
#    x 1.850780 0.000000 0.002060 
#    y 0.000000 1.837900 0.000000 
#    z 0.002060 0.000000 1.856770 
# 
# From -- ./inp_files/77842.got.cif
#   From: 2010.06.25/outbox.cif.g09.slc.cpg/sg10_39_cif.got.tgz:77842.got - 2010.06.27 22:07:45.
