data_PCOD8061153
_publ_section_title
;
Structure prediction by ZEFSAII (Michael W. Deem and Ramdas Pophale) SiO2 
 PCOD8061153
Probable space group: P 2/M
;
_chemical_formula_sum "Si O2"
_cell_formula_units_Z 32
_cell_length_a 21.687815
_cell_length_b 13.418345
_cell_length_c 16.670209
_cell_angle_alpha 90.000000
_cell_angle_beta 21.096955
_cell_angle_gamma 90.000000
_cell_volume 1746.202594
_symmetry_space_group_name_H-M "P 2/M"
_symmetry_group_IT_number 10
_symmetry_cell_setting 'monoclinic'
loop_
_space_group_symop_operation_xyz
x,y,z
-x,y,-z
-x,-y,-z
x,-y,z
loop_
_atom_site_type_symbol
_atom_site_label
_atom_site_fract_x
_atom_site_fract_y
_atom_site_fract_z
Si Si1 0.025102 0.771158 0.282832
Si Si2 0.163341 0.111457 0.358165
Si Si3 0.484954 0.608956 0.931971
Si Si4 0.349208 0.777247 0.001745
Si Si5 0.964912 0.113924 0.885244
Si Si6 0.339560 0.116649 0.636700
Si Si7 0.692172 0.211995 0.489952
Si Si8 0.830848 0.387873 0.419450
O O1 0.869419 0.813901 0.527008
O O2 0.074924 0.849688 0.155067
O O3 0.974308 0.668515 0.299126
O O4 0.196674 0.762082 0.125096
O O5 0.000000 0.110151 0.500000
O O6 0.202804 0.000000 0.342792
O O7 0.317999 0.146197 0.112845
O O8 0.401214 0.500000 0.044399
O O9 0.359887 0.667930 0.025993
O O10 0.671823 0.600054 0.669573
O O11 0.500000 0.662504 0.000000
O O12 0.527140 0.809776 0.745248
O O13 0.161483 0.131543 0.669501
O O14 0.920112 0.000000 0.938308
O O15 0.832096 0.158026 0.111627
O O16 0.500000 0.130824 0.500000
O O17 0.365257 0.193336 0.531552
O O18 0.325388 0.000000 0.626585
O O19 0.774915 0.321507 0.409199
O O20 0.893473 0.500000 0.317278
#
# Coordination Sequence:
#
# PCOD8061153 Si02
#       8
#     4   4   4   4   4   4   4   4
#     4  10  19  33  53  74 101 135 174 218 258 301
#     4   9  18  31  46  68 102 139 170 204 249 300
#     4   9  17  31  50  71  98 131 169 214 261 307
#     4  10  20  32  50  77 103 135 175 213 257 305
#     4  10  20  34  53  77 105 137 172 209 252 303
#     4  10  20  34  55  82 108 135 170 212 255 299
#     4  10  20  34  53  76 107 138 170 209 256 311
#     4   9  19  34  52  73  99 134 170 210 261 311
#
# _framework density 18.325479999999999
#
# number of rings (size 3 to 8) (size 9 to 14) (size 15 to 20)
#    0.000    2.375    0.000    2.625    0.000    3.000 
#    0.000    0.000    0.000   18.750    0.000    0.000 
#    0.000    0.000    0.000    0.000    0.000    0.000 
#
# Total GULP energy -396524.906473 kJ/mol
# GULP energy per Si atom -12391.403327 kJ/mol
# Density = 1.828377 g / cm^3
# Si number density = 18.325480 Si / 1000 Ang^3
#
#
#
# Elastic Constant Matrix: (Units=GPa)
#
#
# Indices 1 2 3 4 5 6 
#
# 1 105.5915 44.7316 47.6332 0.0000 9.1205 0.0000
# 2 44.7316 76.5130 51.1146 0.0000 6.8259 0.0000
# 3 47.6332 51.1146 98.4023 0.0000 7.0561 0.0000
# 4 0.0000 0.0000 0.0000 18.5201 0.0000 2.1856
# 5 9.1205 6.8259 7.0561 0.0000 31.2064 0.0000
# 6 0.0000 0.0000 0.0000 2.1856 0.0000 21.9982
#
#
#
# Elastic Compliance Matrix: (Units=1/GPa)
#
#
# Indices 1 2 3 4 5 6 
#
# 1 0.013534 -0.005290 -0.003662 0.000000 -0.001970 0.000000
# 2 -0.005290 0.022214 -0.008885 0.000000 -0.001304 0.000000
# 3 -0.003662 -0.008885 0.016603 0.000000 -0.000741 0.000000
# 4 0.000000 0.000000 0.000000 0.054636 0.000000 -0.005428
# 5 -0.001970 -0.001304 -0.000741 0.000000 0.033073 0.000000
# 6 0.000000 0.000000 0.000000 -0.005428 0.000000 0.045998
#
#
# Mechanical properties :
#
#
# Convention : Reuss Voigt Hill
#
# Bulk Modulus (GPa) = 59.96122 63.05172 61.50647
# Shear Modulus (GPa) = 21.99826 23.48010 22.73918
#
# Velocity S-wave (km/s) = 3.46847 3.58338 3.52639
# Velocity P-wave (km/s) = 6.98795 7.18346 7.08638
#
# Compressibility (1/GPa) = 0.01667744
#
# Stress axis : x y z
#
# Youngs Moduli (GPa) = 73.89030 45.01627 60.22879
#
# Poissons Ratio (x) = 0.23813 0.22056
# Poissons Ratio (y) = 0.39087 0.53513
# Poissons Ratio (z) = 0.27059 0.39996
#
# Static dielectric constant tensor:
#      x y z
#    x 3.553610 0.000000 0.303520 
#    y 0.000000 3.630230 0.000000 
#    z 0.303520 0.000000 3.606910 
# 
# 
# High freq. dielectric constant tensor:
#      x y z
#    x 1.712170 0.000000 0.004270 
#    y 0.000000 1.697490 0.000000 
#    z 0.004270 0.000000 1.709630 
# 
# From -- ./inp_files/70745.got.cif
#   From: 2010.06.25/outbox.cif.g09.slc.cpg/sg10_36_cif.got.tgz:70745.got - 2010.06.27 22:07:45.
