data_PCOD8061735
_publ_section_title
;
Structure prediction by ZEFSAII (Michael W. Deem and Ramdas Pophale) SiO2 
 PCOD8061735
Probable space group: P 2/M
;
_chemical_formula_sum "Si O2"
_cell_formula_units_Z 32
_cell_length_a 18.381071
_cell_length_b 8.685769
_cell_length_c 18.335821
_cell_angle_alpha 90.000000
_cell_angle_beta 35.706951
_cell_angle_gamma 90.000000
_cell_volume 1708.536629
_symmetry_space_group_name_H-M "P 2/M"
_symmetry_group_IT_number 10
_symmetry_cell_setting 'monoclinic'
loop_
_space_group_symop_operation_xyz
x,y,z
-x,y,-z
-x,-y,-z
x,-y,z
loop_
_atom_site_type_symbol
_atom_site_label
_atom_site_fract_x
_atom_site_fract_y
_atom_site_fract_z
Si Si1 0.050977 0.178408 0.533037
Si Si2 0.406808 0.818452 0.638560
Si Si3 0.323505 0.180399 0.329086
Si Si4 0.483844 0.678160 0.723705
Si Si5 0.367510 0.327113 0.143746
Si Si6 0.862687 0.180249 0.092443
Si Si7 0.752906 0.821689 0.028479
Si Si8 0.180769 0.823508 0.186291
O O1 0.183552 0.246679 0.447574
O O2 0.000000 0.257116 0.500000
O O3 0.959933 0.206376 0.674399
O O4 0.073314 0.000000 0.497312
O O5 0.500000 0.749375 0.500000
O O6 0.474160 0.778910 0.658956
O O7 0.260468 0.756339 0.761497
O O8 0.399463 0.000000 0.635011
O O9 0.392300 0.277906 0.334442
O O10 0.371229 0.211506 0.208640
O O11 0.337923 0.000000 0.334642
O O12 0.484906 0.500000 0.701540
O O13 0.368825 0.715863 0.870308
O O14 0.337620 0.500000 0.195066
O O15 0.269097 0.282165 0.162214
O O16 0.500000 0.317055 0.000000
O O17 0.869410 0.000000 0.102553
O O18 0.843376 0.216701 0.022559
O O19 0.000000 0.253265 0.000000
O O20 0.819975 0.780580 0.898298
O O21 0.711590 0.000000 0.065497
O O22 0.221092 0.000000 0.166351
#
# Coordination Sequence:
#
# PCOD8061735 Si02
#       8
#     4   4   4   4   4   4   4   4
#     4   9  17  33  54  76 101 132 172 221 273 319
#     4   9  18  35  58  85 112 142 182 224 267 319
#     4  11  21  36  57  77 103 137 177 222 265 314
#     4  11  22  36  55  79 111 145 178 217 267 319
#     4  11  23  35  49  74 105 136 172 217 266 318
#     4   8  14  28  51  81 112 138 170 219 271 315
#     4   9  18  33  55  80 106 138 180 222 266 317
#     4  10  19  34  54  76 101 135 178 221 267 318
#
# _framework density 18.729478
#
# number of rings (size 3 to 8) (size 9 to 14) (size 15 to 20)
#    0.000    2.250    1.250    3.375    0.000    3.750 
#    2.250    1.875    0.000    6.000    0.000    0.000 
#    0.000    0.000    0.000    0.000    0.000    0.000 
#
# Total GULP energy -396597.778992 kJ/mol
# GULP energy per Si atom -12393.680593 kJ/mol
# Density = 1.868685 g / cm^3
# Si number density = 18.729478 Si / 1000 Ang^3
#
#
#
# Elastic Constant Matrix: (Units=GPa)
#
#
# Indices 1 2 3 4 5 6 
#
# 1 103.4066 -1.7723 61.3188 0.0000 -16.6393 0.0000
# 2 -1.7723 16.7859 10.8930 0.0000 -8.6296 0.0000
# 3 61.3188 10.8930 124.9913 0.0000 -2.3255 0.0000
# 4 0.0000 0.0000 0.0000 16.1515 0.0000 -5.9131
# 5 -16.6393 -8.6296 -2.3255 0.0000 37.0365 0.0000
# 6 0.0000 0.0000 0.0000 -5.9131 0.0000 17.1360
#
#
#
# Elastic Compliance Matrix: (Units=1/GPa)
#
#
# Indices 1 2 3 4 5 6 
#
# 1 0.017040 0.013036 -0.009307 0.000000 0.010108 0.000000
# 2 0.013036 0.081827 -0.013078 0.000000 0.024101 0.000000
# 3 -0.009307 -0.013078 0.013588 0.000000 -0.006376 0.000000
# 4 0.000000 0.000000 0.000000 0.070866 0.000000 0.024454
# 5 0.010108 0.024101 -0.006376 0.000000 0.036757 0.000000
# 6 0.000000 0.000000 0.000000 0.024454 0.000000 0.066795
#
#
# Mechanical properties :
#
#
# Convention : Reuss Voigt Hill
#
# Bulk Modulus (GPa) = 10.66604 42.89585 26.78095
# Shear Modulus (GPa) = 14.84452 25.71441 20.27946
#
# Velocity S-wave (km/s) = 2.81832 3.70934 3.29410
# Velocity P-wave (km/s) = 4.03705 6.42636 5.36637
#
# Compressibility (1/GPa) = 0.09375551
#
# Stress axis : x y z
#
# Youngs Moduli (GPa) = 58.68648 12.22085 73.59573
#
# Poissons Ratio (x) = -0.15931 0.68499
# Poissons Ratio (y) = -0.76502 0.96248
# Poissons Ratio (z) = 0.54622 0.15982
#
# Static dielectric constant tensor:
#      x y z
#    x 33.406210 0.000000 -53.419940 
#    y 0.000000 3.212340 0.000000 
#    z -53.419940 0.000000 98.723140 
# 
# 
# High freq. dielectric constant tensor:
#      x y z
#    x 1.725030 0.000000 -0.003700 
#    y 0.000000 1.695770 0.000000 
#    z -0.003700 0.000000 1.734830 
# 
# From -- ./inp_files/86121.got.cif
#   From: 2010.06.25/outbox.cif.g09.slc.cpg/sg10_44_cif.got.tgz:86121.got - 2010.06.27 22:07:45.
