data_PCOD8061940
_publ_section_title
;
Structure prediction by ZEFSAII (Michael W. Deem and Ramdas Pophale) SiO2 
 PCOD8061940
Probable space group: P 2/M
;
_chemical_formula_sum "Si O2"
_cell_formula_units_Z 32
_cell_length_a 15.190983
_cell_length_b 14.401676
_cell_length_c 21.583942
_cell_angle_alpha 90.000000
_cell_angle_beta 159.173037
_cell_angle_gamma 90.000000
_cell_volume 1678.906495
_symmetry_space_group_name_H-M "P 2/M"
_symmetry_group_IT_number 10
_symmetry_cell_setting 'monoclinic'
loop_
_space_group_symop_operation_xyz
x,y,z
-x,y,-z
-x,-y,-z
x,-y,z
loop_
_atom_site_type_symbol
_atom_site_label
_atom_site_fract_x
_atom_site_fract_y
_atom_site_fract_z
Si Si1 0.220571 0.892120 0.514034
Si Si2 0.382556 0.768979 0.280775
Si Si3 0.897371 0.231150 0.027952
Si Si4 0.396250 0.395011 0.498990
Si Si5 0.291900 0.201342 0.809776
Si Si6 0.600448 0.399488 0.134033
Si Si7 0.886638 0.604022 0.111083
Si Si8 0.500745 0.108014 0.824652
O O1 0.411257 0.848770 0.589978
O O2 0.307963 0.874834 0.642017
O O3 0.954756 0.846401 0.327660
O O4 0.201252 0.000000 0.486042
O O5 0.499563 0.673610 0.381201
O O6 0.166058 0.807303 0.183582
O O7 0.273267 0.744925 0.142260
O O8 0.940555 0.327627 0.090547
O O9 0.765508 0.155297 0.984785
O O10 0.500000 0.367765 0.500000
O O11 0.475246 0.500000 0.568502
O O12 0.098546 0.384753 0.302675
O O13 0.222706 0.309092 0.747044
O O14 0.385084 0.148323 0.810664
O O15 0.500000 0.197809 0.000000
O O16 0.723316 0.500000 0.234432
O O17 0.500000 0.413838 0.000000
O O18 0.375566 0.373637 0.031270
O O19 0.895445 0.500000 0.089530
O O20 0.553209 0.000000 0.868735
#
# Coordination Sequence:
#
# PCOD8061940 Si02
#       8
#     4   4   4   4   4   4   4   4
#     4  10  23  41  59  81 112 153 191 230 285 342
#     4  10  22  36  58  80 116 150 187 237 282 328
#     4  10  20  37  55  86 111 145 192 237 282 330
#     4  10  20  34  54  82 110 146 188 225 270 333
#     4  11  22  36  61  89 115 144 186 235 282 330
#     4   9  19  34  54  83 114 148 184 221 274 335
#     4  10  19  34  57  80 113 151 188 229 273 336
#     4  10  21  39  61  82 109 147 190 236 286 340
#
# _framework density 19.060023999999999
#
# number of rings (size 3 to 8) (size 9 to 14) (size 15 to 20)
#    0.000    2.000    2.500    0.750    3.500    3.000 
#    0.000    3.750    0.000    2.625    0.000    0.000 
#    0.000    0.000    0.000    0.000    0.000    0.000 
#
# Total GULP energy -396712.200835 kJ/mol
# GULP energy per Si atom -12397.256276 kJ/mol
# Density = 1.901664 g / cm^3
# Si number density = 19.060024 Si / 1000 Ang^3
#
#
#
# Elastic Constant Matrix: (Units=GPa)
#
#
# Indices 1 2 3 4 5 6 
#
# 1 83.2317 54.0412 35.0642 0.0000 19.1160 0.0000
# 2 54.0412 151.9294 63.8930 0.0000 15.2891 0.0000
# 3 35.0642 63.8930 86.1311 0.0000 19.1439 0.0000
# 4 0.0000 0.0000 0.0000 28.1261 0.0000 -0.7983
# 5 19.1160 15.2891 19.1439 0.0000 21.1370 0.0000
# 6 0.0000 0.0000 0.0000 -0.7983 0.0000 31.9752
#
#
#
# Elastic Compliance Matrix: (Units=1/GPa)
#
#
# Indices 1 2 3 4 5 6 
#
# 1 0.018441 -0.004819 -0.001252 0.000000 -0.012057 0.000000
# 2 -0.004819 0.010832 -0.006637 0.000000 0.002534 0.000000
# 3 -0.001252 -0.006637 0.019688 0.000000 -0.011898 0.000000
# 4 0.000000 0.000000 0.000000 0.035579 0.000000 0.000888
# 5 -0.012057 0.002534 -0.011898 0.000000 0.067158 0.000000
# 6 0.000000 0.000000 0.000000 0.000888 0.000000 0.031296
#
#
# Mechanical properties :
#
#
# Convention : Reuss Voigt Hill
#
# Bulk Modulus (GPa) = 42.47394 69.69878 56.08636
# Shear Modulus (GPa) = 23.12040 27.46726 25.29383
#
# Velocity S-wave (km/s) = 3.48664 3.80029 3.64684
# Velocity P-wave (km/s) = 6.20818 7.47688 6.87187
#
# Compressibility (1/GPa) = 0.02354385
#
# Stress axis : x y z
#
# Youngs Moduli (GPa) = 54.22839 92.31672 50.79278
#
# Poissons Ratio (x) = 0.44490 0.06361
# Poissons Ratio (y) = 0.26134 0.33710
# Poissons Ratio (z) = 0.06791 0.61269
#
# Static dielectric constant tensor:
#      x y z
#    x 3.292890 0.000000 0.061570 
#    y 0.000000 3.722520 0.000000 
#    z 0.061570 0.000000 3.370400 
# 
# 
# High freq. dielectric constant tensor:
#      x y z
#    x 1.743670 0.000000 0.016290 
#    y 0.000000 1.750890 0.000000 
#    z 0.016290 0.000000 1.724450 
# 
# From -- ./inp_files/35095.got.cif
#   From: 2010.06.25/outbox.cif.g09.slc.cpg/sg10_18_cif.got.tgz:35095.got - 2010.06.27 22:07:45.
