data_PCOD8061922
_publ_section_title
;
Structure prediction by ZEFSAII (Michael W. Deem and Ramdas Pophale) SiO2 
 PCOD8061922
Probable space group: P 2/M
;
_chemical_formula_sum "Si O2"
_cell_formula_units_Z 32
_cell_length_a 25.757944
_cell_length_b 8.507210
_cell_length_c 14.796863
_cell_angle_alpha 90.000000
_cell_angle_beta 149.574253
_cell_angle_gamma 90.000000
_cell_volume 1642.025757
_symmetry_space_group_name_H-M "P 2/M"
_symmetry_group_IT_number 10
_symmetry_cell_setting 'monoclinic'
loop_
_space_group_symop_operation_xyz
x,y,z
-x,y,-z
-x,-y,-z
x,-y,z
loop_
_atom_site_type_symbol
_atom_site_label
_atom_site_fract_x
_atom_site_fract_y
_atom_site_fract_z
Si Si1 0.884884 0.181540 0.338139
Si Si2 0.725364 0.180843 0.948543
Si Si3 0.268697 0.317185 0.755550
Si Si4 0.005959 0.684498 0.906146
Si Si5 0.796268 0.815639 0.528253
Si Si6 0.342696 0.186599 0.516075
Si Si7 0.574186 0.188017 0.871398
Si Si8 0.783350 0.813064 0.842888
O O1 0.830524 0.286409 0.331899
O O2 0.000000 0.242389 0.500000
O O3 0.880452 0.000000 0.363028
O O4 0.831182 0.203629 0.161055
O O5 0.631787 0.251975 0.867388
O O6 0.739243 0.259557 0.870721
O O7 0.699648 0.000000 0.894330
O O8 0.277391 0.500000 0.746400
O O9 0.257915 0.221248 0.647186
O O10 0.371707 0.258491 0.959063
O O11 0.023485 0.500000 0.932761
O O12 0.903701 0.726186 0.697925
O O13 0.099850 0.763426 0.995328
O O14 0.000000 0.749596 0.000000
O O15 0.720453 0.753426 0.492552
O O16 0.816891 0.000000 0.569021
O O17 0.458395 0.251294 0.694723
O O18 0.287840 0.253666 0.344172
O O19 0.345843 0.000000 0.517964
O O20 0.582533 0.000000 0.889821
O O21 0.780500 0.000000 0.841439
#
# Coordination Sequence:
#
# PCOD8061922 Si02
#       8
#     4   4   4   4   4   4   4   4
#     4   9  18  34  55  81 111 147 189 230 278 335
#     4   8  16  30  53  83 113 143 179 227 277 325
#     4  11  23  38  55  82 114 147 187 233 285 341
#     4  11  23  38  55  80 116 154 187 230 283 336
#     4  11  22  38  59  84 112 149 191 236 282 334
#     4   9  19  34  58  86 110 141 192 241 281 329
#     4   9  18  38  60  81 111 148 186 234 287 336
#     4  10  19  34  56  86 115 147 190 231 275 335
#
# _framework density 19.488123000000002
#
# number of rings (size 3 to 8) (size 9 to 14) (size 15 to 20)
#    0.000    2.250    1.250    2.625    1.750    1.750 
#    0.000    9.375    0.000    0.000    0.000    4.375 
#    0.000    0.000    0.000    0.000    0.000    0.000 
#
# Total GULP energy -396815.888204 kJ/mol
# GULP energy per Si atom -12400.496506 kJ/mol
# Density = 1.944377 g / cm^3
# Si number density = 19.488123 Si / 1000 Ang^3
#
#
#
# Elastic Constant Matrix: (Units=GPa)
#
#
# Indices 1 2 3 4 5 6 
#
# 1 121.3812 6.8108 76.1040 0.0000 -14.9949 0.0000
# 2 6.8108 26.2964 5.7326 0.0000 -1.3957 0.0000
# 3 76.1040 5.7326 146.0114 0.0000 14.1023 0.0000
# 4 0.0000 0.0000 0.0000 13.8870 0.0000 -3.3217
# 5 -14.9949 -1.3957 14.1023 0.0000 35.8912 0.0000
# 6 0.0000 0.0000 0.0000 -3.3217 0.0000 12.1926
#
#
#
# Elastic Compliance Matrix: (Units=1/GPa)
#
#
# Indices 1 2 3 4 5 6 
#
# 1 0.014925 -0.001473 -0.008646 0.000000 0.009576 0.000000
# 2 -0.001473 0.038664 -0.000869 0.000000 0.001230 0.000000
# 3 -0.008646 -0.000869 0.012205 0.000000 -0.008442 0.000000
# 4 0.000000 0.000000 0.000000 0.077029 0.000000 0.020985
# 5 0.009576 0.001230 -0.008442 0.000000 0.035227 0.000000
# 6 0.000000 0.000000 0.000000 0.020985 0.000000 0.087734
#
#
# Mechanical properties :
#
#
# Convention : Reuss Voigt Hill
#
# Bulk Modulus (GPa) = 22.82170 52.33156 37.57663
# Shear Modulus (GPa) = 16.53616 26.06358 21.29987
#
# Velocity S-wave (km/s) = 2.91611 3.66103 3.30959
# Velocity P-wave (km/s) = 4.80356 6.69195 5.82479
#
# Compressibility (1/GPa) = 0.04381795
#
# Stress axis : x y z
#
# Youngs Moduli (GPa) = 67.00094 25.86372 81.93451
#
# Poissons Ratio (x) = 0.03808 0.70843
# Poissons Ratio (y) = 0.09866 0.07123
# Poissons Ratio (z) = 0.57931 0.02248
#
# Static dielectric constant tensor:
#      x y z
#    x 3.801750 0.000000 -0.015630 
#    y 0.000000 3.170710 0.000000 
#    z -0.015630 0.000000 3.657950 
# 
# 
# High freq. dielectric constant tensor:
#      x y z
#    x 1.767640 0.000000 -0.001190 
#    y 0.000000 1.725050 0.000000 
#    z -0.001190 0.000000 1.764650 
# 
# From -- ./inp_files/71646.got.cif
#   From: 2010.06.25/outbox.cif.g09.slc.cpg/sg10_36_cif.got.tgz:71646.got - 2010.06.27 22:07:45.
