data_PCOD8061234
_publ_section_title
;
Structure prediction by ZEFSAII (Michael W. Deem and Ramdas Pophale) SiO2 
 PCOD8061234
Probable space group: P 2/M
;
_chemical_formula_sum "Si O2"
_cell_formula_units_Z 32
_cell_length_a 24.354246
_cell_length_b 8.876294
_cell_length_c 17.783414
_cell_angle_alpha 90.000000
_cell_angle_beta 27.167567
_cell_angle_gamma 90.000000
_cell_volume 1755.302922
_symmetry_space_group_name_H-M "P 2/M"
_symmetry_group_IT_number 10
_symmetry_cell_setting 'monoclinic'
loop_
_space_group_symop_operation_xyz
x,y,z
-x,y,-z
-x,-y,-z
x,-y,z
loop_
_atom_site_type_symbol
_atom_site_label
_atom_site_fract_x
_atom_site_fract_y
_atom_site_fract_z
Si Si1 0.397719 0.177965 0.951287
Si Si2 0.804816 0.820449 0.914510
Si Si3 0.881032 0.821337 0.979402
Si Si4 0.159398 0.178013 0.648343
Si Si5 0.362701 0.322354 0.304369
Si Si6 0.026835 0.821014 0.549241
Si Si7 0.703656 0.822964 0.762921
Si Si8 0.866074 0.178509 0.158182
O O1 0.311442 0.237602 0.989316
O O2 0.339029 0.223952 0.102202
O O3 0.417041 0.000000 0.922532
O O4 0.524968 0.259112 0.785234
O O5 0.805836 0.759123 0.999396
O O6 0.926847 0.757970 0.727961
O O7 0.805881 0.000000 0.910182
O O8 0.020996 0.772746 0.804557
O O9 0.877821 0.000000 0.980870
O O10 0.817164 0.764715 0.135776
O O11 0.239619 0.266063 0.491311
O O12 0.202393 0.225838 0.681446
O O13 0.175756 0.000000 0.614992
O O14 0.366135 0.500000 0.300394
O O15 0.374164 0.262547 0.204975
O O16 0.158500 0.771202 0.415890
O O17 0.000000 0.752439 0.500000
O O18 0.020773 0.000000 0.552049
O O19 0.686426 0.000000 0.771059
O O20 0.871533 0.000000 0.150358
O O21 0.000000 0.243660 0.000000
#
# Coordination Sequence:
#
# PCOD8061234 Si02
#       8
#     4   4   4   4   4   4   4   4
#     4  10  20  34  51  70  92 124 166 204 236 278
#     4   9  15  24  43  73 104 127 150 189 237 284
#     4   8  13  23  46  82 110 123 144 187 242 289
#     4   9  16  30  52  76 100 127 157 190 233 286
#     4  12  25  36  47  65  93 128 167 208 244 279
#     4   9  14  24  45  76 104 121 145 186 234 278
#     4  10  19  33  54  75  95 121 158 201 241 286
#     4   7  11  21  42  74 107 128 144 178 233 291
#
# _framework density 18.230471999999999
#
# number of rings (size 3 to 8) (size 9 to 14) (size 15 to 20)
#    0.000    2.750    1.250    3.750    0.000    4.000 
#    0.000    0.000    0.000    7.500    0.000    5.250 
#    0.000    0.000    0.000    0.000    0.000    0.000 
#
# Total GULP energy -396459.373090 kJ/mol
# GULP energy per Si atom -12389.355409 kJ/mol
# Density = 1.818898 g / cm^3
# Si number density = 18.230472 Si / 1000 Ang^3
#
#
#
# Elastic Constant Matrix: (Units=GPa)
#
#
# Indices 1 2 3 4 5 6 
#
# 1 155.8485 23.7867 42.5928 0.0000 11.6805 0.0000
# 2 23.7867 32.5741 18.8612 0.0000 1.1110 0.0000
# 3 42.5928 18.8612 41.8451 0.0000 -0.7730 0.0000
# 4 0.0000 0.0000 0.0000 3.5630 0.0000 0.8946
# 5 11.6805 1.1110 -0.7730 0.0000 31.1073 0.0000
# 6 0.0000 0.0000 0.0000 0.8946 0.0000 -0.1471
#
#
#
# Elastic Compliance Matrix: (Units=1/GPa)
#
#
# Indices 1 2 3 4 5 6 
#
# 1 0.009361 -0.001561 -0.008892 0.000000 -0.003680 0.000000
# 2 -0.001561 0.041920 -0.017331 0.000000 -0.001342 0.000000
# 3 -0.008892 -0.017331 0.040852 0.000000 0.004973 0.000000
# 4 0.000000 0.000000 0.000000 0.111065 0.000000 0.675477
# 5 -0.003680 -0.001342 0.004973 0.000000 0.033700 0.000000
# 6 0.000000 0.000000 0.000000 0.675477 0.000000 -2.690354
#
#
# Mechanical properties :
#
#
# Convention : Reuss Voigt Hill
#
# Bulk Modulus (GPa) = 27.34878 44.52767 35.93822
# Shear Modulus (GPa) = -2.09582 16.57311 7.23865
#
# Velocity S-wave (km/s) = -1.07337 3.01838 1.99481
# Velocity P-wave (km/s) = 3.67397 6.05189 5.00617
#
# Compressibility (1/GPa) = 0.03656470
#
# Stress axis : x y z
#
# Youngs Moduli (GPa) = 106.82817 23.85498 24.47838
#
# Poissons Ratio (x) = 0.03724 0.21767
# Poissons Ratio (y) = 0.16677 0.42423
# Poissons Ratio (z) = 0.94996 0.41342
#
# Static dielectric constant tensor:
#      x y z
#    x 3.937450 0.000000 0.239520 
#    y 0.000000 2.722500 0.000000 
#    z 0.239520 0.000000 3.338330 
# 
# 
# High freq. dielectric constant tensor:
#      x y z
#    x 1.721890 0.000000 0.013810 
#    y 0.000000 1.638760 0.000000 
#    z 0.013810 0.000000 1.686090 
# 
# From -- ./inp_files/79916.got.cif
#   From: 2010.06.25/outbox.cif.g09.slc.cpg/sg10_40_cif.got.tgz:79916.got - 2010.06.27 22:07:45.
