data_PCOD8061565
_publ_section_title
;
Structure prediction by ZEFSAII (Michael W. Deem and Ramdas Pophale) SiO2 
 PCOD8061565
Probable space group: P 2/M
;
_chemical_formula_sum "Si O2"
_cell_formula_units_Z 28
_cell_length_a 22.002619
_cell_length_b 15.111189
_cell_length_c 9.418019
_cell_angle_alpha 90.000000
_cell_angle_beta 26.417254
_cell_angle_gamma 90.000000
_cell_volume 1393.156034
_symmetry_space_group_name_H-M "P 2/M"
_symmetry_group_IT_number 10
_symmetry_cell_setting 'monoclinic'
loop_
_space_group_symop_operation_xyz
x,y,z
-x,y,-z
-x,-y,-z
x,-y,z
loop_
_atom_site_type_symbol
_atom_site_label
_atom_site_fract_x
_atom_site_fract_y
_atom_site_fract_z
Si Si1 0.372717 0.157961 0.186374
Si Si2 0.988212 0.756662 0.364276
Si Si3 0.098046 0.098329 0.668458
Si Si4 0.143849 0.402828 0.718064
Si Si5 0.275717 0.283603 0.639190
Si Si6 0.533663 0.268575 0.276934
Si Si7 0.777243 0.603059 0.756352
O O1 0.250572 0.090406 0.413569
O O2 0.326348 0.231944 0.394639
O O3 0.500000 0.109392 0.000000
O O4 0.408847 0.198674 0.956532
O O5 0.902912 0.829868 0.455288
O O6 0.910893 0.660919 0.522229
O O7 0.000000 0.789427 0.500000
O O8 0.142942 0.760312 0.985726
O O9 0.056218 0.000000 0.701765
O O10 0.000000 0.130414 0.000000
O O11 0.097167 0.500000 0.855210
O O12 0.230545 0.377114 0.672721
O O13 0.234586 0.396350 0.388334
O O14 0.000000 0.347579 0.000000
O O15 0.390753 0.304001 0.513888
O O16 0.500000 0.222651 0.500000
O O17 0.637376 0.349188 0.097117
O O18 0.787929 0.500000 0.789212
#
# Coordination Sequence:
#
# PCOD8061565 Si02
#       7
#     4   4   4   4   4   4   4
#     4  10  21  39  64  91 124 161 209 258 307 376
#     4  12  24  40  65  94 131 171 205 259 318 378
#     4  11  23  42  71 101 128 161 206 260 318 379
#     4  10  19  33  56  84 115 152 208 265 303 355
#     4  11  21  36  61  89 118 165 209 253 309 373
#     4  11  23  39  59  88 124 169 212 259 314 369
#     4  11  23  39  61  90 126 169 216 266 317 370
#
# _framework density 20.098251000000001
#
# number of rings (size 3 to 8) (size 9 to 14) (size 15 to 20)
#    0.000    1.143    5.714    0.857    0.000    1.714 
#    0.000    2.857    0.000    0.429    0.000    0.000 
#    0.000    0.000    0.000    0.000    0.000    0.000 
#
# Total GULP energy -346893.453692 kJ/mol
# GULP energy per Si atom -12389.051918 kJ/mol
# Density = 2.005251 g / cm^3
# Si number density = 20.098251 Si / 1000 Ang^3
#
#
#
# Elastic Constant Matrix: (Units=GPa)
#
#
# Indices 1 2 3 4 5 6 
#
# 1 117.4484 32.4030 54.0823 0.0000 3.8052 0.0000
# 2 32.4030 70.2860 16.6896 0.0000 3.0205 0.0000
# 3 54.0823 16.6896 102.6055 0.0000 -8.6425 0.0000
# 4 0.0000 0.0000 0.0000 -5.9155 0.0000 4.3895
# 5 3.8052 3.0205 -8.6425 0.0000 44.3021 0.0000
# 6 0.0000 0.0000 0.0000 4.3895 0.0000 12.4401
#
#
#
# Elastic Compliance Matrix: (Units=1/GPa)
#
#
# Indices 1 2 3 4 5 6 
#
# 1 0.012559 -0.004258 -0.006094 0.000000 -0.001977 0.000000
# 2 -0.004258 0.016342 -0.000485 0.000000 -0.000843 0.000000
# 3 -0.006094 -0.000485 0.013302 0.000000 0.003151 0.000000
# 4 0.000000 0.000000 0.000000 -0.133969 0.000000 0.047271
# 5 -0.001977 -0.000843 0.003151 0.000000 0.023414 0.000000
# 6 0.000000 0.000000 0.000000 0.047271 0.000000 0.063705
#
#
# Mechanical properties :
#
#
# Convention : Reuss Voigt Hill
#
# Bulk Modulus (GPa) = 48.70847 55.18774 51.94811
# Shear Modulus (GPa) = 209.46127 22.64300 116.05213
#
# Velocity S-wave (km/s) = 10.21983 3.36015 7.60709
# Velocity P-wave (km/s) = 12.78858 6.52478 10.15186
#
# Compressibility (1/GPa) = 0.02053031
#
# Stress axis : x y z
#
# Youngs Moduli (GPa) = 79.62255 61.19210 75.17474
#
# Poissons Ratio (x) = 0.26056 0.45810
# Poissons Ratio (y) = 0.33904 0.03644
# Poissons Ratio (z) = 0.48520 0.02966
#
# Static dielectric constant tensor:
#      x y z
#    x 3.815590 0.000000 -0.172690 
#    y 0.000000 3.308150 0.000000 
#    z -0.172690 0.000000 3.931160 
# 
# 
# High freq. dielectric constant tensor:
#      x y z
#    x 1.787860 0.000000 -0.007850 
#    y 0.000000 1.749790 0.000000 
#    z -0.007850 0.000000 1.802390 
# 
# From -- ./inp_files/35253.got.cif
#   From: 2010.06.25/outbox.cif.g09.slc.cpg/sg10_18_cif.got.tgz:35253.got - 2010.06.27 22:07:45.
