data_PCOD8061415
_publ_section_title
;
Structure prediction by ZEFSAII (Michael W. Deem and Ramdas Pophale) SiO2 
 PCOD8061415
Probable space group: P 2/M
;
_chemical_formula_sum "Si O2"
_cell_formula_units_Z 32
_cell_length_a 9.166510
_cell_length_b 13.869414
_cell_length_c 19.858844
_cell_angle_alpha 90.000000
_cell_angle_beta 139.089685
_cell_angle_gamma 90.000000
_cell_volume 1653.391692
_symmetry_space_group_name_H-M "P 2/M"
_symmetry_group_IT_number 10
_symmetry_cell_setting 'monoclinic'
loop_
_space_group_symop_operation_xyz
x,y,z
-x,y,-z
-x,-y,-z
x,-y,z
loop_
_atom_site_type_symbol
_atom_site_label
_atom_site_fract_x
_atom_site_fract_y
_atom_site_fract_z
Si Si1 0.050494 0.775504 0.939006
Si Si2 0.844001 0.389239 0.654288
Si Si3 0.367410 0.107867 0.230088
Si Si4 0.363152 0.388428 0.020535
Si Si5 0.270025 0.279800 0.779386
Si Si6 0.600968 0.389911 0.431211
Si Si7 0.461485 0.894131 0.105788
Si Si8 0.765925 0.763747 0.388622
O O1 0.835081 0.818075 0.825235
O O2 0.131350 0.672033 0.937491
O O3 0.246326 0.852419 0.992951
O O4 0.000000 0.761614 0.000000
O O5 0.908650 0.500000 0.691409
O O6 0.771113 0.377059 0.551847
O O7 0.645029 0.354706 0.633125
O O8 0.057677 0.323331 0.743774
O O9 0.400908 0.100493 0.162608
O O10 0.591426 0.150242 0.341457
O O11 0.321649 0.000000 0.243135
O O12 0.302946 0.500000 0.011425
O O13 0.515293 0.349346 0.135536
O O14 0.500000 0.372685 0.000000
O O15 0.326219 0.175603 0.831695
O O16 0.216632 0.266630 0.682600
O O17 0.589917 0.500000 0.404580
O O18 0.687523 0.331979 0.398332
O O19 0.519458 0.000000 0.097465
O O20 0.000000 0.800561 0.500000
#
# Coordination Sequence:
#
# PCOD8061415 Si02
#       8
#     4   4   4   4   4   4   4   4
#     4   9  17  33  57  82 106 135 178 227 270 312
#     4   9  17  32  52  73 100 140 182 214 255 315
#     4   9  18  32  52  78 107 140 177 219 269 324
#     4  10  22  38  55  79 113 150 181 212 262 327
#     4  10  19  33  55  80 108 143 180 220 265 314
#     4   9  19  33  50  73 103 139 178 219 262 309
#     4   8  15  29  52  80 106 134 173 221 271 318
#     4  11  21  34  53  82 112 137 179 229 273 311
#
# _framework density 19.354156
#
# number of rings (size 3 to 8) (size 9 to 14) (size 15 to 20)
#    0.000    2.625    1.250    2.250    0.000    4.250 
#    0.000    1.875    0.000   13.125    0.000    1.750 
#    0.000    0.000    0.000    0.000    0.000    0.000 
#
# Total GULP energy -396690.521862 kJ/mol
# GULP energy per Si atom -12396.578808 kJ/mol
# Density = 1.931010 g / cm^3
# Si number density = 19.354156 Si / 1000 Ang^3
#
#
#
# Elastic Constant Matrix: (Units=GPa)
#
#
# Indices 1 2 3 4 5 6 
#
# 1 40.6346 40.4470 33.0802 0.0000 21.9093 0.0000
# 2 40.4470 151.2695 57.4978 0.0000 28.6697 0.0000
# 3 33.0802 57.4978 108.3723 0.0000 27.4634 0.0000
# 4 0.0000 0.0000 0.0000 20.9807 0.0000 15.2838
# 5 21.9093 28.6697 27.4634 0.0000 31.8178 0.0000
# 6 0.0000 0.0000 0.0000 15.2838 0.0000 20.8268
#
#
#
# Elastic Compliance Matrix: (Units=1/GPa)
#
#
# Indices 1 2 3 4 5 6 
#
# 1 0.047345 -0.006392 -0.005451 0.000000 -0.022137 0.000000
# 2 -0.006392 0.009731 -0.002694 0.000000 -0.002041 0.000000
# 3 -0.005451 -0.002694 0.013765 0.000000 -0.005700 0.000000
# 4 0.000000 0.000000 0.000000 0.102410 0.000000 -0.075153
# 5 -0.022137 -0.002041 -0.005700 0.000000 0.053431 0.000000
# 6 0.000000 0.000000 0.000000 -0.075153 0.000000 0.103166
#
#
# Mechanical properties :
#
#
# Convention : Reuss Voigt Hill
#
# Bulk Modulus (GPa) = 23.94235 62.48072 43.21154
# Shear Modulus (GPa) = 13.41040 26.00850 19.70945
#
# Velocity S-wave (km/s) = 2.63515 3.66979 3.19463
# Velocity P-wave (km/s) = 4.65362 7.09291 5.99857
#
# Compressibility (1/GPa) = 0.04176699
#
# Stress axis : x y z
#
# Youngs Moduli (GPa) = 21.12151 102.76666 72.64587
#
# Poissons Ratio (x) = 0.65688 0.39598
# Poissons Ratio (y) = 0.13501 0.19574
# Poissons Ratio (z) = 0.11513 0.27690
#
# Static dielectric constant tensor:
#      x y z
#    x 3.296870 0.000000 0.212450 
#    y 0.000000 3.714750 0.000000 
#    z 0.212450 0.000000 3.573020 
# 
# 
# High freq. dielectric constant tensor:
#      x y z
#    x 1.730880 0.000000 0.016010 
#    y 0.000000 1.751420 0.000000 
#    z 0.016010 0.000000 1.749190 
# 
# From -- ./inp_files/82831.got.cif
#   From: 2010.06.25/outbox.cif.g09.slc.cpg/sg10_42_cif.got.tgz:82831.got - 2010.06.27 22:07:45.
