data_PCOD8061412
_publ_section_title
;
Structure prediction by ZEFSAII (Michael W. Deem and Ramdas Pophale) SiO2 
 PCOD8061412
Probable space group: P 2/M
;
_chemical_formula_sum "Si O2"
_cell_formula_units_Z 28
_cell_length_a 14.376922
_cell_length_b 8.865683
_cell_length_c 17.557313
_cell_angle_alpha 90.000000
_cell_angle_beta 42.579844
_cell_angle_gamma 90.000000
_cell_volume 1514.185411
_symmetry_space_group_name_H-M "P 2/M"
_symmetry_group_IT_number 10
_symmetry_cell_setting 'monoclinic'
loop_
_space_group_symop_operation_xyz
x,y,z
-x,y,-z
-x,-y,-z
x,-y,z
loop_
_atom_site_type_symbol
_atom_site_label
_atom_site_fract_x
_atom_site_fract_y
_atom_site_fract_z
Si Si1 0.800366 0.178015 0.739454
Si Si2 0.859913 0.178162 0.120048
Si Si3 0.672832 0.322838 0.672063
Si Si4 0.908150 0.322699 0.411692
Si Si5 0.233513 0.176677 0.071721
Si Si6 0.925459 0.821937 0.246776
Si Si7 0.389179 0.179540 0.833240
O O1 0.702971 0.247610 0.734851
O O2 0.729511 0.218440 0.863489
O O3 0.953126 0.244368 0.643091
O O4 0.811245 0.000000 0.721497
O O5 0.845196 0.221773 0.218014
O O6 0.725930 0.237552 0.156796
O O7 0.868655 0.000000 0.104981
O O8 0.000000 0.248176 0.000000
O O9 0.662637 0.500000 0.689663
O O10 0.790620 0.278076 0.541841
O O11 0.530516 0.259027 0.725242
O O12 0.933855 0.500000 0.393063
O O13 0.858826 0.263106 0.358923
O O14 0.081621 0.237313 0.143513
O O15 0.228689 0.000000 0.062146
O O16 0.344620 0.238971 0.944467
O O17 0.920792 0.000000 0.266103
O O18 0.408748 0.000000 0.818191
#
# Coordination Sequence:
#
# PCOD8061412 Si02
#       7
#     4   4   4   4   4   4   4
#     4  10  20  35  59  85 104 129 174 225 268 313
#     4   9  15  28  56  87 110 134 169 215 267 316
#     4  11  24  39  51  70 107 149 182 216 261 312
#     4  10  21  37  55  75 104 143 181 217 262 312
#     4   8  15  29  51  81 109 132 163 210 264 315
#     4   9  16  30  55  85 109 132 171 221 265 309
#     4  10  19  33  55  80 108 141 176 213 259 316
#
# _framework density 18.491790000000002
#
# number of rings (size 3 to 8) (size 9 to 14) (size 15 to 20)
#    0.000    2.429    1.429    2.571    0.000    4.571 
#    0.000    7.857    0.000    5.143    0.000    0.000 
#    0.000    0.000    0.000    0.000    0.000    0.000 
#
# Total GULP energy -347132.248924 kJ/mol
# GULP energy per Si atom -12397.580319 kJ/mol
# Density = 1.844970 g / cm^3
# Si number density = 18.491790 Si / 1000 Ang^3
#
#
#
# Elastic Constant Matrix: (Units=GPa)
#
#
# Indices 1 2 3 4 5 6 
#
# 1 125.6791 27.0708 39.8258 0.0000 2.2879 0.0000
# 2 27.0708 40.8244 21.8037 0.0000 -1.8563 0.0000
# 3 39.8258 21.8037 52.5498 0.0000 -0.2563 0.0000
# 4 0.0000 0.0000 0.0000 2.8973 0.0000 0.5979
# 5 2.2879 -1.8563 -0.2563 0.0000 25.2783 0.0000
# 6 0.0000 0.0000 0.0000 0.5979 0.0000 12.5487
#
#
#
# Elastic Compliance Matrix: (Units=1/GPa)
#
#
# Indices 1 2 3 4 5 6 
#
# 1 0.010914 -0.003695 -0.006745 0.000000 -0.001328 0.000000
# 2 -0.003695 0.032840 -0.010813 0.000000 0.002636 0.000000
# 3 -0.006745 -0.010813 0.028628 0.000000 0.000107 0.000000
# 4 0.000000 0.000000 0.000000 0.348573 0.000000 -0.016608
# 5 -0.001328 0.002636 0.000107 0.000000 0.039874 0.000000
# 6 0.000000 0.000000 0.000000 -0.016608 0.000000 0.080481
#
#
# Mechanical properties :
#
#
# Convention : Reuss Voigt Hill
#
# Bulk Modulus (GPa) = 33.47026 44.05044 38.76035
# Shear Modulus (GPa) = 8.42069 16.83506 12.62787
#
# Velocity S-wave (km/s) = 2.13627 3.02057 2.61605
# Velocity P-wave (km/s) = 4.92181 6.00320 5.48920
#
# Compressibility (1/GPa) = 0.02987727
#
# Stress axis : x y z
#
# Youngs Moduli (GPa) = 91.62372 30.45043 34.93085
#
# Poissons Ratio (x) = 0.11252 0.23560
# Poissons Ratio (y) = 0.33858 0.37769
# Poissons Ratio (z) = 0.61798 0.32925
#
# Static dielectric constant tensor:
#      x y z
#    x 3.508340 0.000000 0.184920 
#    y 0.000000 3.110600 0.000000 
#    z 0.184920 0.000000 3.498770 
# 
# 
# High freq. dielectric constant tensor:
#      x y z
#    x 1.719570 0.000000 0.013780 
#    y 0.000000 1.688370 0.000000 
#    z 0.013780 0.000000 1.714170 
# 
# From -- ./inp_files/54990.got.cif
#   From: 2010.06.25/outbox.cif.g09.slc.cpg/sg10_28_cif.got.tgz:54990.got - 2010.06.27 22:07:45.
