data_PCOD8061103
_publ_section_title
;
Structure prediction by ZEFSAII (Michael W. Deem and Ramdas Pophale) SiO2 
 PCOD8061103
Probable space group: P 2/M
;
_chemical_formula_sum "Si O2"
_cell_formula_units_Z 28
_cell_length_a 16.436550
_cell_length_b 8.548398
_cell_length_c 15.999945
_cell_angle_alpha 90.000000
_cell_angle_beta 44.671595
_cell_angle_gamma 90.000000
_cell_volume 1580.502917
_symmetry_space_group_name_H-M "P 2/M"
_symmetry_group_IT_number 10
_symmetry_cell_setting 'monoclinic'
loop_
_space_group_symop_operation_xyz
x,y,z
-x,y,-z
-x,-y,-z
x,-y,z
loop_
_atom_site_type_symbol
_atom_site_label
_atom_site_fract_x
_atom_site_fract_y
_atom_site_fract_z
Si Si1 0.530937 0.684572 0.220354
Si Si2 0.217115 0.682619 0.562071
Si Si3 0.191852 0.676582 0.251543
Si Si4 0.241492 0.323318 0.035038
Si Si5 0.549936 0.816638 0.552073
Si Si6 0.297201 0.181894 0.336082
Si Si7 0.974526 0.817375 0.747114
O O1 0.519148 0.500000 0.214678
O O2 0.521320 0.724772 0.324976
O O3 0.431307 0.769368 0.240199
O O4 0.653982 0.746946 0.095931
O O5 0.236512 0.500000 0.561523
O O6 0.314759 0.774584 0.542655
O O7 0.225923 0.722942 0.457569
O O8 0.092736 0.733514 0.687837
O O9 0.173419 0.500000 0.298172
O O10 0.276532 0.678112 0.108288
O O11 0.245943 0.784006 0.282933
O O12 0.068330 0.748343 0.311408
O O13 0.213656 0.500000 0.026364
O O14 0.123751 0.220624 0.110601
O O15 0.500000 0.762151 0.500000
O O16 0.532892 0.000000 0.579252
O O17 0.285388 0.000000 0.365303
O O18 0.996564 0.000000 0.723049
#
# Coordination Sequence:
#
# PCOD8061103 Si02
#       7
#     4   4   4   4   4   4   4
#     4  10  19  34  55  77 103 137 172 209 255 305
#     4  11  21  35  55  76 102 137 172 208 255 307
#     4   9  18  34  49  70 102 138 179 216 253 296
#     4   8  18  34  51  72 101 138 176 212 250 299
#     4  10  21  37  57  83 110 132 160 204 257 306
#     4  11  21  32  47  74 105 135 177 220 261 300
#     4  10  19  33  52  75 102 135 174 214 256 299
#
# _framework density 17.715879999999999
#
# number of rings (size 3 to 8) (size 9 to 14) (size 15 to 20)
#    0.857    1.286    0.000    6.429    0.000    3.429 
#    0.000    5.714    0.000    0.857    0.000    6.000 
#    0.000    0.000    0.000    0.000    0.000    0.000 
#
# Total GULP energy -347079.760207 kJ/mol
# GULP energy per Si atom -12395.705722 kJ/mol
# Density = 1.767556 g / cm^3
# Si number density = 17.715880 Si / 1000 Ang^3
#
#
#
# Elastic Constant Matrix: (Units=GPa)
#
#
# Indices 1 2 3 4 5 6 
#
# 1 90.4581 9.5232 37.7887 0.0000 -3.9009 0.0000
# 2 9.5232 65.2777 9.7110 0.0000 -3.0707 0.0000
# 3 37.7887 9.7110 91.0692 0.0000 -26.4634 0.0000
# 4 0.0000 0.0000 0.0000 20.7429 0.0000 -4.8145
# 5 -3.9009 -3.0707 -26.4634 0.0000 14.7178 0.0000
# 6 0.0000 0.0000 0.0000 -4.8145 0.0000 23.9482
#
#
#
# Elastic Compliance Matrix: (Units=1/GPa)
#
#
# Indices 1 2 3 4 5 6 
#
# 1 0.014896 -0.001332 -0.010413 0.000000 -0.015053 0.000000
# 2 -0.001332 0.015687 -0.000569 0.000000 0.001897 0.000000
# 3 -0.010413 -0.000569 0.030420 0.000000 0.051817 0.000000
# 4 0.000000 0.000000 0.000000 0.050569 0.000000 0.010166
# 5 -0.015053 0.001897 0.051817 0.000000 0.157521 0.000000
# 6 0.000000 0.000000 0.000000 0.010166 0.000000 0.043801
#
#
# Mechanical properties :
#
#
# Convention : Reuss Voigt Hill
#
# Bulk Modulus (GPa) = 27.49156 40.09454 33.79305
# Shear Modulus (GPa) = 14.30016 24.53392 19.41704
#
# Velocity S-wave (km/s) = 2.84420 3.72540 3.31422
# Velocity P-wave (km/s) = 5.13202 6.41763 5.81049
#
# Compressibility (1/GPa) = 0.03637480
#
# Stress axis : x y z
#
# Youngs Moduli (GPa) = 67.13183 63.74556 32.87360
#
# Poissons Ratio (x) = 0.08492 0.34232
# Poissons Ratio (y) = 0.08943 0.01869
# Poissons Ratio (z) = 0.69906 0.03625
#
# Static dielectric constant tensor:
#      x y z
#    x 3.054120 0.000000 -0.099080 
#    y 0.000000 3.304980 0.000000 
#    z -0.099080 0.000000 3.258980 
# 
# 
# High freq. dielectric constant tensor:
#      x y z
#    x 1.656850 0.000000 -0.012580 
#    y 0.000000 1.699170 0.000000 
#    z -0.012580 0.000000 1.675760 
# 
# From -- ./inp_files/77716.got.cif
#   From: 2010.06.25/outbox.cif.g09.slc.cpg/sg10_39_cif.got.tgz:77716.got - 2010.06.27 22:07:45.
