data_PCOD8061956
_publ_section_title
;
Structure prediction by ZEFSAII (Michael W. Deem and Ramdas Pophale) SiO2 
 PCOD8061956
Probable space group: P 2/M
;
_chemical_formula_sum "Si O2"
_cell_formula_units_Z 28
_cell_length_a 19.521993
_cell_length_b 9.180356
_cell_length_c 16.629187
_cell_angle_alpha 90.000000
_cell_angle_beta 31.576175
_cell_angle_gamma 90.000000
_cell_volume 1560.560521
_symmetry_space_group_name_H-M "P 2/M"
_symmetry_group_IT_number 10
_symmetry_cell_setting 'monoclinic'
loop_
_space_group_symop_operation_xyz
x,y,z
-x,y,-z
-x,-y,-z
x,-y,z
loop_
_atom_site_type_symbol
_atom_site_label
_atom_site_fract_x
_atom_site_fract_y
_atom_site_fract_z
Si Si1 0.648890 0.167932 0.695987
Si Si2 0.769538 0.828870 0.054779
Si Si3 0.009110 0.672667 0.897464
Si Si4 0.348958 0.168501 0.995711
Si Si5 0.655549 0.336028 0.844327
Si Si6 0.249760 0.829922 0.576582
Si Si7 0.488417 0.827041 0.600737
O O1 0.499002 0.212430 0.824753
O O2 0.707403 0.258679 0.711834
O O3 0.743797 0.197413 0.525476
O O4 0.652395 0.000000 0.717559
O O5 0.892509 0.739980 0.962605
O O6 0.792975 0.000000 0.046825
O O7 0.744837 0.797362 0.985568
O O8 0.644442 0.767669 0.227724
O O9 0.005893 0.500000 0.891927
O O10 0.141317 0.733023 0.727141
O O11 0.000000 0.720119 0.000000
O O12 0.343356 0.000000 0.024552
O O13 0.291785 0.257305 0.128407
O O14 0.708327 0.500000 0.791824
O O15 0.500000 0.327638 0.000000
O O16 0.387519 0.774495 0.473141
O O17 0.224160 0.000000 0.621584
O O18 0.500000 0.762574 0.500000
O O19 0.483043 0.000000 0.606304
#
# Coordination Sequence:
#
# PCOD8061956 Si02
#       7
#     4   4   4   4   4   4   4
#     4   9  16  29  50  78 109 136 169 216 268 314
#     4  10  19  34  57  82 105 135 177 223 270 319
#     4  11  25  41  53  72 107 148 185 219 262 319
#     4   9  16  29  50  78 109 136 169 216 268 314
#     4   9  17  27  43  72 109 146 179 206 246 310
#     4  10  19  34  57  82 105 135 177 223 270 319
#     4   9  16  28  51  82 107 126 162 221 275 315
#
# _framework density 17.942271999999999
#
# number of rings (size 3 to 8) (size 9 to 14) (size 15 to 20)
#    0.000    2.429    1.429    1.714    0.000    5.143 
#    0.000    0.714    0.000    3.429    0.000    6.000 
#    0.000    0.000    0.000    0.000    0.000    0.000 
#
# Total GULP energy -347173.374098 kJ/mol
# GULP energy per Si atom -12399.049075 kJ/mol
# Density = 1.790143 g / cm^3
# Si number density = 17.942272 Si / 1000 Ang^3
#
#
#
# Elastic Constant Matrix: (Units=GPa)
#
#
# Indices 1 2 3 4 5 6 
#
# 1 87.8775 37.8469 15.5856 0.0000 24.1709 0.0000
# 2 37.8469 61.8176 16.4437 0.0000 15.9760 0.0000
# 3 15.5856 16.4437 39.8507 0.0000 16.0431 0.0000
# 4 0.0000 0.0000 0.0000 19.4714 0.0000 4.6458
# 5 24.1709 15.9760 16.0431 0.0000 29.9159 0.0000
# 6 0.0000 0.0000 0.0000 4.6458 0.0000 19.9172
#
#
#
# Elastic Compliance Matrix: (Units=1/GPa)
#
#
# Indices 1 2 3 4 5 6 
#
# 1 0.017656 -0.008355 0.000624 0.000000 -0.010138 0.000000
# 2 -0.008355 0.023447 -0.005209 0.000000 -0.002977 0.000000
# 3 0.000624 -0.005209 0.033263 0.000000 -0.015561 0.000000
# 4 0.000000 0.000000 0.000000 0.054384 0.000000 -0.012685
# 5 -0.010138 -0.002977 -0.015561 0.000000 0.051553 0.000000
# 6 0.000000 0.000000 0.000000 -0.012685 0.000000 0.053167
#
#
# Mechanical properties :
#
#
# Convention : Reuss Voigt Hill
#
# Bulk Modulus (GPa) = 20.62468 36.58870 28.60669
# Shear Modulus (GPa) = 18.14804 21.83888 19.99346
#
# Velocity S-wave (km/s) = 3.18381 3.49259 3.34177
# Velocity P-wave (km/s) = 5.00355 6.05813 5.55592
#
# Compressibility (1/GPa) = 0.04848560
#
# Stress axis : x y z
#
# Youngs Moduli (GPa) = 56.63876 42.64923 30.06313
#
# Poissons Ratio (x) = 0.35635 -0.01875
# Poissons Ratio (y) = 0.47324 0.15659
# Poissons Ratio (z) = -0.03533 0.22214
#
# Static dielectric constant tensor:
#      x y z
#    x 3.403070 0.000000 0.194320 
#    y 0.000000 3.152350 0.000000 
#    z 0.194320 0.000000 3.250680 
# 
# 
# High freq. dielectric constant tensor:
#      x y z
#    x 1.699740 0.000000 0.021180 
#    y 0.000000 1.674520 0.000000 
#    z 0.021180 0.000000 1.676430 
# 
# From -- ./inp_files/79260.got.cif
#   From: 2010.06.25/outbox.cif.g09.slc.cpg/sg10_40_cif.got.tgz:79260.got - 2010.06.27 22:07:45.
