data_PCOD8061535
_publ_section_title
;
Structure prediction by ZEFSAII (Michael W. Deem and Ramdas Pophale) SiO2 
 PCOD8061535
Probable space group: P 2/M
;
_chemical_formula_sum "Si O2"
_cell_formula_units_Z 32
_cell_length_a 14.251129
_cell_length_b 9.536797
_cell_length_c 12.510860
_cell_angle_alpha 90.000000
_cell_angle_beta 90.675074
_cell_angle_gamma 90.000000
_cell_volume 1700.234516
_symmetry_space_group_name_H-M "P 2/M"
_symmetry_group_IT_number 10
_symmetry_cell_setting 'monoclinic'
loop_
_space_group_symop_operation_xyz
x,y,z
-x,y,-z
-x,-y,-z
x,-y,z
loop_
_atom_site_type_symbol
_atom_site_label
_atom_site_fract_x
_atom_site_fract_y
_atom_site_fract_z
Si Si1 0.238221 0.344835 0.952965
Si Si2 0.968312 0.340970 0.112170
Si Si3 0.286932 0.663668 0.185040
Si Si4 0.195013 0.161385 0.372830
Si Si5 0.660457 0.840654 0.202907
Si Si6 0.536129 0.160046 0.882343
Si Si7 0.010587 0.159965 0.691776
Si Si8 0.207997 0.833656 0.608210
O O1 0.281523 0.500000 0.939830
O O2 0.143619 0.332508 0.884112
O O3 0.310669 0.235261 0.905938
O O4 0.221418 0.316962 0.079133
O O5 0.005301 0.500000 0.126141
O O6 0.014004 0.247294 0.203410
O O7 0.000000 0.277953 0.000000
O O8 0.301336 0.500000 0.213760
O O9 0.237850 0.739950 0.283142
O O10 0.386632 0.732613 0.158757
O O11 0.234247 0.214170 0.488192
O O12 0.081763 0.172936 0.382617
O O13 0.223371 0.000000 0.348623
O O14 0.548039 0.828931 0.206277
O O15 0.711914 0.776504 0.308918
O O16 0.693834 0.000000 0.190781
O O17 0.574808 0.000000 0.885341
O O18 0.500000 0.202214 0.000000
O O19 0.103990 0.223074 0.637432
O O20 0.029169 0.000000 0.725784
O O21 0.204839 0.000000 0.608489
#
# Coordination Sequence:
#
# PCOD8061535 Si02
#       8
#     4   4   4   4   4   4   4   4
#     4  10  20  33  51  76 108 145 180 219 271 324
#     4  10  20  33  48  71 110 151 182 218 268 325
#     4  11  23  38  57  81 112 149 186 226 273 330
#     4  10  21  37  57  81 111 147 186 231 278 321
#     4  10  19  34  58  84 109 138 176 224 273 325
#     4  10  20  35  58  87 114 141 177 225 280 333
#     4  10  19  33  56  83 108 140 186 233 273 319
#     4   9  18  35  58  83 111 144 185 230 275 323
#
# _framework density 18.820931999999999
#
# number of rings (size 3 to 8) (size 9 to 14) (size 15 to 20)
#    0.000    2.000    2.500    1.500    0.000    4.500 
#    0.000    1.875    0.000    5.250    0.000    0.000 
#    0.000    0.000    0.000    0.000    0.000    0.000 
#
# Total GULP energy -396693.229842 kJ/mol
# GULP energy per Si atom -12396.663433 kJ/mol
# Density = 1.877810 g / cm^3
# Si number density = 18.820932 Si / 1000 Ang^3
#
#
#
# Elastic Constant Matrix: (Units=GPa)
#
#
# Indices 1 2 3 4 5 6 
#
# 1 65.3279 27.2454 31.5484 0.0000 5.8632 0.0000
# 2 27.2454 70.5361 44.7980 0.0000 -2.2546 0.0000
# 3 31.5484 44.7980 115.2897 0.0000 6.3365 0.0000
# 4 0.0000 0.0000 0.0000 6.2055 0.0000 -2.0053
# 5 5.8632 -2.2546 6.3365 0.0000 24.7445 0.0000
# 6 0.0000 0.0000 0.0000 -2.0053 0.0000 22.3197
#
#
#
# Elastic Compliance Matrix: (Units=1/GPa)
#
#
# Indices 1 2 3 4 5 6 
#
# 1 0.019522 -0.005901 -0.002805 0.000000 -0.004445 0.000000
# 2 -0.005901 0.020935 -0.006797 0.000000 0.005046 0.000000
# 3 -0.002805 -0.006797 0.012252 0.000000 -0.003092 0.000000
# 4 0.000000 0.000000 0.000000 0.165965 0.000000 0.014911
# 5 -0.004445 0.005046 -0.003092 0.000000 0.042718 0.000000
# 6 0.000000 0.000000 0.000000 0.014911 0.000000 0.046143
#
#
# Mechanical properties :
#
#
# Convention : Reuss Voigt Hill
#
# Bulk Modulus (GPa) = 46.07689 50.92636 48.50163
# Shear Modulus (GPa) = 14.46021 20.49139 17.47580
#
# Velocity S-wave (km/s) = 2.77484 3.30321 3.05048
# Velocity P-wave (km/s) = 5.89925 6.45487 6.18331
#
# Compressibility (1/GPa) = 0.02170285
#
# Stress axis : x y z
#
# Youngs Moduli (GPa) = 51.22411 47.76730 81.61681
#
# Poissons Ratio (x) = 0.28190 0.22891
# Poissons Ratio (y) = 0.30230 0.55476
# Poissons Ratio (z) = 0.14367 0.32468
#
# Static dielectric constant tensor:
#      x y z
#    x 3.438650 0.000000 0.225730 
#    y 0.000000 3.313160 0.000000 
#    z 0.225730 0.000000 3.533020 
# 
# 
# High freq. dielectric constant tensor:
#      x y z
#    x 1.726550 0.000000 0.012120 
#    y 0.000000 1.713000 0.000000 
#    z 0.012120 0.000000 1.727200 
# 
# From -- ./inp_files/49810.got.cif
#   From: 2010.06.25/outbox.cif.g09.slc.cpg/sg10_25_cif.got.tgz:49810.got - 2010.06.27 22:07:45.
