data_PCOD8061788
_publ_section_title
;
Structure prediction by ZEFSAII (Michael W. Deem and Ramdas Pophale) SiO2 
 PCOD8061788
Probable space group: P 2/M
;
_chemical_formula_sum "Si O2"
_cell_formula_units_Z 28
_cell_length_a 16.933834
_cell_length_b 8.917565
_cell_length_c 15.058973
_cell_angle_alpha 90.000000
_cell_angle_beta 45.347608
_cell_angle_gamma 90.000000
_cell_volume 1617.710635
_symmetry_space_group_name_H-M "P 2/M"
_symmetry_group_IT_number 10
_symmetry_cell_setting 'monoclinic'
loop_
_space_group_symop_operation_xyz
x,y,z
-x,y,-z
-x,-y,-z
x,-y,z
loop_
_atom_site_type_symbol
_atom_site_label
_atom_site_fract_x
_atom_site_fract_y
_atom_site_fract_z
Si Si1 0.905494 0.172716 0.379074
Si Si2 0.240662 0.827590 0.338720
Si Si3 0.129650 0.321968 0.264361
Si Si4 0.470615 0.675208 0.124539
Si Si5 0.909822 0.677556 0.196228
Si Si6 0.151739 0.322518 0.944624
Si Si7 0.299931 0.678144 0.981983
O O1 0.803779 0.193778 0.526727
O O2 0.862778 0.235835 0.318544
O O3 0.009930 0.265879 0.330319
O O4 0.940347 0.000000 0.342737
O O5 0.159604 0.737639 0.337728
O O6 0.365260 0.767781 0.238636
O O7 0.239366 0.000000 0.310304
O O8 0.127457 0.500000 0.268774
O O9 0.222116 0.261007 0.122593
O O10 0.444999 0.500000 0.157548
O O11 0.573822 0.730890 0.103378
O O12 0.500000 0.710266 0.000000
O O13 0.899439 0.500000 0.219760
O O14 0.840454 0.731680 0.163871
O O15 0.037240 0.727778 0.081227
O O16 0.151516 0.500000 0.943266
O O17 0.254148 0.260998 0.923190
O O18 0.294845 0.500000 0.988668
#
# Coordination Sequence:
#
# PCOD8061788 Si02
#       7
#     4   4   4   4   4   4   4
#     4  11  23  36  49  72 109 144 172 209 258 307
#     4  11  24  38  50  70 106 145 176 211 256 305
#     4  11  20  34  56  79 103 135 173 211 255 307
#     4  10  19  34  55  78 101 131 175 220 256 297
#     4   9  16  29  53  78 101 133 172 208 252 313
#     4   8  14  27  50  80 106 129 162 210 264 307
#     4   9  16  29  52  79 107 130 158 211 265 301
#
# _framework density 17.308409999999999
#
# number of rings (size 3 to 8) (size 9 to 14) (size 15 to 20)
#    0.000    2.143    2.857    2.571    0.000    4.286 
#    0.000    1.429    0.000    0.857    0.000    6.000 
#    0.000    0.000    0.000    0.000    0.000    0.000 
#
# Total GULP energy -347143.422049 kJ/mol
# GULP energy per Si atom -12397.979359 kJ/mol
# Density = 1.726902 g / cm^3
# Si number density = 17.308410 Si / 1000 Ang^3
#
#
#
# Elastic Constant Matrix: (Units=GPa)
#
#
# Indices 1 2 3 4 5 6 
#
# 1 130.8404 37.4154 51.9848 0.0000 17.6541 0.0000
# 2 37.4154 64.9926 46.4382 0.0000 4.3116 0.0000
# 3 51.9848 46.4382 94.3841 0.0000 8.9646 0.0000
# 4 0.0000 0.0000 0.0000 16.5722 0.0000 -5.0998
# 5 17.6541 4.3116 8.9646 0.0000 27.2796 0.0000
# 6 0.0000 0.0000 0.0000 -5.0998 0.0000 9.2637
#
#
#
# Elastic Compliance Matrix: (Units=1/GPa)
#
#
# Indices 1 2 3 4 5 6 
#
# 1 0.010783 -0.003041 -0.003949 0.000000 -0.005200 0.000000
# 2 -0.003041 0.024586 -0.010569 0.000000 0.001556 0.000000
# 3 -0.003949 -0.010569 0.018135 0.000000 -0.001733 0.000000
# 4 0.000000 0.000000 0.000000 0.072650 0.000000 0.039994
# 5 -0.005200 0.001556 -0.001733 0.000000 0.040346 0.000000
# 6 0.000000 0.000000 0.000000 0.039994 0.000000 0.129965
#
#
# Mechanical properties :
#
#
# Convention : Reuss Voigt Hill
#
# Bulk Modulus (GPa) = 54.39198 62.43266 58.41232
# Shear Modulus (GPa) = 14.80551 20.91501 17.86026
#
# Velocity S-wave (km/s) = 2.92789 3.47994 3.21578
# Velocity P-wave (km/s) = 6.55160 7.23157 6.89996
#
# Compressibility (1/GPa) = 0.01838506
#
# Stress axis : x y z
#
# Youngs Moduli (GPa) = 92.73716 40.67377 55.14235
#
# Poissons Ratio (x) = 0.12370 0.21775
# Poissons Ratio (y) = 0.28203 0.58282
# Poissons Ratio (z) = 0.36621 0.42989
#
# Static dielectric constant tensor:
#      x y z
#    x 3.663540 0.000000 0.151370 
#    y 0.000000 3.034280 0.000000 
#    z 0.151370 0.000000 3.152040 
# 
# 
# High freq. dielectric constant tensor:
#      x y z
#    x 1.674910 0.000000 0.011340 
#    y 0.000000 1.646510 0.000000 
#    z 0.011340 0.000000 1.650930 
# 
# From -- ./inp_files/68560.got.cif
#   From: 2010.06.25/outbox.cif.g09.slc.cpg/sg10_35_cif.got.tgz:68560.got - 2010.06.27 22:07:45.
