data_PCOD8061605
_publ_section_title
;
Structure prediction by ZEFSAII (Michael W. Deem and Ramdas Pophale) SiO2 
 PCOD8061605
Probable space group: P 2/M
;
_chemical_formula_sum "Si O2"
_cell_formula_units_Z 32
_cell_length_a 14.423956
_cell_length_b 8.881659
_cell_length_c 23.976319
_cell_angle_alpha 90.000000
_cell_angle_beta 147.692995
_cell_angle_gamma 90.000000
_cell_volume 1641.620229
_symmetry_space_group_name_H-M "P 2/M"
_symmetry_group_IT_number 10
_symmetry_cell_setting 'monoclinic'
loop_
_space_group_symop_operation_xyz
x,y,z
-x,y,-z
-x,-y,-z
x,-y,z
loop_
_atom_site_type_symbol
_atom_site_label
_atom_site_fract_x
_atom_site_fract_y
_atom_site_fract_z
Si Si1 0.703144 0.326536 0.209218
Si Si2 0.683343 0.673196 0.973121
Si Si3 0.024589 0.178769 0.949335
Si Si4 0.211609 0.177873 0.859801
Si Si5 0.319478 0.178358 0.532116
Si Si6 0.815846 0.178235 0.653752
Si Si7 0.018961 0.321776 0.446699
Si Si8 0.703277 0.178604 0.714442
O O1 0.737666 0.500000 0.210613
O O2 0.693446 0.228852 0.148154
O O3 0.854900 0.264899 0.326910
O O4 0.518753 0.309567 0.146953
O O5 0.739947 0.500000 0.004313
O O6 0.798102 0.755944 0.985162
O O7 0.703194 0.743990 0.044032
O O8 0.859577 0.242828 0.831368
O O9 0.036726 0.000000 0.951338
O O10 0.000000 0.233341 0.000000
O O11 0.013646 0.231301 0.755354
O O12 0.229996 0.000000 0.876322
O O13 0.273803 0.241819 0.447420
O O14 0.197875 0.254711 0.515492
O O15 0.517986 0.225761 0.645948
O O16 0.292545 0.000000 0.521338
O O17 0.720455 0.242726 0.660216
O O18 0.802227 0.000000 0.646449
O O19 0.031039 0.500000 0.451080
O O20 0.000000 0.262629 0.500000
O O21 0.718453 0.000000 0.720102
#
# Coordination Sequence:
#
# PCOD8061605 Si02
#       8
#     4   4   4   4   4   4   4   4
#     4  10  22  39  57  80 113 150 186 227 279 336
#     4  11  23  38  57  82 113 150 188 227 277 335
#     4  10  21  38  58  81 111 147 188 232 276 324
#     4  11  20  34  59  87 113 144 183 228 279 334
#     4  10  19  33  57  85 108 137 180 226 272 324
#     4   9  16  29  53  82 109 137 170 214 267 325
#     4  10  22  40  58  76 106 149 189 228 276 325
#     4   9  17  32  55  82 112 142 173 217 275 330
#
# _framework density 19.492936
#
# number of rings (size 3 to 8) (size 9 to 14) (size 15 to 20)
#    0.000    2.000    2.500    1.500    0.000    5.500 
#    0.000    0.625    0.000    0.750    0.000    0.000 
#    0.000    0.000    0.000    0.000    0.000    0.000 
#
# Total GULP energy -396814.235537 kJ/mol
# GULP energy per Si atom -12400.444861 kJ/mol
# Density = 1.944857 g / cm^3
# Si number density = 19.492936 Si / 1000 Ang^3
#
#
#
# Elastic Constant Matrix: (Units=GPa)
#
#
# Indices 1 2 3 4 5 6 
#
# 1 164.8006 26.4719 65.9683 0.0000 0.7337 0.0000
# 2 26.4719 26.0955 16.9973 0.0000 -0.5659 0.0000
# 3 65.9683 16.9973 71.9024 0.0000 11.8650 0.0000
# 4 0.0000 0.0000 0.0000 16.6045 0.0000 1.4505
# 5 0.7337 -0.5659 11.8650 0.0000 35.7250 0.0000
# 6 0.0000 0.0000 0.0000 1.4505 0.0000 22.2284
#
#
#
# Elastic Compliance Matrix: (Units=1/GPa)
#
#
# Indices 1 2 3 4 5 6 
#
# 1 0.010336 -0.004689 -0.008810 0.000000 0.002639 0.000000
# 2 -0.004689 0.048124 -0.007634 0.000000 0.003394 0.000000
# 3 -0.008810 -0.007634 0.025164 0.000000 -0.008298 0.000000
# 4 0.000000 0.000000 0.000000 0.060570 0.000000 -0.003952
# 5 0.002639 0.003394 -0.008298 0.000000 0.030747 0.000000
# 6 0.000000 0.000000 0.000000 -0.003952 0.000000 0.045246
#
#
# Mechanical properties :
#
#
# Convention : Reuss Voigt Hill
#
# Bulk Modulus (GPa) = 24.17923 53.51927 38.84925
# Shear Modulus (GPa) = 18.10029 25.13565 21.61797
#
# Velocity S-wave (km/s) = 3.05053 3.59482 3.33380
# Velocity P-wave (km/s) = 4.98384 6.68922 5.89849
#
# Compressibility (1/GPa) = 0.04135781
#
# Stress axis : x y z
#
# Youngs Moduli (GPa) = 96.74911 20.77978 39.73871
#
# Poissons Ratio (x) = 0.09745 0.35010
# Poissons Ratio (y) = 0.45370 0.30335
# Poissons Ratio (z) = 0.85236 0.15863
#
# Static dielectric constant tensor:
#      x y z
#    x 3.623180 0.000000 0.030840 
#    y 0.000000 3.225160 0.000000 
#    z 0.030840 0.000000 3.786060 
# 
# 
# High freq. dielectric constant tensor:
#      x y z
#    x 1.765300 0.000000 0.009200 
#    y 0.000000 1.725120 0.000000 
#    z 0.009200 0.000000 1.768050 
# 
# From -- ./inp_files/71639.got.cif
#   From: 2010.06.25/outbox.cif.g09.slc.cpg/sg10_36_cif.got.tgz:71639.got - 2010.06.27 22:07:45.
