data_PCOD8061631
_publ_section_title
;
Structure prediction by ZEFSAII (Michael W. Deem and Ramdas Pophale) SiO2 
 PCOD8061631
Probable space group: P 2/M
;
_chemical_formula_sum "Si O2"
_cell_formula_units_Z 28
_cell_length_a 13.371689
_cell_length_b 9.054806
_cell_length_c 19.662479
_cell_angle_alpha 90.000000
_cell_angle_beta 35.193164
_cell_angle_gamma 90.000000
_cell_volume 1372.077195
_symmetry_space_group_name_H-M "P 2/M"
_symmetry_group_IT_number 10
_symmetry_cell_setting 'monoclinic'
loop_
_space_group_symop_operation_xyz
x,y,z
-x,y,-z
-x,-y,-z
x,-y,z
loop_
_atom_site_type_symbol
_atom_site_label
_atom_site_fract_x
_atom_site_fract_y
_atom_site_fract_z
Si Si1 0.685099 0.168777 0.067478
Si Si2 0.152916 0.669847 0.464050
Si Si3 0.489229 0.829626 0.307089
Si Si4 0.563429 0.329586 0.893255
Si Si5 0.051941 0.666609 0.288873
Si Si6 0.610527 0.674664 0.372878
Si Si7 0.027813 0.826089 0.803008
O O1 0.656034 0.188252 0.164631
O O2 0.532355 0.254144 0.115339
O O3 0.666468 0.000000 0.055493
O O4 0.876003 0.224381 0.939490
O O5 0.197574 0.500000 0.420685
O O6 0.320906 0.771269 0.359962
O O7 0.000000 0.727680 0.500000
O O8 0.100040 0.685002 0.572260
O O9 0.512917 0.732948 0.360907
O O10 0.462829 0.000000 0.342188
O O11 0.511943 0.500000 0.918948
O O12 0.768421 0.303146 0.771708
O O13 0.500000 0.261065 0.000000
O O14 0.051068 0.500000 0.258930
O O15 0.026184 0.782422 0.243048
O O16 0.500000 0.722973 0.500000
O O17 0.627232 0.500000 0.359094
O O18 0.800331 0.743150 0.269971
O O19 0.062543 0.000000 0.786881
#
# Coordination Sequence:
#
# PCOD8061631 Si02
#       7
#     4   4   4   4   4   4   4
#     4  10  23  40  58  86 124 162 196 240 297 353
#     4  10  21  38  60  86 120 160 199 242 296 351
#     4  11  24  42  63  88 121 158 199 245 294 350
#     4  10  19  33  57  87 119 159 204 245 287 344
#     4  10  20  35  56  86 121 155 197 249 298 346
#     4  11  25  45  67  90 117 150 192 244 301 356
#     4  11  23  39  61  88 118 154 196 241 294 353
#
# _framework density 20.407015999999999
#
# number of rings (size 3 to 8) (size 9 to 14) (size 15 to 20)
#    0.000    1.571    1.429    3.000    0.000    9.714 
#    0.000    2.857    0.000    0.000    0.000    0.000 
#    0.000    0.000    0.000    0.000    0.000    0.000 
#
# Total GULP energy -347303.647963 kJ/mol
# GULP energy per Si atom -12403.701713 kJ/mol
# Density = 2.036057 g / cm^3
# Si number density = 20.407016 Si / 1000 Ang^3
#
#
#
# Elastic Constant Matrix: (Units=GPa)
#
#
# Indices 1 2 3 4 5 6 
#
# 1 103.7890 41.2060 42.8198 0.0000 -5.3513 0.0000
# 2 41.2060 66.2561 38.7463 0.0000 -4.5067 0.0000
# 3 42.8198 38.7463 111.1802 0.0000 -7.2471 0.0000
# 4 0.0000 0.0000 0.0000 31.1539 0.0000 -11.5838
# 5 -5.3513 -4.5067 -7.2471 0.0000 33.5958 0.0000
# 6 0.0000 0.0000 0.0000 -11.5838 0.0000 65.9164
#
#
#
# Elastic Compliance Matrix: (Units=1/GPa)
#
#
# Indices 1 2 3 4 5 6 
#
# 1 0.013490 -0.006697 -0.002820 0.000000 0.000642 0.000000
# 2 -0.006697 0.022324 -0.005147 0.000000 0.000818 0.000000
# 3 -0.002820 -0.005147 0.011968 0.000000 0.001442 0.000000
# 4 0.000000 0.000000 0.000000 0.034343 0.000000 0.006035
# 5 0.000642 0.000818 0.001442 0.000000 0.030289 0.000000
# 6 0.000000 0.000000 0.000000 0.006035 0.000000 0.016231
#
#
# Mechanical properties :
#
#
# Convention : Reuss Voigt Hill
#
# Bulk Modulus (GPa) = 54.18915 58.52994 56.35955
# Shear Modulus (GPa) = 30.46463 36.69676 33.58070
#
# Velocity S-wave (km/s) = 3.86793 4.24517 4.06093
# Velocity P-wave (km/s) = 6.82347 7.26445 7.04741
#
# Compressibility (1/GPa) = 0.01845388
#
# Stress axis : x y z
#
# Youngs Moduli (GPa) = 74.12726 44.79532 83.55457
#
# Poissons Ratio (x) = 0.30000 0.23561
# Poissons Ratio (y) = 0.49645 0.43007
# Poissons Ratio (z) = 0.20902 0.23057
#
# Static dielectric constant tensor:
#      x y z
#    x 3.569990 0.000000 0.008280 
#    y 0.000000 3.631760 0.000000 
#    z 0.008280 0.000000 3.932760 
# 
# 
# High freq. dielectric constant tensor:
#      x y z
#    x 1.793540 0.000000 0.000670 
#    y 0.000000 1.790990 0.000000 
#    z 0.000670 0.000000 1.815010 
# 
# From -- ./inp_files/50085.got.cif
#   From: 2010.06.25/outbox.cif.g09.slc.cpg/sg10_26_cif.got.tgz:50085.got - 2010.06.27 22:07:45.
