data_PCOD8061514
_publ_section_title
;
Structure prediction by ZEFSAII (Michael W. Deem and Ramdas Pophale) SiO2 
 PCOD8061514
Probable space group: P 2/M
;
_chemical_formula_sum "Si O2"
_cell_formula_units_Z 20
_cell_length_a 11.883068
_cell_length_b 9.292584
_cell_length_c 10.007038
_cell_angle_alpha 90.000000
_cell_angle_beta 97.024222
_cell_angle_gamma 90.000000
_cell_volume 1096.727552
_symmetry_space_group_name_H-M "P 2/M"
_symmetry_group_IT_number 10
_symmetry_cell_setting 'monoclinic'
loop_
_space_group_symop_operation_xyz
x,y,z
-x,y,-z
-x,-y,-z
x,-y,z
loop_
_atom_site_type_symbol
_atom_site_label
_atom_site_fract_x
_atom_site_fract_y
_atom_site_fract_z
Si Si1 0.512538 0.161061 0.717077
Si Si2 0.872218 0.332209 0.449583
Si Si3 0.728894 0.828533 0.224684
Si Si4 0.285824 0.669003 0.326636
Si Si5 0.712564 0.161130 0.921711
O O1 0.387584 0.225623 0.722673
O O2 0.588758 0.261079 0.629008
O O3 0.505878 0.000000 0.655171
O O4 0.577304 0.156454 0.870282
O O5 0.862427 0.500000 0.414142
O O6 0.834178 0.242611 0.315082
O O7 0.794596 0.289173 0.563197
O O8 0.000000 0.287201 0.500000
O O9 0.732975 0.775447 0.072001
O O10 0.735683 0.000000 0.232232
O O11 0.299056 0.500000 0.310024
O O12 0.230052 0.736269 0.182974
O O13 0.764186 0.000000 0.917588
#
# Coordination Sequence:
#
# PCOD8061514 Si02
#       5
#     4   4   4   4   4
#     4   8  16  31  53  79 111 136 158 201 256 307
#     4  10  23  41  54  68  99 140 178 218 259 296
#     4  10  19  33  56  82 104 134 172 206 249 305
#     4   9  18  33  53  75 102 136 173 208 250 304
#     4   8  16  32  53  79 110 136 159 201 257 307
#
# _framework density 18.236068
#
# number of rings (size 3 to 8) (size 9 to 14) (size 15 to 20)
#    1.200    1.800    0.000    0.600    0.000    6.800 
#    0.000    6.000    0.000    6.000    0.000    0.000 
#    0.000    0.000    0.000    0.000    0.000    0.000 
#
# Total GULP energy -247808.860290 kJ/mol
# GULP energy per Si atom -12390.443014 kJ/mol
# Density = 1.819456 g / cm^3
# Si number density = 18.236068 Si / 1000 Ang^3
#
#
#
# Elastic Constant Matrix: (Units=GPa)
#
#
# Indices 1 2 3 4 5 6 
#
# 1 35.7418 16.3216 27.1586 0.0000 7.6893 0.0000
# 2 16.3216 47.1457 17.2152 0.0000 -0.2914 0.0000
# 3 27.1586 17.2152 60.8950 0.0000 12.3655 0.0000
# 4 0.0000 0.0000 0.0000 20.3805 0.0000 9.0923
# 5 7.6893 -0.2914 12.3655 0.0000 19.4889 0.0000
# 6 0.0000 0.0000 0.0000 9.0923 0.0000 17.0490
#
#
#
# Elastic Compliance Matrix: (Units=1/GPa)
#
#
# Indices 1 2 3 4 5 6 
#
# 1 0.046861 -0.010324 -0.016295 0.000000 -0.008305 0.000000
# 2 -0.010324 0.026409 -0.004326 0.000000 0.007213 0.000000
# 3 -0.016295 -0.004326 0.027113 0.000000 -0.010839 0.000000
# 4 0.000000 0.000000 0.000000 0.064385 0.000000 -0.034337
# 5 -0.008305 0.007213 -0.010839 0.000000 0.061573 0.000000
# 6 0.000000 0.000000 0.000000 -0.034337 0.000000 0.076967
#
#
# Mechanical properties :
#
#
# Convention : Reuss Voigt Hill
#
# Bulk Modulus (GPa) = 25.97868 29.46373 27.72121
# Shear Modulus (GPa) = 13.22648 16.92283 15.07465
#
# Velocity S-wave (km/s) = 2.69605 3.04959 2.87825
# Velocity P-wave (km/s) = 4.89574 5.34714 5.12641
#
# Compressibility (1/GPa) = 0.03849310
#
# Stress axis : x y z
#
# Youngs Moduli (GPa) = 21.33957 37.86534 36.88285
#
# Poissons Ratio (x) = 0.39094 0.60099
# Poissons Ratio (y) = 0.22032 0.15956
# Poissons Ratio (z) = 0.34772 0.16381
#
# Static dielectric constant tensor:
#      x y z
#    x 3.140270 0.000000 -0.044590 
#    y 0.000000 3.182700 0.000000 
#    z -0.044590 0.000000 3.229490 
# 
# 
# High freq. dielectric constant tensor:
#      x y z
#    x 1.681490 0.000000 -0.008070 
#    y 0.000000 1.697480 0.000000 
#    z -0.008070 0.000000 1.702140 
# 
# From -- ./inp_files/44755.got.cif
#   From: 2010.06.25/outbox.cif.g09.slc.cpg/sg10_23_cif.got.tgz:44755.got - 2010.06.27 22:07:45.
