data_PCOD8061880
_publ_section_title
;
Structure prediction by ZEFSAII (Michael W. Deem and Ramdas Pophale) SiO2 
 PCOD8061880
Probable space group: P 2/M
;
_chemical_formula_sum "Si O2"
_cell_formula_units_Z 32
_cell_length_a 14.885107
_cell_length_b 9.012752
_cell_length_c 25.501253
_cell_angle_alpha 90.000000
_cell_angle_beta 30.236851
_cell_angle_gamma 90.000000
_cell_volume 1722.803254
_symmetry_space_group_name_H-M "P 2/M"
_symmetry_group_IT_number 10
_symmetry_cell_setting 'monoclinic'
loop_
_space_group_symop_operation_xyz
x,y,z
-x,y,-z
-x,-y,-z
x,-y,z
loop_
_atom_site_type_symbol
_atom_site_label
_atom_site_fract_x
_atom_site_fract_y
_atom_site_fract_z
Si Si1 0.042893 0.326704 0.757537
Si Si2 0.841804 0.829290 0.043420
Si Si3 0.599853 0.175403 0.396414
Si Si4 0.261516 0.327110 0.007864
Si Si5 0.985096 0.174530 0.676520
Si Si6 0.665291 0.824251 0.559350
Si Si7 0.381007 0.176194 0.192663
Si Si8 0.448550 0.170049 0.273004
O O1 0.081026 0.500000 0.733902
O O2 0.208449 0.252340 0.703821
O O3 0.019701 0.260493 0.712013
O O4 0.862252 0.292933 0.880076
O O5 0.838632 0.732177 0.992898
O O6 0.661202 0.811855 0.167598
O O7 0.873180 0.000000 0.011215
O O8 0.000000 0.769164 0.000000
O O9 0.500000 0.221552 0.500000
O O10 0.481147 0.235516 0.407973
O O11 0.629052 0.000000 0.379420
O O12 0.298389 0.500000 0.982185
O O13 0.450118 0.246040 0.922335
O O14 0.796851 0.224353 0.747476
O O15 0.136886 0.220393 0.558497
O O16 0.991761 0.000000 0.685175
O O17 0.631715 0.753192 0.634101
O O18 0.643861 0.000000 0.572721
O O19 0.372949 0.238610 0.256679
O O20 0.408724 0.000000 0.179442
O O21 0.389281 0.000000 0.303791
#
# Coordination Sequence:
#
# PCOD8061880 Si02
#       8
#     4   4   4   4   4   4   4   4
#     4  11  24  38  53  78 110 146 183 222 270 323
#     4   9  18  32  53  81 109 138 178 225 267 312
#     4  10  19  34  56  80 109 144 179 221 266 314
#     4  10  22  38  54  75 108 146 182 221 270 325
#     4  10  20  36  57  81 107 139 181 228 274 321
#     4   9  17  30  52  82 112 140 173 213 266 324
#     4   9  19  36  58  81 107 138 178 230 277 317
#     4   8  15  29  49  79 112 137 168 212 266 320
#
# _framework density 18.574377999999999
#
# number of rings (size 3 to 8) (size 9 to 14) (size 15 to 20)
#    0.000    2.500    1.250    1.500    1.750    4.000 
#    0.000    5.000    0.000    3.000    0.000    4.375 
#    0.000    0.000    0.000    0.000    0.000    0.000 
#
# Total GULP energy -396775.261361 kJ/mol
# GULP energy per Si atom -12399.226918 kJ/mol
# Density = 1.853210 g / cm^3
# Si number density = 18.574378 Si / 1000 Ang^3
#
#
#
# Elastic Constant Matrix: (Units=GPa)
#
#
# Indices 1 2 3 4 5 6 
#
# 1 48.1638 13.0069 26.9862 0.0000 -25.7177 0.0000
# 2 13.0069 34.8448 31.1712 0.0000 -4.5294 0.0000
# 3 26.9862 31.1712 93.7637 0.0000 -4.2577 0.0000
# 4 0.0000 0.0000 0.0000 17.3631 0.0000 1.7578
# 5 -25.7177 -4.5294 -4.2577 0.0000 35.6555 0.0000
# 6 0.0000 0.0000 0.0000 1.7578 0.0000 9.2268
#
#
#
# Elastic Compliance Matrix: (Units=1/GPa)
#
#
# Indices 1 2 3 4 5 6 
#
# 1 0.042855 -0.003337 -0.009894 0.000000 0.029306 0.000000
# 2 -0.003337 0.041567 -0.012797 0.000000 0.001346 0.000000
# 3 -0.009894 -0.012797 0.017464 0.000000 -0.006677 0.000000
# 4 0.000000 0.000000 0.000000 0.058726 0.000000 -0.011188
# 5 0.029306 0.001346 -0.006677 0.000000 0.048558 0.000000
# 6 0.000000 0.000000 0.000000 -0.011188 0.000000 0.110511
#
#
# Mechanical properties :
#
#
# Convention : Reuss Voigt Hill
#
# Bulk Modulus (GPa) = 20.06814 35.45567 27.76190
# Shear Modulus (GPa) = 12.87504 19.48959 16.18232
#
# Velocity S-wave (km/s) = 2.63565 3.24276 2.95484
# Velocity P-wave (km/s) = 4.48217 5.75766 5.15948
#
# Compressibility (1/GPa) = 0.04983024
#
# Stress axis : x y z
#
# Youngs Moduli (GPa) = 23.33424 24.05734 57.26045
#
# Poissons Ratio (x) = 0.08027 0.56655
# Poissons Ratio (y) = 0.07786 0.73279
# Poissons Ratio (z) = 0.23088 0.30787
#
# Static dielectric constant tensor:
#      x y z
#    x 3.596950 0.000000 0.030090 
#    y 0.000000 3.106350 0.000000 
#    z 0.030090 0.000000 3.575990 
# 
# 
# High freq. dielectric constant tensor:
#      x y z
#    x 1.727990 0.000000 -0.000860 
#    y 0.000000 1.684900 0.000000 
#    z -0.000860 0.000000 1.728930 
# 
# From -- ./inp_files/66555.got.cif
#   From: 2010.06.25/outbox.cif.g09.slc.cpg/sg10_34_cif.got.tgz:66555.got - 2010.06.27 22:07:45.
