data_PCOD8061711
_publ_section_title
;
Structure prediction by ZEFSAII (Michael W. Deem and Ramdas Pophale) SiO2 
 PCOD8061711
Probable space group: P 2/M
;
_chemical_formula_sum "Si O2"
_cell_formula_units_Z 26
_cell_length_a 31.438066
_cell_length_b 8.118122
_cell_length_c 5.144603
_cell_angle_alpha 90.000000
_cell_angle_beta 59.621440
_cell_angle_gamma 90.000000
_cell_volume 1132.725175
_symmetry_space_group_name_H-M "P 2/M"
_symmetry_group_IT_number 10
_symmetry_cell_setting 'monoclinic'
loop_
_space_group_symop_operation_xyz
x,y,z
-x,y,-z
-x,-y,-z
x,-y,z
loop_
_atom_site_type_symbol
_atom_site_label
_atom_site_fract_x
_atom_site_fract_y
_atom_site_fract_z
Si Si1 0.192559 0.310314 0.211589
Si Si2 0.867753 0.690934 0.082301
Si Si3 0.302454 0.303257 0.856209
Si Si4 0.471217 0.696495 0.839012
Si Si5 0.360101 0.696396 0.176692
Si Si6 0.965729 0.500000 0.359376
Si Si7 0.057777 0.178326 0.778425
O O1 0.197364 0.500000 0.115952
O O2 0.156388 0.230655 0.104050
O O3 0.246931 0.230460 0.031385
O O4 0.171710 0.287040 0.563578
O O5 0.883563 0.500000 0.995875
O O6 0.916514 0.789672 0.021802
O O7 0.300859 0.500000 0.870612
O O8 0.330416 0.237383 0.516513
O O9 0.332299 0.234573 0.010265
O O10 0.500000 0.764199 0.500000
O O11 0.470245 0.500000 0.842312
O O12 0.500000 0.764479 0.000000
O O13 0.415645 0.766196 0.010792
O O14 0.361262 0.500000 0.172634
O O15 0.931048 0.333941 0.453794
O O16 0.000000 0.500000 0.500000
O O17 0.000000 0.500000 0.000000
O O18 0.075186 0.000000 0.612550
O O19 0.000000 0.171918 0.000000
#
# Coordination Sequence:
#
# PCOD8061711 Si02
#       7
#     4   4   4   4   4   2   4
#     4   9  18  30  48  70  95 125 160 206 263 325
#     4  10  19  34  53  76 103 135 170 209 264 323
#     4   9  15  24  36  54  76 101 140 190 248 309
#     4   9  15  21  27  38  60  93 136 185 241 303
#     4   9  15  21  32  47  68 100 139 190 250 306
#     4  10  22  40  62  86 116 150 186 228 274 322
#     4  10  22  41  63  89 118 151 189 230 275 330
#
# _framework density 22.953491
#
# number of rings (size 3 to 8) (size 9 to 14) (size 15 to 20)
#    0.000    2.615    0.769    1.846    0.000   10.154 
#    0.000    3.846    0.000    0.000    0.000    0.000 
#    0.000    0.000    0.000    0.000    0.000    0.000 
#
# Total GULP energy -322309.702369 kJ/mol
# GULP energy per Si atom -12396.527014 kJ/mol
# Density = 2.290125 g / cm^3
# Si number density = 22.953491 Si / 1000 Ang^3
#
#
#
# Elastic Constant Matrix: (Units=GPa)
#
#
# Indices 1 2 3 4 5 6 
#
# 1 192.6171 20.3119 34.3156 0.0000 4.2014 0.0000
# 2 20.3119 82.1195 3.3186 0.0000 7.3448 0.0000
# 3 34.3156 3.3186 51.0943 0.0000 8.3237 0.0000
# 4 0.0000 0.0000 0.0000 3.8546 0.0000 5.1327
# 5 4.2014 7.3448 8.3237 0.0000 52.0087 0.0000
# 6 0.0000 0.0000 0.0000 5.1327 0.0000 -4.5347
#
#
#
# Elastic Compliance Matrix: (Units=1/GPa)
#
#
# Indices 1 2 3 4 5 6 
#
# 1 0.006046 -0.001364 -0.004029 0.000000 0.000349 0.000000
# 2 -0.001364 0.012655 0.000377 0.000000 -0.001737 0.000000
# 3 -0.004029 0.000377 0.022803 0.000000 -0.003377 0.000000
# 4 0.000000 0.000000 0.000000 0.103474 0.000000 0.117120
# 5 0.000349 -0.001737 -0.003377 0.000000 0.019985 0.000000
# 6 0.000000 0.000000 0.000000 0.117120 0.000000 -0.087955
#
#
# Mechanical properties :
#
#
# Convention : Reuss Voigt Hill
#
# Bulk Modulus (GPa) = 31.77348 49.08033 40.42691
# Shear Modulus (GPa) = 51.26678 28.12470 39.69574
#
# Velocity S-wave (km/s) = 4.73113 3.50421 4.16312
# Velocity P-wave (km/s) = 6.61191 6.14830 6.38431
#
# Compressibility (1/GPa) = 0.03147279
#
# Stress axis : x y z
#
# Youngs Moduli (GPa) = 165.41097 79.02114 43.85395
#
# Poissons Ratio (x) = 0.10777 0.17667
# Poissons Ratio (y) = 0.22558 -0.01653
# Poissons Ratio (z) = 0.66636 -0.02979
#
# Static dielectric constant tensor:
#      x y z
#    x 4.480450 0.000000 0.064480 
#    y 0.000000 4.585830 0.000000 
#    z 0.064480 0.000000 4.297680 
# 
# 
# High freq. dielectric constant tensor:
#      x y z
#    x 1.926770 0.000000 -0.001020 
#    y 0.000000 1.835480 0.000000 
#    z -0.001020 0.000000 1.911530 
# 
# From -- ./inp_files/13536.got.cif
#   From: 2010.06.25/outbox.cif.g09.slc.cpg/sg10_7_cif.got.tgz:13536.got - 2010.06.27 22:07:45.
