data_PCOD8061451
_publ_section_title
;
Structure prediction by ZEFSAII (Michael W. Deem and Ramdas Pophale) SiO2 
 PCOD8061451
Probable space group: P 2/M
;
_chemical_formula_sum "Si O2"
_cell_formula_units_Z 32
_cell_length_a 19.209363
_cell_length_b 9.028015
_cell_length_c 10.124247
_cell_angle_alpha 90.000000
_cell_angle_beta 90.000019
_cell_angle_gamma 90.000000
_cell_volume 1755.771388
_symmetry_space_group_name_H-M "P 2/M"
_symmetry_group_IT_number 10
_symmetry_cell_setting 'monoclinic'
loop_
_space_group_symop_operation_xyz
x,y,z
-x,y,-z
-x,-y,-z
x,-y,z
loop_
_atom_site_type_symbol
_atom_site_label
_atom_site_fract_x
_atom_site_fract_y
_atom_site_fract_z
Si Si1 0.968530 0.671024 0.857413
Si Si2 0.546029 0.673763 0.374656
Si Si3 0.179624 0.674962 0.530268
Si Si4 0.953971 0.173763 0.374657
Si Si5 0.818469 0.328857 0.772185
Si Si6 0.320376 0.825038 0.530268
Si Si7 0.468530 0.828976 0.142587
Si Si8 0.318469 0.171143 0.227814
O O1 0.978841 0.500000 0.813756
O O2 0.886233 0.710171 0.859381
O O3 0.006652 0.778933 0.757026
O O4 0.000000 0.702045 0.000000
O O5 0.500000 0.719093 0.500000
O O6 0.561511 0.500000 0.371243
O O7 0.617922 0.762305 0.380423
O O8 0.506652 0.721067 0.242974
O O9 0.184376 0.500000 0.548803
O O10 0.117923 0.737698 0.619577
O O11 0.166644 0.721821 0.378180
O O12 0.250000 0.749998 0.582633
O O13 0.000000 0.219096 0.500000
O O14 0.938491 0.000000 0.371245
O O15 0.800636 0.500000 0.776301
O O16 0.750000 0.250000 0.831067
O O17 0.333356 0.778181 0.378180
O O18 0.315621 0.000000 0.548804
O O19 0.386233 0.789828 0.140619
O O20 0.478841 0.000000 0.186244
O O21 0.500000 0.797956 0.000000
O O22 0.300636 0.000000 0.223697
#
# Coordination Sequence:
#
# PCOD8061451 Si02
#       8
#     4   4   4   4   4   4   4   4
#     4  10  21  38  58  81 111 149 191 231 281 339
#     4  11  22  35  55  83 113 145 185 230 278 330
#     4  10  19  33  55  82 113 144 183 232 283 333
#     4  11  22  35  55  83 113 145 185 230 278 330
#     4   9  18  32  53  80 107 140 180 226 276 330
#     4  10  19  33  55  82 113 144 183 232 283 333
#     4  10  21  38  58  81 111 149 191 231 281 339
#     4   9  18  32  53  80 107 140 180 226 276 330
#
# _framework density 18.225605999999999
#
# number of rings (size 3 to 8) (size 9 to 14) (size 15 to 20)
#    0.000    2.000    2.500    1.500    0.000    3.500 
#    0.000    1.250    0.000    3.000    0.000    0.000 
#    0.000    0.000    0.000    0.000    0.000    0.000 
#
# Total GULP energy -396906.232791 kJ/mol
# GULP energy per Si atom -12403.319775 kJ/mol
# Density = 1.818412 g / cm^3
# Si number density = 18.225606 Si / 1000 Ang^3
#
#
#
# Elastic Constant Matrix: (Units=GPa)
#
#
# Indices 1 2 3 4 5 6 
#
# 1 157.0003 58.8435 50.9283 0.0000 -0.0006 0.0000
# 2 58.8435 74.5562 33.8593 0.0000 -0.0006 0.0000
# 3 50.9283 33.8593 68.5926 0.0000 0.0000 0.0000
# 4 0.0000 0.0000 0.0000 14.3171 0.0000 0.0000
# 5 -0.0006 -0.0006 0.0000 0.0000 28.5605 0.0000
# 6 0.0000 0.0000 0.0000 0.0000 0.0000 38.0312
#
#
#
# Elastic Compliance Matrix: (Units=1/GPa)
#
#
# Indices 1 2 3 4 5 6 
#
# 1 0.010045 -0.005853 -0.004569 0.000000 0.000000 0.000000
# 2 -0.005853 0.020699 -0.005872 0.000000 0.000000 0.000000
# 3 -0.004569 -0.005872 0.020870 0.000000 0.000000 0.000000
# 4 0.000000 0.000000 0.000000 0.069847 0.000000 0.000000
# 5 0.000000 0.000000 0.000000 0.000000 0.035013 0.000000
# 6 0.000000 0.000000 0.000000 0.000000 0.000000 0.026294
#
#
# Mechanical properties :
#
#
# Convention : Reuss Voigt Hill
#
# Bulk Modulus (GPa) = 52.55987 65.26791 58.91389
# Shear Modulus (GPa) = 22.55317 26.61630 24.58473
#
# Velocity S-wave (km/s) = 3.52155 3.82564 3.67674
# Velocity P-wave (km/s) = 6.74063 7.44331 7.10067
#
# Compressibility (1/GPa) = 0.01902592
#
# Stress axis : x y z
#
# Youngs Moduli (GPa) = 99.54866 48.31156 47.91641
#
# Poissons Ratio (x) = 0.28278 0.21893
# Poissons Ratio (y) = 0.58268 0.28135
# Poissons Ratio (z) = 0.45484 0.28367
#
# Static dielectric constant tensor:
#      x y z
#    x 3.596010 0.000000 -0.000010 
#    y 0.000000 3.335610 0.000000 
#    z -0.000010 0.000000 3.120910 
# 
# 
# High freq. dielectric constant tensor:
#      x y z
#    x 1.722840 0.000000 0.000000 
#    y 0.000000 1.710670 0.000000 
#    z 0.000000 0.000000 1.671420 
# 
# From -- ./inp_files/52696.got.cif
#   From: 2010.06.25/outbox.cif.g09.slc.cpg/sg10_27_cif.got.tgz:52696.got - 2010.06.27 22:07:45.
