data_PCOD8061110
_publ_section_title
;
Structure prediction by ZEFSAII (Michael W. Deem and Ramdas Pophale) SiO2 
 PCOD8061110
Probable space group: P 2/M
;
_chemical_formula_sum "Si O2"
_cell_formula_units_Z 24
_cell_length_a 20.722958
_cell_length_b 8.382371
_cell_length_c 9.184011
_cell_angle_alpha 90.000000
_cell_angle_beta 131.537310
_cell_angle_gamma 90.000000
_cell_volume 1194.144257
_symmetry_space_group_name_H-M "P 2/M"
_symmetry_group_IT_number 10
_symmetry_cell_setting 'monoclinic'
loop_
_space_group_symop_operation_xyz
x,y,z
-x,y,-z
-x,-y,-z
x,-y,z
loop_
_atom_site_type_symbol
_atom_site_label
_atom_site_fract_x
_atom_site_fract_y
_atom_site_fract_z
Si Si1 0.252030 0.189242 0.459826
Si Si2 0.082874 0.189896 0.038284
Si Si3 0.404682 0.684194 0.503599
Si Si4 0.248474 0.189443 0.785598
Si Si5 0.586940 0.186057 0.795470
Si Si6 0.916540 0.809604 0.289955
O O1 0.169330 0.250145 0.246566
O O2 0.337167 0.271373 0.526251
O O3 0.240925 0.247559 0.608670
O O4 0.262491 0.000000 0.465289
O O5 0.079988 0.000000 0.034302
O O6 0.081772 0.256299 0.872246
O O7 0.000000 0.258082 0.000000
O O8 0.397492 0.500000 0.450632
O O9 0.386318 0.788049 0.332315
O O10 0.500252 0.719822 0.707101
O O11 0.167939 0.258783 0.755883
O O12 0.246274 0.000000 0.791358
O O13 0.337094 0.252993 0.988374
O O14 0.570768 0.000000 0.798064
O O15 0.000000 0.745002 0.500000
O O16 0.916033 0.000000 0.288476
#
# Coordination Sequence:
#
# PCOD8061110 Si02
#       6
#     4   4   4   4   4   4
#     4  10  19  33  52  75 105 138 174 213 256 305
#     4   9  16  26  45  74 105 136 170 211 257 302
#     4  11  22  36  53  76 104 134 172 213 259 310
#     4   9  18  30  48  75 103 134 172 213 254 302
#     4  10  19  35  57  78 101 132 172 214 260 308
#     4   9  15  24  40  67 105 139 166 203 253 303
#
# _framework density 20.098074
#
# number of rings (size 3 to 8) (size 9 to 14) (size 15 to 20)
#    0.000    2.333    0.000    5.000    0.000    7.333 
#    0.000    5.000    0.000    0.500    0.000    0.000 
#    0.000    8.000    0.000    0.000    0.000    0.000 
#
# Total GULP energy -297642.177604 kJ/mol
# GULP energy per Si atom -12401.757400 kJ/mol
# Density = 2.005233 g / cm^3
# Si number density = 20.098074 Si / 1000 Ang^3
#
#
#
# Elastic Constant Matrix: (Units=GPa)
#
#
# Indices 1 2 3 4 5 6 
#
# 1 189.2566 12.8344 96.5472 0.0000 -1.1913 0.0000
# 2 12.8344 27.8475 9.3663 0.0000 2.9832 0.0000
# 3 96.5472 9.3663 197.0830 0.0000 2.4654 0.0000
# 4 0.0000 0.0000 0.0000 0.0892 0.0000 -2.7937
# 5 -1.1913 2.9832 2.4654 0.0000 31.3714 0.0000
# 6 0.0000 0.0000 0.0000 -2.7937 0.0000 0.6245
#
#
#
# Elastic Compliance Matrix: (Units=1/GPa)
#
#
# Indices 1 2 3 4 5 6 
#
# 1 0.007187 -0.002242 -0.003424 0.000000 0.000755 0.000000
# 2 -0.002242 0.037545 -0.000641 0.000000 -0.003605 0.000000
# 3 -0.003424 -0.000641 0.006789 0.000000 -0.000603 0.000000
# 4 0.000000 0.000000 0.000000 -0.080586 0.000000 -0.360522
# 5 0.000755 -0.003605 -0.000603 0.000000 0.032295 0.000000
# 6 0.000000 0.000000 0.000000 -0.360522 0.000000 -0.011517
#
#
# Mechanical properties :
#
#
# Convention : Reuss Voigt Hill
#
# Bulk Modulus (GPa) = 25.70155 72.40921 49.05538
# Shear Modulus (GPa) = 289.09125 26.11297 157.60211
#
# Velocity S-wave (km/s) = 12.00635 3.60846 8.86492
# Velocity P-wave (km/s) = 14.31849 7.31214 11.36852
#
# Compressibility (1/GPa) = 0.03890816
#
# Stress axis : x y z
#
# Youngs Moduli (GPa) = 139.13587 26.63483 147.29159
#
# Poissons Ratio (x) = 0.05971 0.50430
# Poissons Ratio (y) = 0.31191 0.09441
# Poissons Ratio (z) = 0.47637 0.01707
#
# Static dielectric constant tensor:
#      x y z
#    x 3.782410 0.000000 0.065490 
#    y 0.000000 3.016470 0.000000 
#    z 0.065490 0.000000 3.849990 
# 
# 
# High freq. dielectric constant tensor:
#      x y z
#    x 1.796960 0.000000 0.006000 
#    y 0.000000 1.728590 0.000000 
#    z 0.006000 0.000000 1.795260 
# 
# From -- ./inp_files/33955.got.cif
#   From: 2010.06.25/outbox.cif.g09.slc.cpg/sg10_17_cif.got.tgz:33955.got - 2010.06.27 22:07:45.
