data_PCOD8061252
_publ_section_title
;
Structure prediction by ZEFSAII (Michael W. Deem and Ramdas Pophale) SiO2 
 PCOD8061252
Probable space group: P 2/M
;
_chemical_formula_sum "Si O2"
_cell_formula_units_Z 32
_cell_length_a 12.929541
_cell_length_b 18.144684
_cell_length_c 15.034783
_cell_angle_alpha 90.000000
_cell_angle_beta 149.306678
_cell_angle_gamma 90.000000
_cell_volume 1800.431799
_symmetry_space_group_name_H-M "P 2/M"
_symmetry_group_IT_number 10
_symmetry_cell_setting 'monoclinic'
loop_
_space_group_symop_operation_xyz
x,y,z
-x,y,-z
-x,-y,-z
x,-y,z
loop_
_atom_site_type_symbol
_atom_site_label
_atom_site_fract_x
_atom_site_fract_y
_atom_site_fract_z
Si Si1 0.560551 0.782304 0.306679
Si Si2 0.587810 0.916364 0.204400
Si Si3 0.122032 0.727618 0.000053
Si Si4 0.947351 0.217687 0.693433
Si Si5 0.247207 0.418455 0.000033
Si Si6 0.079786 0.640363 0.699469
Si Si7 0.179041 0.916365 0.795558
Si Si8 0.319116 0.359627 0.699417
O O1 0.600422 0.863460 0.298182
O O2 0.707759 0.770436 0.500083
O O3 0.613344 0.724412 0.267899
O O4 0.331994 0.770710 0.170224
O O5 0.771692 0.901170 0.271738
O O6 0.600517 0.000000 0.249048
O O7 0.378188 0.901745 0.999977
O O8 0.157265 0.642457 0.999980
O O9 0.991864 0.770783 0.830017
O O10 0.000000 0.729893 0.000000
O O11 0.077654 0.275603 0.732201
O O12 0.004092 0.136546 0.701743
O O13 0.196819 0.500000 0.000059
O O14 0.144172 0.412500 0.827121
O O15 0.489968 0.412477 0.172957
O O16 0.247947 0.634688 0.747937
O O17 0.859845 0.615875 0.500029
O O18 0.102445 0.000000 0.750894
#
# Coordination Sequence:
#
# PCOD8061252 Si02
#       8
#     4   4   4   4   4   4   4   4
#     4  10  19  33  54  77 102 135 175 216 255 298
#     4   9  17  29  48  78 115 149 175 201 240 292
#     4  10  22  40  58  75  95 124 165 219 275 312
#     4  10  19  33  54  77 102 135 175 216 255 298
#     4  10  21  35  52  76 101 128 164 204 249 306
#     4   9  18  31  48  74 107 140 170 199 236 289
#     4   9  17  29  48  78 115 149 175 201 240 292
#     4   9  18  31  48  74 107 140 170 199 236 289
#
# _framework density 17.773513999999999
#
# number of rings (size 3 to 8) (size 9 to 14) (size 15 to 20)
#    0.000    2.500    1.250    1.875    0.000    4.250 
#    0.000    2.500    0.000    1.500    0.000    8.750 
#    0.000    0.000    0.000    0.000    0.000    0.000 
#
# Total GULP energy -396795.253250 kJ/mol
# GULP energy per Si atom -12399.851664 kJ/mol
# Density = 1.773306 g / cm^3
# Si number density = 17.773514 Si / 1000 Ang^3
#
#
#
# Elastic Constant Matrix: (Units=GPa)
#
#
# Indices 1 2 3 4 5 6 
#
# 1 105.4875 42.4913 51.0237 0.0000 2.5855 0.0000
# 2 42.4913 104.0528 38.0656 0.0000 0.3568 0.0000
# 3 51.0237 38.0656 103.2559 0.0000 -2.2585 0.0000
# 4 0.0000 0.0000 0.0000 19.0146 0.0000 -0.2826
# 5 2.5855 0.3568 -2.2585 0.0000 9.1838 0.0000
# 6 0.0000 0.0000 0.0000 -0.2826 0.0000 14.7803
#
#
#
# Elastic Compliance Matrix: (Units=1/GPa)
#
#
# Indices 1 2 3 4 5 6 
#
# 1 0.013739 -0.003547 -0.005593 0.000000 -0.005106 0.000000
# 2 -0.003547 0.012043 -0.002690 0.000000 -0.000131 0.000000
# 3 -0.005593 -0.002690 0.013550 0.000000 0.005011 0.000000
# 4 0.000000 0.000000 0.000000 0.052606 0.000000 0.001006
# 5 -0.005106 -0.000131 0.005011 0.000000 0.111562 0.000000
# 6 0.000000 0.000000 0.000000 0.001006 0.000000 0.067677
#
#
# Mechanical properties :
#
#
# Convention : Reuss Voigt Hill
#
# Bulk Modulus (GPa) = 63.80763 63.99525 63.90144
# Shear Modulus (GPa) = 16.66320 20.67677 18.66999
#
# Velocity S-wave (km/s) = 3.06523 3.41449 3.24456
# Velocity P-wave (km/s) = 6.96462 7.18534 7.07584
#
# Compressibility (1/GPa) = 0.01567211
#
# Stress axis : x y z
#
# Youngs Moduli (GPa) = 72.78516 83.03265 73.80140
#
# Poissons Ratio (x) = 0.29450 0.41279
# Poissons Ratio (y) = 0.25816 0.19853
# Poissons Ratio (z) = 0.40711 0.22336
#
# Static dielectric constant tensor:
#      x y z
#    x 2.889640 0.000000 -0.043150 
#    y 0.000000 3.255780 0.000000 
#    z -0.043150 0.000000 3.524550 
# 
# 
# High freq. dielectric constant tensor:
#      x y z
#    x 1.644820 0.000000 -0.003920 
#    y 0.000000 1.686260 0.000000 
#    z -0.003920 0.000000 1.702690 
# 
# From -- ./inp_files/51994.got.cif
#   From: 2010.06.25/outbox.cif.g09.slc.cpg/sg10_26_cif.got.tgz:51994.got - 2010.06.27 22:07:45.
