data_PCOD8061834
_publ_section_title
;
Structure prediction by ZEFSAII (Michael W. Deem and Ramdas Pophale) SiO2 
 PCOD8061834
Probable space group: P 2/M
;
_chemical_formula_sum "Si O2"
_cell_formula_units_Z 28
_cell_length_a 14.613620
_cell_length_b 8.935868
_cell_length_c 12.672073
_cell_angle_alpha 90.000000
_cell_angle_beta 59.260096
_cell_angle_gamma 90.000000
_cell_volume 1422.284017
_symmetry_space_group_name_H-M "P 2/M"
_symmetry_group_IT_number 10
_symmetry_cell_setting 'monoclinic'
loop_
_space_group_symop_operation_xyz
x,y,z
-x,y,-z
-x,-y,-z
x,-y,z
loop_
_atom_site_type_symbol
_atom_site_label
_atom_site_fract_x
_atom_site_fract_y
_atom_site_fract_z
Si Si1 0.881149 0.178014 0.088982
Si Si2 0.485683 0.823338 0.188339
Si Si3 0.189059 0.822226 0.641513
Si Si4 0.110652 0.675529 0.486589
Si Si5 0.715177 0.677230 0.785908
Si Si6 0.576285 0.822060 0.544501
Si Si7 0.273496 0.176964 0.005654
O O1 0.843175 0.239406 0.224634
O O2 0.879572 0.000000 0.090413
O O3 0.801686 0.236088 0.044660
O O4 0.000000 0.239414 0.000000
O O5 0.403179 0.742885 0.159095
O O6 0.463883 0.765069 0.319080
O O7 0.467916 0.000000 0.187550
O O8 0.605224 0.776936 0.089785
O O9 0.111474 0.757805 0.598361
O O10 0.306314 0.761015 0.546736
O O11 0.183153 0.000000 0.641949
O O12 0.117000 0.500000 0.502882
O O13 0.208039 0.729105 0.354760
O O14 0.000000 0.722898 0.500000
O O15 0.709841 0.500000 0.797262
O O16 0.763734 0.742435 0.865448
O O17 0.500000 0.754052 0.500000
O O18 0.573914 0.000000 0.541504
O O19 0.261773 0.000000 0.026653
#
# Coordination Sequence:
#
# PCOD8061834 Si02
#       7
#     4   4   4   4   4   4   4
#     4   9  19  35  55  84 117 144 176 227 283 326
#     4  10  19  34  55  83 114 145 183 226 275 329
#     4  10  19  34  59  87 110 138 182 229 273 327
#     4  10  23  41  58  78 110 149 185 229 283 330
#     4  11  23  38  57  81 111 147 187 231 278 326
#     4   9  16  28  51  81 111 141 176 219 266 322
#     4  10  21  36  57  83 115 151 184 223 275 331
#
# _framework density 19.686646
#
# number of rings (size 3 to 8) (size 9 to 14) (size 15 to 20)
#    0.000    2.143    1.429    1.714    2.000    6.571 
#    0.000    0.714    0.000    4.286    0.000    0.000 
#    0.000    0.000    0.000    0.000    0.000    0.000 
#
# Total GULP energy -347267.583089 kJ/mol
# GULP energy per Si atom -12402.413682 kJ/mol
# Density = 1.964184 g / cm^3
# Si number density = 19.686646 Si / 1000 Ang^3
#
#
#
# Elastic Constant Matrix: (Units=GPa)
#
#
# Indices 1 2 3 4 5 6 
#
# 1 149.1432 30.3432 59.0955 0.0000 17.0330 0.0000
# 2 30.3432 26.3334 25.5310 0.0000 4.7801 0.0000
# 3 59.0955 25.5310 122.1801 0.0000 23.2321 0.0000
# 4 0.0000 0.0000 0.0000 12.7369 0.0000 -5.5108
# 5 17.0330 4.7801 23.2321 0.0000 41.2162 0.0000
# 6 0.0000 0.0000 0.0000 -5.5108 0.0000 8.2805
#
#
#
# Elastic Compliance Matrix: (Units=1/GPa)
#
#
# Indices 1 2 3 4 5 6 
#
# 1 0.009596 -0.008229 -0.002631 0.000000 -0.001528 0.000000
# 2 -0.008229 0.054679 -0.007713 0.000000 0.001407 0.000000
# 3 -0.002631 -0.007713 0.011976 0.000000 -0.004768 0.000000
# 4 0.000000 0.000000 0.000000 0.110262 0.000000 0.073382
# 5 -0.001528 0.001407 -0.004768 0.000000 0.027418 0.000000
# 6 0.000000 0.000000 0.000000 0.073382 0.000000 0.169603
#
#
# Mechanical properties :
#
#
# Convention : Reuss Voigt Hill
#
# Bulk Modulus (GPa) = 25.57261 58.62178 42.09720
# Shear Modulus (GPa) = 11.52825 24.62585 18.07705
#
# Velocity S-wave (km/s) = 2.42252 3.54063 3.03353
# Velocity P-wave (km/s) = 4.56539 6.82326 5.80515
#
# Compressibility (1/GPa) = 0.03910433
#
# Stress axis : x y z
#
# Youngs Moduli (GPa) = 104.20672 18.28843 83.50143
#
# Poissons Ratio (x) = 0.15049 0.21972
# Poissons Ratio (y) = 0.85751 0.64407
# Poissons Ratio (z) = 0.27421 0.14106
#
# Static dielectric constant tensor:
#      x y z
#    x 3.739910 0.000000 0.036190 
#    y 0.000000 3.079870 0.000000 
#    z 0.036190 0.000000 3.801690 
# 
# 
# High freq. dielectric constant tensor:
#      x y z
#    x 1.780420 0.000000 0.005670 
#    y 0.000000 1.720710 0.000000 
#    z 0.005670 0.000000 1.782350 
# 
# From -- ./inp_files/49127.got.cif
#   From: 2010.06.25/outbox.cif.g09.slc.cpg/sg10_25_cif.got.tgz:49127.got - 2010.06.27 22:07:45.
