data_PCOD8061126
_publ_section_title
;
Structure prediction by ZEFSAII (Michael W. Deem and Ramdas Pophale) SiO2 
 PCOD8061126
Probable space group: P 2/M
;
_chemical_formula_sum "Si O2"
_cell_formula_units_Z 28
_cell_length_a 13.803680
_cell_length_b 9.231144
_cell_length_c 11.944614
_cell_angle_alpha 90.000000
_cell_angle_beta 71.161489
_cell_angle_gamma 90.000000
_cell_volume 1440.496293
_symmetry_space_group_name_H-M "P 2/M"
_symmetry_group_IT_number 10
_symmetry_cell_setting 'monoclinic'
loop_
_space_group_symop_operation_xyz
x,y,z
-x,y,-z
-x,-y,-z
x,-y,z
loop_
_atom_site_type_symbol
_atom_site_label
_atom_site_fract_x
_atom_site_fract_y
_atom_site_fract_z
Si Si1 0.186005 0.334569 0.695713
Si Si2 0.616105 0.828287 0.968122
Si Si3 0.986254 0.329572 0.634985
Si Si4 0.707485 0.660045 0.564838
Si Si5 0.310782 0.170566 0.818493
Si Si6 0.786462 0.170673 0.730675
Si Si7 0.480024 0.662219 0.632716
O O1 0.173759 0.500000 0.738054
O O2 0.280759 0.312876 0.573244
O O3 0.210949 0.243453 0.798604
O O4 0.084554 0.279880 0.670260
O O5 0.690100 0.775014 0.840704
O O6 0.606790 0.000000 0.970903
O O7 0.500000 0.763360 0.000000
O O8 0.672677 0.776617 0.060410
O O9 0.968064 0.500000 0.651171
O O10 0.891394 0.247407 0.728969
O O11 0.000000 0.283219 0.500000
O O12 0.756191 0.500000 0.571860
O O13 0.767968 0.782286 0.609554
O O14 0.590904 0.661460 0.649276
O O15 0.412646 0.217403 0.716446
O O16 0.296791 0.000000 0.815717
O O17 0.800893 0.000000 0.733870
O O18 0.500000 0.711821 0.500000
O O19 0.430481 0.500000 0.657936
#
# Coordination Sequence:
#
# PCOD8061126 Si02
#       7
#     4   4   4   4   4   4   4
#     4  10  20  37  58  80 113 153 186 226 287 347
#     4   9  20  40  60  80 115 159 193 229 285 343
#     4  10  20  38  61  83 114 156 193 230 287 352
#     4  10  19  34  55  79 112 152 188 226 282 347
#     4  11  22  36  57  83 114 150 193 241 286 339
#     4  11  22  36  59  87 115 147 192 245 289 333
#     4  10  19  33  52  76 111 150 184 224 282 344
#
# _framework density 19.437745
#
# number of rings (size 3 to 8) (size 9 to 14) (size 15 to 20)
#    0.000    1.857    2.857    1.714    0.000    3.429 
#    0.000    3.571    0.000    9.429    0.000    0.000 
#    0.000    0.000    0.000    0.000    0.000    0.000 
#
# Total GULP energy -347104.310672 kJ/mol
# GULP energy per Si atom -12396.582524 kJ/mol
# Density = 1.939350 g / cm^3
# Si number density = 19.437745 Si / 1000 Ang^3
#
#
#
# Elastic Constant Matrix: (Units=GPa)
#
#
# Indices 1 2 3 4 5 6 
#
# 1 121.1939 40.1508 41.7596 0.0000 7.4415 0.0000
# 2 40.1508 57.3954 33.9850 0.0000 6.1854 0.0000
# 3 41.7596 33.9850 78.6876 0.0000 10.2104 0.0000
# 4 0.0000 0.0000 0.0000 13.8006 0.0000 2.6300
# 5 7.4415 6.1854 10.2104 0.0000 36.5962 0.0000
# 6 0.0000 0.0000 0.0000 2.6300 0.0000 35.5535
#
#
#
# Elastic Compliance Matrix: (Units=1/GPa)
#
#
# Indices 1 2 3 4 5 6 
#
# 1 0.011422 -0.005898 -0.003468 0.000000 -0.000358 0.000000
# 2 -0.005898 0.026505 -0.008188 0.000000 -0.000996 0.000000
# 3 -0.003468 -0.008188 0.018483 0.000000 -0.003068 0.000000
# 4 0.000000 0.000000 0.000000 0.073497 0.000000 -0.005437
# 5 -0.000358 -0.000996 -0.003068 0.000000 0.028422 0.000000
# 6 0.000000 0.000000 0.000000 -0.005437 0.000000 0.028529
#
#
# Mechanical properties :
#
#
# Convention : Reuss Voigt Hill
#
# Bulk Modulus (GPa) = 46.94366 54.34085 50.64226
# Shear Modulus (GPa) = 21.82769 26.61548 24.22159
#
# Velocity S-wave (km/s) = 3.35469 3.70438 3.53386
# Velocity P-wave (km/s) = 6.26166 6.80541 6.53919
#
# Compressibility (1/GPa) = 0.02130213
#
# Stress axis : x y z
#
# Youngs Moduli (GPa) = 87.54847 37.72916 54.10314
#
# Poissons Ratio (x) = 0.22254 0.18762
# Poissons Ratio (y) = 0.51640 0.44298
# Poissons Ratio (z) = 0.30360 0.30892
#
# Static dielectric constant tensor:
#      x y z
#    x 3.789240 0.000000 0.011760 
#    y 0.000000 3.269150 0.000000 
#    z 0.011760 0.000000 3.474820 
# 
# 
# High freq. dielectric constant tensor:
#      x y z
#    x 1.773370 0.000000 0.005640 
#    y 0.000000 1.733770 0.000000 
#    z 0.005640 0.000000 1.734520 
# 
# From -- ./inp_files/49116.got.cif
#   From: 2010.06.25/outbox.cif.g09.slc.cpg/sg10_25_cif.got.tgz:49116.got - 2010.06.27 22:07:45.
