data_PCOD8061123
_publ_section_title
;
Structure prediction by ZEFSAII (Michael W. Deem and Ramdas Pophale) SiO2 
 PCOD8061123
Probable space group: P 2/M
;
_chemical_formula_sum "Si O2"
_cell_formula_units_Z 28
_cell_length_a 9.358218
_cell_length_b 9.297477
_cell_length_c 26.954802
_cell_angle_alpha 90.000000
_cell_angle_beta 41.402563
_cell_angle_gamma 90.000000
_cell_volume 1551.039172
_symmetry_space_group_name_H-M "P 2/M"
_symmetry_group_IT_number 10
_symmetry_cell_setting 'monoclinic'
loop_
_space_group_symop_operation_xyz
x,y,z
-x,y,-z
-x,-y,-z
x,-y,z
loop_
_atom_site_type_symbol
_atom_site_label
_atom_site_fract_x
_atom_site_fract_y
_atom_site_fract_z
Si Si1 0.145034 0.168395 0.916888
Si Si2 0.370160 0.341360 0.294690
Si Si3 0.760883 0.328349 0.566243
Si Si4 0.978038 0.670748 0.256332
Si Si5 0.129267 0.342502 0.827136
Si Si6 0.569878 0.328856 0.427548
Si Si7 0.353854 0.168985 0.206287
O O1 0.045429 0.237121 0.892340
O O2 0.393067 0.207070 0.866168
O O3 0.121098 0.000000 0.914872
O O4 0.000000 0.224521 0.000000
O O5 0.259754 0.500000 0.316988
O O6 0.324866 0.270859 0.359377
O O7 0.622648 0.360252 0.224316
O O8 0.274050 0.231751 0.279658
O O9 0.752523 0.500000 0.566996
O O10 0.613825 0.266122 0.560786
O O11 0.000000 0.266896 0.500000
O O12 0.012302 0.500000 0.250523
O O13 0.900884 0.716402 0.221045
O O14 0.802328 0.720354 0.344146
O O15 0.206514 0.751437 0.203881
O O16 0.017527 0.500000 0.860819
O O17 0.500000 0.268243 0.500000
O O18 0.567569 0.500000 0.429399
O O19 0.310658 0.000000 0.214994
#
# Coordination Sequence:
#
# PCOD8061123 Si02
#       7
#     4   4   4   4   4   4   4
#     4   9  19  37  58  78 101 130 167 209 251 300
#     4   9  16  30  50  72  98 129 167 212 255 294
#     4   9  16  25  42  72 101 124 162 213 257 294
#     4  10  19  33  52  76 107 139 171 209 252 300
#     4   9  17  31  52  77 104 132 165 204 250 304
#     4   9  17  28  44  72 105 134 168 212 256 293
#     4  10  21  34  51  76 102 130 169 208 249 303
#
# _framework density 18.052413000000001
#
# number of rings (size 3 to 8) (size 9 to 14) (size 15 to 20)
#    0.000    2.714    1.429    0.429    2.000    1.429 
#    0.000    0.714    0.000    5.143    0.000    0.000 
#    0.000    0.000    0.000    0.000    0.000    0.000 
#
# Total GULP energy -346915.605869 kJ/mol
# GULP energy per Si atom -12389.843067 kJ/mol
# Density = 1.801132 g / cm^3
# Si number density = 18.052413 Si / 1000 Ang^3
#
#
#
# Elastic Constant Matrix: (Units=GPa)
#
#
# Indices 1 2 3 4 5 6 
#
# 1 108.6371 41.7817 50.7462 0.0000 9.9883 0.0000
# 2 41.7817 45.7486 35.4263 0.0000 5.7212 0.0000
# 3 50.7462 35.4263 107.6063 0.0000 22.3844 0.0000
# 4 0.0000 0.0000 0.0000 33.6364 0.0000 3.2422
# 5 9.9883 5.7212 22.3844 0.0000 30.4707 0.0000
# 6 0.0000 0.0000 0.0000 3.2422 0.0000 20.6714
#
#
#
# Elastic Compliance Matrix: (Units=1/GPa)
#
#
# Indices 1 2 3 4 5 6 
#
# 1 0.015096 -0.011124 -0.003378 0.000000 -0.000378 0.000000
# 2 -0.011124 0.037625 -0.007590 0.000000 0.002158 0.000000
# 3 -0.003378 -0.007590 0.015178 0.000000 -0.008617 0.000000
# 4 0.000000 0.000000 0.000000 0.030186 0.000000 -0.004734
# 5 -0.000378 0.002158 -0.008617 0.000000 0.038868 0.000000
# 6 0.000000 0.000000 0.000000 -0.004734 0.000000 0.049118
#
#
# Mechanical properties :
#
#
# Convention : Reuss Voigt Hill
#
# Bulk Modulus (GPa) = 42.16745 57.54450 49.85597
# Shear Modulus (GPa) = 20.99427 25.89156 23.44292
#
# Velocity S-wave (km/s) = 3.41392 3.79125 3.60752
# Velocity P-wave (km/s) = 6.24090 7.14915 6.71041
#
# Compressibility (1/GPa) = 0.02371497
#
# Stress axis : x y z
#
# Youngs Moduli (GPa) = 66.24318 26.57783 65.88594
#
# Poissons Ratio (x) = 0.29564 0.22258
# Poissons Ratio (y) = 0.73686 0.50008
# Poissons Ratio (z) = 0.22379 0.20173
#
# Static dielectric constant tensor:
#      x y z
#    x 3.432930 0.000000 0.137320 
#    y 0.000000 3.117750 0.000000 
#    z 0.137320 0.000000 3.499070 
# 
# 
# High freq. dielectric constant tensor:
#      x y z
#    x 1.704550 0.000000 0.009620 
#    y 0.000000 1.657500 0.000000 
#    z 0.009620 0.000000 1.690520 
# 
# From -- ./inp_files/37315.got.cif
#   From: 2010.06.25/outbox.cif.g09.slc.cpg/sg10_19_cif.got.tgz:37315.got - 2010.06.27 22:07:45.
