data_PCOD8061820
_publ_section_title
;
Structure prediction by ZEFSAII (Michael W. Deem and Ramdas Pophale) SiO2 
 PCOD8061820
Probable space group: P 2/M
;
_chemical_formula_sum "Si O2"
_cell_formula_units_Z 20
_cell_length_a 12.929598
_cell_length_b 9.857437
_cell_length_c 11.401771
_cell_angle_alpha 90.000000
_cell_angle_beta 133.635120
_cell_angle_gamma 90.000000
_cell_volume 1051.742280
_symmetry_space_group_name_H-M "P 2/M"
_symmetry_group_IT_number 10
_symmetry_cell_setting 'monoclinic'
loop_
_space_group_symop_operation_xyz
x,y,z
-x,y,-z
-x,-y,-z
x,-y,z
loop_
_atom_site_type_symbol
_atom_site_label
_atom_site_fract_x
_atom_site_fract_y
_atom_site_fract_z
Si Si1 0.066782 0.152489 0.316742
Si Si2 0.531836 0.000000 0.717314
Si Si3 0.730193 0.000000 0.665073
Si Si4 0.481362 0.755158 0.116622
Si Si5 0.173548 0.348929 0.849370
Si Si6 0.214450 0.650509 0.612971
O O1 0.173054 0.133841 0.287762
O O2 0.149968 0.232750 0.482565
O O3 0.926739 0.236229 0.167056
O O4 0.025195 0.000000 0.330141
O O5 0.525618 0.871205 0.793904
O O6 0.680381 0.000000 0.760400
O O7 0.402049 0.000000 0.526622
O O8 0.613884 0.658110 0.249151
O O9 0.500000 0.816633 0.000000
O O10 0.337397 0.668509 0.013998
O O11 0.126451 0.500000 0.850903
O O12 0.150463 0.329402 0.692378
O O13 0.174287 0.500000 0.534245
#
# Coordination Sequence:
#
# PCOD8061820 Si02
#       6
#     4   2   2   4   4   4
#     4  10  20  36  52  83 107 149 189 227 268 319
#     4  11  19  39  60  83 108 142 189 236 278 318
#     4   9  22  37  59  80 108 146 188 235 272 318
#     4  10  20  34  57  87 113 141 183 228 278 330
#     4  10  21  34  53  82 119 151 176 221 283 336
#     4  10  19  34  55  80 115 152 183 222 275 330
#
# _framework density 19.016065000000001
#
# number of rings (size 3 to 8) (size 9 to 14) (size 15 to 20)
#    0.600    1.400    2.000    2.100    1.400    5.600 
#    0.000    2.000    0.000    7.200    0.000    0.000 
#    0.000    0.000    0.000    0.000    0.000    0.000 
#
# Total GULP energy -247876.135468 kJ/mol
# GULP energy per Si atom -12393.806773 kJ/mol
# Density = 1.897278 g / cm^3
# Si number density = 19.016065 Si / 1000 Ang^3
#
#
#
# Elastic Constant Matrix: (Units=GPa)
#
#
# Indices 1 2 3 4 5 6 
#
# 1 114.1697 54.3321 21.3690 0.0000 8.7183 0.0000
# 2 54.3321 132.1697 23.9817 0.0000 2.1033 0.0000
# 3 21.3690 23.9817 43.3565 0.0000 10.2180 0.0000
# 4 0.0000 0.0000 0.0000 -80.8663 0.0000 60.0328
# 5 8.7183 2.1033 10.2180 0.0000 30.4806 0.0000
# 6 0.0000 0.0000 0.0000 60.0328 0.0000 -2.1682
#
#
#
# Elastic Compliance Matrix: (Units=1/GPa)
#
#
# Indices 1 2 3 4 5 6 
#
# 1 0.011421 -0.004144 -0.002860 0.000000 -0.002022 0.000000
# 2 -0.004144 0.009945 -0.003883 0.000000 0.001801 0.000000
# 3 -0.002860 -0.003883 0.028628 0.000000 -0.008511 0.000000
# 4 0.000000 0.000000 0.000000 0.000632 0.000000 0.017509
# 5 -0.002022 0.001801 -0.008511 0.000000 0.036115 0.000000
# 6 0.000000 0.000000 0.000000 0.017509 0.000000 0.023586
#
#
# Mechanical properties :
#
#
# Convention : Reuss Voigt Hill
#
# Bulk Modulus (GPa) = 35.43634 54.34017 44.88826
# Shear Modulus (GPa) = 35.33377 2.15677 18.74527
#
# Velocity S-wave (km/s) = 4.31525 1.06613 3.14309
# Velocity P-wave (km/s) = 6.59575 5.49122 6.06866
#
# Compressibility (1/GPa) = 0.02821962
#
# Stress axis : x y z
#
# Youngs Moduli (GPa) = 87.56164 100.55013 34.93079
#
# Poissons Ratio (x) = 0.41663 0.09992
# Poissons Ratio (y) = 0.36282 0.13564
# Poissons Ratio (z) = 0.25046 0.39045
#
# Static dielectric constant tensor:
#      x y z
#    x 3.640980 0.000000 0.263490 
#    y 0.000000 3.567350 0.000000 
#    z 0.263490 0.000000 3.345210 
# 
# 
# High freq. dielectric constant tensor:
#      x y z
#    x 1.733140 0.000000 0.032890 
#    y 0.000000 1.737990 0.000000 
#    z 0.032890 0.000000 1.726150 
# 
# From -- ./inp_files/48942.got.cif
#   From: 2010.06.25/outbox.cif.g09.slc.cpg/sg10_25_cif.got.tgz:48942.got - 2010.06.27 22:07:45.
