data_PCOD8061899
_publ_section_title
;
Structure prediction by ZEFSAII (Michael W. Deem and Ramdas Pophale) SiO2 
 PCOD8061899
Probable space group: P 2/M
;
_chemical_formula_sum "Si O2"
_cell_formula_units_Z 16
_cell_length_a 8.745472
_cell_length_b 12.325935
_cell_length_c 8.299224
_cell_angle_alpha 90.000000
_cell_angle_beta 59.465382
_cell_angle_gamma 90.000000
_cell_volume 770.559767
_symmetry_space_group_name_H-M "P 2/M"
_symmetry_group_IT_number 10
_symmetry_cell_setting 'monoclinic'
loop_
_space_group_symop_operation_xyz
x,y,z
-x,y,-z
-x,-y,-z
x,-y,z
loop_
_atom_site_type_symbol
_atom_site_label
_atom_site_fract_x
_atom_site_fract_y
_atom_site_fract_z
Si Si1 0.337635 0.000000 0.969799
Si Si2 0.842108 0.210840 0.456433
Si Si3 0.467536 0.782469 0.830629
Si Si4 0.689038 0.379294 0.314477
Si Si5 0.962759 0.000000 0.214190
O O1 0.351100 0.109000 0.855877
O O2 0.500000 0.000000 0.000000
O O3 0.163051 0.000000 0.176860
O O4 0.655133 0.201729 0.645111
O O5 0.834373 0.316919 0.346049
O O6 0.863442 0.105825 0.331986
O O7 0.000000 0.224226 0.500000
O O8 0.346509 0.683937 0.832890
O O9 0.500000 0.761159 0.000000
O O10 0.500000 0.386231 0.500000
O O11 0.763009 0.500000 0.239168
O O12 0.000000 0.000000 0.000000
#
# Coordination Sequence:
#
# PCOD8061899 Si02
#       5
#     2   4   4   4   2
#     4  10  19  34  56  81 114 147 183 225 276 344
#     4  11  22  37  60  88 119 151 190 239 291 340
#     4  10  20  37  61  87 117 154 195 236 285 348
#     4   9  20  38  58  82 114 154 198 240 284 340
#     4  12  24  38  59  87 121 151 186 237 293 346
#
# _framework density 20.764126999999998
#
# number of rings (size 3 to 8) (size 9 to 14) (size 15 to 20)
#    0.000    1.750    0.000    5.625    0.000    1.000 
#    0.000    5.000    0.000   17.250    0.000    0.000 
#    0.000    0.000    0.000    0.000    0.000    0.000 
#
# Total GULP energy -198286.926547 kJ/mol
# GULP energy per Si atom -12392.932909 kJ/mol
# Density = 2.071687 g / cm^3
# Si number density = 20.764127 Si / 1000 Ang^3
#
#
#
# Elastic Constant Matrix: (Units=GPa)
#
#
# Indices 1 2 3 4 5 6 
#
# 1 102.3497 69.3459 43.6117 0.0000 21.6744 0.0000
# 2 69.3459 220.3629 60.1079 0.0000 21.6694 0.0000
# 3 43.6117 60.1079 102.9592 0.0000 8.1596 0.0000
# 4 0.0000 0.0000 0.0000 15.7995 0.0000 9.2803
# 5 21.6744 21.6694 8.1596 0.0000 41.2182 0.0000
# 6 0.0000 0.0000 0.0000 9.2803 0.0000 24.8784
#
#
#
# Elastic Compliance Matrix: (Units=1/GPa)
#
#
# Indices 1 2 3 4 5 6 
#
# 1 0.014640 -0.002981 -0.004038 0.000000 -0.005332 0.000000
# 2 -0.002981 0.006218 -0.002268 0.000000 -0.001252 0.000000
# 3 -0.004038 -0.002268 0.012683 0.000000 0.000805 0.000000
# 4 0.000000 0.000000 0.000000 0.081053 0.000000 -0.030235
# 5 -0.005332 -0.001252 0.000805 0.000000 0.027564 0.000000
# 6 0.000000 0.000000 0.000000 -0.030235 0.000000 0.051474
#
#
# Mechanical properties :
#
#
# Convention : Reuss Voigt Hill
#
# Bulk Modulus (GPa) = 66.81651 85.75587 76.28619
# Shear Modulus (GPa) = 23.02073 33.21964 28.12018
#
# Velocity S-wave (km/s) = 3.33329 4.00416 3.68403
# Velocity P-wave (km/s) = 6.86026 7.92259 7.41048
#
# Compressibility (1/GPa) = 0.01496636
#
# Stress axis : x y z
#
# Youngs Moduli (GPa) = 68.30509 160.82535 78.84333
#
# Poissons Ratio (x) = 0.47947 0.31839
# Poissons Ratio (y) = 0.20364 0.17881
# Poissons Ratio (z) = 0.27584 0.36475
#
# Static dielectric constant tensor:
#      x y z
#    x 4.204310 0.000000 -0.232020 
#    y 0.000000 4.961180 0.000000 
#    z -0.232020 0.000000 4.795590 
# 
# 
# High freq. dielectric constant tensor:
#      x y z
#    x 1.824860 0.000000 0.002510 
#    y 0.000000 1.817370 0.000000 
#    z 0.002510 0.000000 1.804070 
# 
# From -- ./inp_files/17491.got.cif
#   From: 2010.06.25/outbox.cif.g09.slc.cpg/sg10_9_cif.got.tgz:17491.got - 2010.06.27 22:07:45.
