data_PCOD8061063
_publ_section_title
;
Structure prediction by ZEFSAII (Michael W. Deem and Ramdas Pophale) SiO2 
 PCOD8061063
Probable space group: P 2/M
;
_chemical_formula_sum "Si O2"
_cell_formula_units_Z 32
_cell_length_a 21.687916
_cell_length_b 8.806134
_cell_length_c 11.580359
_cell_angle_alpha 90.000000
_cell_angle_beta 122.973817
_cell_angle_gamma 90.000000
_cell_volume 1855.433343
_symmetry_space_group_name_H-M "P 2/M"
_symmetry_group_IT_number 10
_symmetry_cell_setting 'monoclinic'
loop_
_space_group_symop_operation_xyz
x,y,z
-x,y,-z
-x,-y,-z
x,-y,z
loop_
_atom_site_type_symbol
_atom_site_label
_atom_site_fract_x
_atom_site_fract_y
_atom_site_fract_z
Si Si1 0.073328 0.831164 0.436052
Si Si2 0.506541 0.826274 0.141541
Si Si3 0.584350 0.676480 0.594055
Si Si4 0.359228 0.822676 0.123605
Si Si5 0.083782 0.171172 0.720151
Si Si6 0.769474 0.180812 0.397220
Si Si7 0.359958 0.674781 0.602349
Si Si8 0.768271 0.678186 0.147383
O O1 0.079604 0.837338 0.579290
O O2 0.150760 0.755180 0.474915
O O3 0.995157 0.755115 0.317599
O O4 0.069138 0.000000 0.380716
O O5 0.430202 0.779447 0.121268
O O6 0.568754 0.716041 0.251618
O O7 0.527495 0.000000 0.192202
O O8 0.500000 0.799719 0.000000
O O9 0.500000 0.731359 0.500000
O O10 0.587110 0.500000 0.632308
O O11 0.627016 0.776600 0.730584
O O12 0.625175 0.708350 0.515965
O O13 0.340663 0.000000 0.096518
O O14 0.291479 0.727347 0.006698
O O15 0.152541 0.274999 0.825520
O O16 0.094754 0.000000 0.780372
O O17 0.709144 0.226130 0.428930
O O18 0.749845 0.245169 0.251184
O O19 0.772794 0.000000 0.388034
O O20 0.341445 0.500000 0.605827
O O21 0.766481 0.500000 0.164011
#
# Coordination Sequence:
#
# PCOD8061063 Si02
#       8
#     4   4   4   4   4   4   4   4
#     4   7  12  24  45  69  95 133 170 202 241 290
#     4  10  21  35  51  72  99 130 163 203 249 297
#     4  10  21  39  57  73  98 131 165 210 261 306
#     4  11  22  35  54  76  98 130 173 214 251 294
#     4   8  13  26  46  68  97 133 172 203 238 291
#     4  10  19  33  51  73 105 138 171 209 250 295
#     4  11  22  35  53  75  99 131 168 205 255 306
#     4  11  21  32  48  74 108 139 168 204 254 305
#
# _framework density 17.246645000000001
#
# number of rings (size 3 to 8) (size 9 to 14) (size 15 to 20)
#    0.000    2.250    1.250    4.500    0.000    3.000 
#    0.000    5.625    0.000    0.000    0.000    0.875 
#    0.000    7.000    0.000    0.000    0.000    0.000 
#
# Total GULP energy -396602.247788 kJ/mol
# GULP energy per Si atom -12393.820243 kJ/mol
# Density = 1.720739 g / cm^3
# Si number density = 17.246645 Si / 1000 Ang^3
#
#
#
# Elastic Constant Matrix: (Units=GPa)
#
#
# Indices 1 2 3 4 5 6 
#
# 1 90.1367 49.3588 76.9995 0.0000 29.8300 0.0000
# 2 49.3588 70.0764 28.5996 0.0000 7.6468 0.0000
# 3 76.9995 28.5996 63.0028 0.0000 8.1835 0.0000
# 4 0.0000 0.0000 0.0000 22.5281 0.0000 -3.9253
# 5 29.8300 7.6468 8.1835 0.0000 23.1058 0.0000
# 6 0.0000 0.0000 0.0000 -3.9253 0.0000 -1.3775
#
#
#
# Elastic Compliance Matrix: (Units=1/GPa)
#
#
# Indices 1 2 3 4 5 6 
#
# 1 -0.041841 0.008064 0.042773 0.000000 0.036199 0.000000
# 2 0.008064 0.016179 -0.015883 0.000000 -0.010140 0.000000
# 3 0.042773 -0.015883 -0.023799 0.000000 -0.041536 0.000000
# 4 0.000000 0.000000 0.000000 0.029662 0.000000 -0.084522
# 5 0.036199 -0.010140 -0.041536 0.000000 0.014612 0.000000
# 6 0.000000 0.000000 0.000000 -0.084522 0.000000 -0.485085
#
#
# Mechanical properties :
#
#
# Convention : Reuss Voigt Hill
#
# Bulk Modulus (GPa) = 48.90213 59.23685 54.06949
# Shear Modulus (GPa) = -9.03563 13.40181 2.18309
#
# Velocity S-wave (km/s) = -2.29138 2.79062 1.12630
# Velocity P-wave (km/s) = 4.62769 6.69364 5.75415
#
# Compressibility (1/GPa) = 0.02044901
#
# Stress axis : x y z
#
# Youngs Moduli (GPa) = -23.90026 61.80977 -42.01918
#
# Poissons Ratio (x) = -0.49843 1.79730
# Poissons Ratio (y) = 0.19273 -0.66737
# Poissons Ratio (z) = 1.02229 0.98170
#
# Static dielectric constant tensor:
#      x y z
#    x 3.411340 0.000000 0.253500 
#    y 0.000000 3.145960 0.000000 
#    z 0.253500 0.000000 2.990520 
# 
# 
# High freq. dielectric constant tensor:
#      x y z
#    x 1.670430 0.000000 0.026170 
#    y 0.000000 1.657070 0.000000 
#    z 0.026170 0.000000 1.638840 
# 
# From -- ./inp_files/54945.got.cif
#   From: 2010.06.25/outbox.cif.g09.slc.cpg/sg10_28_cif.got.tgz:54945.got - 2010.06.27 22:07:45.
