data_PCOD8061804
_publ_section_title
;
Structure prediction by ZEFSAII (Michael W. Deem and Ramdas Pophale) SiO2 
 PCOD8061804
Probable space group: P 2/M
;
_chemical_formula_sum "Si O2"
_cell_formula_units_Z 22
_cell_length_a 25.461925
_cell_length_b 11.214721
_cell_length_c 22.591596
_cell_angle_alpha 90.000000
_cell_angle_beta 169.677620
_cell_angle_gamma 90.000000
_cell_volume 1155.931067
_symmetry_space_group_name_H-M "P 2/M"
_symmetry_group_IT_number 10
_symmetry_cell_setting 'monoclinic'
loop_
_space_group_symop_operation_xyz
x,y,z
-x,y,-z
-x,-y,-z
x,-y,z
loop_
_atom_site_type_symbol
_atom_site_label
_atom_site_fract_x
_atom_site_fract_y
_atom_site_fract_z
Si Si1 0.895579 0.637973 0.221594
Si Si2 0.571621 0.273266 0.749988
Si Si3 0.874034 0.134323 0.670191
Si Si4 0.319265 0.362833 0.352792
Si Si5 0.548013 0.215788 0.195539
Si Si6 0.344022 0.000000 0.889476
O O1 0.935444 0.500000 0.282313
O O2 0.212632 0.698530 0.568886
O O3 0.723340 0.645820 0.968291
O O4 0.719096 0.702831 0.078118
O O5 0.271665 0.216108 0.441265
O O6 0.488661 0.354869 0.602647
O O7 0.793844 0.171593 0.974831
O O8 0.683283 0.141798 0.399399
O O9 0.876384 0.000000 0.696096
O O10 0.500000 0.300176 0.500000
O O11 0.275220 0.500000 0.287279
O O12 0.000000 0.300170 0.000000
O O13 0.434435 0.120155 0.023064
O O14 0.000000 0.000000 0.500000
O O15 0.500000 0.000000 0.000000
#
# Coordination Sequence:
#
# PCOD8061804 Si02
#       6
#     4   4   4   4   4   2
#     4  10  20  35  59  87 117 147 180 233 291 339
#     4  10  20  32  54  81 106 141 181 226 278 333
#     4  10  19  34  55  79 109 137 174 230 280 323
#     4  10  20  34  52  73 103 140 178 224 270 325
#     4  10  21  37  58  86 116 147 185 231 279 328
#     4  12  24  40  64  88 118 150 190 236 266 318
#
# _framework density 19.032277000000001
#
# number of rings (size 3 to 8) (size 9 to 14) (size 15 to 20)
#    0.000    1.818    0.909    3.818    0.000    0.000 
#    0.000    5.455    0.000   21.818    0.000    0.000 
#    0.000    0.000    0.000    0.000    0.000    0.000 
#
# Total GULP energy -272842.430539 kJ/mol
# GULP energy per Si atom -12401.928661 kJ/mol
# Density = 1.898896 g / cm^3
# Si number density = 19.032277 Si / 1000 Ang^3
#
#
#
# Elastic Constant Matrix: (Units=GPa)
#
#
# Indices 1 2 3 4 5 6 
#
# 1 128.0298 46.9052 67.7401 0.0000 17.9432 0.0000
# 2 46.9052 99.6016 37.2727 0.0000 7.1258 0.0000
# 3 67.7401 37.2727 98.5702 0.0000 20.3967 0.0000
# 4 0.0000 0.0000 0.0000 11.4328 0.0000 -4.4581
# 5 17.9432 7.1258 20.3967 0.0000 39.2505 0.0000
# 6 0.0000 0.0000 0.0000 -4.4581 0.0000 25.6320
#
#
#
# Elastic Compliance Matrix: (Units=1/GPa)
#
#
# Indices 1 2 3 4 5 6 
#
# 1 0.013210 -0.003300 -0.007513 0.000000 -0.001536 0.000000
# 2 -0.003300 0.012520 -0.002587 0.000000 0.000580 0.000000
# 3 -0.007513 -0.002587 0.017343 0.000000 -0.005108 0.000000
# 4 0.000000 0.000000 0.000000 0.093831 0.000000 0.016320
# 5 -0.001536 0.000580 -0.005108 0.000000 0.028729 0.000000
# 6 0.000000 0.000000 0.000000 0.016320 0.000000 0.041852
#
#
# Mechanical properties :
#
#
# Convention : Reuss Voigt Hill
#
# Bulk Modulus (GPa) = 61.44252 70.00416 65.72334
# Shear Modulus (GPa) = 20.85872 26.88199 23.87035
#
# Velocity S-wave (km/s) = 3.31413 3.76232 3.54532
# Velocity P-wave (km/s) = 6.85551 7.46559 7.16705
#
# Compressibility (1/GPa) = 0.01627537
#
# Stress axis : x y z
#
# Youngs Moduli (GPa) = 75.70249 79.86964 57.65987
#
# Poissons Ratio (x) = 0.26354 0.43317
# Poissons Ratio (y) = 0.24979 0.14915
# Poissons Ratio (z) = 0.56872 0.20660
#
# Static dielectric constant tensor:
#      x y z
#    x 3.529820 0.000000 0.290180 
#    y 0.000000 3.218600 0.000000 
#    z 0.290180 0.000000 3.643990 
# 
# 
# High freq. dielectric constant tensor:
#      x y z
#    x 1.741260 0.000000 0.022050 
#    y 0.000000 1.726850 0.000000 
#    z 0.022050 0.000000 1.747330 
# 
# From -- ./inp_files/13046.got.cif
#   From: 2010.06.25/outbox.cif.g09.slc.cpg/sg10_7_cif.got.tgz:13046.got - 2010.06.27 22:07:45.
