data_PCOD8061467
_publ_section_title
;
Structure prediction by ZEFSAII (Michael W. Deem and Ramdas Pophale) SiO2 
 PCOD8061467
Probable space group: P 2/M
;
_chemical_formula_sum "Si O2"
_cell_formula_units_Z 32
_cell_length_a 23.558965
_cell_length_b 8.555921
_cell_length_c 13.585905
_cell_angle_alpha 90.000000
_cell_angle_beta 34.451185
_cell_angle_gamma 90.000000
_cell_volume 1549.175827
_symmetry_space_group_name_H-M "P 2/M"
_symmetry_group_IT_number 10
_symmetry_cell_setting 'monoclinic'
loop_
_space_group_symop_operation_xyz
x,y,z
-x,y,-z
-x,-y,-z
x,-y,z
loop_
_atom_site_type_symbol
_atom_site_label
_atom_site_fract_x
_atom_site_fract_y
_atom_site_fract_z
Si Si1 0.264379 0.315833 0.733467
Si Si2 0.809051 0.685863 0.522157
Si Si3 0.807853 0.684075 0.957205
Si Si4 0.016067 0.686148 0.586515
Si Si5 0.390467 0.816179 0.114517
Si Si6 0.104731 0.314057 0.809259
Si Si7 0.471365 0.818262 0.433768
Si Si8 0.634708 0.317977 0.062833
O O1 0.254091 0.500000 0.752213
O O2 0.187092 0.246090 0.765722
O O3 0.372873 0.270176 0.538926
O O4 0.242674 0.242398 0.872724
O O5 0.792243 0.500000 0.546711
O O6 0.879510 0.740738 0.512939
O O7 0.699794 0.768276 0.682731
O O8 0.866952 0.742099 0.341071
O O9 0.812579 0.500000 0.964326
O O10 0.920931 0.748838 0.785112
O O11 0.743724 0.724927 0.951380
O O12 0.015209 0.500000 0.584394
O O13 0.000000 0.754410 0.500000
O O14 0.387893 0.000000 0.097563
O O15 0.500000 0.767415 0.000000
O O16 0.368710 0.721879 0.046436
O O17 0.100859 0.500000 0.815325
O O18 0.000000 0.245810 0.000000
O O19 0.500000 0.750907 0.500000
O O20 0.555411 0.786548 0.233560
O O21 0.448228 0.000000 0.473300
O O22 0.610105 0.500000 0.113975
#
# Coordination Sequence:
#
# PCOD8061467 Si02
#       8
#     4   4   4   4   4   4   4   4
#     4  10  19  33  55  83 115 152 197 240 287 343
#     4  10  20  36  60  89 118 153 201 249 290 345
#     4   9  17  30  53  86 117 146 182 235 292 345
#     4   9  16  28  51  82 114 144 183 237 297 346
#     4  11  26  45  61  81 115 160 202 245 300 358
#     4   9  18  33  57  91 125 154 190 245 302 345
#     4  11  23  38  56  83 122 162 195 235 293 354
#     4  11  22  38  63  89 115 147 196 251 295 344
#
# _framework density 20.656146
#
# number of rings (size 3 to 8) (size 9 to 14) (size 15 to 20)
#    0.000    2.000    1.250    2.625    1.750    6.500 
#    0.000    0.000    0.000    7.875    0.000    0.000 
#    0.000    0.000    0.000    0.000    0.000    0.000 
#
# Total GULP energy -396742.694789 kJ/mol
# GULP energy per Si atom -12398.209212 kJ/mol
# Density = 2.060913 g / cm^3
# Si number density = 20.656146 Si / 1000 Ang^3
#
#
#
# Elastic Constant Matrix: (Units=GPa)
#
#
# Indices 1 2 3 4 5 6 
#
# 1 137.6119 25.8413 53.2352 0.0000 -12.1225 0.0000
# 2 25.8413 14.6205 9.6676 0.0000 -3.9587 0.0000
# 3 53.2352 9.6676 139.6097 0.0000 -13.7901 0.0000
# 4 0.0000 0.0000 0.0000 -1.2771 0.0000 6.4755
# 5 -12.1225 -3.9587 -13.7901 0.0000 43.3987 0.0000
# 6 0.0000 0.0000 0.0000 6.4755 0.0000 15.6952
#
#
#
# Elastic Compliance Matrix: (Units=1/GPa)
#
#
# Indices 1 2 3 4 5 6 
#
# 1 0.012192 -0.019228 -0.003256 0.000000 0.000617 0.000000
# 2 -0.019228 0.103124 0.000609 0.000000 0.004229 0.000000
# 3 -0.003256 0.000609 0.008546 0.000000 0.001862 0.000000
# 4 0.000000 0.000000 0.000000 -0.253251 0.000000 0.104485
# 5 0.000617 0.004229 0.001862 0.000000 0.024192 0.000000
# 6 0.000000 0.000000 0.000000 0.104485 0.000000 0.020606
#
#
# Mechanical properties :
#
#
# Convention : Reuss Voigt Hill
#
# Bulk Modulus (GPa) = 12.48274 52.14782 32.31528
# Shear Modulus (GPa) = -353.71871 25.10325 -164.30773
#
# Velocity S-wave (km/s) = -13.10012 3.48989 -8.92843
# Velocity P-wave (km/s) = 14.92519 6.44512 9.51897
#
# Compressibility (1/GPa) = 0.08011060
#
# Stress axis : x y z
#
# Youngs Moduli (GPa) = 82.02377 9.69702 117.00996
#
# Poissons Ratio (x) = 0.18645 0.38103
# Poissons Ratio (y) = 1.57715 -0.07120
# Poissons Ratio (z) = 0.26710 -0.00590
#
# Static dielectric constant tensor:
#      x y z
#    x 4.002870 0.000000 -0.022100 
#    y 0.000000 3.203420 0.000000 
#    z -0.022100 0.000000 3.931420 
# 
# 
# High freq. dielectric constant tensor:
#      x y z
#    x 1.818410 0.000000 -0.003400 
#    y 0.000000 1.756210 0.000000 
#    z -0.003400 0.000000 1.823690 
# 
# From -- ./inp_files/71494.got.cif
#   From: 2010.06.25/outbox.cif.g09.slc.cpg/sg10_36_cif.got.tgz:71494.got - 2010.06.27 22:07:45.
