data_PCOD8061325
_publ_section_title
;
Structure prediction by ZEFSAII (Michael W. Deem and Ramdas Pophale) SiO2 
 PCOD8061325
Probable space group: P 2/M
;
_chemical_formula_sum "Si O2"
_cell_formula_units_Z 32
_cell_length_a 11.823781
_cell_length_b 9.402350
_cell_length_c 14.752371
_cell_angle_alpha 90.000000
_cell_angle_beta 85.979784
_cell_angle_gamma 90.000000
_cell_volume 1636.005141
_symmetry_space_group_name_H-M "P 2/M"
_symmetry_group_IT_number 10
_symmetry_cell_setting 'monoclinic'
loop_
_space_group_symop_operation_xyz
x,y,z
-x,y,-z
-x,-y,-z
x,-y,z
loop_
_atom_site_type_symbol
_atom_site_label
_atom_site_fract_x
_atom_site_fract_y
_atom_site_fract_z
Si Si1 0.066578 0.832763 0.581468
Si Si2 0.629402 0.332565 0.998236
Si Si3 0.373269 0.838012 0.315430
Si Si4 0.679724 0.835326 0.478013
Si Si5 0.225607 0.837344 0.153154
Si Si6 0.581337 0.664816 0.329682
Si Si7 0.974754 0.832155 0.215644
Si Si8 0.236908 0.336449 0.830247
O O1 0.197239 0.793519 0.564605
O O2 0.000000 0.762566 0.500000
O O3 0.023432 0.773614 0.680823
O O4 0.045158 0.000000 0.580150
O O5 0.631683 0.500000 0.981064
O O6 0.705485 0.262020 0.917383
O O7 0.500000 0.275872 0.000000
O O8 0.681695 0.290458 0.092060
O O9 0.326120 0.796033 0.416470
O O10 0.270337 0.815892 0.252416
O O11 0.476205 0.734592 0.281930
O O12 0.417545 0.000000 0.310894
O O13 0.590191 0.742768 0.426208
O O14 0.651184 0.000000 0.462272
O O15 0.093362 0.794617 0.160920
O O16 0.240897 0.000000 0.120720
O O17 0.555740 0.500000 0.346499
O O18 0.694935 0.689385 0.266097
O O19 0.876109 0.757817 0.163192
O O20 0.950966 0.000000 0.216613
O O21 0.200329 0.500000 0.842432
#
# Coordination Sequence:
#
# PCOD8061325 Si02
#       8
#     4   4   4   4   4   4   4   4
#     4   9  16  29  53  81 109 147 193 233 270 323
#     4  10  22  42  65  86 111 149 195 234 280 345
#     4  10  21  36  55  81 115 150 187 233 284 340
#     4  10  19  33  54  81 111 148 192 233 279 337
#     4  10  22  39  59  88 119 145 182 236 290 336
#     4  11  22  36  55  80 113 150 191 238 285 335
#     4  10  20  36  59  86 116 149 188 233 283 340
#     4  10  22  39  59  83 113 150 192 239 285 337
#
# _framework density 19.559839
#
# number of rings (size 3 to 8) (size 9 to 14) (size 15 to 20)
#    0.000    2.000    1.250    2.250    0.000    8.750 
#    0.000    2.500    0.000    3.000    0.000    0.000 
#    0.000    0.000    0.000    0.000    0.000    0.000 
#
# Total GULP energy -396875.418722 kJ/mol
# GULP energy per Si atom -12402.356835 kJ/mol
# Density = 1.951532 g / cm^3
# Si number density = 19.559839 Si / 1000 Ang^3
#
#
#
# Elastic Constant Matrix: (Units=GPa)
#
#
# Indices 1 2 3 4 5 6 
#
# 1 123.0036 57.9512 53.3663 0.0000 7.0758 0.0000
# 2 57.9512 63.3912 40.6164 0.0000 2.2956 0.0000
# 3 53.3663 40.6164 101.0437 0.0000 5.4954 0.0000
# 4 0.0000 0.0000 0.0000 23.6103 0.0000 -2.7224
# 5 7.0758 2.2956 5.4954 0.0000 33.9076 0.0000
# 6 0.0000 0.0000 0.0000 -2.7224 0.0000 29.9420
#
#
#
# Elastic Compliance Matrix: (Units=1/GPa)
#
#
# Indices 1 2 3 4 5 6 
#
# 1 0.015149 -0.011745 -0.003179 0.000000 -0.001851 0.000000
# 2 -0.011745 0.030353 -0.006073 0.000000 0.001380 0.000000
# 3 -0.003179 -0.006073 0.014083 0.000000 -0.001208 0.000000
# 4 0.000000 0.000000 0.000000 0.042803 0.000000 0.003892
# 5 -0.001851 0.001380 -0.001208 0.000000 0.029980 0.000000
# 6 0.000000 0.000000 0.000000 0.003892 0.000000 0.033752
#
#
# Mechanical properties :
#
#
# Convention : Reuss Voigt Hill
#
# Bulk Modulus (GPa) = 56.84855 65.70068 61.27461
# Shear Modulus (GPa) = 23.36683 26.52564 24.94623
#
# Velocity S-wave (km/s) = 3.46010 3.68656 3.57512
# Velocity P-wave (km/s) = 6.71491 7.19607 6.95965
#
# Compressibility (1/GPa) = 0.01759060
#
# Stress axis : x y z
#
# Youngs Moduli (GPa) = 66.01027 32.94525 71.00940
#
# Poissons Ratio (x) = 0.38694 0.22575
# Poissons Ratio (y) = 0.77530 0.43124
# Poissons Ratio (z) = 0.20986 0.20008
#
# Static dielectric constant tensor:
#      x y z
#    x 3.650810 0.000000 0.069240 
#    y 0.000000 3.348760 0.000000 
#    z 0.069240 0.000000 3.616940 
# 
# 
# High freq. dielectric constant tensor:
#      x y z
#    x 1.772570 0.000000 0.003350 
#    y 0.000000 1.735990 0.000000 
#    z 0.003350 0.000000 1.766450 
# 
# From -- ./inp_files/49890.got.cif
#   From: 2010.06.25/outbox.cif.g09.slc.cpg/sg10_25_cif.got.tgz:49890.got - 2010.06.27 22:07:45.
