data_PCOD8061073
_publ_section_title
;
Structure prediction by ZEFSAII (Michael W. Deem and Ramdas Pophale) SiO2 
 PCOD8061073
Probable space group: P 2/M
;
_chemical_formula_sum "Si O2"
_cell_formula_units_Z 32
_cell_length_a 15.555747
_cell_length_b 14.499015
_cell_length_c 21.798593
_cell_angle_alpha 90.000000
_cell_angle_beta 160.652128
_cell_angle_gamma 90.000000
_cell_volume 1628.857152
_symmetry_space_group_name_H-M "P 2/M"
_symmetry_group_IT_number 10
_symmetry_cell_setting 'monoclinic'
loop_
_space_group_symop_operation_xyz
x,y,z
-x,y,-z
-x,-y,-z
x,-y,z
loop_
_atom_site_type_symbol
_atom_site_label
_atom_site_fract_x
_atom_site_fract_y
_atom_site_fract_z
Si Si1 0.290989 0.167640 0.701336
Si Si2 0.724174 0.600439 0.929510
Si Si3 0.536053 0.296723 0.352899
Si Si4 0.497714 0.654465 0.098762
Si Si5 0.906634 0.608710 0.276035
Si Si6 0.739163 0.899520 0.193395
Si Si7 0.683750 0.891941 0.416395
Si Si8 0.315802 0.392985 0.321251
O O1 0.481318 0.245579 0.855747
O O2 0.296245 0.089513 0.757323
O O3 0.386072 0.121840 0.702267
O O4 0.000000 0.208735 0.500000
O O5 0.710566 0.500000 0.887653
O O6 0.599944 0.676478 0.802248
O O7 0.573001 0.588961 0.891992
O O8 0.022275 0.626564 0.143902
O O9 0.525492 0.184044 0.349013
O O10 0.373503 0.333440 0.300160
O O11 0.822081 0.339153 0.543180
O O12 0.766748 0.624240 0.247561
O O13 0.267205 0.651929 0.894475
O O14 0.947636 0.500000 0.292558
O O15 0.021954 0.857717 0.371321
O O16 0.739762 0.000000 0.163210
O O17 0.500000 0.842453 0.000000
O O18 0.631454 0.000000 0.399064
O O19 0.500000 0.358779 0.500000
O O20 0.368379 0.500000 0.341633
#
# Coordination Sequence:
#
# PCOD8061073 Si02
#       8
#     4   4   4   4   4   4   4   4
#     4  10  19  33  51  77 110 156 202 241 289 343
#     4  11  22  38  61  89 118 153 202 255 291 342
#     4  12  23  39  61  92 117 155 201 245 301 358
#     4  11  22  35  55  83 122 166 203 234 284 357
#     4  11  23  37  54  82 129 172 196 233 293 364
#     4   9  18  31  52  79 108 150 203 254 295 340
#     4  10  21  38  57  82 117 154 195 250 309 353
#     4  10  22  42  67  91 118 154 198 247 298 350
#
# _framework density 19.645675000000001
#
# number of rings (size 3 to 8) (size 9 to 14) (size 15 to 20)
#    0.000    1.500    1.250    5.625    3.500    3.500 
#    0.000    1.250    0.000    1.875    0.000    0.000 
#    0.000    0.000    0.000    0.000    0.000    0.000 
#
# Total GULP energy -396527.788415 kJ/mol
# GULP energy per Si atom -12391.493388 kJ/mol
# Density = 1.960096 g / cm^3
# Si number density = 19.645675 Si / 1000 Ang^3
#
#
#
# Elastic Constant Matrix: (Units=GPa)
#
#
# Indices 1 2 3 4 5 6 
#
# 1 86.3577 21.2947 10.1848 0.0000 -3.8647 0.0000
# 2 21.2947 106.5142 32.4620 0.0000 0.0914 0.0000
# 3 10.1848 32.4620 74.9153 0.0000 -13.5551 0.0000
# 4 0.0000 0.0000 0.0000 21.6541 0.0000 -6.2614
# 5 -3.8647 0.0914 -13.5551 0.0000 28.1925 0.0000
# 6 0.0000 0.0000 0.0000 -6.2614 0.0000 21.7228
#
#
#
# Elastic Compliance Matrix: (Units=1/GPa)
#
#
# Indices 1 2 3 4 5 6 
#
# 1 0.012269 -0.002337 -0.000383 0.000000 0.001505 0.000000
# 2 -0.002337 0.011426 -0.005146 0.000000 -0.002832 0.000000
# 3 -0.000383 -0.005146 0.017112 0.000000 0.008192 0.000000
# 4 0.000000 0.000000 0.000000 0.050380 0.000000 0.014522
# 5 0.001505 -0.002832 0.008192 0.000000 0.039625 0.000000
# 6 0.000000 0.000000 0.000000 0.014522 0.000000 0.050220
#
#
# Mechanical properties :
#
#
# Convention : Reuss Voigt Hill
#
# Bulk Modulus (GPa) = 39.87947 43.96336 41.92142
# Shear Modulus (GPa) = 24.37567 27.90360 26.13963
#
# Velocity S-wave (km/s) = 3.52627 3.77283 3.65163
# Velocity P-wave (km/s) = 6.07642 6.43473 6.25814
#
# Compressibility (1/GPa) = 0.02507556
#
# Stress axis : x y z
#
# Youngs Moduli (GPa) = 81.50872 87.51633 58.43705
#
# Poissons Ratio (x) = 0.20456 0.02236
# Poissons Ratio (y) = 0.19052 0.30071
# Poissons Ratio (z) = 0.03119 0.45034
#
# Static dielectric constant tensor:
#      x y z
#    x 3.507740 0.000000 -0.156970 
#    y 0.000000 3.547930 0.000000 
#    z -0.156970 0.000000 3.730980 
# 
# 
# High freq. dielectric constant tensor:
#      x y z
#    x 1.746930 0.000000 -0.018570 
#    y 0.000000 1.761100 0.000000 
#    z -0.018570 0.000000 1.768990 
# 
# From -- ./inp_files/70803.got.cif
#   From: 2010.06.25/outbox.cif.g09.slc.cpg/sg10_36_cif.got.tgz:70803.got - 2010.06.27 22:07:45.
