data_PCOD8061839
_publ_section_title
;
Structure prediction by ZEFSAII (Michael W. Deem and Ramdas Pophale) SiO2 
 PCOD8061839
Probable space group: P 2/M
;
_chemical_formula_sum "Si O2"
_cell_formula_units_Z 32
_cell_length_a 19.323853
_cell_length_b 13.907398
_cell_length_c 14.664828
_cell_angle_alpha 90.000000
_cell_angle_beta 156.905990
_cell_angle_gamma 90.000000
_cell_volume 1545.857708
_symmetry_space_group_name_H-M "P 2/M"
_symmetry_group_IT_number 10
_symmetry_cell_setting 'monoclinic'
loop_
_space_group_symop_operation_xyz
x,y,z
-x,y,-z
-x,-y,-z
x,-y,z
loop_
_atom_site_type_symbol
_atom_site_label
_atom_site_fract_x
_atom_site_fract_y
_atom_site_fract_z
Si Si1 0.326734 0.607749 0.732702
Si Si2 0.852386 0.221048 0.394493
Si Si3 0.022119 0.230581 0.890409
Si Si4 0.681702 0.111226 0.510941
Si Si5 0.746887 0.609576 0.557067
Si Si6 0.391098 0.892801 0.023347
Si Si7 0.906515 0.891963 0.189168
Si Si8 0.365598 0.266478 0.417051
O O1 0.255124 0.500000 0.665706
O O2 0.179891 0.683727 0.585849
O O3 0.368863 0.618172 0.675811
O O4 0.500000 0.628772 0.000000
O O5 0.000000 0.248341 0.500000
O O6 0.922719 0.135663 0.543881
O O7 0.671318 0.183152 0.128239
O O8 0.880096 0.150414 0.747964
O O9 0.926283 0.331654 0.755520
O O10 0.121811 0.187074 0.923799
O O11 0.165704 0.252334 0.141222
O O12 0.587372 0.131555 0.298638
O O13 0.576893 0.166873 0.464633
O O14 0.679495 0.000000 0.533763
O O15 0.798505 0.500000 0.641139
O O16 0.634904 0.650439 0.506443
O O17 0.386371 0.000000 0.975099
O O18 0.267264 0.889088 0.961244
O O19 0.937866 0.000000 0.188408
O O20 0.500000 0.295124 0.500000
#
# Coordination Sequence:
#
# PCOD8061839 Si02
#       8
#     4   4   4   4   4   4   4   4
#     4  10  22  40  62  90 121 158 198 239 299 365
#     4  10  20  34  58  89 122 160 200 248 296 348
#     4  11  22  38  59  89 118 152 199 247 299 351
#     4  10  21  37  58  87 121 159 201 244 295 354
#     4  10  22  43  66  88 119 156 195 246 306 359
#     4   9  19  34  55  85 122 162 203 243 289 349
#     4  10  19  34  55  84 123 163 201 241 292 348
#     4  11  25  41  62  90 119 153 202 251 302 362
#
# _framework density 20.700483999999999
#
# number of rings (size 3 to 8) (size 9 to 14) (size 15 to 20)
#    0.000    1.875    1.250    3.000    3.500    4.750 
#    0.000    0.000    0.000    3.000    0.000    0.000 
#    0.000    0.000    0.000    0.000    0.000    0.000 
#
# Total GULP energy -396735.455644 kJ/mol
# GULP energy per Si atom -12397.982989 kJ/mol
# Density = 2.065337 g / cm^3
# Si number density = 20.700484 Si / 1000 Ang^3
#
#
#
# Elastic Constant Matrix: (Units=GPa)
#
#
# Indices 1 2 3 4 5 6 
#
# 1 75.8851 47.0440 24.1355 0.0000 -11.6247 0.0000
# 2 47.0440 147.6800 34.9481 0.0000 -5.8035 0.0000
# 3 24.1355 34.9481 93.6221 0.0000 -12.6858 0.0000
# 4 0.0000 0.0000 0.0000 19.9167 0.0000 -6.1524
# 5 -11.6247 -5.8035 -12.6858 0.0000 28.4508 0.0000
# 6 0.0000 0.0000 0.0000 -6.1524 0.0000 28.0836
#
#
#
# Elastic Compliance Matrix: (Units=1/GPa)
#
#
# Indices 1 2 3 4 5 6 
#
# 1 0.017702 -0.004958 -0.001990 0.000000 0.005334 0.000000
# 2 -0.004958 0.008819 -0.002176 0.000000 -0.001197 0.000000
# 3 -0.001990 -0.002176 0.012597 0.000000 0.004360 0.000000
# 4 0.000000 0.000000 0.000000 0.053854 0.000000 0.011798
# 5 0.005334 -0.001197 0.004360 0.000000 0.039028 0.000000
# 6 0.000000 0.000000 0.000000 0.011798 0.000000 0.038193
#
#
# Mechanical properties :
#
#
# Convention : Reuss Voigt Hill
#
# Bulk Modulus (GPa) = 47.91679 58.82692 53.37186
# Shear Modulus (GPa) = 25.58902 29.36086 27.47494
#
# Velocity S-wave (km/s) = 3.51971 3.77021 3.64711
# Velocity P-wave (km/s) = 6.30205 6.88712 6.60107
#
# Compressibility (1/GPa) = 0.02086951
#
# Stress axis : x y z
#
# Youngs Moduli (GPa) = 56.49172 113.39403 79.38256
#
# Poissons Ratio (x) = 0.56226 0.15795
# Poissons Ratio (y) = 0.28011 0.17273
# Poissons Ratio (z) = 0.11240 0.24674
#
# Static dielectric constant tensor:
#      x y z
#    x 3.742400 0.000000 -0.228190 
#    y 0.000000 3.838830 0.000000 
#    z -0.228190 0.000000 3.740580 
# 
# 
# High freq. dielectric constant tensor:
#      x y z
#    x 1.804690 0.000000 -0.017850 
#    y 0.000000 1.811310 0.000000 
#    z -0.017850 0.000000 1.808970 
# 
# From -- ./inp_files/70774.got.cif
#   From: 2010.06.25/outbox.cif.g09.slc.cpg/sg10_36_cif.got.tgz:70774.got - 2010.06.27 22:07:45.
