data_PCOD8061676
_publ_section_title
;
Structure prediction by ZEFSAII (Michael W. Deem and Ramdas Pophale) SiO2 
 PCOD8061676
Probable space group: P 2/M
;
_chemical_formula_sum "Si O2"
_cell_formula_units_Z 32
_cell_length_a 26.612183
_cell_length_b 8.602269
_cell_length_c 14.444809
_cell_angle_alpha 90.000000
_cell_angle_beta 145.509459
_cell_angle_gamma 90.000000
_cell_volume 1872.530979
_symmetry_space_group_name_H-M "P 2/M"
_symmetry_group_IT_number 10
_symmetry_cell_setting 'monoclinic'
loop_
_space_group_symop_operation_xyz
x,y,z
-x,y,-z
-x,-y,-z
x,-y,z
loop_
_atom_site_type_symbol
_atom_site_label
_atom_site_fract_x
_atom_site_fract_y
_atom_site_fract_z
Si Si1 0.912479 0.680951 0.920657
Si Si2 0.032473 0.677973 0.791554
Si Si3 0.751623 0.319932 0.201055
Si Si4 0.151552 0.823372 0.489309
Si Si5 0.600930 0.681334 0.243151
Si Si6 0.909569 0.680235 0.318920
Si Si7 0.415302 0.181432 0.978833
Si Si8 0.234718 0.821210 0.421171
O O1 0.902546 0.500000 0.883090
O O2 0.822870 0.765958 0.753317
O O3 0.917208 0.715751 0.037119
O O4 0.000000 0.745488 0.000000
O O5 0.997389 0.500000 0.739354
O O6 0.096905 0.705175 0.801425
O O7 0.952241 0.795555 0.655904
O O8 0.731116 0.500000 0.152384
O O9 0.794520 0.297562 0.366960
O O10 0.820476 0.248335 0.229889
O O11 0.658493 0.227488 0.056953
O O12 0.173836 0.789855 0.417312
O O13 0.175375 0.000000 0.554377
O O14 0.603871 0.500000 0.224242
O O15 0.619785 0.776479 0.177403
O O16 0.674233 0.724603 0.431205
O O17 0.504814 0.725168 0.137758
O O18 0.909656 0.500000 0.347103
O O19 0.000000 0.754364 0.500000
O O20 0.435620 0.000000 0.014634
O O21 0.260520 0.000000 0.447748
#
# Coordination Sequence:
#
# PCOD8061676 Si02
#       8
#     4   4   4   4   4   4   4   4
#     4  10  20  32  50  74  98 130 173 215 250 293
#     4  10  19  34  51  69  99 134 173 216 254 293
#     4  11  20  32  51  72  98 135 177 209 244 298
#     4  11  21  30  45  70 101 134 169 209 254 297
#     4  11  21  34  53  75 100 132 171 205 244 297
#     4   9  17  30  50  74  97 131 173 212 252 293
#     4  11  21  34  50  73 106 134 163 203 255 301
#     4  11  22  34  49  71 103 138 169 205 253 301
#
# _framework density 17.089169999999999
#
# number of rings (size 3 to 8) (size 9 to 14) (size 15 to 20)
#    0.000    1.500    3.750    4.125    0.000    1.750 
#    0.000    1.875    0.000    0.000    0.000    0.875 
#    0.000    7.000    0.000    0.000    0.000    0.000 
#
# Total GULP energy -396823.368752 kJ/mol
# GULP energy per Si atom -12400.730274 kJ/mol
# Density = 1.705027 g / cm^3
# Si number density = 17.089170 Si / 1000 Ang^3
#
#
#
# Elastic Constant Matrix: (Units=GPa)
#
#
# Indices 1 2 3 4 5 6 
#
# 1 101.9908 18.0598 40.7018 0.0000 9.5407 0.0000
# 2 18.0598 57.4842 19.1663 0.0000 2.6894 0.0000
# 3 40.7018 19.1663 93.0438 0.0000 8.6560 0.0000
# 4 0.0000 0.0000 0.0000 24.3478 0.0000 4.4209
# 5 9.5407 2.6894 8.6560 0.0000 29.7333 0.0000
# 6 0.0000 0.0000 0.0000 4.4209 0.0000 15.0088
#
#
#
# Elastic Compliance Matrix: (Units=1/GPa)
#
#
# Indices 1 2 3 4 5 6 
#
# 1 0.012292 -0.002181 -0.004707 0.000000 -0.002377 0.000000
# 2 -0.002181 0.019076 -0.002960 0.000000 -0.000164 0.000000
# 3 -0.004707 -0.002960 0.013620 0.000000 -0.002187 0.000000
# 4 0.000000 0.000000 0.000000 0.043392 0.000000 -0.012781
# 5 -0.002377 -0.000164 -0.002187 0.000000 0.035046 0.000000
# 6 0.000000 0.000000 0.000000 -0.012781 0.000000 0.070392
#
#
# Mechanical properties :
#
#
# Convention : Reuss Voigt Hill
#
# Bulk Modulus (GPa) = 39.53882 45.37496 42.45689
# Shear Modulus (GPa) = 22.52816 25.45738 23.99277
#
# Velocity S-wave (km/s) = 3.63474 3.86382 3.75103
# Velocity P-wave (km/s) = 6.38765 6.82019 6.60746
#
# Compressibility (1/GPa) = 0.02529160
#
# Stress axis : x y z
#
# Youngs Moduli (GPa) = 81.35633 52.42199 73.42306
#
# Poissons Ratio (x) = 0.11434 0.34557
# Poissons Ratio (y) = 0.17746 0.21734
# Poissons Ratio (z) = 0.38290 0.15517
#
# Static dielectric constant tensor:
#      x y z
#    x 3.177610 0.000000 0.157080 
#    y 0.000000 3.111700 0.000000 
#    z 0.157080 0.000000 3.141230 
# 
# 
# High freq. dielectric constant tensor:
#      x y z
#    x 1.639020 0.000000 0.015450 
#    y 0.000000 1.656620 0.000000 
#    z 0.015450 0.000000 1.642800 
# 
# From -- ./inp_files/72240.got.cif
#   From: 2010.06.25/outbox.cif.g09.slc.cpg/sg10_37_cif.got.tgz:72240.got - 2010.06.27 22:07:45.
