data_PCOD8061702
_publ_section_title
;
Structure prediction by ZEFSAII (Michael W. Deem and Ramdas Pophale) SiO2 
 PCOD8061702
Probable space group: P 2/M
;
_chemical_formula_sum "Si O2"
_cell_formula_units_Z 32
_cell_length_a 11.594568
_cell_length_b 8.794663
_cell_length_c 18.180774
_cell_angle_alpha 90.000000
_cell_angle_beta 90.493178
_cell_angle_gamma 90.000000
_cell_volume 1853.830632
_symmetry_space_group_name_H-M "P 2/M"
_symmetry_group_IT_number 10
_symmetry_cell_setting 'monoclinic'
loop_
_space_group_symop_operation_xyz
x,y,z
-x,y,-z
-x,-y,-z
x,-y,z
loop_
_atom_site_type_symbol
_atom_site_label
_atom_site_fract_x
_atom_site_fract_y
_atom_site_fract_z
Si Si1 0.242135 0.677456 0.133333
Si Si2 0.635161 0.825686 0.999718
Si Si3 0.012568 0.176713 0.084353
Si Si4 0.641110 0.828650 0.421503
Si Si5 0.235672 0.175378 0.852564
Si Si6 0.384113 0.818389 0.264162
Si Si7 0.367925 0.677533 0.726445
Si Si8 0.632554 0.830757 0.578608
O O1 0.250572 0.500000 0.149382
O O2 0.309794 0.715695 0.059584
O O3 0.109742 0.726076 0.125418
O O4 0.298121 0.766523 0.201012
O O5 0.668293 0.000000 0.980895
O O6 0.500000 0.800147 0.000000
O O7 0.683667 0.779252 0.078930
O O8 0.895841 0.208862 0.127515
O O9 0.047615 0.000000 0.086071
O O10 0.000000 0.230991 0.000000
O O11 0.682134 0.725678 0.353810
O O12 0.677371 0.754654 0.501914
O O13 0.504465 0.836501 0.420217
O O14 0.690844 0.000000 0.412687
O O15 0.269788 0.279627 0.784300
O O16 0.254172 0.000000 0.831223
O O17 0.513074 0.758794 0.250409
O O18 0.332853 0.755029 0.342678
O O19 0.391694 0.000000 0.265911
O O20 0.391141 0.500000 0.726792
O O21 0.683355 0.000000 0.576258
#
# Coordination Sequence:
#
# PCOD8061702 Si02
#       8
#     4   4   4   4   4   4   4   4
#     4  12  24  35  51  77 106 131 161 206 263 309
#     4  10  20  35  55  75  97 131 171 207 245 296
#     4  10  20  39  61  76  92 124 174 219 250 295
#     4   8  13  26  46  68  97 133 172 204 241 292
#     4  10  20  35  55  75  96 130 174 212 248 293
#     4  10  19  34  53  72 101 139 177 210 247 295
#     4  11  21  31  46  75 112 139 165 204 255 305
#     4   7  12  24  46  71  93 127 173 214 240 278
#
# _framework density 17.261555999999999
#
# number of rings (size 3 to 8) (size 9 to 14) (size 15 to 20)
#    0.000    2.250    1.250    4.875    0.000    2.500 
#    0.000    5.625    0.000    0.000    0.000    0.875 
#    0.000    7.000    0.000    0.000    0.000    0.000 
#
# Total GULP energy -396591.451744 kJ/mol
# GULP energy per Si atom -12393.482867 kJ/mol
# Density = 1.722227 g / cm^3
# Si number density = 17.261556 Si / 1000 Ang^3
#
#
#
# Elastic Constant Matrix: (Units=GPa)
#
#
# Indices 1 2 3 4 5 6 
#
# 1 62.4721 25.8046 50.7106 0.0000 -2.2600 0.0000
# 2 25.8046 76.2335 44.9914 0.0000 -3.9710 0.0000
# 3 50.7106 44.9914 128.5079 0.0000 -23.0137 0.0000
# 4 0.0000 0.0000 0.0000 7.2554 0.0000 1.3650
# 5 -2.2600 -3.9710 -23.0137 0.0000 -3.7198 0.0000
# 6 0.0000 0.0000 0.0000 1.3650 0.0000 17.4479
#
#
#
# Elastic Compliance Matrix: (Units=1/GPa)
#
#
# Indices 1 2 3 4 5 6 
#
# 1 0.021624 -0.004008 -0.004135 0.000000 0.016723 0.000000
# 2 -0.004008 0.016715 -0.003335 0.000000 0.005223 0.000000
# 3 -0.004135 -0.003335 0.005535 0.000000 -0.028174 0.000000
# 4 0.000000 0.000000 0.000000 0.139888 0.000000 -0.010944
# 5 0.016723 0.005223 -0.028174 0.000000 -0.110261 0.000000
# 6 0.000000 0.000000 0.000000 -0.010944 0.000000 0.058170
#
#
# Mechanical properties :
#
#
# Convention : Reuss Voigt Hill
#
# Bulk Modulus (GPa) = 47.80506 56.69186 52.24846
# Shear Modulus (GPa) = 30.94063 13.91048 22.42556
#
# Velocity S-wave (km/s) = 4.23834 2.84186 3.60830
# Velocity P-wave (km/s) = 7.19069 6.60926 6.90610
#
# Compressibility (1/GPa) = 0.02091829
#
# Stress axis : x y z
#
# Youngs Moduli (GPa) = 46.24446 59.82822 180.65747
#
# Poissons Ratio (x) = 0.23980 0.74701
# Poissons Ratio (y) = 0.18536 0.60245
# Poissons Ratio (z) = 0.19122 0.19951
#
# Static dielectric constant tensor:
#      x y z
#    x 2.926400 0.000000 0.093970 
#    y 0.000000 3.066430 0.000000 
#    z 0.093970 0.000000 3.952940 
# 
# 
# High freq. dielectric constant tensor:
#      x y z
#    x 1.626870 0.000000 -0.001230 
#    y 0.000000 1.648830 0.000000 
#    z -0.001230 0.000000 1.685530 
# 
# From -- ./inp_files/75995.got.cif
#   From: 2010.06.25/outbox.cif.g09.slc.cpg/sg10_38_cif.got.tgz:75995.got - 2010.06.27 22:07:45.
