data_PCOD8061736
_publ_section_title
;
Structure prediction by ZEFSAII (Michael W. Deem and Ramdas Pophale) SiO2 
 PCOD8061736
Probable space group: P 2/M
;
_chemical_formula_sum "Si O2"
_cell_formula_units_Z 28
_cell_length_a 26.393321
_cell_length_b 9.024986
_cell_length_c 9.474280
_cell_angle_alpha 90.000000
_cell_angle_beta 137.599628
_cell_angle_gamma 90.000000
_cell_volume 1521.754440
_symmetry_space_group_name_H-M "P 2/M"
_symmetry_group_IT_number 10
_symmetry_cell_setting 'monoclinic'
loop_
_space_group_symop_operation_xyz
x,y,z
-x,y,-z
-x,-y,-z
x,-y,z
loop_
_atom_site_type_symbol
_atom_site_label
_atom_site_fract_x
_atom_site_fract_y
_atom_site_fract_z
Si Si1 0.927971 0.161167 0.759057
Si Si2 0.925840 0.173444 0.431231
Si Si3 0.306480 0.666845 0.392580
Si Si4 0.304948 0.172538 0.840256
Si Si5 0.585046 0.174845 0.176246
Si Si6 0.201547 0.664232 0.430094
Si Si7 0.235122 0.676708 0.956050
O O1 0.943875 0.208750 0.630914
O O2 0.885108 0.292811 0.752140
O O3 0.886596 0.000000 0.672489
O O4 0.000000 0.141721 0.000000
O O5 0.848487 0.255209 0.226656
O O6 0.000000 0.230737 0.500000
O O7 0.913141 0.000000 0.375177
O O8 0.336827 0.500000 0.437213
O O9 0.373417 0.759586 0.601347
O O10 0.233224 0.671937 0.339146
O O11 0.277395 0.731402 0.184788
O O12 0.377619 0.222511 0.896865
O O13 0.234103 0.207699 0.596900
O O14 0.293792 0.268311 0.957718
O O15 0.307867 0.000000 0.885951
O O16 0.589096 0.000000 0.201642
O O17 0.500000 0.233900 0.000000
O O18 0.214176 0.500000 0.521005
O O19 0.227246 0.500000 0.934994
#
# Coordination Sequence:
#
# PCOD8061736 Si02
#       7
#     4   4   4   4   4   4   4
#     4  10  21  35  51  74 105 138 179 227 274 327
#     4  10  22  38  54  76 108 146 187 230 280 332
#     4   9  21  37  54  81 113 145 183 221 266 325
#     4  10  19  34  57  82 108 141 179 220 271 327
#     4   9  19  37  61  88 114 141 179 225 271 323
#     4  10  19  34  54  76 103 138 181 227 270 318
#     4  11  22  37  56  80 113 149 187 230 271 323
#
# _framework density 18.399816000000001
#
# number of rings (size 3 to 8) (size 9 to 14) (size 15 to 20)
#    0.000    2.143    1.429    1.286    2.000    3.143 
#    0.000    0.714    0.000    4.286    0.000    0.000 
#    0.000    0.000    0.000    0.000    0.000    0.000 
#
# Total GULP energy -346974.056661 kJ/mol
# GULP energy per Si atom -12391.930595 kJ/mol
# Density = 1.835794 g / cm^3
# Si number density = 18.399816 Si / 1000 Ang^3
#
#
#
# Elastic Constant Matrix: (Units=GPa)
#
#
# Indices 1 2 3 4 5 6 
#
# 1 115.9342 51.4939 78.2795 0.0000 3.5492 0.0000
# 2 51.4939 60.2500 45.4871 0.0000 1.8165 0.0000
# 3 78.2795 45.4871 129.4483 0.0000 -7.9159 0.0000
# 4 0.0000 0.0000 0.0000 30.5075 0.0000 -11.9535
# 5 3.5492 1.8165 -7.9159 0.0000 29.6257 0.0000
# 6 0.0000 0.0000 0.0000 -11.9535 0.0000 46.0282
#
#
#
# Elastic Compliance Matrix: (Units=1/GPa)
#
#
# Indices 1 2 3 4 5 6 
#
# 1 0.018380 -0.009570 -0.007981 0.000000 -0.003748 0.000000
# 2 -0.009570 0.027950 -0.004136 0.000000 -0.001673 0.000000
# 3 -0.007981 -0.004136 0.014313 0.000000 0.005034 0.000000
# 4 0.000000 0.000000 0.000000 0.036492 0.000000 0.009477
# 5 -0.003748 -0.001673 0.005034 0.000000 0.035651 0.000000
# 6 0.000000 0.000000 0.000000 0.009477 0.000000 0.024187
#
#
# Mechanical properties :
#
#
# Convention : Reuss Voigt Hill
#
# Bulk Modulus (GPa) = 57.91227 72.90593 65.40910
# Shear Modulus (GPa) = 24.25960 29.92376 27.09168
#
# Velocity S-wave (km/s) = 3.63501 4.03713 3.84133
# Velocity P-wave (km/s) = 7.01145 7.83839 7.43643
#
# Compressibility (1/GPa) = 0.01726750
#
# Stress axis : x y z
#
# Youngs Moduli (GPa) = 54.40748 35.77766 69.86882
#
# Poissons Ratio (x) = 0.34241 0.55761
# Poissons Ratio (y) = 0.52070 0.28901
# Poissons Ratio (z) = 0.43421 0.14799
#
# Static dielectric constant tensor:
#      x y z
#    x 3.676610 0.000000 -0.059570 
#    y 0.000000 3.463600 0.000000 
#    z -0.059570 0.000000 3.277170 
# 
# 
# High freq. dielectric constant tensor:
#      x y z
#    x 1.717290 0.000000 -0.006760 
#    y 0.000000 1.715380 0.000000 
#    z -0.006760 0.000000 1.701160 
# 
# From -- ./inp_files/31615.got.cif
#   From: 2010.06.25/outbox.cif.g09.slc.cpg/sg10_16_cif.got.tgz:31615.got - 2010.06.27 22:07:45.
