data_PCOD8061430
_publ_section_title
;
Structure prediction by ZEFSAII (Michael W. Deem and Ramdas Pophale) SiO2 
 PCOD8061430
Probable space group: P 2/M
;
_chemical_formula_sum "Si O2"
_cell_formula_units_Z 32
_cell_length_a 12.054507
_cell_length_b 9.042773
_cell_length_c 20.547077
_cell_angle_alpha 90.000000
_cell_angle_beta 127.356173
_cell_angle_gamma 90.000000
_cell_volume 1780.336707
_symmetry_space_group_name_H-M "P 2/M"
_symmetry_group_IT_number 10
_symmetry_cell_setting 'monoclinic'
loop_
_space_group_symop_operation_xyz
x,y,z
-x,y,-z
-x,-y,-z
x,-y,z
loop_
_atom_site_type_symbol
_atom_site_label
_atom_site_fract_x
_atom_site_fract_y
_atom_site_fract_z
Si Si1 0.878587 0.671800 0.625232
Si Si2 0.859450 0.825763 0.121069
Si Si3 0.439435 0.672573 0.288191
Si Si4 0.134602 0.330402 0.229536
Si Si5 0.411126 0.324180 0.528260
Si Si6 0.847874 0.828880 0.265491
Si Si7 0.596434 0.324912 0.974096
Si Si8 0.543335 0.173598 0.197581
O O1 0.902563 0.500000 0.623251
O O2 0.840416 0.709268 0.686158
O O3 0.749631 0.728834 0.535286
O O4 0.021637 0.749119 0.653782
O O5 0.829465 0.775355 0.184511
O O6 0.014386 0.772807 0.156215
O O7 0.845480 0.000000 0.106012
O O8 0.749137 0.744660 0.035879
O O9 0.469925 0.500000 0.284938
O O10 0.275983 0.699781 0.241040
O O11 0.526036 0.730342 0.381243
O O12 0.484819 0.774120 0.245158
O O13 0.087061 0.500000 0.205643
O O14 0.500000 0.256898 0.500000
O O15 0.420192 0.500000 0.527414
O O16 0.708150 0.790580 0.255013
O O17 0.883476 0.000000 0.278760
O O18 0.609823 0.500000 0.974050
O O19 0.531985 0.263746 0.885375
O O20 0.500000 0.275361 0.000000
O O21 0.515959 0.000000 0.177406
#
# Coordination Sequence:
#
# PCOD8061430 Si02
#       8
#     4   4   4   4   4   4   4   4
#     4   9  16  28  53  83 106 135 178 226 270 316
#     4  10  19  33  55  81 110 142 178 220 267 321
#     4  10  20  35  56  81 112 146 182 226 275 324
#     4   9  17  31  52  80 111 141 177 224 274 319
#     4   9  15  29  54  83 110 139 179 226 274 320
#     4   9  19  34  51  74 107 145 178 216 267 319
#     4  11  22  36  58  86 110 135 177 228 272 318
#     4  11  23  39  56  76 110 150 184 218 267 329
#
# _framework density 17.974128
#
# number of rings (size 3 to 8) (size 9 to 14) (size 15 to 20)
#    0.000    2.250    2.500    1.125    0.000    2.500 
#    0.000    1.875    0.000    8.250    0.000    0.000 
#    0.000    0.000    0.000    0.000    0.000    0.000 
#
# Total GULP energy -396837.330195 kJ/mol
# GULP energy per Si atom -12401.166569 kJ/mol
# Density = 1.793322 g / cm^3
# Si number density = 17.974128 Si / 1000 Ang^3
#
#
#
# Elastic Constant Matrix: (Units=GPa)
#
#
# Indices 1 2 3 4 5 6 
#
# 1 97.3507 38.8337 54.0969 0.0000 10.3722 0.0000
# 2 38.8337 56.7181 44.4983 0.0000 9.7214 0.0000
# 3 54.0969 44.4983 117.1921 0.0000 14.7316 0.0000
# 4 0.0000 0.0000 0.0000 10.0053 0.0000 1.5859
# 5 10.3722 9.7214 14.7316 0.0000 29.3000 0.0000
# 6 0.0000 0.0000 0.0000 1.5859 0.0000 28.5838
#
#
#
# Elastic Compliance Matrix: (Units=1/GPa)
#
#
# Indices 1 2 3 4 5 6 
#
# 1 0.015656 -0.007091 -0.004412 0.000000 -0.000971 0.000000
# 2 -0.007091 0.028721 -0.007205 0.000000 -0.003396 0.000000
# 3 -0.004412 -0.007205 0.013673 0.000000 -0.002922 0.000000
# 4 0.000000 0.000000 0.000000 0.100834 0.000000 -0.005595
# 5 -0.000971 -0.003396 -0.002922 0.000000 0.037069 0.000000
# 6 0.000000 0.000000 0.000000 -0.005595 0.000000 0.035295
#
#
# Mechanical properties :
#
#
# Convention : Reuss Voigt Hill
#
# Bulk Modulus (GPa) = 48.46695 60.67987 54.57341
# Shear Modulus (GPa) = 18.14585 22.49994 20.32290
#
# Velocity S-wave (km/s) = 3.18079 3.54191 3.36620
# Velocity P-wave (km/s) = 6.36501 7.11053 6.74807
#
# Compressibility (1/GPa) = 0.02063262
#
# Stress axis : x y z
#
# Youngs Moduli (GPa) = 63.87201 34.81729 73.13704
#
# Poissons Ratio (x) = 0.24690 0.32271
# Poissons Ratio (y) = 0.45294 0.52697
# Poissons Ratio (z) = 0.28183 0.25087
#
# Static dielectric constant tensor:
#      x y z
#    x 3.302060 0.000000 0.194390 
#    y 0.000000 3.178750 0.000000 
#    z 0.194390 0.000000 3.375090 
# 
# 
# High freq. dielectric constant tensor:
#      x y z
#    x 1.686750 0.000000 0.022120 
#    y 0.000000 1.683530 0.000000 
#    z 0.022120 0.000000 1.693740 
# 
# From -- ./inp_files/49832.got.cif
#   From: 2010.06.25/outbox.cif.g09.slc.cpg/sg10_25_cif.got.tgz:49832.got - 2010.06.27 22:07:45.
