data_PCOD8061051
_publ_section_title
;
Structure prediction by ZEFSAII (Michael W. Deem and Ramdas Pophale) SiO2 
 PCOD8061051
Probable space group: P 2/M
;
_chemical_formula_sum "Si O2"
_cell_formula_units_Z 32
_cell_length_a 28.639333
_cell_length_b 8.718457
_cell_length_c 22.616901
_cell_angle_alpha 90.000000
_cell_angle_beta 18.402060
_cell_angle_gamma 90.000000
_cell_volume 1782.735985
_symmetry_space_group_name_H-M "P 2/M"
_symmetry_group_IT_number 10
_symmetry_cell_setting 'monoclinic'
loop_
_space_group_symop_operation_xyz
x,y,z
-x,y,-z
-x,-y,-z
x,-y,z
loop_
_atom_site_type_symbol
_atom_site_label
_atom_site_fract_x
_atom_site_fract_y
_atom_site_fract_z
Si Si1 0.422481 0.317206 0.505010
Si Si2 0.186504 0.817949 0.488776
Si Si3 0.533311 0.319153 0.792112
Si Si4 0.967785 0.318232 0.215306
Si Si5 0.774382 0.181444 0.802744
Si Si6 0.279467 0.317798 0.795534
Si Si7 0.076673 0.181315 0.495328
Si Si8 0.677315 0.680591 0.499898
O O1 0.417387 0.500000 0.509216
O O2 0.313659 0.258642 0.687961
O O3 0.589938 0.262770 0.317487
O O4 0.370577 0.243879 0.505001
O O5 0.352387 0.758972 0.300137
O O6 0.070945 0.757857 0.675891
O O7 0.132885 0.751541 0.489965
O O8 0.187177 0.000000 0.488563
O O9 0.555598 0.500000 0.770537
O O10 0.569671 0.262386 0.681753
O O11 0.368429 0.272993 0.005495
O O12 0.971683 0.500000 0.220221
O O13 0.845420 0.272644 0.313399
O O14 0.123924 0.250729 0.005218
O O15 0.813976 0.234305 0.688557
O O16 0.908465 0.233485 0.684456
O O17 0.744885 0.000000 0.841888
O O18 0.271073 0.500000 0.804879
O O19 0.078263 0.000000 0.494589
O O20 0.663609 0.500000 0.509850
#
# Coordination Sequence:
#
# PCOD8061051 Si02
#       8
#     4   4   4   4   4   4   4   4
#     4   8  13  23  38  60  87 117 149 182 220 271
#     4  10  19  33  51  70  92 125 162 194 228 277
#     4  10  20  33  47  71 101 126 154 193 235 279
#     4   9  17  29  43  65  93 118 145 188 236 273
#     4   9  17  34  55  72  92 122 156 195 235 276
#     4   8  14  23  38  61  90 116 144 183 228 271
#     4   8  17  33  53  73  93 119 159 199 230 270
#     4   8  15  26  39  56  86 119 147 180 221 265
#
# _framework density 17.949938
#
# number of rings (size 3 to 8) (size 9 to 14) (size 15 to 20)
#    0.000    3.250    0.000    3.000    0.000    2.000 
#    0.000   10.000    0.000    0.000    0.000    9.625 
#    0.000    0.000    0.000    0.000    0.000    0.000 
#
# Total GULP energy -396627.093303 kJ/mol
# GULP energy per Si atom -12394.596666 kJ/mol
# Density = 1.790908 g / cm^3
# Si number density = 17.949938 Si / 1000 Ang^3
#
#
#
# Elastic Constant Matrix: (Units=GPa)
#
#
# Indices 1 2 3 4 5 6 
#
# 1 177.4929 22.8047 74.8817 0.0000 -1.9153 0.0000
# 2 22.8047 25.6369 20.2824 0.0000 1.2865 0.0000
# 3 74.8817 20.2824 157.2396 0.0000 -6.3841 0.0000
# 4 0.0000 0.0000 0.0000 14.4038 0.0000 -1.5075
# 5 -1.9153 1.2865 -6.3841 0.0000 13.8555 0.0000
# 6 0.0000 0.0000 0.0000 -1.5075 0.0000 14.8997
#
#
#
# Elastic Compliance Matrix: (Units=1/GPa)
#
#
# Indices 1 2 3 4 5 6 
#
# 1 0.007445 -0.004255 -0.002995 0.000000 0.000044 0.000000
# 2 -0.004255 0.046498 -0.004250 0.000000 -0.006864 0.000000
# 3 -0.002995 -0.004250 0.008492 0.000000 0.003894 0.000000
# 4 0.000000 0.000000 0.000000 0.070169 0.000000 0.007100
# 5 0.000044 -0.006864 0.003894 0.000000 0.074611 0.000000
# 6 0.000000 0.000000 0.000000 0.007100 0.000000 0.067834
#
#
# Mechanical properties :
#
#
# Convention : Reuss Voigt Hill
#
# Bulk Modulus (GPa) = 25.35813 66.25636 45.80724
# Shear Modulus (GPa) = 16.06717 24.79184 20.42950
#
# Velocity S-wave (km/s) = 2.99508 3.72044 3.37729
# Velocity P-wave (km/s) = 5.11063 7.44630 6.38615
#
# Compressibility (1/GPa) = 0.03943509
#
# Stress axis : x y z
#
# Youngs Moduli (GPa) = 134.32500 21.50622 117.75576
#
# Poissons Ratio (x) = 0.09151 0.35264
# Poissons Ratio (y) = 0.57158 0.50047
# Poissons Ratio (z) = 0.40226 0.09140
#
# Static dielectric constant tensor:
#      x y z
#    x 3.815930 0.000000 0.034010 
#    y 0.000000 2.820390 0.000000 
#    z 0.034010 0.000000 3.469560 
# 
# 
# High freq. dielectric constant tensor:
#      x y z
#    x 1.702400 0.000000 -0.000410 
#    y 0.000000 1.646300 0.000000 
#    z -0.000410 0.000000 1.700350 
# 
# From -- ./inp_files/86768.got.cif
#   From: 2010.06.25/outbox.cif.g09.slc.cpg/sg10_44_cif.got.tgz:86768.got - 2010.06.27 22:07:45.
