data_PCOD8061697
_publ_section_title
;
Structure prediction by ZEFSAII (Michael W. Deem and Ramdas Pophale) SiO2 
 PCOD8061697
Probable space group: P 2/M
;
_chemical_formula_sum "Si O2"
_cell_formula_units_Z 32
_cell_length_a 20.107807
_cell_length_b 17.538940
_cell_length_c 14.751336
_cell_angle_alpha 90.000000
_cell_angle_beta 19.485559
_cell_angle_gamma 90.000000
_cell_volume 1735.343408
_symmetry_space_group_name_H-M "P 2/M"
_symmetry_group_IT_number 10
_symmetry_cell_setting 'monoclinic'
loop_
_space_group_symop_operation_xyz
x,y,z
-x,y,-z
-x,-y,-z
x,-y,z
loop_
_atom_site_type_symbol
_atom_site_label
_atom_site_fract_x
_atom_site_fract_y
_atom_site_fract_z
Si Si1 0.730592 0.087061 0.846696
Si Si2 0.539434 0.315688 0.095275
Si Si3 0.597006 0.835903 0.644294
Si Si4 0.615909 0.087438 0.436792
Si Si5 0.174819 0.305616 0.437004
Si Si6 0.012632 0.914655 0.825353
Si Si7 0.013322 0.141976 0.633647
Si Si8 0.137382 0.415464 0.236222
O O1 0.793907 0.103313 0.661920
O O2 0.842433 0.142038 0.776199
O O3 0.777991 0.000000 0.810576
O O4 0.499769 0.107718 0.155914
O O5 0.477988 0.249398 0.243463
O O6 0.335725 0.338043 0.303404
O O7 0.711156 0.290297 0.804349
O O8 0.641268 0.382670 0.024156
O O9 0.542962 0.859739 0.612076
O O10 0.830957 0.847698 0.356953
O O11 0.500000 0.119089 0.500000
O O12 0.558975 0.000000 0.531980
O O13 0.847358 0.095364 0.114954
O O14 0.075020 0.225360 0.590652
O O15 0.990009 0.364580 0.670440
O O16 0.935971 0.905407 0.820213
O O17 0.103506 0.000000 0.719562
O O18 0.171341 0.500000 0.151501
O O19 0.000000 0.421636 0.500000
#
# Coordination Sequence:
#
# PCOD8061697 Si02
#       8
#     4   4   4   4   4   4   4   4
#     4  11  22  32  48  72 101 143 189 234 277 321
#     4  10  20  34  53  80 112 145 180 223 275 323
#     4  12  21  35  52  74 104 139 182 230 283 334
#     4  10  22  39  55  71  96 138 189 239 289 329
#     4  10  19  34  52  78 112 148 181 220 274 327
#     4  11  22  35  52  73 103 141 184 237 280 320
#     4  11  20  34  49  72 106 141 187 226 273 325
#     4   9  19  34  55  81 111 150 188 218 259 327
#
# _framework density 18.440154
#
# number of rings (size 3 to 8) (size 9 to 14) (size 15 to 20)
#    0.000    1.500    2.500    4.500    3.500    3.000 
#    0.000    3.750    0.000    0.000    0.000    0.000 
#    0.000    6.500    0.000    0.000    0.000    0.000 
#
# Total GULP energy -396582.481460 kJ/mol
# GULP energy per Si atom -12393.202546 kJ/mol
# Density = 1.839818 g / cm^3
# Si number density = 18.440154 Si / 1000 Ang^3
#
#
#
# Elastic Constant Matrix: (Units=GPa)
#
#
# Indices 1 2 3 4 5 6 
#
# 1 69.3239 31.6250 8.3324 0.0000 -7.3385 0.0000
# 2 31.6250 108.3251 34.8067 0.0000 -11.0006 0.0000
# 3 8.3324 34.8067 42.7515 0.0000 -4.8804 0.0000
# 4 0.0000 0.0000 0.0000 21.2723 0.0000 -7.2845
# 5 -7.3385 -11.0006 -4.8804 0.0000 36.0172 0.0000
# 6 0.0000 0.0000 0.0000 -7.2845 0.0000 17.9936
#
#
#
# Elastic Compliance Matrix: (Units=1/GPa)
#
#
# Indices 1 2 3 4 5 6 
#
# 1 0.016813 -0.005043 0.001061 0.000000 0.002029 0.000000
# 2 -0.005043 0.014236 -0.010389 0.000000 0.001913 0.000000
# 3 0.001061 -0.010389 0.031797 0.000000 0.001351 0.000000
# 4 0.000000 0.000000 0.000000 0.054576 0.000000 0.022094
# 5 0.002029 0.001913 0.001351 0.000000 0.028945 0.000000
# 6 0.000000 0.000000 0.000000 0.022094 0.000000 0.064520
#
#
# Mechanical properties :
#
#
# Convention : Reuss Voigt Hill
#
# Bulk Modulus (GPa) = 29.32311 41.10318 35.21315
# Shear Modulus (GPa) = 19.92039 24.76572 22.34306
#
# Velocity S-wave (km/s) = 3.29032 3.66872 3.48466
# Velocity P-wave (km/s) = 5.51101 6.34700 5.94372
#
# Compressibility (1/GPa) = 0.03410280
#
# Stress axis : x y z
#
# Youngs Moduli (GPa) = 59.47769 70.24256 31.44926
#
# Poissons Ratio (x) = 0.35425 -0.03336
# Poissons Ratio (y) = 0.29996 0.32674
# Poissons Ratio (z) = -0.06309 0.72978
#
# Static dielectric constant tensor:
#      x y z
#    x 3.393910 0.000000 -0.089070 
#    y 0.000000 3.267210 0.000000 
#    z -0.089070 0.000000 3.455780 
# 
# 
# High freq. dielectric constant tensor:
#      x y z
#    x 1.710810 0.000000 -0.020290 
#    y 0.000000 1.682750 0.000000 
#    z -0.020290 0.000000 1.707140 
# 
# From -- ./inp_files/70832.got.cif
#   From: 2010.06.25/outbox.cif.g09.slc.cpg/sg10_36_cif.got.tgz:70832.got - 2010.06.27 22:07:45.
