data_PCOD8061971
_publ_section_title
;
Structure prediction by ZEFSAII (Michael W. Deem and Ramdas Pophale) SiO2 
 PCOD8061971
Probable space group: P 2/M
;
_chemical_formula_sum "Si O2"
_cell_formula_units_Z 32
_cell_length_a 26.321487
_cell_length_b 8.618570
_cell_length_c 20.831884
_cell_angle_alpha 90.000000
_cell_angle_beta 158.781918
_cell_angle_gamma 90.000000
_cell_volume 1710.351241
_symmetry_space_group_name_H-M "P 2/M"
_symmetry_group_IT_number 10
_symmetry_cell_setting 'monoclinic'
loop_
_space_group_symop_operation_xyz
x,y,z
-x,y,-z
-x,-y,-z
x,-y,z
loop_
_atom_site_type_symbol
_atom_site_label
_atom_site_fract_x
_atom_site_fract_y
_atom_site_fract_z
Si Si1 0.990805 0.181186 0.667829
Si Si2 0.732829 0.682972 0.056256
Si Si3 0.119713 0.180742 0.952873
Si Si4 0.603905 0.820036 0.564387
Si Si5 0.900791 0.681389 0.940159
Si Si6 0.407110 0.316095 0.977452
Si Si7 0.605879 0.682096 0.774359
Si Si8 0.689395 0.183810 0.266890
O O1 0.108458 0.256209 0.761042
O O2 0.015720 0.222772 0.771909
O O3 0.838399 0.244790 0.468620
O O4 0.998902 0.000000 0.664921
O O5 0.740016 0.500000 0.063535
O O6 0.660334 0.743210 0.035673
O O7 0.640651 0.741671 0.887250
O O8 0.159268 0.000000 0.999273
O O9 0.048643 0.228806 0.936127
O O10 0.262588 0.278380 0.116056
O O11 0.500000 0.779756 0.500000
O O12 0.741666 0.718124 0.734529
O O13 0.530622 0.773355 0.411046
O O14 0.645540 0.000000 0.612693
O O15 0.919613 0.500000 0.974442
O O16 0.000000 0.740761 0.000000
O O17 0.394243 0.500000 0.953541
O O18 0.323046 0.231228 0.821924
O O19 0.569964 0.267525 0.168250
O O20 0.575511 0.500000 0.736068
O O21 0.672348 0.000000 0.253960
#
# Coordination Sequence:
#
# PCOD8061971 Si02
#       8
#     4   4   4   4   4   4   4   4
#     4   9  20  36  56  81 110 141 179 222 267 321
#     4   9  20  36  55  81 112 142 178 223 271 318
#     4  10  19  35  57  80 109 143 180 223 271 324
#     4  11  22  36  58  85 109 141 184 225 269 324
#     4  11  24  40  57  80 110 144 182 225 274 324
#     4  10  20  36  56  80 110 144 180 222 268 316
#     4  10  19  34  57  82 110 142 180 226 271 319
#     4  10  20  36  56  80 109 144 184 221 263 321
#
# _framework density 18.709607999999999
#
# number of rings (size 3 to 8) (size 9 to 14) (size 15 to 20)
#    0.000    2.000    1.250    3.000    0.000    5.000 
#    2.250    2.500    0.000    0.000    0.000    0.000 
#    0.000    0.000    0.000    0.000    0.000    0.000 
#
# Total GULP energy -396889.982112 kJ/mol
# GULP energy per Si atom -12402.811941 kJ/mol
# Density = 1.866702 g / cm^3
# Si number density = 18.709608 Si / 1000 Ang^3
#
#
#
# Elastic Constant Matrix: (Units=GPa)
#
#
# Indices 1 2 3 4 5 6 
#
# 1 141.4173 17.9116 60.0354 0.0000 1.5961 0.0000
# 2 17.9116 27.8116 14.0382 0.0000 0.2082 0.0000
# 3 60.0354 14.0382 122.6723 0.0000 -6.0876 0.0000
# 4 0.0000 0.0000 0.0000 26.3522 0.0000 0.0292
# 5 1.5961 0.2082 -6.0876 0.0000 17.8925 0.0000
# 6 0.0000 0.0000 0.0000 0.0292 0.0000 19.7802
#
#
#
# Elastic Compliance Matrix: (Units=1/GPa)
#
#
# Indices 1 2 3 4 5 6 
#
# 1 0.009400 -0.003883 -0.004267 0.000000 -0.002245 0.000000
# 2 -0.003883 0.039832 -0.002709 0.000000 -0.001039 0.000000
# 3 -0.004267 -0.002709 0.010752 0.000000 0.004070 0.000000
# 4 0.000000 0.000000 0.000000 0.037948 0.000000 -0.000056
# 5 -0.002245 -0.001039 0.004070 0.000000 0.057487 0.000000
# 6 0.000000 0.000000 0.000000 -0.000056 0.000000 0.050556
#
#
# Mechanical properties :
#
#
# Convention : Reuss Voigt Hill
#
# Bulk Modulus (GPa) = 26.13365 52.87464 39.50415
# Shear Modulus (GPa) = 20.79436 26.13270 23.46353
#
# Velocity S-wave (km/s) = 3.33742 3.74137 3.54516
# Velocity P-wave (km/s) = 5.37118 6.85462 6.15774
#
# Compressibility (1/GPa) = 0.03826484
#
# Stress axis : x y z
#
# Youngs Moduli (GPa) = 106.38227 25.10514 93.00329
#
# Poissons Ratio (x) = 0.09749 0.39688
# Poissons Ratio (y) = 0.41310 0.25199
# Poissons Ratio (z) = 0.45398 0.06802
#
# Static dielectric constant tensor:
#      x y z
#    x 3.592280 0.000000 -0.132940 
#    y 0.000000 3.384890 0.000000 
#    z -0.132940 0.000000 3.543730 
# 
# 
# High freq. dielectric constant tensor:
#      x y z
#    x 1.722980 0.000000 -0.010790 
#    y 0.000000 1.731750 0.000000 
#    z -0.010790 0.000000 1.725500 
# 
# From -- ./inp_files/86950.got.cif
#   From: 2010.06.25/outbox.cif.g09.slc.cpg/sg10_44_cif.got.tgz:86950.got - 2010.06.27 22:07:45.
