data_PCOD8061667
_publ_section_title
;
Structure prediction by ZEFSAII (Michael W. Deem and Ramdas Pophale) SiO2 
 PCOD8061667
Probable space group: P 2/M
;
_chemical_formula_sum "Si O2"
_cell_formula_units_Z 32
_cell_length_a 20.110818
_cell_length_b 9.154039
_cell_length_c 11.727920
_cell_angle_alpha 90.000000
_cell_angle_beta 121.611557
_cell_angle_gamma 90.000000
_cell_volume 1838.696146
_symmetry_space_group_name_H-M "P 2/M"
_symmetry_group_IT_number 10
_symmetry_cell_setting 'monoclinic'
loop_
_space_group_symop_operation_xyz
x,y,z
-x,y,-z
-x,-y,-z
x,-y,z
loop_
_atom_site_type_symbol
_atom_site_label
_atom_site_fract_x
_atom_site_fract_y
_atom_site_fract_z
Si Si1 0.227072 0.668410 0.101446
Si Si2 0.454081 0.831663 0.072014
Si Si3 0.707814 0.326062 0.073843
Si Si4 0.684872 0.330978 0.604108
Si Si5 0.171446 0.830626 0.377824
Si Si6 0.083873 0.672924 0.121516
Si Si7 0.260212 0.167764 0.673542
Si Si8 0.404125 0.831777 0.643945
O O1 0.208218 0.500000 0.067044
O O2 0.304840 0.688847 0.250310
O O3 0.149820 0.734789 0.093133
O O4 0.244365 0.736143 0.992846
O O5 0.509736 0.803973 0.230333
O O6 0.426936 0.000000 0.040895
O O7 0.500000 0.787761 0.000000
O O8 0.380168 0.728664 0.016382
O O9 0.706886 0.500000 0.075597
O O10 0.750414 0.266852 0.224697
O O11 0.693190 0.500000 0.577059
O O12 0.752092 0.236414 0.608370
O O13 0.604716 0.265320 0.479731
O O14 0.096653 0.746481 0.257836
O O15 0.183096 0.810278 0.524810
O O16 0.164853 0.000000 0.340027
O O17 0.090726 0.500000 0.144078
O O18 0.000000 0.720933 0.000000
O O19 0.339643 0.215052 0.680046
O O20 0.268052 0.000000 0.719202
O O21 0.391002 0.000000 0.599245
#
# Coordination Sequence:
#
# PCOD8061667 Si02
#       8
#     4   4   4   4   4   4   4   4
#     4   8  17  33  48  69 101 128 151 190 242 286
#     4  10  19  34  49  63  92 130 162 200 250 289
#     4  11  21  31  47  70  96 126 162 201 238 284
#     4   9  16  29  49  68  92 125 160 199 241 285
#     4   9  17  29  47  72 101 127 154 194 238 279
#     4   9  17  32  56  80 100 125 157 193 234 281
#     4   9  17  31  47  66  94 129 162 195 241 283
#     4   9  17  30  48  67  90 120 158 206 251 283
#
# _framework density 17.403635999999999
#
# number of rings (size 3 to 8) (size 9 to 14) (size 15 to 20)
#    0.000    2.750    1.250    2.625    0.000    3.500 
#    0.000    6.875    0.000    4.500    0.000    5.250 
#    0.000    0.000    0.000    0.000    0.000    0.000 
#
# Total GULP energy -396544.531473 kJ/mol
# GULP energy per Si atom -12392.016609 kJ/mol
# Density = 1.736402 g / cm^3
# Si number density = 17.403636 Si / 1000 Ang^3
#
#
#
# Elastic Constant Matrix: (Units=GPa)
#
#
# Indices 1 2 3 4 5 6 
#
# 1 53.6499 30.6798 52.6610 0.0000 -3.4118 0.0000
# 2 30.6798 61.2096 57.4450 0.0000 -1.0084 0.0000
# 3 52.6610 57.4450 143.5981 0.0000 3.8878 0.0000
# 4 0.0000 0.0000 0.0000 34.5285 0.0000 4.0330
# 5 -3.4118 -1.0084 3.8878 0.0000 23.5327 0.0000
# 6 0.0000 0.0000 0.0000 4.0330 0.0000 5.3358
#
#
#
# Elastic Compliance Matrix: (Units=1/GPa)
#
#
# Indices 1 2 3 4 5 6 
#
# 1 0.032088 -0.007681 -0.008851 0.000000 0.005785 0.000000
# 2 -0.007681 0.028190 -0.008501 0.000000 0.001499 0.000000
# 3 -0.008851 -0.008501 0.013717 0.000000 -0.003914 0.000000
# 4 0.000000 0.000000 0.000000 0.031766 0.000000 -0.024010
# 5 0.005785 0.001499 -0.003914 0.000000 0.044044 0.000000
# 6 0.000000 0.000000 0.000000 -0.024010 0.000000 0.205560
#
#
# Mechanical properties :
#
#
# Convention : Reuss Voigt Hill
#
# Bulk Modulus (GPa) = 41.79221 60.00325 50.89773
# Shear Modulus (GPa) = 12.09464 20.52420 16.30942
#
# Velocity S-wave (km/s) = 2.63905 3.43783 3.06457
# Velocity P-wave (km/s) = 5.77510 7.09299 6.46770
#
# Compressibility (1/GPa) = 0.02392791
#
# Stress axis : x y z
#
# Youngs Moduli (GPa) = 31.16449 35.47356 72.90465
#
# Poissons Ratio (x) = 0.27247 0.64530
# Poissons Ratio (y) = 0.23937 0.61976
# Poissons Ratio (z) = 0.27585 0.30156
#
# Static dielectric constant tensor:
#      x y z
#    x 3.003020 0.000000 0.003580 
#    y 0.000000 3.217550 0.000000 
#    z 0.003580 0.000000 3.850050 
# 
# 
# High freq. dielectric constant tensor:
#      x y z
#    x 1.618200 0.000000 0.001520 
#    y 0.000000 1.665430 0.000000 
#    z 0.001520 0.000000 1.691550 
# 
# From -- ./inp_files/52793.got.cif
#   From: 2010.06.25/outbox.cif.g09.slc.cpg/sg10_27_cif.got.tgz:52793.got - 2010.06.27 22:07:45.
