data_PCOD8061474
_publ_section_title
;
Structure prediction by ZEFSAII (Michael W. Deem and Ramdas Pophale) SiO2 
 PCOD8061474
Probable space group: P 2/M
;
_chemical_formula_sum "Si O2"
_cell_formula_units_Z 32
_cell_length_a 23.842173
_cell_length_b 8.914840
_cell_length_c 14.888887
_cell_angle_alpha 90.000000
_cell_angle_beta 29.321427
_cell_angle_gamma 90.000000
_cell_volume 1549.741652
_symmetry_space_group_name_H-M "P 2/M"
_symmetry_group_IT_number 10
_symmetry_cell_setting 'monoclinic'
loop_
_space_group_symop_operation_xyz
x,y,z
-x,y,-z
-x,-y,-z
x,-y,z
loop_
_atom_site_type_symbol
_atom_site_label
_atom_site_fract_x
_atom_site_fract_y
_atom_site_fract_z
Si Si1 0.249989 0.177232 0.176043
Si Si2 0.265986 0.676447 0.499129
Si Si3 0.507816 0.821606 0.771081
Si Si4 0.790858 0.165664 0.090577
Si Si5 0.554979 0.830327 0.509265
Si Si6 0.122662 0.174806 0.849796
Si Si7 0.877630 0.674797 0.808631
Si Si8 0.865184 0.323518 0.497967
O O1 0.161150 0.244141 0.227771
O O2 0.215922 0.235070 0.321002
O O3 0.239206 0.000000 0.185603
O O4 0.381355 0.228632 0.978263
O O5 0.282287 0.500000 0.481098
O O6 0.392456 0.748699 0.306594
O O7 0.217737 0.734444 0.661424
O O8 0.178804 0.720602 0.540112
O O9 0.523043 0.755777 0.648582
O O10 0.523603 0.000000 0.752801
O O11 0.688548 0.173740 0.305310
O O12 0.887744 0.200186 0.027792
O O13 0.798922 0.000000 0.035143
O O14 0.788634 0.283619 0.012548
O O15 0.500000 0.745114 0.500000
O O16 0.505176 0.000000 0.582273
O O17 0.139031 0.000000 0.802349
O O18 0.000000 0.241759 0.000000
O O19 0.873616 0.500000 0.794639
O O20 0.003257 0.727164 0.667332
O O21 0.852904 0.500000 0.532410
#
# Coordination Sequence:
#
# PCOD8061474 Si02
#       8
#     4   4   4   4   4   4   4   4
#     4  11  24  41  66  94 117 152 203 261 314 361
#     4  11  23  39  61  88 123 165 207 250 299 361
#     4  10  21  40  62  87 123 160 200 251 308 365
#     4  10  19  33  55  84 116 153 194 235 289 350
#     4   9  16  30  54  80 111 151 189 233 292 351
#     4  10  20  35  57  85 118 157 200 248 300 351
#     4  11  23  40  62  88 124 163 199 248 307 369
#     4  10  24  44  62  85 121 165 203 246 312 370
#
# _framework density 20.648602
#
# number of rings (size 3 to 8) (size 9 to 14) (size 15 to 20)
#    0.000    1.750    1.250    3.000    0.000    7.750 
#    0.000    2.500    0.000    1.500    0.000    0.000 
#    0.000    0.000    0.000    0.000    0.000    0.000 
#
# Total GULP energy -396600.516180 kJ/mol
# GULP energy per Si atom -12393.766131 kJ/mol
# Density = 2.060160 g / cm^3
# Si number density = 20.648602 Si / 1000 Ang^3
#
#
#
# Elastic Constant Matrix: (Units=GPa)
#
#
# Indices 1 2 3 4 5 6 
#
# 1 92.4316 32.8085 27.8905 0.0000 -7.1532 0.0000
# 2 32.8085 55.4092 30.4306 0.0000 -0.9710 0.0000
# 3 27.8905 30.4306 78.6346 0.0000 4.2826 0.0000
# 4 0.0000 0.0000 0.0000 19.4688 0.0000 3.0191
# 5 -7.1532 -0.9710 4.2826 0.0000 37.2966 0.0000
# 6 0.0000 0.0000 0.0000 3.0191 0.0000 32.5255
#
#
#
# Elastic Compliance Matrix: (Units=1/GPa)
#
#
# Indices 1 2 3 4 5 6 
#
# 1 0.014292 -0.007040 -0.002500 0.000000 0.002845 0.000000
# 2 -0.007040 0.026484 -0.007765 0.000000 0.000231 0.000000
# 3 -0.002500 -0.007765 0.016750 0.000000 -0.002605 0.000000
# 4 0.000000 0.000000 0.000000 0.052114 0.000000 -0.004837
# 5 0.002845 0.000231 -0.002605 0.000000 0.027663 0.000000
# 6 0.000000 0.000000 0.000000 -0.004837 0.000000 0.031194
#
#
# Mechanical properties :
#
#
# Convention : Reuss Voigt Hill
#
# Bulk Modulus (GPa) = 43.63363 45.41495 44.52429
# Shear Modulus (GPa) = 23.72522 26.88123 25.30322
#
# Velocity S-wave (km/s) = 3.39337 3.61202 3.50440
# Velocity P-wave (km/s) = 6.04406 6.27993 6.16312
#
# Compressibility (1/GPa) = 0.02291810
#
# Stress axis : x y z
#
# Youngs Moduli (GPa) = 69.96912 37.75819 59.69990
#
# Poissons Ratio (x) = 0.26581 0.14924
# Poissons Ratio (y) = 0.49256 0.46356
# Poissons Ratio (z) = 0.17491 0.29318
#
# Static dielectric constant tensor:
#      x y z
#    x 4.160210 0.000000 -0.103550 
#    y 0.000000 3.474470 0.000000 
#    z -0.103550 0.000000 3.814660 
# 
# 
# High freq. dielectric constant tensor:
#      x y z
#    x 1.826340 0.000000 -0.007120 
#    y 0.000000 1.779960 0.000000 
#    z -0.007120 0.000000 1.809420 
# 
# From -- ./inp_files/71523.got.cif
#   From: 2010.06.25/outbox.cif.g09.slc.cpg/sg10_36_cif.got.tgz:71523.got - 2010.06.27 22:07:45.
