data_PCOD8061983
_publ_section_title
;
Structure prediction by ZEFSAII (Michael W. Deem and Ramdas Pophale) SiO2 
 PCOD8061983
Probable space group: P 2/M
;
_chemical_formula_sum "Si O2"
_cell_formula_units_Z 24
_cell_length_a 24.588534
_cell_length_b 11.685452
_cell_length_c 9.487882
_cell_angle_alpha 90.000000
_cell_angle_beta 28.921087
_cell_angle_gamma 90.000000
_cell_volume 1318.371509
_symmetry_space_group_name_H-M "P 2/M"
_symmetry_group_IT_number 10
_symmetry_cell_setting 'monoclinic'
loop_
_space_group_symop_operation_xyz
x,y,z
-x,y,-z
-x,-y,-z
x,-y,z
loop_
_atom_site_type_symbol
_atom_site_label
_atom_site_fract_x
_atom_site_fract_y
_atom_site_fract_z
Si Si1 0.946512 0.369658 0.256963
Si Si2 0.094389 0.369948 0.185976
Si Si3 0.473128 0.759463 0.898489
Si Si4 0.689240 0.754234 0.212695
Si Si5 0.701149 0.636129 0.893231
Si Si6 0.434770 0.000000 0.873179
Si Si7 0.666337 0.000000 0.183603
O O1 0.917118 0.500000 0.284161
O O2 0.828543 0.316988 0.577847
O O3 0.047949 0.362382 0.135508
O O4 0.000000 0.305780 0.000000
O O5 0.118064 0.500000 0.181793
O O6 0.000000 0.314327 0.500000
O O7 0.209419 0.302618 0.933954
O O8 0.582606 0.742695 0.555182
O O9 0.427791 0.889350 0.989303
O O10 0.500000 0.730251 0.000000
O O11 0.377212 0.673744 0.059192
O O12 0.727183 0.885147 0.098842
O O13 0.658677 0.693168 0.134593
O O14 0.696332 0.500000 0.921787
O O15 0.543911 0.000000 0.529195
O O16 0.334472 0.000000 0.985608
#
# Coordination Sequence:
#
# PCOD8061983 Si02
#       7
#     4   4   4   4   4   2   2
#     4   9  19  35  56  79 108 149 189 224 263 322
#     4  10  19  34  57  83 108 143 189 226 265 327
#     4  11  24  37  56  85 113 147 184 232 287 329
#     4  11  21  37  59  82 113 146 185 235 276 328
#     4  11  22  37  57  83 115 150 186 223 277 338
#     4   9  17  38  60  76 105 144 197 231 263 329
#     4   9  18  34  59  84 102 143 194 231 268 324
#
# _framework density 18.204277999999999
#
# number of rings (size 3 to 8) (size 9 to 14) (size 15 to 20)
#    0.000    1.833    3.333    1.250    2.333    2.333 
#    0.000    0.417    0.000    0.000    0.000    2.917 
#    0.000    0.000    0.000    0.000    0.000    0.000 
#
# Total GULP energy -297529.900620 kJ/mol
# GULP energy per Si atom -12397.079192 kJ/mol
# Density = 1.816284 g / cm^3
# Si number density = 18.204278 Si / 1000 Ang^3
#
#
#
# Elastic Constant Matrix: (Units=GPa)
#
#
# Indices 1 2 3 4 5 6 
#
# 1 114.9062 39.9964 47.5862 0.0000 2.6977 0.0000
# 2 39.9964 91.0602 36.3171 0.0000 -6.4557 0.0000
# 3 47.5862 36.3171 84.0059 0.0000 2.9625 0.0000
# 4 0.0000 0.0000 0.0000 7.2411 0.0000 15.2930
# 5 2.6977 -6.4557 2.9625 0.0000 37.4379 0.0000
# 6 0.0000 0.0000 0.0000 15.2930 0.0000 -0.4449
#
#
#
# Elastic Compliance Matrix: (Units=1/GPa)
#
#
# Indices 1 2 3 4 5 6 
#
# 1 0.012093 -0.003219 -0.005423 0.000000 -0.000997 0.000000
# 2 -0.003219 0.014415 -0.004517 0.000000 0.003075 0.000000
# 3 -0.005423 -0.004517 0.016990 0.000000 -0.001733 0.000000
# 4 0.000000 0.000000 0.000000 0.001876 0.000000 0.064501
# 5 -0.000997 0.003075 -0.001733 0.000000 0.027450 0.000000
# 6 0.000000 0.000000 0.000000 0.064501 0.000000 -0.030540
#
#
# Mechanical properties :
#
#
# Convention : Reuss Voigt Hill
#
# Bulk Modulus (GPa) = 58.20998 59.75242 58.98120
# Shear Modulus (GPa) = 67.26927 19.91832 43.59380
#
# Velocity S-wave (km/s) = 6.08545 3.31139 4.89888
# Velocity P-wave (km/s) = 9.02343 6.89311 8.02924
#
# Compressibility (1/GPa) = 0.01717918
#
# Stress axis : x y z
#
# Youngs Moduli (GPa) = 82.69524 69.37140 58.85927
#
# Poissons Ratio (x) = 0.22333 0.31920
# Poissons Ratio (y) = 0.26622 0.26585
# Poissons Ratio (z) = 0.44846 0.31333
#
# Static dielectric constant tensor:
#      x y z
#    x 3.371510 0.000000 0.031140 
#    y 0.000000 3.370020 0.000000 
#    z 0.031140 0.000000 3.343910 
# 
# 
# High freq. dielectric constant tensor:
#      x y z
#    x 1.713950 0.000000 0.004510 
#    y 0.000000 1.685840 0.000000 
#    z 0.004510 0.000000 1.697420 
# 
# From -- ./inp_files/36106.got.cif
#   From: 2010.06.25/outbox.cif.g09.slc.cpg/sg10_19_cif.got.tgz:36106.got - 2010.06.27 22:07:45.
