data_PCOD8061518
_publ_section_title
;
Structure prediction by ZEFSAII (Michael W. Deem and Ramdas Pophale) SiO2 
 PCOD8061518
Probable space group: P 2/M
;
_chemical_formula_sum "Si O2"
_cell_formula_units_Z 28
_cell_length_a 12.646328
_cell_length_b 9.143026
_cell_length_c 13.756823
_cell_angle_alpha 90.000000
_cell_angle_beta 113.179989
_cell_angle_gamma 90.000000
_cell_volume 1462.234375
_symmetry_space_group_name_H-M "P 2/M"
_symmetry_group_IT_number 10
_symmetry_cell_setting 'monoclinic'
loop_
_space_group_symop_operation_xyz
x,y,z
-x,y,-z
-x,-y,-z
x,-y,z
loop_
_atom_site_type_symbol
_atom_site_label
_atom_site_fract_x
_atom_site_fract_y
_atom_site_fract_z
Si Si1 0.976318 0.825954 0.384301
Si Si2 0.838520 0.173069 0.701001
Si Si3 0.738754 0.831284 0.204713
Si Si4 0.122411 0.336436 0.093270
Si Si5 0.496883 0.831305 0.203354
Si Si6 0.580205 0.173983 0.613884
Si Si7 0.317288 0.327106 0.013913
O O1 0.853190 0.771873 0.299507
O O2 0.000000 0.761331 0.500000
O O3 0.078529 0.765410 0.353023
O O4 0.977491 0.000000 0.388234
O O5 0.884686 0.227361 0.820091
O O6 0.708770 0.229446 0.637499
O O7 0.842106 0.000000 0.703858
O O8 0.633899 0.814231 0.242404
O O9 0.753634 0.000000 0.178279
O O10 0.715223 0.735596 0.102005
O O11 0.153138 0.500000 0.140256
O O12 0.217467 0.280581 0.052093
O O13 0.000000 0.333911 0.000000
O O14 0.460634 0.767691 0.295578
O O15 0.436333 0.740702 0.095536
O O16 0.458968 0.000000 0.179100
O O17 0.500000 0.239712 0.500000
O O18 0.572291 0.000000 0.611078
O O19 0.331378 0.500000 0.009614
#
# Coordination Sequence:
#
# PCOD8061518 Si02
#       7
#     4   4   4   4   4   4   4
#     4   9  19  34  54  83 113 139 174 221 268 311
#     4  10  19  33  56  82 107 138 176 220 262 307
#     4  10  21  35  54  79 109 144 178 216 264 316
#     4  10  21  36  54  76 106 143 177 215 266 318
#     4  10  20  35  55  80 110 142 176 217 263 316
#     4   9  18  31  52  82 109 136 175 219 263 311
#     4  11  22  36  55  79 108 141 178 222 269 316
#
# _framework density 19.148776999999999
#
# number of rings (size 3 to 8) (size 9 to 14) (size 15 to 20)
#    0.000    2.143    1.429    1.714    2.000    3.143 
#    0.000    0.000    0.000    3.429    0.000    0.000 
#    0.000    0.000    0.000    0.000    0.000    0.000 
#
# Total GULP energy -347250.532184 kJ/mol
# GULP energy per Si atom -12401.804721 kJ/mol
# Density = 1.910519 g / cm^3
# Si number density = 19.148777 Si / 1000 Ang^3
#
#
#
# Elastic Constant Matrix: (Units=GPa)
#
#
# Indices 1 2 3 4 5 6 
#
# 1 154.6341 31.7465 75.3744 0.0000 0.0136 0.0000
# 2 31.7465 36.5865 36.4160 0.0000 -1.7101 0.0000
# 3 75.3744 36.4160 158.8020 0.0000 1.4854 0.0000
# 4 0.0000 0.0000 0.0000 4.2839 0.0000 2.6128
# 5 0.0136 -1.7101 1.4854 0.0000 29.4869 0.0000
# 6 0.0000 0.0000 0.0000 2.6128 0.0000 16.2350
#
#
#
# Elastic Compliance Matrix: (Units=1/GPa)
#
#
# Indices 1 2 3 4 5 6 
#
# 1 0.008973 -0.004604 -0.003202 0.000000 -0.000110 0.000000
# 2 -0.004604 0.037958 -0.006543 0.000000 0.002533 0.000000
# 3 -0.003202 -0.006543 0.009325 0.000000 -0.000848 0.000000
# 4 0.000000 0.000000 0.000000 0.258836 0.000000 -0.041656
# 5 -0.000110 0.002533 -0.000848 0.000000 0.034103 0.000000
# 6 0.000000 0.000000 0.000000 -0.041656 0.000000 0.068299
#
#
# Mechanical properties :
#
#
# Convention : Reuss Voigt Hill
#
# Bulk Modulus (GPa) = 36.28636 70.78849 53.53743
# Shear Modulus (GPa) = 10.97986 23.76688 17.37337
#
# Velocity S-wave (km/s) = 2.39717 3.52685 3.01538
# Velocity P-wave (km/s) = 5.16263 7.32344 6.33583
#
# Compressibility (1/GPa) = 0.02755856
#
# Stress axis : x y z
#
# Youngs Moduli (GPa) = 111.44655 26.34479 107.23404
#
# Poissons Ratio (x) = 0.12129 0.34338
# Poissons Ratio (y) = 0.51308 0.70163
# Poissons Ratio (z) = 0.35687 0.17237
#
# Static dielectric constant tensor:
#      x y z
#    x 3.815020 0.000000 0.033300 
#    y 0.000000 3.177630 0.000000 
#    z 0.033300 0.000000 3.563860 
# 
# 
# High freq. dielectric constant tensor:
#      x y z
#    x 1.764560 0.000000 0.002310 
#    y 0.000000 1.703360 0.000000 
#    z 0.002310 0.000000 1.749470 
# 
# From -- ./inp_files/50072.got.cif
#   From: 2010.06.25/outbox.cif.g09.slc.cpg/sg10_26_cif.got.tgz:50072.got - 2010.06.27 22:07:45.
