data_PCOD8061695
_publ_section_title
;
Structure prediction by ZEFSAII (Michael W. Deem and Ramdas Pophale) SiO2 
 PCOD8061695
Probable space group: P 2/M
;
_chemical_formula_sum "Si O2"
_cell_formula_units_Z 24
_cell_length_a 13.959388
_cell_length_b 13.429177
_cell_length_c 13.959414
_cell_angle_alpha 90.000000
_cell_angle_beta 31.267579
_cell_angle_gamma 90.000000
_cell_volume 1358.251059
_symmetry_space_group_name_H-M "P 2/M"
_symmetry_group_IT_number 10
_symmetry_cell_setting 'monoclinic'
loop_
_space_group_symop_operation_xyz
x,y,z
-x,y,-z
-x,-y,-z
x,-y,z
loop_
_atom_site_type_symbol
_atom_site_label
_atom_site_fract_x
_atom_site_fract_y
_atom_site_fract_z
Si Si1 0.557009 0.726989 0.057021
Si Si2 0.358396 0.884453 0.858393
Si Si3 0.092855 0.385531 0.186428
Si Si4 0.991049 0.769666 0.896625
Si Si5 0.603372 0.230338 0.508953
Si Si6 0.313558 0.614469 0.407154
O O1 0.589375 0.827073 0.089386
O O2 0.393063 0.661288 0.242242
O O3 0.500000 0.759893 0.000000
O O4 0.742227 0.661284 0.893084
O O5 0.500614 0.858565 0.651859
O O6 0.370972 0.000000 0.870956
O O7 0.151855 0.858569 0.000625
O O8 0.135544 0.500000 0.127091
O O9 0.076742 0.330265 0.098313
O O10 0.907113 0.372990 0.407099
O O11 0.188850 0.805774 0.688846
O O12 0.000000 0.742462 0.000000
O O13 0.500000 0.257547 0.500000
O O14 0.598318 0.330267 0.576740
O O15 0.372897 0.500000 0.364460
#
# Coordination Sequence:
#
# PCOD8061695 Si02
#       6
#     4   4   4   4   4   4
#     4  10  21  37  56  77 103 134 173 224 268 305
#     4  10  22  38  55  76 102 135 176 220 266 315
#     4   9  19  34  52  77 109 141 173 208 250 306
#     4  10  19  34  52  76 109 140 173 211 253 304
#     4  10  19  34  52  76 109 140 173 211 253 304
#     4   9  19  34  52  77 109 141 173 208 250 306
#
# _framework density 17.669782999999999
#
# number of rings (size 3 to 8) (size 9 to 14) (size 15 to 20)
#    0.000    2.333    1.667    0.500    0.000    4.333 
#    0.000    1.667    0.000    0.000    0.000    9.333 
#    0.000    0.000    0.000    0.000    0.000    0.000 
#
# Total GULP energy -297662.916031 kJ/mol
# GULP energy per Si atom -12402.621501 kJ/mol
# Density = 1.762957 g / cm^3
# Si number density = 17.669783 Si / 1000 Ang^3
#
#
#
# Elastic Constant Matrix: (Units=GPa)
#
#
# Indices 1 2 3 4 5 6 
#
# 1 121.7845 41.4551 54.1408 0.0000 8.4934 0.0000
# 2 41.4551 120.8524 50.0083 0.0000 -2.4653 0.0000
# 3 54.1408 50.0083 115.9789 0.0000 -6.8052 0.0000
# 4 0.0000 0.0000 0.0000 20.0259 0.0000 -2.3888
# 5 8.4934 -2.4653 -6.8052 0.0000 23.5369 0.0000
# 6 0.0000 0.0000 0.0000 -2.3888 0.0000 11.7498
#
#
#
# Elastic Compliance Matrix: (Units=1/GPa)
#
#
# Indices 1 2 3 4 5 6 
#
# 1 0.011441 -0.002060 -0.004789 0.000000 -0.005729 0.000000
# 2 -0.002060 0.010443 -0.003493 0.000000 0.000827 0.000000
# 3 -0.004789 -0.003493 0.012659 0.000000 0.005022 0.000000
# 4 0.000000 0.000000 0.000000 0.051176 0.000000 0.010404
# 5 -0.005729 0.000827 0.005022 0.000000 0.046092 0.000000
# 6 0.000000 0.000000 0.000000 0.010404 0.000000 0.087223
#
#
# Mechanical properties :
#
#
# Convention : Reuss Voigt Hill
#
# Bulk Modulus (GPa) = 72.15140 72.20269 72.17705
# Shear Modulus (GPa) = 20.46351 25.26330 22.86341
#
# Velocity S-wave (km/s) = 3.40679 3.78530 3.60102
# Velocity P-wave (km/s) = 7.50978 7.74956 7.63061
#
# Compressibility (1/GPa) = 0.01385975
#
# Stress axis : x y z
#
# Youngs Moduli (GPa) = 87.40653 95.75483 78.99826
#
# Poissons Ratio (x) = 0.19723 0.37830
# Poissons Ratio (y) = 0.18004 0.27594
# Poissons Ratio (z) = 0.41857 0.33447
#
# Static dielectric constant tensor:
#      x y z
#    x 3.139420 0.000000 -0.136450 
#    y 0.000000 3.076120 0.000000 
#    z -0.136450 0.000000 3.612130 
# 
# 
# High freq. dielectric constant tensor:
#      x y z
#    x 1.675920 0.000000 -0.007800 
#    y 0.000000 1.669180 0.000000 
#    z -0.007800 0.000000 1.702930 
# 
# From -- ./inp_files/51705.got.cif
#   From: 2010.06.25/outbox.cif.g09.slc.cpg/sg10_26_cif.got.tgz:51705.got - 2010.06.27 22:07:45.
