data_PCOD8061651
_publ_section_title
;
Structure prediction by ZEFSAII (Michael W. Deem and Ramdas Pophale) SiO2 
 PCOD8061651
Probable space group: P 2/M
;
_chemical_formula_sum "Si O2"
_cell_formula_units_Z 32
_cell_length_a 24.393563
_cell_length_b 8.580404
_cell_length_c 16.030401
_cell_angle_alpha 90.000000
_cell_angle_beta 153.303392
_cell_angle_gamma 90.000000
_cell_volume 1507.408710
_symmetry_space_group_name_H-M "P 2/M"
_symmetry_group_IT_number 10
_symmetry_cell_setting 'monoclinic'
loop_
_space_group_symop_operation_xyz
x,y,z
-x,y,-z
-x,-y,-z
x,-y,z
loop_
_atom_site_type_symbol
_atom_site_label
_atom_site_fract_x
_atom_site_fract_y
_atom_site_fract_z
Si Si1 0.833487 0.822399 0.973885
Si Si2 0.276896 0.320816 0.888781
Si Si3 0.520791 0.182647 0.277368
Si Si4 0.273854 0.680672 0.549375
Si Si5 0.407221 0.815477 0.442826
Si Si6 0.939812 0.178430 0.834221
Si Si7 0.187255 0.180372 0.602699
Si Si8 0.926004 0.678277 0.257676
O O1 0.729415 0.763748 0.768561
O O2 0.805099 0.000000 0.961727
O O3 0.833856 0.716150 0.056528
O O4 0.965126 0.808673 0.111315
O O5 0.316555 0.500000 0.951658
O O6 0.262068 0.279217 0.771859
O O7 0.146637 0.290376 0.755718
O O8 0.378088 0.213975 0.070002
O O9 0.593324 0.271982 0.303170
O O10 0.560860 0.250409 0.422199
O O11 0.548320 0.000000 0.307995
O O12 0.270937 0.500000 0.568926
O O13 0.177136 0.717462 0.344951
O O14 0.240356 0.780369 0.584639
O O15 0.500000 0.746487 0.500000
O O16 0.420439 0.000000 0.464384
O O17 0.896894 0.000000 0.789814
O O18 0.000000 0.244616 0.000000
O O19 0.043298 0.212358 0.412233
O O20 0.209274 0.000000 0.650958
O O21 0.969959 0.500000 0.311557
#
# Coordination Sequence:
#
# PCOD8061651 Si02
#       8
#     4   4   4   4   4   4   4   4
#     4  10  19  33  58  89 122 164 210 257 306 365
#     4  11  25  44  65  93 129 167 208 259 324 386
#     4  11  23  42  67  94 126 168 219 266 313 374
#     4  12  25  42  64  91 129 169 209 261 325 384
#     4   9  18  34  59  92 127 165 211 261 310 361
#     4  10  20  36  59  88 122 163 212 260 308 366
#     4  12  25  43  68  96 124 162 215 267 318 378
#     4  11  23  40  63  94 133 169 203 257 324 385
#
# _framework density 21.228482
#
# number of rings (size 3 to 8) (size 9 to 14) (size 15 to 20)
#    0.000    1.250    1.250    5.250    0.000    7.250 
#    0.000    5.000    0.000    3.375    0.000    0.000 
#    0.000    0.000    0.000    0.000    0.000    0.000 
#
# Total GULP energy -397008.402719 kJ/mol
# GULP energy per Si atom -12406.512585 kJ/mol
# Density = 2.118017 g / cm^3
# Si number density = 21.228482 Si / 1000 Ang^3
#
#
#
# Elastic Constant Matrix: (Units=GPa)
#
#
# Indices 1 2 3 4 5 6 
#
# 1 96.3454 28.6053 24.1365 0.0000 -5.0298 0.0000
# 2 28.6053 59.3912 12.3901 0.0000 2.3714 0.0000
# 3 24.1365 12.3901 91.9216 0.0000 -8.6703 0.0000
# 4 0.0000 0.0000 0.0000 23.5639 0.0000 3.6429
# 5 -5.0298 2.3714 -8.6703 0.0000 38.9396 0.0000
# 6 0.0000 0.0000 0.0000 3.6429 0.0000 27.4611
#
#
#
# Elastic Compliance Matrix: (Units=1/GPa)
#
#
# Indices 1 2 3 4 5 6 
#
# 1 0.012758 -0.005692 -0.002446 0.000000 0.001450 0.000000
# 2 -0.005692 0.019964 -0.001410 0.000000 -0.002265 0.000000
# 3 -0.002446 -0.001410 0.011940 0.000000 0.002429 0.000000
# 4 0.000000 0.000000 0.000000 0.043326 0.000000 -0.005747
# 5 0.001450 -0.002265 0.002429 0.000000 0.026547 0.000000
# 6 0.000000 0.000000 0.000000 -0.005747 0.000000 0.037178
#
#
# Mechanical properties :
#
#
# Convention : Reuss Voigt Hill
#
# Bulk Modulus (GPa) = 39.11513 41.99134 40.55324
# Shear Modulus (GPa) = 27.88150 30.16136 29.02143
#
# Velocity S-wave (km/s) = 3.62802 3.77343 3.70144
# Velocity P-wave (km/s) = 6.00132 6.22966 6.11655
#
# Compressibility (1/GPa) = 0.02556555
#
# Stress axis : x y z
#
# Youngs Moduli (GPa) = 78.38316 50.09079 83.75090
#
# Poissons Ratio (x) = 0.28513 0.20484
# Poissons Ratio (y) = 0.44618 0.11808
# Poissons Ratio (z) = 0.19172 0.07062
#
# Static dielectric constant tensor:
#      x y z
#    x 3.905120 0.000000 -0.097180 
#    y 0.000000 3.600020 0.000000 
#    z -0.097180 0.000000 3.845820 
# 
# 
# High freq. dielectric constant tensor:
#      x y z
#    x 1.841140 0.000000 -0.004770 
#    y 0.000000 1.813200 0.000000 
#    z -0.004770 0.000000 1.839140 
# 
# From -- ./inp_files/71700.got.cif
#   From: 2010.06.25/outbox.cif.g09.slc.cpg/sg10_36_cif.got.tgz:71700.got - 2010.06.27 22:07:45.
