data_PCOD8061666
_publ_section_title
;
Structure prediction by ZEFSAII (Michael W. Deem and Ramdas Pophale) SiO2 
 PCOD8061666
Probable space group: P 2/M
;
_chemical_formula_sum "Si O2"
_cell_formula_units_Z 28
_cell_length_a 13.954675
_cell_length_b 12.792033
_cell_length_c 9.834067
_cell_angle_alpha 90.000000
_cell_angle_beta 90.921441
_cell_angle_gamma 90.000000
_cell_volume 1755.239144
_symmetry_space_group_name_H-M "P 2/M"
_symmetry_group_IT_number 10
_symmetry_cell_setting 'monoclinic'
loop_
_space_group_symop_operation_xyz
x,y,z
-x,y,-z
-x,-y,-z
x,-y,z
loop_
_atom_site_type_symbol
_atom_site_label
_atom_site_fract_x
_atom_site_fract_y
_atom_site_fract_z
Si Si1 0.615004 0.214582 0.762861
Si Si2 0.295015 0.879180 0.978984
Si Si3 0.082276 0.123906 0.903791
Si Si4 0.509946 0.617231 0.338525
Si Si5 0.279806 0.119040 0.473385
Si Si6 0.084537 0.124664 0.598649
Si Si7 0.593353 0.178139 0.284533
O O1 0.587485 0.336334 0.733310
O O2 0.699630 0.181184 0.664029
O O3 0.518223 0.145024 0.737856
O O4 0.651259 0.197853 0.916520
O O5 0.184753 0.844148 0.967578
O O6 0.341999 0.865935 0.833529
O O7 0.304156 0.000000 0.025690
O O8 0.069865 0.169305 0.750825
O O9 0.073515 0.000000 0.896475
O O10 0.000000 0.170905 0.000000
O O11 0.500000 0.619241 0.500000
O O12 0.528452 0.500000 0.285233
O O13 0.597694 0.694109 0.296701
O O14 0.185193 0.166901 0.541975
O O15 0.369993 0.127286 0.575779
O O16 0.261156 0.000000 0.431245
O O17 0.000000 0.166626 0.500000
O O18 0.086144 0.000000 0.602915
#
# Coordination Sequence:
#
# PCOD8061666 Si02
#       7
#     4   4   4   4   4   4   4
#     4  10  21  32  45  75  94 132 169 197 231 296
#     4  11  21  32  46  68 107 140 161 197 237 281
#     4   9  18  31  45  62  89 131 171 199 236 277
#     4   9  18  36  54  69  94 125 161 213 254 276
#     4  11  19  30  46  68 102 132 167 202 231 279
#     4   9  18  30  45  64  89 127 170 209 235 263
#     4  10  19  34  47  71  94 133 168 198 232 293
#
# _framework density 15.952242999999999
#
# number of rings (size 3 to 8) (size 9 to 14) (size 15 to 20)
#    0.857    1.286    2.857    1.714    2.000    3.429 
#    0.000    1.429    0.000    0.000    0.000    0.000 
#    0.000    6.857    0.000    0.000    0.000    0.000 
#
# Total GULP energy -347022.710490 kJ/mol
# GULP energy per Si atom -12393.668232 kJ/mol
# Density = 1.591593 g / cm^3
# Si number density = 15.952243 Si / 1000 Ang^3
#
#
#
# Elastic Constant Matrix: (Units=GPa)
#
#
# Indices 1 2 3 4 5 6 
#
# 1 80.9805 9.4189 12.3751 0.0000 -5.0407 0.0000
# 2 9.4189 48.4052 10.1413 0.0000 3.8534 0.0000
# 3 12.3751 10.1413 46.4973 0.0000 -1.2913 0.0000
# 4 0.0000 0.0000 0.0000 12.8189 0.0000 1.3196
# 5 -5.0407 3.8534 -1.2913 0.0000 33.8120 0.0000
# 6 0.0000 0.0000 0.0000 1.3196 0.0000 1.9807
#
#
#
# Elastic Compliance Matrix: (Units=1/GPa)
#
#
# Indices 1 2 3 4 5 6 
#
# 1 0.013181 -0.002105 -0.002991 0.000000 0.002091 0.000000
# 2 -0.002105 0.022224 -0.004371 0.000000 -0.003013 0.000000
# 3 -0.002991 -0.004371 0.023282 0.000000 0.000941 0.000000
# 4 0.000000 0.000000 0.000000 0.083755 0.000000 -0.055803
# 5 0.002091 -0.003013 0.000941 0.000000 0.030266 0.000000
# 6 0.000000 0.000000 0.000000 -0.055803 0.000000 0.542063
#
#
# Mechanical properties :
#
#
# Convention : Reuss Voigt Hill
#
# Bulk Modulus (GPa) = 25.15451 26.63931 25.89691
# Shear Modulus (GPa) = 6.69385 19.31882 13.00633
#
# Velocity S-wave (km/s) = 2.05068 3.48378 2.85849
# Velocity P-wave (km/s) = 4.62709 5.73742 5.21190
#
# Compressibility (1/GPa) = 0.03975430
#
# Stress axis : x y z
#
# Youngs Moduli (GPa) = 75.86891 44.99629 42.95149
#
# Poissons Ratio (x) = 0.09470 0.12846
# Poissons Ratio (y) = 0.15967 0.18773
# Poissons Ratio (z) = 0.22692 0.19667
#
# Static dielectric constant tensor:
#      x y z
#    x 3.083090 0.000000 -0.047410 
#    y 0.000000 2.662150 0.000000 
#    z -0.047410 0.000000 3.100840 
# 
# 
# High freq. dielectric constant tensor:
#      x y z
#    x 1.610900 0.000000 -0.000430 
#    y 0.000000 1.550540 0.000000 
#    z -0.000430 0.000000 1.626250 
# 
# From -- ./inp_files/28817.got.cif
#   From: 2010.06.25/outbox.cif.g09.slc.cpg/sg10_15_cif.got.tgz:28817.got - 2010.06.27 22:07:45.
