data_PCOD8061330
_publ_section_title
;
Structure prediction by ZEFSAII (Michael W. Deem and Ramdas Pophale) SiO2 
 PCOD8061330
Probable space group: P 2/M
;
_chemical_formula_sum "Si O2"
_cell_formula_units_Z 28
_cell_length_a 16.099966
_cell_length_b 8.732393
_cell_length_c 20.375420
_cell_angle_alpha 90.000000
_cell_angle_beta 151.779502
_cell_angle_gamma 90.000000
_cell_volume 1354.574561
_symmetry_space_group_name_H-M "P 2/M"
_symmetry_group_IT_number 10
_symmetry_cell_setting 'monoclinic'
loop_
_space_group_symop_operation_xyz
x,y,z
-x,y,-z
-x,-y,-z
x,-y,z
loop_
_atom_site_type_symbol
_atom_site_label
_atom_site_fract_x
_atom_site_fract_y
_atom_site_fract_z
Si Si1 0.080871 0.679647 0.487750
Si Si2 0.322419 0.676044 0.449157
Si Si3 0.784922 0.179121 0.030222
Si Si4 0.916079 0.676802 0.841477
Si Si5 0.638290 0.179183 0.729065
Si Si6 0.021488 0.179120 0.315980
Si Si7 0.484381 0.320924 0.752550
O O1 0.052739 0.500000 0.457449
O O2 0.973187 0.769769 0.356063
O O3 0.285219 0.726306 0.629092
O O4 0.000000 0.734502 0.500000
O O5 0.374367 0.500000 0.496214
O O6 0.228450 0.703706 0.315230
O O7 0.500653 0.773637 0.576272
O O8 0.196369 0.726716 0.420648
O O9 0.911558 0.228160 0.058150
O O10 0.866440 0.223356 0.157588
O O11 0.749126 0.000000 0.999423
O O12 0.602041 0.270776 0.896992
O O13 0.968710 0.500000 0.886087
O O14 0.826686 0.739187 0.846086
O O15 0.560082 0.229619 0.743695
O O16 0.670716 0.000000 0.750561
O O17 0.063202 0.000000 0.340437
O O18 0.501832 0.500000 0.751148
#
# Coordination Sequence:
#
# PCOD8061330 Si02
#       7
#     4   4   4   4   4   4   4
#     4  10  22  41  66  94 121 150 191 244 297 354
#     4  10  19  33  54  81 115 155 199 247 292 345
#     4  10  22  40  60  86 122 159 200 244 293 351
#     4  10  21  36  55  81 115 158 206 248 290 342
#     4  12  23  34  53  82 119 157 199 249 299 346
#     4  10  20  36  61  90 119 156 195 239 296 355
#     4  11  23  40  62  87 117 156 199 243 297 355
#
# _framework density 20.670694999999998
#
# number of rings (size 3 to 8) (size 9 to 14) (size 15 to 20)
#    0.000    1.571    1.429    3.857    0.000    6.571 
#    0.000    3.571    0.000    4.286    0.000    0.000 
#    0.000    0.000    0.000    0.000    0.000    0.000 
#
# Total GULP energy -347294.266290 kJ/mol
# GULP energy per Si atom -12403.366653 kJ/mol
# Density = 2.062365 g / cm^3
# Si number density = 20.670695 Si / 1000 Ang^3
#
#
#
# Elastic Constant Matrix: (Units=GPa)
#
#
# Indices 1 2 3 4 5 6 
#
# 1 108.2567 17.2686 24.8724 0.0000 7.9209 0.0000
# 2 17.2686 65.1276 18.3104 0.0000 6.2823 0.0000
# 3 24.8724 18.3104 77.7622 0.0000 7.0428 0.0000
# 4 0.0000 0.0000 0.0000 28.7610 0.0000 -6.9248
# 5 7.9209 6.2823 7.0428 0.0000 11.0895 0.0000
# 6 0.0000 0.0000 0.0000 -6.9248 0.0000 25.3292
#
#
#
# Elastic Compliance Matrix: (Units=1/GPa)
#
#
# Indices 1 2 3 4 5 6 
#
# 1 0.010430 -0.001580 -0.002515 0.000000 -0.004957 0.000000
# 2 -0.001580 0.017255 -0.002944 0.000000 -0.006777 0.000000
# 3 -0.002515 -0.002944 0.014901 0.000000 -0.005999 0.000000
# 4 0.000000 0.000000 0.000000 0.037219 0.000000 0.010175
# 5 -0.004957 -0.006777 -0.005999 0.000000 0.101365 0.000000
# 6 0.000000 0.000000 0.000000 0.010175 0.000000 0.042262
#
#
# Mechanical properties :
#
#
# Convention : Reuss Voigt Hill
#
# Bulk Modulus (GPa) = 35.07853 41.33882 38.20868
# Shear Modulus (GPa) = 20.24192 25.74895 22.99544
#
# Velocity S-wave (km/s) = 3.13270 3.53324 3.33898
# Velocity P-wave (km/s) = 5.48563 6.05700 5.77838
#
# Compressibility (1/GPa) = 0.02850747
#
# Stress axis : x y z
#
# Youngs Moduli (GPa) = 95.87799 57.95496 67.11130
#
# Poissons Ratio (x) = 0.09158 0.16878
# Poissons Ratio (y) = 0.15151 0.19756
# Poissons Ratio (z) = 0.24113 0.17060
#
# Static dielectric constant tensor:
#      x y z
#    x 3.650820 0.000000 -0.096250 
#    y 0.000000 3.686230 0.000000 
#    z -0.096250 0.000000 3.999220 
# 
# 
# High freq. dielectric constant tensor:
#      x y z
#    x 1.791410 0.000000 -0.013510 
#    y 0.000000 1.812300 0.000000 
#    z -0.013510 0.000000 1.814700 
# 
# From -- ./inp_files/84971.got.cif
#   From: 2010.06.25/outbox.cif.g09.slc.cpg/sg10_43_cif.got.tgz:84971.got - 2010.06.27 22:07:45.
