data_PCOD8061926
_publ_section_title
;
Structure prediction by ZEFSAII (Michael W. Deem and Ramdas Pophale) SiO2 
 PCOD8061926
Probable space group: P 2/M
;
_chemical_formula_sum "Si O2"
_cell_formula_units_Z 30
_cell_length_a 10.745814
_cell_length_b 14.154226
_cell_length_c 16.688980
_cell_angle_alpha 90.000000
_cell_angle_beta 32.775001
_cell_angle_gamma 90.000000
_cell_volume 1374.125776
_symmetry_space_group_name_H-M "P 2/M"
_symmetry_group_IT_number 10
_symmetry_cell_setting 'monoclinic'
loop_
_space_group_symop_operation_xyz
x,y,z
-x,y,-z
-x,-y,-z
x,-y,z
loop_
_atom_site_type_symbol
_atom_site_label
_atom_site_fract_x
_atom_site_fract_y
_atom_site_fract_z
Si Si1 0.619485 0.720645 0.271247
Si Si2 0.954543 0.609729 0.901147
Si Si3 0.000435 0.891409 0.224235
Si Si4 0.500000 0.817206 0.500000
Si Si5 0.787280 0.394943 0.564241
Si Si6 0.088082 0.397799 0.256545
Si Si7 0.683599 0.788945 0.834499
Si Si8 0.299589 0.210308 0.929413
O O1 0.818298 0.643508 0.175481
O O2 0.511598 0.754972 0.412993
O O3 0.428185 0.673772 0.317270
O O4 0.711936 0.805978 0.161533
O O5 0.903948 0.500000 0.949023
O O6 0.003906 0.627976 0.781046
O O7 0.739113 0.676207 0.039608
O O8 0.091936 0.847530 0.259327
O O9 0.726147 0.882022 0.376920
O O10 0.072571 0.000000 0.180948
O O11 0.099531 0.841432 0.089650
O O12 0.727768 0.500000 0.630153
O O13 0.000000 0.351409 0.500000
O O14 0.859507 0.401744 0.432730
O O15 0.214425 0.500000 0.188570
O O16 0.267431 0.322533 0.194188
O O17 0.557336 0.818427 0.820152
O O18 0.500000 0.814404 0.000000
#
# Coordination Sequence:
#
# PCOD8061926 Si02
#       8
#     4   4   4   2   4   4   4   4
#     4  12  23  39  65  89 131 171 219 265 313 377
#     4  11  22  37  59  91 133 176 215 258 310 367
#     4  11  24  46  72  98 128 162 209 265 332 401
#     4  12  25  44  71  94 126 170 211 268 329 386
#     4  10  21  35  53  84 127 177 225 265 313 370
#     4  10  19  34  56  86 127 170 217 264 310 376
#     4  10  19  37  63  93 128 167 212 256 325 382
#     4  11  24  41  64  97 130 168 215 265 316 379
#
# _framework density 21.832063000000002
#
# number of rings (size 3 to 8) (size 9 to 14) (size 15 to 20)
#    0.000    1.200    4.000    3.400    0.000    4.800 
#    0.000    4.667    0.000    0.800    0.000    0.000 
#    0.000    0.000    0.000    0.000    0.000    0.000 
#
# Total GULP energy -371716.341743 kJ/mol
# GULP energy per Si atom -12390.544725 kJ/mol
# Density = 2.178237 g / cm^3
# Si number density = 21.832063 Si / 1000 Ang^3
#
#
#
# Elastic Constant Matrix: (Units=GPa)
#
#
# Indices 1 2 3 4 5 6 
#
# 1 80.6238 32.1969 63.5115 0.0000 -3.4486 0.0000
# 2 32.1969 92.4629 27.6357 0.0000 -0.9810 0.0000
# 3 63.5115 27.6357 82.0627 0.0000 4.3193 0.0000
# 4 0.0000 0.0000 0.0000 20.1132 0.0000 -3.3606
# 5 -3.4486 -0.9810 4.3193 0.0000 42.3114 0.0000
# 6 0.0000 0.0000 0.0000 -3.3606 0.0000 11.3168
#
#
#
# Elastic Compliance Matrix: (Units=1/GPa)
#
#
# Indices 1 2 3 4 5 6 
#
# 1 0.034403 -0.004316 -0.025451 0.000000 0.005302 0.000000
# 2 -0.004316 0.012588 -0.000900 0.000000 0.000032 0.000000
# 3 -0.025451 -0.000900 0.032471 0.000000 -0.005410 0.000000
# 4 0.000000 0.000000 0.000000 0.052314 0.000000 0.015535
# 5 0.005302 0.000032 -0.005410 0.000000 0.024619 0.000000
# 6 0.000000 0.000000 0.000000 0.015535 0.000000 0.092978
#
#
# Mechanical properties :
#
#
# Convention : Reuss Voigt Hill
#
# Bulk Modulus (GPa) = 55.16800 55.75972 55.46386
# Shear Modulus (GPa) = 15.78524 23.53530 19.66027
#
# Velocity S-wave (km/s) = 2.69184 3.28688 3.00413
# Velocity P-wave (km/s) = 5.91485 6.32459 6.12315
#
# Compressibility (1/GPa) = 0.01812645
#
# Stress axis : x y z
#
# Youngs Moduli (GPa) = 29.06708 79.44361 30.79629
#
# Poissons Ratio (x) = 0.34291 0.78381
# Poissons Ratio (y) = 0.12547 0.02772
# Poissons Ratio (z) = 0.73980 0.07151
#
# Static dielectric constant tensor:
#      x y z
#    x 4.443790 0.000000 0.038260 
#    y 0.000000 3.664010 0.000000 
#    z 0.038260 0.000000 3.946730 
# 
# 
# High freq. dielectric constant tensor:
#      x y z
#    x 1.875210 0.000000 0.002680 
#    y 0.000000 1.819710 0.000000 
#    z 0.002680 0.000000 1.855570 
# 
# From -- ./inp_files/76913.got.cif
#   From: 2010.06.25/outbox.cif.g09.slc.cpg/sg10_39_cif.got.tgz:76913.got - 2010.06.27 22:07:45.
