data_PCOD8061269
_publ_section_title
;
Structure prediction by ZEFSAII (Michael W. Deem and Ramdas Pophale) SiO2 
 PCOD8061269
Probable space group: P 2/M
;
_chemical_formula_sum "Si O2"
_cell_formula_units_Z 28
_cell_length_a 19.366967
_cell_length_b 8.908847
_cell_length_c 15.406620
_cell_angle_alpha 90.000000
_cell_angle_beta 143.557853
_cell_angle_gamma 90.000000
_cell_volume 1579.009823
_symmetry_space_group_name_H-M "P 2/M"
_symmetry_group_IT_number 10
_symmetry_cell_setting 'monoclinic'
loop_
_space_group_symop_operation_xyz
x,y,z
-x,y,-z
-x,-y,-z
x,-y,z
loop_
_atom_site_type_symbol
_atom_site_label
_atom_site_fract_x
_atom_site_fract_y
_atom_site_fract_z
Si Si1 0.621122 0.677090 0.301028
Si Si2 0.647781 0.323402 0.978787
Si Si3 0.362187 0.168594 0.856393
Si Si4 0.012315 0.325340 0.911977
Si Si5 0.238319 0.822960 0.067503
Si Si6 0.635366 0.671918 0.652514
Si Si7 0.243118 0.675862 0.395301
O O1 0.636561 0.500000 0.305451
O O2 0.485952 0.719254 0.177140
O O3 0.676579 0.754144 0.272415
O O4 0.692923 0.742687 0.455509
O O5 0.666844 0.500000 0.995354
O O6 0.732360 0.247092 0.995550
O O7 0.686667 0.263413 0.112306
O O8 0.312039 0.000000 0.809506
O O9 0.500000 0.167960 0.000000
O O10 0.045677 0.500000 0.938414
O O11 0.893550 0.288584 0.740709
O O12 0.110501 0.226778 0.966795
O O13 0.000000 0.279577 0.000000
O O14 0.333963 0.768481 0.232734
O O15 0.243055 0.000000 0.064490
O O16 0.500000 0.682539 0.500000
O O17 0.674725 0.500000 0.709045
O O18 0.701686 0.742825 0.636867
O O19 0.268684 0.500000 0.419191
#
# Coordination Sequence:
#
# PCOD8061269 Si02
#       7
#     4   4   4   4   4   4   4
#     4   9  17  31  53  81 107 134 172 214 258 310
#     4  10  19  33  54  78 105 139 179 216 255 309
#     4   9  17  30  49  76 110 142 169 204 257 315
#     4  10  19  36  58  74  96 135 186 227 259 303
#     4  12  24  35  50  75 109 140 173 218 269 319
#     4  10  19  34  55  77 103 137 176 215 258 309
#     4   9  17  31  53  78 101 131 174 222 258 297
#
# _framework density 17.732631000000001
#
# number of rings (size 3 to 8) (size 9 to 14) (size 15 to 20)
#    0.000    2.143    1.429    3.000    0.000    5.143 
#    0.000    1.429    0.000    0.857    0.000    6.000 
#    0.000    0.000    0.000    0.000    0.000    0.000 
#
# Total GULP energy -347240.591478 kJ/mol
# GULP energy per Si atom -12401.449696 kJ/mol
# Density = 1.769227 g / cm^3
# Si number density = 17.732631 Si / 1000 Ang^3
#
#
#
# Elastic Constant Matrix: (Units=GPa)
#
#
# Indices 1 2 3 4 5 6 
#
# 1 130.2453 58.1176 42.2176 0.0000 -17.6447 0.0000
# 2 58.1176 85.6948 23.7808 0.0000 -5.4372 0.0000
# 3 42.2176 23.7808 52.6737 0.0000 -5.7842 0.0000
# 4 0.0000 0.0000 0.0000 12.9682 0.0000 0.7886
# 5 -17.6447 -5.4372 -5.7842 0.0000 26.8196 0.0000
# 6 0.0000 0.0000 0.0000 0.7886 0.0000 19.9221
#
#
#
# Elastic Compliance Matrix: (Units=1/GPa)
#
#
# Indices 1 2 3 4 5 6 
#
# 1 0.014094 -0.007109 -0.007402 0.000000 0.006235 0.000000
# 2 -0.007109 0.016981 -0.002155 0.000000 -0.001699 0.000000
# 3 -0.007402 -0.002155 0.025922 0.000000 0.000284 0.000000
# 4 0.000000 0.000000 0.000000 0.077298 0.000000 -0.003060
# 5 0.006235 -0.001699 0.000284 0.000000 0.041105 0.000000
# 6 0.000000 0.000000 0.000000 -0.003060 0.000000 0.050317
#
#
# Mechanical properties :
#
#
# Convention : Reuss Voigt Hill
#
# Bulk Modulus (GPa) = 42.25817 57.42730 49.84274
# Shear Modulus (GPa) = 18.73113 21.57517 20.15315
#
# Velocity S-wave (km/s) = 3.25362 3.49190 3.37486
# Velocity P-wave (km/s) = 6.16418 6.97948 6.58446
#
# Compressibility (1/GPa) = 0.02366406
#
# Stress axis : x y z
#
# Youngs Moduli (GPa) = 70.95369 58.89060 38.57768
#
# Poissons Ratio (x) = 0.41863 0.28555
# Poissons Ratio (y) = 0.50438 0.08315
# Poissons Ratio (z) = 0.52520 0.12693
#
# Static dielectric constant tensor:
#      x y z
#    x 3.344420 0.000000 -0.191550 
#    y 0.000000 3.172970 0.000000 
#    z -0.191550 0.000000 3.261660 
# 
# 
# High freq. dielectric constant tensor:
#      x y z
#    x 1.687100 0.000000 -0.014530 
#    y 0.000000 1.670460 0.000000 
#    z -0.014530 0.000000 1.672370 
# 
# From -- ./inp_files/57493.got.cif
#   From: 2010.06.25/outbox.cif.g09.slc.cpg/sg10_29_cif.got.tgz:57493.got - 2010.06.27 22:07:45.
