data_PCOD8061001
_publ_section_title
;
Structure prediction by ZEFSAII (Michael W. Deem and Ramdas Pophale) SiO2 
 PCOD8061001
Probable space group: P 2/M
;
_chemical_formula_sum "Si O2"
_cell_formula_units_Z 28
_cell_length_a 20.599498
_cell_length_b 8.978919
_cell_length_c 14.513656
_cell_angle_alpha 90.000000
_cell_angle_beta 32.005738
_cell_angle_gamma 90.000000
_cell_volume 1422.776947
_symmetry_space_group_name_H-M "P 2/M"
_symmetry_group_IT_number 10
_symmetry_cell_setting 'monoclinic'
loop_
_space_group_symop_operation_xyz
x,y,z
-x,y,-z
-x,-y,-z
x,-y,z
loop_
_atom_site_type_symbol
_atom_site_label
_atom_site_fract_x
_atom_site_fract_y
_atom_site_fract_z
Si Si1 0.636716 0.323699 0.334886
Si Si2 0.817632 0.324133 0.958103
Si Si3 0.933913 0.174100 0.291813
Si Si4 0.706895 0.173054 0.921330
Si Si5 0.451501 0.670095 0.218248
Si Si6 0.733879 0.828891 0.680199
Si Si7 0.249051 0.671164 0.615124
O O1 0.500000 0.254017 0.500000
O O2 0.626691 0.500000 0.356410
O O3 0.714313 0.265475 0.328851
O O4 0.704383 0.277022 0.159612
O O5 0.828043 0.500000 0.936312
O O6 0.797863 0.255194 0.881464
O O7 0.940639 0.262974 0.854932
O O8 0.855560 0.213092 0.477333
O O9 0.861465 0.227796 0.288641
O O10 0.961353 0.000000 0.250879
O O11 0.760319 0.202361 0.755216
O O12 0.705662 0.000000 0.947431
O O13 0.570580 0.233863 0.094503
O O14 0.489862 0.500000 0.154626
O O15 0.380761 0.729259 0.213361
O O16 0.367414 0.686885 0.408633
O O17 0.697044 0.000000 0.706741
O O18 0.204478 0.500000 0.672336
#
# Coordination Sequence:
#
# PCOD8061001 Si02
#       7
#     4   4   4   4   4   4   4
#     4   9  18  35  59  84 110 141 176 215 264 323
#     4  11  23  38  57  81 108 139 181 229 271 315
#     4  10  21  39  58  78 108 143 182 224 269 321
#     4  11  22  36  54  77 109 148 185 221 269 325
#     4  10  19  32  55  86 114 139 176 227 274 316
#     4   9  20  37  56  77 106 148 187 218 262 326
#     4   9  18  35  59  83 109 144 183 221 264 317
#
# _framework density 19.679824
#
# number of rings (size 3 to 8) (size 9 to 14) (size 15 to 20)
#    0.000    2.143    0.000    3.000    0.000    7.429 
#    0.000    7.143    0.000    3.000    0.000    0.000 
#    0.000    0.000    0.000    0.000    0.000    0.000 
#
# Total GULP energy -347314.022235 kJ/mol
# GULP energy per Si atom -12404.072223 kJ/mol
# Density = 1.963503 g / cm^3
# Si number density = 19.679824 Si / 1000 Ang^3
#
#
#
# Elastic Constant Matrix: (Units=GPa)
#
#
# Indices 1 2 3 4 5 6 
#
# 1 135.5359 47.6641 43.6732 0.0000 0.6783 0.0000
# 2 47.6641 83.5243 37.6850 0.0000 -2.0550 0.0000
# 3 43.6732 37.6850 59.4265 0.0000 -15.3875 0.0000
# 4 0.0000 0.0000 0.0000 26.9918 0.0000 -3.5637
# 5 0.6783 -2.0550 -15.3875 0.0000 28.3782 0.0000
# 6 0.0000 0.0000 0.0000 -3.5637 0.0000 29.3238
#
#
#
# Elastic Compliance Matrix: (Units=1/GPa)
#
#
# Indices 1 2 3 4 5 6 
#
# 1 0.010756 -0.003044 -0.007094 0.000000 -0.004324 0.000000
# 2 -0.003044 0.018346 -0.010510 0.000000 -0.004297 0.000000
# 3 -0.007094 -0.010510 0.033216 0.000000 0.017420 0.000000
# 4 0.000000 0.000000 0.000000 0.037652 0.000000 0.004576
# 5 -0.004324 -0.004297 0.017420 0.000000 0.044476 0.000000
# 6 0.000000 0.000000 0.000000 0.004576 0.000000 0.034658
#
#
# Mechanical properties :
#
#
# Convention : Reuss Voigt Hill
#
# Bulk Modulus (GPa) = 47.56775 59.61461 53.59118
# Shear Modulus (GPa) = 21.98696 26.90303 24.44500
#
# Velocity S-wave (km/s) = 3.34613 3.70136 3.52822
# Velocity P-wave (km/s) = 6.25716 6.97314 6.62483
#
# Compressibility (1/GPa) = 0.02102265
#
# Stress axis : x y z
#
# Youngs Moduli (GPa) = 92.97033 54.50927 30.10558
#
# Poissons Ratio (x) = 0.16590 0.21358
# Poissons Ratio (y) = 0.28296 0.31640
# Poissons Ratio (z) = 0.65957 0.57288
#
# Static dielectric constant tensor:
#      x y z
#    x 3.680230 0.000000 0.068780 
#    y 0.000000 3.539890 0.000000 
#    z 0.068780 0.000000 3.547960 
# 
# 
# High freq. dielectric constant tensor:
#      x y z
#    x 1.775770 0.000000 0.002440 
#    y 0.000000 1.757580 0.000000 
#    z 0.002440 0.000000 1.764140 
# 
# From -- ./inp_files/49388.got.cif
#   From: 2010.06.25/outbox.cif.g09.slc.cpg/sg10_25_cif.got.tgz:49388.got - 2010.06.27 22:07:45.
