data_PCOD8061165
_publ_section_title
;
Structure prediction by ZEFSAII (Michael W. Deem and Ramdas Pophale) SiO2 
 PCOD8061165
Probable space group: P 2/M
;
_chemical_formula_sum "Si O2"
_cell_formula_units_Z 28
_cell_length_a 27.012949
_cell_length_b 8.946339
_cell_length_c 9.575926
_cell_angle_alpha 90.000000
_cell_angle_beta 141.252313
_cell_angle_gamma 90.000000
_cell_volume 1448.430039
_symmetry_space_group_name_H-M "P 2/M"
_symmetry_group_IT_number 10
_symmetry_cell_setting 'monoclinic'
loop_
_space_group_symop_operation_xyz
x,y,z
-x,y,-z
-x,-y,-z
x,-y,z
loop_
_atom_site_type_symbol
_atom_site_label
_atom_site_fract_x
_atom_site_fract_y
_atom_site_fract_z
Si Si1 0.180453 0.828617 0.208834
Si Si2 0.024444 0.330423 0.902382
Si Si3 0.239234 0.176962 0.906915
Si Si4 0.716665 0.827637 0.303606
Si Si5 0.306479 0.325175 0.306695
Si Si6 0.589175 0.323499 0.209366
Si Si7 0.925032 0.670316 0.423778
O O1 0.208420 0.804505 0.429917
O O2 0.226478 0.717276 0.209563
O O3 0.193384 0.000000 0.189975
O O4 0.089821 0.784095 0.991539
O O5 0.058017 0.500000 0.979767
O O6 0.947637 0.320159 0.636099
O O7 0.000000 0.274704 0.000000
O O8 0.259641 0.236428 0.796414
O O9 0.153891 0.234041 0.772702
O O10 0.237856 0.000000 0.907972
O O11 0.307639 0.238106 0.161472
O O12 0.640315 0.744186 0.196303
O O13 0.693072 0.000000 0.239420
O O14 0.308838 0.500000 0.280162
O O15 0.378879 0.275456 0.566855
O O16 0.594002 0.500000 0.202870
O O17 0.500000 0.263615 0.000000
O O18 0.906983 0.500000 0.337596
O O19 0.000000 0.732020 0.500000
#
# Coordination Sequence:
#
# PCOD8061165 Si02
#       7
#     4   4   4   4   4   4   4
#     4  10  19  33  53  75 101 135 178 223 264 312
#     4  10  20  32  47  70 100 134 174 220 268 316
#     4  11  22  36  54  78 109 142 181 223 261 313
#     4   9  20  36  54  80 111 143 177 215 263 316
#     4  10  20  35  56  79 105 137 171 211 261 314
#     4   9  19  37  61  87 110 135 173 216 257 310
#     4  10  21  35  50  70 100 139 181 224 269 315
#
# _framework density 19.331275000000002
#
# number of rings (size 3 to 8) (size 9 to 14) (size 15 to 20)
#    0.000    2.143    0.000    3.000    0.000    4.857 
#    0.000    0.714    0.000    4.286    0.000    0.000 
#    0.000    0.000    0.000    0.000    0.000    0.000 
#
# Total GULP energy -347205.446692 kJ/mol
# GULP energy per Si atom -12400.194525 kJ/mol
# Density = 1.928728 g / cm^3
# Si number density = 19.331275 Si / 1000 Ang^3
#
#
#
# Elastic Constant Matrix: (Units=GPa)
#
#
# Indices 1 2 3 4 5 6 
#
# 1 67.9587 24.3127 40.5242 0.0000 -5.5102 0.0000
# 2 24.3127 50.4621 31.0707 0.0000 2.5720 0.0000
# 3 40.5242 31.0707 100.7232 0.0000 -2.1999 0.0000
# 4 0.0000 0.0000 0.0000 25.3115 0.0000 -3.4990
# 5 -5.5102 2.5720 -2.1999 0.0000 38.1225 0.0000
# 6 0.0000 0.0000 0.0000 -3.4990 0.0000 27.1893
#
#
#
# Elastic Compliance Matrix: (Units=1/GPa)
#
#
# Indices 1 2 3 4 5 6 
#
# 1 0.021087 -0.006340 -0.006460 0.000000 0.003103 0.000000
# 2 -0.006340 0.026537 -0.005701 0.000000 -0.003036 0.000000
# 3 -0.006460 -0.005701 0.014292 0.000000 0.000276 0.000000
# 4 0.000000 0.000000 0.000000 0.040223 0.000000 0.005176
# 5 0.003103 -0.003036 0.000276 0.000000 0.026900 0.000000
# 6 0.000000 0.000000 0.000000 0.005176 0.000000 0.037445
#
#
# Mechanical properties :
#
#
# Convention : Reuss Voigt Hill
#
# Bulk Modulus (GPa) = 40.14116 45.66212 42.90164
# Shear Modulus (GPa) = 23.60795 26.34041 24.97418
#
# Velocity S-wave (km/s) = 3.49840 3.69532 3.59821
# Velocity P-wave (km/s) = 6.09331 6.47142 6.28521
#
# Compressibility (1/GPa) = 0.02491208
#
# Stress axis : x y z
#
# Youngs Moduli (GPa) = 47.42251 37.68360 69.96804
#
# Poissons Ratio (x) = 0.23892 0.45203
# Poissons Ratio (y) = 0.30066 0.39892
# Poissons Ratio (z) = 0.30637 0.21485
#
# Static dielectric constant tensor:
#      x y z
#    x 3.475220 0.000000 -0.257780 
#    y 0.000000 3.423760 0.000000 
#    z -0.257780 0.000000 3.785310 
# 
# 
# High freq. dielectric constant tensor:
#      x y z
#    x 1.737490 0.000000 -0.019600 
#    y 0.000000 1.747020 0.000000 
#    z -0.019600 0.000000 1.757460 
# 
# From -- ./inp_files/36977.got.cif
#   From: 2010.06.25/outbox.cif.g09.slc.cpg/sg10_19_cif.got.tgz:36977.got - 2010.06.27 22:07:45.
