data_PCOD8061377
_publ_section_title
;
Structure prediction by ZEFSAII (Michael W. Deem and Ramdas Pophale) SiO2 
 PCOD8061377
Probable space group: P 2/M
;
_chemical_formula_sum "Si O2"
_cell_formula_units_Z 24
_cell_length_a 8.983445
_cell_length_b 8.549117
_cell_length_c 31.029719
_cell_angle_alpha 90.000000
_cell_angle_beta 149.817232
_cell_angle_gamma 90.000000
_cell_volume 1198.126640
_symmetry_space_group_name_H-M "P 2/M"
_symmetry_group_IT_number 10
_symmetry_cell_setting 'monoclinic'
loop_
_space_group_symop_operation_xyz
x,y,z
-x,y,-z
-x,-y,-z
x,-y,z
loop_
_atom_site_type_symbol
_atom_site_label
_atom_site_fract_x
_atom_site_fract_y
_atom_site_fract_z
Si Si1 0.337573 0.817924 0.085275
Si Si2 0.346108 0.681303 0.916038
Si Si3 0.325549 0.313817 0.246565
Si Si4 0.662829 0.315449 0.247816
Si Si5 0.334300 0.686500 0.584471
Si Si6 0.671355 0.313385 0.584770
O O1 0.481813 0.784242 0.075424
O O2 0.510666 0.724392 0.164963
O O3 0.355248 0.000000 0.100528
O O4 0.000000 0.758744 0.000000
O O5 0.355652 0.500000 0.904351
O O6 0.011489 0.744546 0.835308
O O7 0.500000 0.707497 0.000000
O O8 0.333011 0.500000 0.247256
O O9 0.476576 0.244887 0.241167
O O10 0.503164 0.249217 0.332266
O O11 0.679362 0.500000 0.256704
O O12 0.995096 0.246519 0.332134
O O13 0.333913 0.500000 0.584438
O O14 0.506400 0.751152 0.585849
O O15 0.000000 0.751117 0.500000
O O16 0.500000 0.249825 0.500000
O O17 0.672586 0.500000 0.585378
#
# Coordination Sequence:
#
# PCOD8061377 Si02
#       6
#     4   4   4   4   4   4
#     4  11  24  39  54  75 105 139 175 216 263 314
#     4  10  20  35  56  80 104 131 168 214 261 311
#     4   9  17  29  47  74 103 131 167 211 257 302
#     4  10  19  33  55  79 105 138 176 218 261 309
#     4   9  15  23  37  62 101 140 168 201 248 301
#     4   9  16  26  44  74 108 139 172 212 260 310
#
# _framework density 20.031272000000001
#
# number of rings (size 3 to 8) (size 9 to 14) (size 15 to 20)
#    0.000    2.333    0.000    3.500    0.000    9.667 
#    0.000    0.833    0.000    0.500    0.000    0.000 
#    0.000    6.000    0.000    0.000    0.000    0.000 
#
# Total GULP energy -297647.073681 kJ/mol
# GULP energy per Si atom -12401.961403 kJ/mol
# Density = 1.998568 g / cm^3
# Si number density = 20.031272 Si / 1000 Ang^3
#
#
#
# Elastic Constant Matrix: (Units=GPa)
#
#
# Indices 1 2 3 4 5 6 
#
# 1 172.5669 9.6931 79.9693 0.0000 15.8018 0.0000
# 2 9.6931 5.8182 7.2275 0.0000 4.1313 0.0000
# 3 79.9693 7.2275 181.7575 0.0000 17.3654 0.0000
# 4 0.0000 0.0000 0.0000 4.5487 0.0000 5.0942
# 5 15.8018 4.1313 17.3654 0.0000 45.7928 0.0000
# 6 0.0000 0.0000 0.0000 5.0942 0.0000 7.3795
#
#
#
# Elastic Compliance Matrix: (Units=1/GPa)
#
#
# Indices 1 2 3 4 5 6 
#
# 1 0.007733 -0.008636 -0.002987 0.000000 -0.000757 0.000000
# 2 -0.008636 0.199667 -0.002805 0.000001 -0.013969 0.000000
# 3 -0.002987 -0.002805 0.007061 0.000000 -0.001394 0.000000
# 4 0.000000 0.000001 0.000000 0.968985 0.000000 -0.668917
# 5 -0.000757 -0.013969 -0.001394 0.000000 0.023887 0.000000
# 6 0.000000 0.000000 0.000000 -0.668917 0.000000 0.597283
#
#
# Mechanical properties :
#
#
# Convention : Reuss Voigt Hill
#
# Bulk Modulus (GPa) = 5.38781 61.54694 33.46737
# Shear Modulus (GPa) = 2.63805 29.09436 15.86620
#
# Velocity S-wave (km/s) = 1.14884 3.81523 2.81743
# Velocity P-wave (km/s) = 2.11076 7.08520 5.22759
#
# Compressibility (1/GPa) = 0.18560433
#
# Stress axis : x y z
#
# Youngs Moduli (GPa) = 129.30984 5.00835 141.62956
#
# Poissons Ratio (x) = 0.04325 0.42302
# Poissons Ratio (y) = 1.11675 0.39730
# Poissons Ratio (z) = 0.38622 0.01405
#
# Static dielectric constant tensor:
#      x y z
#    x 3.907760 0.000000 0.127160 
#    y 0.000000 2.940120 0.000000 
#    z 0.127160 0.000000 3.860680 
# 
# 
# High freq. dielectric constant tensor:
#      x y z
#    x 1.801970 0.000000 0.002410 
#    y 0.000000 1.712890 0.000000 
#    z 0.002410 0.000000 1.802290 
# 
# From -- ./inp_files/27208.got.cif
#   From: 2010.06.25/outbox.cif.g09.slc.cpg/sg10_14_cif.got.tgz:27208.got - 2010.06.27 22:07:45.
