data_PCOD8061068
_publ_section_title
;
Structure prediction by ZEFSAII (Michael W. Deem and Ramdas Pophale) SiO2 
 PCOD8061068
Probable space group: P 2/M
;
_chemical_formula_sum "Si O2"
_cell_formula_units_Z 32
_cell_length_a 14.374525
_cell_length_b 13.526944
_cell_length_c 9.272380
_cell_angle_alpha 90.000000
_cell_angle_beta 92.614137
_cell_angle_gamma 90.000000
_cell_volume 1801.076795
_symmetry_space_group_name_H-M "P 2/M"
_symmetry_group_IT_number 10
_symmetry_cell_setting 'monoclinic'
loop_
_space_group_symop_operation_xyz
x,y,z
-x,y,-z
-x,-y,-z
x,-y,z
loop_
_atom_site_type_symbol
_atom_site_label
_atom_site_fract_x
_atom_site_fract_y
_atom_site_fract_z
Si Si1 0.098059 0.889123 0.428847
Si Si2 0.795095 0.656457 0.004356
Si Si3 0.185223 0.702042 0.544629
Si Si4 0.665071 0.618706 0.236540
Si Si5 0.729854 0.606924 0.705860
Si Si6 0.068977 0.214093 0.128728
Si Si7 0.526886 0.382983 0.657319
Si Si8 0.948795 0.610887 0.238482
O O1 0.168340 0.819465 0.524944
O O2 0.085681 0.862445 0.258679
O O3 0.000000 0.881674 0.500000
O O4 0.138345 0.000000 0.439160
O O5 0.769285 0.589197 0.867535
O O6 0.833808 0.761530 0.946876
O O7 0.701594 0.668544 0.092258
O O8 0.871133 0.603044 0.109008
O O9 0.281395 0.673053 0.628653
O O10 0.193669 0.666168 0.380337
O O11 0.096879 0.652595 0.617489
O O12 0.683085 0.500000 0.243357
O O13 0.555694 0.645409 0.237596
O O14 0.717560 0.500000 0.630328
O O15 0.628111 0.660561 0.708368
O O16 0.030313 0.317304 0.191648
O O17 0.000000 0.170370 0.000000
O O18 0.500000 0.339720 0.500000
O O19 0.534408 0.500000 0.652461
O O20 0.987901 0.500000 0.268568
#
# Coordination Sequence:
#
# PCOD8061068 Si02
#       8
#     4   4   4   4   4   4   4   4
#     4  11  23  41  58  76 100 128 170 229 277 303
#     4  10  20  31  46  70 106 139 177 207 244 287
#     4  11  19  33  53  75  98 134 176 210 255 305
#     4  10  19  33  51  74 112 147 173 205 248 301
#     4  11  19  28  48  76 107 139 178 213 246 299
#     4  10  21  37  53  74 103 137 175 208 255 315
#     4   9  17  29  45  71 105 145 179 208 246 292
#     4  10  20  33  48  71 109 146 172 202 246 297
#
# _framework density 17.767149
#
# number of rings (size 3 to 8) (size 9 to 14) (size 15 to 20)
#    0.000    1.750    3.750    3.000    0.000    4.000 
#    0.000    2.500    0.000    0.000    0.000    1.750 
#    0.000    1.000    0.000    0.000    0.000    0.000 
#
# Total GULP energy -396536.989940 kJ/mol
# GULP energy per Si atom -12391.780936 kJ/mol
# Density = 1.772671 g / cm^3
# Si number density = 17.767149 Si / 1000 Ang^3
#
#
#
# Elastic Constant Matrix: (Units=GPa)
#
#
# Indices 1 2 3 4 5 6 
#
# 1 76.0075 29.2173 39.1745 0.0000 -17.0172 0.0000
# 2 29.2173 84.8601 34.9010 0.0000 -2.9075 0.0000
# 3 39.1745 34.9010 99.3795 0.0000 -16.3362 0.0000
# 4 0.0000 0.0000 0.0000 16.0208 0.0000 -0.4928
# 5 -17.0172 -2.9075 -16.3362 0.0000 29.0486 0.0000
# 6 0.0000 0.0000 0.0000 -0.4928 0.0000 11.2038
#
#
#
# Elastic Compliance Matrix: (Units=1/GPa)
#
#
# Indices 1 2 3 4 5 6 
#
# 1 0.019043 -0.004371 -0.004639 0.000000 0.008110 0.000000
# 2 -0.004371 0.014835 -0.004037 0.000000 -0.003346 0.000000
# 3 -0.004639 -0.004037 0.014099 0.000000 0.004807 0.000000
# 4 0.000000 0.000000 0.000000 0.062503 0.000000 0.002749
# 5 0.008110 -0.003346 0.004807 0.000000 0.041545 0.000000
# 6 0.000000 0.000000 0.000000 0.002749 0.000000 0.089377
#
#
# Mechanical properties :
#
#
# Convention : Reuss Voigt Hill
#
# Bulk Modulus (GPa) = 45.69529 51.87030 48.78280
# Shear Modulus (GPa) = 18.19583 21.71827 19.95705
#
# Velocity S-wave (km/s) = 3.20367 3.50005 3.35514
# Velocity P-wave (km/s) = 6.28168 6.75216 6.52117
#
# Compressibility (1/GPa) = 0.02188409
#
# Stress axis : x y z
#
# Youngs Moduli (GPa) = 52.51227 67.40984 70.92784
#
# Poissons Ratio (x) = 0.29465 0.32900
# Poissons Ratio (y) = 0.22953 0.28632
# Poissons Ratio (z) = 0.24358 0.27212
#
# Static dielectric constant tensor:
#      x y z
#    x 3.454290 0.000000 -0.166010 
#    y 0.000000 2.915990 0.000000 
#    z -0.166010 0.000000 3.483440 
# 
# 
# High freq. dielectric constant tensor:
#      x y z
#    x 1.687220 0.000000 -0.012290 
#    y 0.000000 1.623920 0.000000 
#    z -0.012290 0.000000 1.703940 
# 
# From -- ./inp_files/29156.got.cif
#   From: 2010.06.25/outbox.cif.g09.slc.cpg/sg10_15_cif.got.tgz:29156.got - 2010.06.27 22:07:45.
