data_PCOD8061258
_publ_section_title
;
Structure prediction by ZEFSAII (Michael W. Deem and Ramdas Pophale) SiO2 
 PCOD8061258
Probable space group: P 2/M
;
_chemical_formula_sum "Si O2"
_cell_formula_units_Z 32
_cell_length_a 23.611018
_cell_length_b 8.725059
_cell_length_c 14.549395
_cell_angle_alpha 90.000000
_cell_angle_beta 32.020521
_cell_angle_gamma 90.000000
_cell_volume 1589.229267
_symmetry_space_group_name_H-M "P 2/M"
_symmetry_group_IT_number 10
_symmetry_cell_setting 'monoclinic'
loop_
_space_group_symop_operation_xyz
x,y,z
-x,y,-z
-x,-y,-z
x,-y,z
loop_
_atom_site_type_symbol
_atom_site_label
_atom_site_fract_x
_atom_site_fract_y
_atom_site_fract_z
Si Si1 0.310850 0.817501 0.540567
Si Si2 0.097138 0.177638 0.921701
Si Si3 0.016077 0.822294 0.741267
Si Si4 0.489140 0.817542 0.618755
Si Si5 0.242991 0.319557 0.449274
Si Si6 0.082258 0.817313 0.311499
Si Si7 0.608767 0.818705 0.899213
Si Si8 0.322216 0.181864 0.995690
O O1 0.411986 0.757002 0.457624
O O2 0.312938 0.750792 0.435386
O O3 0.312709 0.000000 0.530565
O O4 0.208970 0.750574 0.736162
O O5 0.078423 0.201215 0.055183
O O6 0.101608 0.000000 0.888007
O O7 0.000000 0.256595 0.000000
O O8 0.120150 0.729424 0.627736
O O9 0.965341 0.757125 0.718456
O O10 0.049542 0.000000 0.687203
O O11 0.500000 0.750213 0.500000
O O12 0.383454 0.759899 0.819259
O O13 0.489093 0.000000 0.613080
O O14 0.251756 0.500000 0.440528
O O15 0.289843 0.257769 0.289298
O O16 0.000000 0.753107 0.500000
O O17 0.086714 0.000000 0.307475
O O18 0.201602 0.750537 0.162581
O O19 0.619593 0.000000 0.874119
O O20 0.500000 0.760176 0.000000
O O21 0.614088 0.768632 0.999257
O O22 0.316414 0.000000 0.000774
#
# Coordination Sequence:
#
# PCOD8061258 Si02
#       8
#     4   4   4   4   4   4   4   4
#     4  10  19  34  55  78 112 149 185 223 275 335
#     4   9  16  28  49  78 103 134 180 227 264 316
#     4  10  19  33  54  77 105 141 182 221 273 333
#     4   9  18  30  50  83 118 145 171 218 277 328
#     4  12  24  36  53  80 111 142 181 231 280 325
#     4   9  17  28  47  75 106 139 177 224 270 317
#     4  10  20  36  60  83 108 144 183 221 271 329
#     4   9  17  30  49  80 114 140 177 224 272 327
#
# _framework density 20.135546000000001
#
# number of rings (size 3 to 8) (size 9 to 14) (size 15 to 20)
#    0.000    2.250    1.250    2.625    1.750    4.250 
#    0.000    1.250    0.000    3.750    0.000    0.000 
#    0.000    0.000    0.000    0.000    0.000    0.000 
#
# Total GULP energy -396715.975555 kJ/mol
# GULP energy per Si atom -12397.374236 kJ/mol
# Density = 2.008972 g / cm^3
# Si number density = 20.135546 Si / 1000 Ang^3
#
#
#
# Elastic Constant Matrix: (Units=GPa)
#
#
# Indices 1 2 3 4 5 6 
#
# 1 156.0910 14.7448 62.0300 0.0000 7.0275 0.0000
# 2 14.7448 24.3092 9.8442 0.0000 1.4990 0.0000
# 3 62.0300 9.8442 145.1070 0.0000 4.8202 0.0000
# 4 0.0000 0.0000 0.0000 4.0875 0.0000 0.4948
# 5 7.0275 1.4990 4.8202 0.0000 39.6087 0.0000
# 6 0.0000 0.0000 0.0000 0.4948 0.0000 2.2844
#
#
#
# Elastic Compliance Matrix: (Units=1/GPa)
#
#
# Indices 1 2 3 4 5 6 
#
# 1 0.008040 -0.003538 -0.003167 0.000000 -0.000907 0.000000
# 2 -0.003538 0.043918 -0.001438 0.000000 -0.000859 0.000000
# 3 -0.003167 -0.001438 0.008356 0.000000 -0.000401 0.000000
# 4 0.000000 0.000000 0.000000 0.251234 0.000000 -0.054421
# 5 -0.000907 -0.000859 -0.000401 0.000000 0.025489 0.000000
# 6 0.000000 0.000000 0.000000 -0.054421 0.000000 0.449543
#
#
# Mechanical properties :
#
#
# Convention : Reuss Voigt Hill
#
# Bulk Modulus (GPa) = 22.71306 55.41613 39.06459
# Shear Modulus (GPa) = 6.11588 25.12201 15.61895
#
# Velocity S-wave (km/s) = 1.74469 3.53603 2.78814
# Velocity P-wave (km/s) = 3.91959 6.65227 5.45966
#
# Compressibility (1/GPa) = 0.04402754
#
# Stress axis : x y z
#
# Youngs Moduli (GPa) = 124.37710 22.76951 119.67345
#
# Poissons Ratio (x) = 0.08057 0.37898
# Poissons Ratio (y) = 0.44009 0.17213
# Poissons Ratio (z) = 0.39387 0.03275
#
# Static dielectric constant tensor:
#      x y z
#    x 3.849510 0.000000 0.012930 
#    y 0.000000 2.922070 0.000000 
#    z 0.012930 0.000000 3.939430 
# 
# 
# High freq. dielectric constant tensor:
#      x y z
#    x 1.797260 0.000000 0.004700 
#    y 0.000000 1.707790 0.000000 
#    z 0.004700 0.000000 1.804130 
# 
# From -- ./inp_files/66596.got.cif
#   From: 2010.06.25/outbox.cif.g09.slc.cpg/sg10_34_cif.got.tgz:66596.got - 2010.06.27 22:07:45.
