data_PCOD8061941
_publ_section_title
;
Structure prediction by ZEFSAII (Michael W. Deem and Ramdas Pophale) SiO2 
 PCOD8061941
Probable space group: P 2/M
;
_chemical_formula_sum "Si O2"
_cell_formula_units_Z 28
_cell_length_a 17.028916
_cell_length_b 8.760482
_cell_length_c 19.746595
_cell_angle_alpha 90.000000
_cell_angle_beta 31.005084
_cell_angle_gamma 90.000000
_cell_volume 1517.437066
_symmetry_space_group_name_H-M "P 2/M"
_symmetry_group_IT_number 10
_symmetry_cell_setting 'monoclinic'
loop_
_space_group_symop_operation_xyz
x,y,z
-x,y,-z
-x,-y,-z
x,-y,z
loop_
_atom_site_type_symbol
_atom_site_label
_atom_site_fract_x
_atom_site_fract_y
_atom_site_fract_z
Si Si1 0.099436 0.678334 0.228342
Si Si2 0.319034 0.181201 0.846866
Si Si3 0.855740 0.819059 0.146532
Si Si4 0.063530 0.181597 0.524766
Si Si5 0.578520 0.177333 0.011993
Si Si6 0.403030 0.179653 0.275220
Si Si7 0.979471 0.819821 0.848251
O O1 0.079265 0.500000 0.253007
O O2 0.273921 0.720385 0.085753
O O3 0.999757 0.732648 0.237748
O O4 0.045459 0.761242 0.335797
O O5 0.292150 0.236544 0.787989
O O6 0.477151 0.251049 0.758845
O O7 0.329439 0.000000 0.841703
O O8 0.178187 0.230338 0.998945
O O9 0.875311 0.770652 0.210947
O O10 0.861401 0.000000 0.139480
O O11 0.000000 0.752282 0.000000
O O12 0.234237 0.248493 0.410084
O O13 0.000000 0.241899 0.500000
O O14 0.064186 0.000000 0.524757
O O15 0.627365 0.000000 0.978656
O O16 0.500000 0.220682 0.000000
O O17 0.457974 0.218395 0.159113
O O18 0.394834 0.000000 0.291846
O O19 0.980392 0.000000 0.833329
#
# Coordination Sequence:
#
# PCOD8061941 Si02
#       7
#     4   4   4   4   4   4   4
#     4  12  24  35  50  75 109 143 173 207 252 304
#     4   8  12  22  45  78 106 123 157 213 268 308
#     4   7  11  19  39  73 104 128 154 200 263 311
#     4  10  21  38  57  75  97 132 179 220 257 305
#     4  10  19  34  57  81 102 128 167 215 264 309
#     4   9  16  28  51  79 101 125 163 218 267 303
#     4   9  15  28  50  74 102 133 168 208 253 305
#
# _framework density 18.452165000000001
#
# number of rings (size 3 to 8) (size 9 to 14) (size 15 to 20)
#    0.000    2.714    1.429    3.857    0.000    2.857 
#    0.000    0.714    0.000    4.714    0.000    6.000 
#    0.000    0.000    0.000    0.000    0.000    0.000 
#
# Total GULP energy -346896.709875 kJ/mol
# GULP energy per Si atom -12389.168210 kJ/mol
# Density = 1.841017 g / cm^3
# Si number density = 18.452165 Si / 1000 Ang^3
#
#
#
# Elastic Constant Matrix: (Units=GPa)
#
#
# Indices 1 2 3 4 5 6 
#
# 1 154.0534 23.0872 19.3940 0.0000 -3.4777 0.0000
# 2 23.0872 11.0311 9.0908 0.0000 -1.8865 0.0000
# 3 19.3940 9.0908 43.9825 0.0000 -3.8507 0.0000
# 4 0.0000 0.0000 0.0000 5.9894 0.0000 -2.5827
# 5 -3.4777 -1.8865 -3.8507 0.0000 26.4558 0.0000
# 6 0.0000 0.0000 0.0000 -2.5827 0.0000 1.0946
#
#
#
# Elastic Compliance Matrix: (Units=1/GPa)
#
#
# Indices 1 2 3 4 5 6 
#
# 1 0.009459 -0.019739 -0.000107 0.000000 -0.000180 0.000000
# 2 -0.019739 0.151004 -0.022073 0.000000 0.004960 0.000000
# 3 -0.000107 -0.022073 0.027558 0.000000 0.002423 0.000000
# 4 0.000000 0.000000 0.000000 -9.560482 0.000000-22.558656
# 5 -0.000180 0.004960 0.002423 0.000000 0.038482 0.000000
# 6 0.000000 0.000000 0.000000-22.558656 0.000000-52.315184
#
#
# Mechanical properties :
#
#
# Convention : Reuss Voigt Hill
#
# Bulk Modulus (GPa) = 9.59850 34.69011 22.14431
# Shear Modulus (GPa) = -0.08126 17.20762 8.56318
#
# Velocity S-wave (km/s) = -0.21008 3.05709 2.15658
# Velocity P-wave (km/s) = 2.27030 5.59481 4.26943
#
# Compressibility (1/GPa) = 0.10418291
#
# Stress axis : x y z
#
# Youngs Moduli (GPa) = 105.72080 6.62232 36.28740
#
# Poissons Ratio (x) = 0.13072 0.00387
# Poissons Ratio (y) = 2.08687 0.80097
# Poissons Ratio (z) = 0.01127 0.14617
#
# Static dielectric constant tensor:
#      x y z
#    x 4.188430 0.000000 -0.183530 
#    y 0.000000 2.827420 0.000000 
#    z -0.183530 0.000000 3.182760 
# 
# 
# High freq. dielectric constant tensor:
#      x y z
#    x 1.748660 0.000000 -0.002720 
#    y 0.000000 1.655860 0.000000 
#    z -0.002720 0.000000 1.677210 
# 
# From -- ./inp_files/85609.got.cif
#   From: 2010.06.25/outbox.cif.g09.slc.cpg/sg10_43_cif.got.tgz:85609.got - 2010.06.27 22:07:45.
