data_PCOD8061393
_publ_section_title
;
Structure prediction by ZEFSAII (Michael W. Deem and Ramdas Pophale) SiO2 
 PCOD8061393
Probable space group: P 2/M
;
_chemical_formula_sum "Si O2"
_cell_formula_units_Z 32
_cell_length_a 12.180607
_cell_length_b 9.140830
_cell_length_c 18.970408
_cell_angle_alpha 90.000000
_cell_angle_beta 51.152541
_cell_angle_gamma 90.000000
_cell_volume 1645.006391
_symmetry_space_group_name_H-M "P 2/M"
_symmetry_group_IT_number 10
_symmetry_cell_setting 'monoclinic'
loop_
_space_group_symop_operation_xyz
x,y,z
-x,y,-z
-x,-y,-z
x,-y,z
loop_
_atom_site_type_symbol
_atom_site_label
_atom_site_fract_x
_atom_site_fract_y
_atom_site_fract_z
Si Si1 0.637534 0.670313 0.241397
Si Si2 0.586000 0.839003 0.893677
Si Si3 0.834538 0.826819 0.886415
Si Si4 0.098075 0.835769 0.392645
Si Si5 0.675683 0.327225 0.617814
Si Si6 0.651146 0.329755 0.075264
Si Si7 0.127557 0.330434 0.748525
Si Si8 0.869864 0.666817 0.411717
O O1 0.626099 0.500000 0.262288
O O2 0.482719 0.737249 0.318378
O O3 0.688526 0.699913 0.141463
O O4 0.752896 0.736721 0.248344
O O5 0.743977 0.788564 0.852127
O O6 0.510038 0.723931 0.872760
O O7 0.589044 0.000000 0.856599
O O8 0.500000 0.849055 0.000000
O O9 0.988331 0.762617 0.815847
O O10 0.840856 0.000000 0.895377
O O11 0.763592 0.757975 0.984209
O O12 0.241322 0.748525 0.351040
O O13 0.000000 0.832235 0.500000
O O14 0.011575 0.761413 0.364245
O O15 0.137415 0.000000 0.354019
O O16 0.678479 0.500000 0.630773
O O17 0.745153 0.284593 0.514789
O O18 0.659114 0.500000 0.052651
O O19 0.094570 0.500000 0.779226
O O20 0.184394 0.312636 0.645989
O O21 0.911777 0.500000 0.410997
#
# Coordination Sequence:
#
# PCOD8061393 Si02
#       8
#     4   4   4   4   4   4   4   4
#     4   9  20  36  53  76 105 136 173 217 260 303
#     4   8  16  32  52  75 104 133 163 205 258 312
#     4  10  21  37  55  77 106 138 170 210 261 309
#     4   9  17  30  50  77 108 139 171 209 256 310
#     4   9  17  33  55  78 106 137 171 213 259 307
#     4  10  19  33  55  80 105 135 170 210 257 308
#     4  10  21  37  54  75 103 136 178 219 256 304
#     4   9  18  32  54  80 104 135 173 214 258 305
#
# _framework density 19.452812999999999
#
# number of rings (size 3 to 8) (size 9 to 14) (size 15 to 20)
#    0.000    2.750    0.000    1.875    0.000    6.750 
#    0.000   11.875    0.000    0.000    0.000    4.375 
#    0.000    0.000    0.000    0.000    0.000    0.000 
#
# Total GULP energy -396731.502141 kJ/mol
# GULP energy per Si atom -12397.859442 kJ/mol
# Density = 1.940854 g / cm^3
# Si number density = 19.452813 Si / 1000 Ang^3
#
#
#
# Elastic Constant Matrix: (Units=GPa)
#
#
# Indices 1 2 3 4 5 6 
#
# 1 104.4729 35.6306 9.7603 0.0000 -6.6333 0.0000
# 2 35.6306 73.5853 20.5722 0.0000 -1.2961 0.0000
# 3 9.7603 20.5722 41.3691 0.0000 -11.1507 0.0000
# 4 0.0000 0.0000 0.0000 9.1393 0.0000 -5.1451
# 5 -6.6333 -1.2961 -11.1507 0.0000 31.3593 0.0000
# 6 0.0000 0.0000 0.0000 -5.1451 0.0000 13.5953
#
#
#
# Elastic Compliance Matrix: (Units=1/GPa)
#
#
# Indices 1 2 3 4 5 6 
#
# 1 0.011640 -0.005823 0.000828 0.000000 0.002516 0.000000
# 2 -0.005823 0.018858 -0.008987 0.000000 -0.003648 0.000000
# 3 0.000828 -0.008987 0.031403 0.000000 0.010970 0.000000
# 4 0.000000 0.000000 0.000000 0.139041 0.000000 0.052620
# 5 0.002516 -0.003648 0.010970 0.000000 0.036171 0.000000
# 6 0.000000 0.000000 0.000000 0.052620 0.000000 0.093469
#
#
# Mechanical properties :
#
#
# Convention : Reuss Voigt Hill
#
# Bulk Modulus (GPa) = 29.46731 39.03927 34.25329
# Shear Modulus (GPa) = 13.51868 21.04973 17.28421
#
# Velocity S-wave (km/s) = 2.63905 3.29309 2.98404
# Velocity P-wave (km/s) = 4.94642 5.87975 5.43316
#
# Compressibility (1/GPa) = 0.03393592
#
# Stress axis : x y z
#
# Youngs Moduli (GPa) = 85.90802 53.02883 31.84378
#
# Poissons Ratio (x) = 0.30881 -0.02636
# Poissons Ratio (y) = 0.50028 0.28618
# Poissons Ratio (z) = -0.07111 0.47657
#
# Static dielectric constant tensor:
#      x y z
#    x 3.829970 0.000000 -0.096480 
#    y 0.000000 3.483820 0.000000 
#    z -0.096480 0.000000 3.428710 
# 
# 
# High freq. dielectric constant tensor:
#      x y z
#    x 1.755800 0.000000 -0.001260 
#    y 0.000000 1.741500 0.000000 
#    z -0.001260 0.000000 1.754130 
# 
# From -- ./inp_files/83540.got.cif
#   From: 2010.06.25/outbox.cif.g09.slc.cpg/sg10_42_cif.got.tgz:83540.got - 2010.06.27 22:07:45.
