data_PCOD8061828
_publ_section_title
;
Structure prediction by ZEFSAII (Michael W. Deem and Ramdas Pophale) SiO2 
 PCOD8061828
Probable space group: P 2/M
;
_chemical_formula_sum "Si O2"
_cell_formula_units_Z 28
_cell_length_a 13.693864
_cell_length_b 9.693018
_cell_length_c 11.192103
_cell_angle_alpha 90.000000
_cell_angle_beta 106.666764
_cell_angle_gamma 90.000000
_cell_volume 1423.171577
_symmetry_space_group_name_H-M "P 2/M"
_symmetry_group_IT_number 10
_symmetry_cell_setting 'monoclinic'
loop_
_space_group_symop_operation_xyz
x,y,z
-x,y,-z
-x,-y,-z
x,-y,z
loop_
_atom_site_type_symbol
_atom_site_label
_atom_site_fract_x
_atom_site_fract_y
_atom_site_fract_z
Si Si1 0.307235 0.836479 0.460909
Si Si2 0.602025 0.347088 0.702814
Si Si3 0.759312 0.762334 0.933238
Si Si4 0.885964 0.151429 0.758179
Si Si5 0.625482 0.338664 0.296468
Si Si6 0.049979 0.649444 0.888540
Si Si7 0.613114 0.152971 0.076037
O O1 0.386001 0.770643 0.393272
O O2 0.192923 0.811224 0.373993
O O3 0.314434 0.750555 0.584607
O O4 0.331361 0.000000 0.484691
O O5 0.604274 0.500000 0.643942
O O6 0.691956 0.344713 0.832563
O O7 0.495023 0.320953 0.728836
O O8 0.828829 0.849052 0.866252
O O9 0.831921 0.688627 0.055482
O O10 0.683003 0.856829 0.982314
O O11 0.984088 0.249357 0.782521
O O12 0.930805 0.000000 0.754397
O O13 0.658238 0.500000 0.310564
O O14 0.655137 0.269313 0.180894
O O15 0.044165 0.500000 0.824886
O O16 0.000000 0.645458 0.000000
O O17 0.612949 0.000000 0.135111
O O18 0.500000 0.196737 0.000000
#
# Coordination Sequence:
#
# PCOD8061828 Si02
#       7
#     4   4   4   4   4   4   4
#     4  10  21  36  55  79 107 142 182 229 281 328
#     4  10  20  34  53  78 109 144 182 226 274 327
#     4  10  19  34  55  82 113 147 182 224 270 324
#     4   9  19  34  55  82 111 140 176 224 279 330
#     4  11  23  37  54  77 107 147 189 228 271 321
#     4   9  18  31  52  81 111 142 177 219 273 328
#     4  11  23  38  56  79 111 151 191 228 265 317
#
# _framework density 19.674365000000002
#
# number of rings (size 3 to 8) (size 9 to 14) (size 15 to 20)
#    0.000    2.000    1.429    2.143    0.000   12.000 
#    0.000    0.000    0.000    0.857    0.000    5.000 
#    0.000    0.000    0.000    0.000    0.000    0.000 
#
# Total GULP energy -347087.632378 kJ/mol
# GULP energy per Si atom -12395.986871 kJ/mol
# Density = 1.962959 g / cm^3
# Si number density = 19.674365 Si / 1000 Ang^3
#
#
#
# Elastic Constant Matrix: (Units=GPa)
#
#
# Indices 1 2 3 4 5 6 
#
# 1 59.4738 24.7570 33.2743 0.0000 16.0694 0.0000
# 2 24.7570 144.3368 64.0045 0.0000 13.9613 0.0000
# 3 33.2743 64.0045 93.2725 0.0000 9.0538 0.0000
# 4 0.0000 0.0000 0.0000 31.2520 0.0000 3.1582
# 5 16.0694 13.9613 9.0538 0.0000 25.5748 0.0000
# 6 0.0000 0.0000 0.0000 3.1582 0.0000 17.3413
#
#
#
# Elastic Compliance Matrix: (Units=1/GPa)
#
#
# Indices 1 2 3 4 5 6 
#
# 1 0.024460 0.000525 -0.007836 0.000000 -0.012882 0.000000
# 2 0.000525 0.010217 -0.006861 0.000000 -0.003479 0.000000
# 3 -0.007836 -0.006861 0.018002 0.000000 0.002296 0.000000
# 4 0.000000 0.000000 0.000000 0.032598 0.000000 -0.005937
# 5 -0.012882 -0.003479 0.002296 0.000000 0.048281 0.000000
# 6 0.000000 0.000000 0.000000 -0.005937 0.000000 0.058747
#
#
# Mechanical properties :
#
#
# Convention : Reuss Voigt Hill
#
# Bulk Modulus (GPa) = 41.09141 60.12831 50.60986
# Shear Modulus (GPa) = 21.85700 26.50345 24.18023
#
# Velocity S-wave (km/s) = 3.33669 3.67428 3.50954
# Velocity P-wave (km/s) = 5.98128 6.97341 6.49632
#
# Compressibility (1/GPa) = 0.02433599
#
# Stress axis : x y z
#
# Youngs Moduli (GPa) = 40.88283 97.87695 55.55016
#
# Poissons Ratio (x) = -0.05142 0.43530
# Poissons Ratio (y) = -0.02148 0.38111
# Poissons Ratio (z) = 0.32036 0.67150
#
# Static dielectric constant tensor:
#      x y z
#    x 3.427610 0.000000 0.255280 
#    y 0.000000 3.720340 0.000000 
#    z 0.255280 0.000000 3.457370 
# 
# 
# High freq. dielectric constant tensor:
#      x y z
#    x 1.745240 0.000000 0.023180 
#    y 0.000000 1.776170 0.000000 
#    z 0.023180 0.000000 1.749680 
# 
# From -- ./inp_files/49409.got.cif
#   From: 2010.06.25/outbox.cif.g09.slc.cpg/sg10_25_cif.got.tgz:49409.got - 2010.06.27 22:07:45.
