data_PCOD8061723
_publ_section_title
;
Structure prediction by ZEFSAII (Michael W. Deem and Ramdas Pophale) SiO2 
 PCOD8061723
Probable space group: P 2/M
;
_chemical_formula_sum "Si O2"
_cell_formula_units_Z 32
_cell_length_a 20.866386
_cell_length_b 8.975849
_cell_length_c 27.616360
_cell_angle_alpha 90.000000
_cell_angle_beta 21.477261
_cell_angle_gamma 90.000000
_cell_volume 1893.768246
_symmetry_space_group_name_H-M "P 2/M"
_symmetry_group_IT_number 10
_symmetry_cell_setting 'monoclinic'
loop_
_space_group_symop_operation_xyz
x,y,z
-x,y,-z
-x,-y,-z
x,-y,z
loop_
_atom_site_type_symbol
_atom_site_label
_atom_site_fract_x
_atom_site_fract_y
_atom_site_fract_z
Si Si1 0.835347 0.332202 0.151308
Si Si2 0.970754 0.672640 0.464462
Si Si3 0.046446 0.832219 0.077548
Si Si4 0.270830 0.822457 0.195689
Si Si5 0.624650 0.832052 0.224618
Si Si6 0.582336 0.326276 0.706789
Si Si7 0.733049 0.327029 0.004051
Si Si8 0.375635 0.323412 0.026073
O O1 0.779536 0.500000 0.202184
O O2 0.670147 0.251334 0.242621
O O3 0.883039 0.253056 0.168393
O O4 0.000000 0.326555 0.000000
O O5 0.010219 0.500000 0.424430
O O6 0.773971 0.718282 0.589728
O O7 0.000000 0.705016 0.500000
O O8 0.093747 0.780197 0.347256
O O9 0.986596 0.000000 0.129523
O O10 0.209845 0.824153 0.926839
O O11 0.101232 0.758885 0.089980
O O12 0.262669 0.753556 0.147582
O O13 0.293413 0.000000 0.177190
O O14 0.432283 0.749315 0.110963
O O15 0.460006 0.756257 0.313821
O O16 0.573720 0.000000 0.273469
O O17 0.566001 0.500000 0.707735
O O18 0.447994 0.276716 0.843317
O O19 0.765733 0.500000 0.990412
O O20 0.722497 0.289001 0.954926
O O21 0.394609 0.500000 0.021747
#
# Coordination Sequence:
#
# PCOD8061723 Si02
#       8
#     4   4   4   4   4   4   4   4
#     4   9  15  23  36  53  77 112 152 188 219 257
#     4  10  20  35  53  70  91 122 158 192 227 272
#     4   9  16  24  36  57  86 117 146 180 223 270
#     4  11  22  34  49  71  96 119 149 191 237 279
#     4   9  16  25  37  55  82 115 149 183 223 269
#     4   9  17  29  45  65  89 117 152 190 226 268
#     4   9  17  29  46  67  89 117 153 190 226 266
#     4  10  19  34  54  70  89 120 157 192 228 274
#
# _framework density 16.897527
#
# number of rings (size 3 to 8) (size 9 to 14) (size 15 to 20)
#    0.000    2.500    0.000    4.125    0.000    8.250 
#    0.000    2.500    0.000    0.000    0.000    0.000 
#    0.000    1.000    0.000   10.500    0.000    8.000 
#
# Total GULP energy -396793.656212 kJ/mol
# GULP energy per Si atom -12399.801757 kJ/mol
# Density = 1.685907 g / cm^3
# Si number density = 16.897527 Si / 1000 Ang^3
#
#
#
# Elastic Constant Matrix: (Units=GPa)
#
#
# Indices 1 2 3 4 5 6 
#
# 1 162.0961 78.5238 39.8285 0.0000 -20.7582 0.0000
# 2 78.5238 118.1342 30.8330 0.0000 -8.5242 0.0000
# 3 39.8285 30.8330 44.1675 0.0000 -4.5804 0.0000
# 4 0.0000 0.0000 0.0000 16.7926 0.0000 -1.8429
# 5 -20.7582 -8.5242 -4.5804 0.0000 19.9650 0.0000
# 6 0.0000 0.0000 0.0000 -1.8429 0.0000 18.6366
#
#
#
# Elastic Compliance Matrix: (Units=1/GPa)
#
#
# Indices 1 2 3 4 5 6 
#
# 1 0.011162 -0.005417 -0.005450 0.000000 0.008043 0.000000
# 2 -0.005417 0.013138 -0.004394 0.000000 -0.001031 0.000000
# 3 -0.005450 -0.004394 0.030568 0.000000 -0.000530 0.000000
# 4 0.000000 0.000000 0.000000 0.060204 0.000000 0.005953
# 5 0.008043 -0.001031 -0.000530 0.000000 0.057888 0.000000
# 6 0.000000 0.000000 0.000000 0.005953 0.000000 0.054246
#
#
# Mechanical properties :
#
#
# Convention : Reuss Voigt Hill
#
# Bulk Modulus (GPa) = 41.07295 69.19649 55.13472
# Shear Modulus (GPa) = 18.80803 22.75967 20.78385
#
# Velocity S-wave (km/s) = 3.33988 3.67403 3.51093
# Velocity P-wave (km/s) = 6.26362 7.68359 7.00965
#
# Compressibility (1/GPa) = 0.02434692
#
# Stress axis : x y z
#
# Youngs Moduli (GPa) = 89.58692 76.11608 32.71369
#
# Poissons Ratio (x) = 0.41230 0.17830
# Poissons Ratio (y) = 0.48527 0.14373
# Poissons Ratio (z) = 0.48828 0.33443
#
# Static dielectric constant tensor:
#      x y z
#    x 3.303780 0.000000 -0.137560 
#    y 0.000000 3.252790 0.000000 
#    z -0.137560 0.000000 2.698790 
# 
# 
# High freq. dielectric constant tensor:
#      x y z
#    x 1.663210 0.000000 -0.016610 
#    y 0.000000 1.661610 0.000000 
#    z -0.016610 0.000000 1.589850 
# 
# From -- ./inp_files/54829.got.cif
#   From: 2010.06.25/outbox.cif.g09.slc.cpg/sg10_28_cif.got.tgz:54829.got - 2010.06.27 22:07:45.
