data_PCOD8061996
_publ_section_title
;
Structure prediction by ZEFSAII (Michael W. Deem and Ramdas Pophale) SiO2 
 PCOD8061996
Probable space group: P 2/M
;
_chemical_formula_sum "Si O2"
_cell_formula_units_Z 32
_cell_length_a 14.253122
_cell_length_b 8.926141
_cell_length_c 24.789575
_cell_angle_alpha 90.000000
_cell_angle_beta 150.032263
_cell_angle_gamma 90.000000
_cell_volume 1575.393261
_symmetry_space_group_name_H-M "P 2/M"
_symmetry_group_IT_number 10
_symmetry_cell_setting 'monoclinic'
loop_
_space_group_symop_operation_xyz
x,y,z
-x,y,-z
-x,-y,-z
x,-y,z
loop_
_atom_site_type_symbol
_atom_site_label
_atom_site_fract_x
_atom_site_fract_y
_atom_site_fract_z
Si Si1 0.786465 0.824066 0.884712
Si Si2 0.376023 0.321722 0.488412
Si Si3 0.649433 0.321626 0.030007
Si Si4 0.028563 0.330868 0.738045
Si Si5 0.137343 0.175453 0.519331
Si Si6 0.461071 0.823906 0.136160
Si Si7 0.499211 0.322034 0.331531
Si Si8 0.163319 0.669337 0.691550
O O1 0.674357 0.779009 0.882598
O O2 0.699846 0.738399 0.789793
O O3 0.775051 0.000000 0.867188
O O4 0.000000 0.771327 0.000000
O O5 0.500000 0.266573 0.500000
O O6 0.366367 0.500000 0.487423
O O7 0.465096 0.264156 0.589323
O O8 0.168574 0.249789 0.374344
O O9 0.638209 0.500000 0.016741
O O10 0.856651 0.267067 0.153588
O O11 0.500000 0.266961 0.000000
O O12 0.620980 0.244008 0.958995
O O13 0.971980 0.500000 0.723605
O O14 0.179789 0.328187 0.764433
O O15 0.339692 0.252571 0.627043
O O16 0.000000 0.213993 0.500000
O O17 0.035781 0.250341 0.417756
O O18 0.166857 0.000000 0.525974
O O19 0.666689 0.758297 0.251276
O O20 0.481843 0.000000 0.140198
O O21 0.503236 0.500000 0.329614
O O22 0.161448 0.500000 0.668226
#
# Coordination Sequence:
#
# PCOD8061996 Si02
#       8
#     4   4   4   4   4   4   4   4
#     4  10  24  46  65  81 115 165 203 242 302 360
#     4   9  18  34  57  87 121 153 188 236 293 349
#     4  10  19  34  57  83 115 158 198 236 293 358
#     4   9  17  32  53  79 113 152 189 230 286 347
#     4  11  23  37  55  84 122 162 199 237 293 360
#     4  11  23  38  58  87 119 155 202 250 300 359
#     4  11  22  38  64  95 120 150 198 251 298 348
#     4  11  20  35  58  84 117 153 195 245 296 353
#
# _framework density 20.312387999999999
#
# number of rings (size 3 to 8) (size 9 to 14) (size 15 to 20)
#    0.000    1.750    2.500    2.250    0.000    6.500 
#    0.000    1.250    0.000    1.500    0.000    0.000 
#    0.000    0.000    0.000    0.000    0.000    0.000 
#
# Total GULP energy -396720.766571 kJ/mol
# GULP energy per Si atom -12397.523955 kJ/mol
# Density = 2.026616 g / cm^3
# Si number density = 20.312388 Si / 1000 Ang^3
#
#
#
# Elastic Constant Matrix: (Units=GPa)
#
#
# Indices 1 2 3 4 5 6 
#
# 1 93.9547 31.1912 52.0317 0.0000 8.0533 0.0000
# 2 31.1912 55.2653 37.0974 0.0000 2.5552 0.0000
# 3 52.0317 37.0974 146.5592 0.0000 12.6076 0.0000
# 4 0.0000 0.0000 0.0000 32.5978 0.0000 0.9994
# 5 8.0533 2.5552 12.6076 0.0000 31.2396 0.0000
# 6 0.0000 0.0000 0.0000 0.9994 0.0000 17.5752
#
#
#
# Elastic Compliance Matrix: (Units=1/GPa)
#
#
# Indices 1 2 3 4 5 6 
#
# 1 0.014724 -0.005810 -0.003596 0.000000 -0.001869 0.000000
# 2 -0.005810 0.024097 -0.004140 0.000000 0.001198 0.000000
# 3 -0.003596 -0.004140 0.009364 0.000000 -0.002513 0.000000
# 4 0.000000 0.000000 0.000000 0.030730 0.000000 -0.001747
# 5 -0.001869 0.001198 -0.002513 0.000000 0.033409 0.000000
# 6 0.000000 0.000000 0.000000 -0.001747 0.000000 0.056998
#
#
# Mechanical properties :
#
#
# Convention : Reuss Voigt Hill
#
# Bulk Modulus (GPa) = 47.40763 59.60220 53.50491
# Shear Modulus (GPa) = 24.57674 27.97977 26.27826
#
# Velocity S-wave (km/s) = 3.48219 3.71546 3.60071
# Velocity P-wave (km/s) = 6.28947 6.91467 6.60947
#
# Compressibility (1/GPa) = 0.02109365
#
# Stress axis : x y z
#
# Youngs Moduli (GPa) = 67.91748 41.49880 106.79282
#
# Poissons Ratio (x) = 0.24110 0.38401
# Poissons Ratio (y) = 0.39458 0.44212
# Poissons Ratio (z) = 0.24422 0.17180
#
# Static dielectric constant tensor:
#      x y z
#    x 3.648250 0.000000 0.029050 
#    y 0.000000 3.363500 0.000000 
#    z 0.029050 0.000000 4.007060 
# 
# 
# High freq. dielectric constant tensor:
#      x y z
#    x 1.785030 0.000000 -0.003260 
#    y 0.000000 1.762580 0.000000 
#    z -0.003260 0.000000 1.814980 
# 
# From -- ./inp_files/89617.got.cif
#   From: 2010.06.25/outbox.cif.g09.slc.cpg/sg10_45_cif.got.tgz:89617.got - 2010.06.27 22:07:45.
