data_PCOD8061686
_publ_section_title
;
Structure prediction by ZEFSAII (Michael W. Deem and Ramdas Pophale) SiO2 
 PCOD8061686
Probable space group: P 2/M
;
_chemical_formula_sum "Si O2"
_cell_formula_units_Z 28
_cell_length_a 27.268426
_cell_length_b 8.894085
_cell_length_c 21.732343
_cell_angle_alpha 90.000000
_cell_angle_beta 161.809973
_cell_angle_gamma 90.000000
_cell_volume 1645.350581
_symmetry_space_group_name_H-M "P 2/M"
_symmetry_group_IT_number 10
_symmetry_cell_setting 'monoclinic'
loop_
_space_group_symop_operation_xyz
x,y,z
-x,y,-z
-x,-y,-z
x,-y,z
loop_
_atom_site_type_symbol
_atom_site_label
_atom_site_fract_x
_atom_site_fract_y
_atom_site_fract_z
Si Si1 0.840668 0.679256 0.535080
Si Si2 0.760953 0.677487 0.180910
Si Si3 0.431063 0.823105 0.353160
Si Si4 0.835463 0.330943 0.021950
Si Si5 0.538701 0.177644 0.235679
Si Si6 0.083172 0.323201 0.508864
Si Si7 0.529059 0.669485 0.719157
O O1 0.819803 0.500000 0.511522
O O2 0.693813 0.758483 0.389854
O O3 0.857975 0.741145 0.486053
O O4 0.994706 0.730561 0.756601
O O5 0.733117 0.500000 0.137974
O O6 0.790090 0.716326 0.287444
O O7 0.910466 0.738408 0.320574
O O8 0.608801 0.766158 0.978706
O O9 0.500000 0.767047 0.500000
O O10 0.529519 0.742898 0.415381
O O11 0.446771 0.000000 0.364378
O O12 0.246578 0.773705 0.128075
O O13 0.849073 0.500000 0.011858
O O14 0.720814 0.331250 0.945781
O O15 0.532575 0.232578 0.298309
O O16 0.543674 0.000000 0.240840
O O17 0.063840 0.500000 0.481232
O O18 0.463103 0.500000 0.646653
#
# Coordination Sequence:
#
# PCOD8061686 Si02
#       7
#     4   4   4   4   4   4   4
#     4  10  19  34  52  73 101 136 176 216 256 303
#     4   9  17  34  57  77  97 128 170 220 264 306
#     4   9  17  30  52  83 114 138 161 197 248 304
#     4   8  17  31  53  79 101 130 172 214 250 293
#     4  12  24  34  46  72 106 140 173 211 261 315
#     4   8  16  32  57  80  96 123 173 222 261 304
#     4   9  18  34  55  77  99 131 172 216 251 292
#
# _framework density 17.01765
#
# number of rings (size 3 to 8) (size 9 to 14) (size 15 to 20)
#    0.857    1.857    0.000    3.429    0.000    4.571 
#    0.000    5.714    0.000    0.857    0.000    6.000 
#    0.000    0.000    0.000    0.000    0.000    0.000 
#
# Total GULP energy -346967.190234 kJ/mol
# GULP energy per Si atom -12391.685366 kJ/mol
# Density = 1.697892 g / cm^3
# Si number density = 17.017650 Si / 1000 Ang^3
#
#
#
# Elastic Constant Matrix: (Units=GPa)
#
#
# Indices 1 2 3 4 5 6 
#
# 1 110.4815 48.8913 98.2788 0.0000 -8.2411 0.0000
# 2 48.8913 69.7974 49.4132 0.0000 -5.8008 0.0000
# 3 98.2788 49.4132 99.6928 0.0000 -11.7650 0.0000
# 4 0.0000 0.0000 0.0000 12.6946 0.0000 -6.0282
# 5 -8.2411 -5.8008 -11.7650 0.0000 26.4125 0.0000
# 6 0.0000 0.0000 0.0000 -6.0282 0.0000 20.2441
#
#
#
# Elastic Compliance Matrix: (Units=1/GPa)
#
#
# Indices 1 2 3 4 5 6 
#
# 1 0.076071 -0.000294 -0.076051 0.000000 -0.010205 0.000000
# 2 -0.000294 0.022074 -0.010650 0.000000 0.000012 0.000000
# 3 -0.076051 -0.010650 0.092044 0.000000 0.014931 0.000000
# 4 0.000000 0.000000 0.000000 0.091747 0.000000 0.027320
# 5 -0.010205 0.000012 0.014931 0.000000 0.041330 0.000000
# 6 0.000000 0.000000 0.000000 0.027320 0.000000 0.057532
#
#
# Mechanical properties :
#
#
# Convention : Reuss Voigt Hill
#
# Bulk Modulus (GPa) = 61.73012 74.79312 68.26162
# Shear Modulus (GPa) = 8.92560 17.42947 13.17753
#
# Velocity S-wave (km/s) = 2.29266 3.20378 2.78572
# Velocity P-wave (km/s) = 6.58493 7.59812 7.10960
#
# Compressibility (1/GPa) = 0.01619955
#
# Stress axis : x y z
#
# Youngs Moduli (GPa) = 13.14562 45.30316 10.86441
#
# Poissons Ratio (x) = 0.01330 0.82625
# Poissons Ratio (y) = 0.00386 0.11571
# Poissons Ratio (z) = 0.99973 0.48248
#
# Static dielectric constant tensor:
#      x y z
#    x 3.304720 0.000000 -0.081040 
#    y 0.000000 2.984990 0.000000 
#    z -0.081040 0.000000 3.093530 
# 
# 
# High freq. dielectric constant tensor:
#      x y z
#    x 1.647270 0.000000 -0.008540 
#    y 0.000000 1.642550 0.000000 
#    z -0.008540 0.000000 1.645130 
# 
# From -- ./inp_files/86693.got.cif
#   From: 2010.06.25/outbox.cif.g09.slc.cpg/sg10_44_cif.got.tgz:86693.got - 2010.06.27 22:07:45.
