data_PCOD8061124
_publ_section_title
;
Structure prediction by ZEFSAII (Michael W. Deem and Ramdas Pophale) SiO2 
 PCOD8061124
Probable space group: P 2/M
;
_chemical_formula_sum "Si O2"
_cell_formula_units_Z 32
_cell_length_a 27.229685
_cell_length_b 9.182102
_cell_length_c 21.417698
_cell_angle_alpha 90.000000
_cell_angle_beta 18.585756
_cell_angle_gamma 90.000000
_cell_volume 1706.757624
_symmetry_space_group_name_H-M "P 2/M"
_symmetry_group_IT_number 10
_symmetry_cell_setting 'monoclinic'
loop_
_space_group_symop_operation_xyz
x,y,z
-x,y,-z
-x,-y,-z
x,-y,z
loop_
_atom_site_type_symbol
_atom_site_label
_atom_site_fract_x
_atom_site_fract_y
_atom_site_fract_z
Si Si1 0.135146 0.669812 0.524597
Si Si2 0.730447 0.827188 0.192092
Si Si3 0.644813 0.173485 0.556179
Si Si4 0.440815 0.166073 0.137775
Si Si5 0.423305 0.826684 0.498647
Si Si6 0.365200 0.834030 0.977470
Si Si7 0.943294 0.669461 0.635091
Si Si8 0.956632 0.173508 0.246193
O O1 0.133678 0.500000 0.542264
O O2 0.307346 0.729450 0.322479
O O3 0.031356 0.753726 0.700266
O O4 0.073939 0.700960 0.528826
O O5 0.595885 0.771994 0.307475
O O6 0.695074 0.771687 0.305137
O O7 0.729929 0.000000 0.192838
O O8 0.896155 0.769582 0.970252
O O9 0.629203 0.236928 0.504879
O O10 0.499754 0.230205 0.771116
O O11 0.803945 0.229817 0.394538
O O12 0.646580 0.000000 0.554654
O O13 0.583378 0.177759 0.012824
O O14 0.378401 0.000000 0.209897
O O15 0.500000 0.221391 0.000000
O O16 0.421831 0.000000 0.497442
O O17 0.329519 0.000000 0.001730
O O18 0.211127 0.743507 0.154096
O O19 0.907138 0.500000 0.671353
O O20 0.000000 0.733522 0.500000
O O21 0.956969 0.000000 0.253912
#
# Coordination Sequence:
#
# PCOD8061124 Si02
#       8
#     4   4   4   4   4   4   4   4
#     4  11  23  37  54  78 107 141 179 219 263 314
#     4   8  15  26  45  73 104 139 172 209 259 309
#     4   9  17  29  46  72 108 138 166 213 260 307
#     4  10  20  36  58  81 107 137 172 217 264 315
#     4   8  14  26  43  72 108 135 170 213 257 311
#     4  10  20  34  53  81 108 135 172 214 264 315
#     4  10  23  41  56  74 103 137 176 222 267 314
#     4  10  19  33  52  76 107 140 174 215 263 310
#
# _framework density 18.749002000000001
#
# number of rings (size 3 to 8) (size 9 to 14) (size 15 to 20)
#    0.000    2.500    1.250    1.875    1.750    2.500 
#    0.000    2.500    0.000    0.000    0.000    4.375 
#    0.000    0.000    0.000    0.000    0.000    0.000 
#
# Total GULP energy -396770.920040 kJ/mol
# GULP energy per Si atom -12399.091251 kJ/mol
# Density = 1.870633 g / cm^3
# Si number density = 18.749002 Si / 1000 Ang^3
#
#
#
# Elastic Constant Matrix: (Units=GPa)
#
#
# Indices 1 2 3 4 5 6 
#
# 1 101.5101 20.5757 32.6483 0.0000 16.0954 0.0000
# 2 20.5757 30.9336 26.2785 0.0000 -1.7262 0.0000
# 3 32.6483 26.2785 122.5167 0.0000 7.8395 0.0000
# 4 0.0000 0.0000 0.0000 7.7450 0.0000 -4.4414
# 5 16.0954 -1.7262 7.8395 0.0000 30.9508 0.0000
# 6 0.0000 0.0000 0.0000 -4.4414 0.0000 16.8061
#
#
#
# Elastic Compliance Matrix: (Units=1/GPa)
#
#
# Indices 1 2 3 4 5 6 
#
# 1 0.012959 -0.007875 -0.001326 0.000000 -0.006842 0.000000
# 2 -0.007875 0.044920 -0.008090 0.000000 0.008649 0.000000
# 3 -0.001326 -0.008090 0.010404 0.000000 -0.002397 0.000000
# 4 0.000000 0.000000 0.000000 0.152177 0.000000 0.040216
# 5 -0.006842 0.008649 -0.002397 0.000000 0.036957 0.000000
# 6 0.000000 0.000000 0.000000 0.040216 0.000000 0.070130
#
#
# Mechanical properties :
#
#
# Convention : Reuss Voigt Hill
#
# Bulk Modulus (GPa) = 29.67244 45.99617 37.83430
# Shear Modulus (GPa) = 13.39175 22.79756 18.09465
#
# Velocity S-wave (km/s) = 2.67547 3.49081 3.10998
# Velocity P-wave (km/s) = 5.04031 6.39011 5.75492
#
# Compressibility (1/GPa) = 0.03370131
#
# Stress axis : x y z
#
# Youngs Moduli (GPa) = 77.16680 22.26161 96.11521
#
# Poissons Ratio (x) = 0.17530 0.12749
# Poissons Ratio (y) = 0.60767 0.77757
# Poissons Ratio (z) = 0.10236 0.18010
#
# Static dielectric constant tensor:
#      x y z
#    x 3.684680 0.000000 0.149070 
#    y 0.000000 2.960960 0.000000 
#    z 0.149070 0.000000 3.598690 
# 
# 
# High freq. dielectric constant tensor:
#      x y z
#    x 1.739150 0.000000 0.006210 
#    y 0.000000 1.674250 0.000000 
#    z 0.006210 0.000000 1.734880 
# 
# From -- ./inp_files/86776.got.cif
#   From: 2010.06.25/outbox.cif.g09.slc.cpg/sg10_44_cif.got.tgz:86776.got - 2010.06.27 22:07:45.
