data_PCOD8061549
_publ_section_title
;
Structure prediction by ZEFSAII (Michael W. Deem and Ramdas Pophale) SiO2 
 PCOD8061549
Probable space group: P 2/M
;
_chemical_formula_sum "Si O2"
_cell_formula_units_Z 28
_cell_length_a 11.710231
_cell_length_b 8.615773
_cell_length_c 15.441158
_cell_angle_alpha 90.000000
_cell_angle_beta 63.332561
_cell_angle_gamma 90.000000
_cell_volume 1392.180865
_symmetry_space_group_name_H-M "P 2/M"
_symmetry_group_IT_number 10
_symmetry_cell_setting 'monoclinic'
loop_
_space_group_symop_operation_xyz
x,y,z
-x,y,-z
-x,-y,-z
x,-y,z
loop_
_atom_site_type_symbol
_atom_site_label
_atom_site_fract_x
_atom_site_fract_y
_atom_site_fract_z
Si Si1 0.573871 0.321463 0.284603
Si Si2 0.514009 0.819149 0.124130
Si Si3 0.309076 0.318634 0.073660
Si Si4 0.783187 0.819289 0.324390
Si Si5 0.119165 0.321547 0.401170
Si Si6 0.326998 0.323618 0.470622
Si Si7 0.925472 0.180782 0.763351
O O1 0.574271 0.500000 0.254860
O O2 0.535479 0.216407 0.216978
O O3 0.712544 0.274065 0.272526
O O4 0.474739 0.293492 0.397175
O O5 0.391898 0.725294 0.130155
O O6 0.486437 0.000000 0.120923
O O7 0.639977 0.772045 0.027596
O O8 0.320969 0.500000 0.051697
O O9 0.161813 0.273048 0.138630
O O10 0.718586 0.791111 0.439313
O O11 0.929199 0.760900 0.275966
O O12 0.774370 0.000000 0.306149
O O13 0.105651 0.500000 0.375625
O O14 0.248410 0.293067 0.409838
O O15 0.123707 0.212676 0.316509
O O16 0.000000 0.271072 0.500000
O O17 0.305604 0.500000 0.510582
O O18 0.913107 0.000000 0.787269
#
# Coordination Sequence:
#
# PCOD8061549 Si02
#       7
#     4   4   4   4   4   4   4
#     4  11  23  39  60  85 116 156 201 245 290 347
#     4  11  22  40  65  93 123 151 187 239 294 346
#     4  11  22  39  65  93 121 153 191 236 289 352
#     4  11  24  39  56  81 117 158 200 247 294 347
#     4  10  19  33  56  83 114 151 191 238 293 352
#     4  10  21  37  57  83 114 152 197 244 293 348
#     4  11  23  38  57  85 120 157 197 244 300 351
#
# _framework density 20.112328000000002
#
# number of rings (size 3 to 8) (size 9 to 14) (size 15 to 20)
#    0.000    1.286    1.429    6.000    0.000    6.571 
#    0.000    0.714    0.000    4.286    0.000    0.000 
#    0.000    0.000    0.000    0.000    0.000    0.000 
#
# Total GULP energy -347388.205914 kJ/mol
# GULP energy per Si atom -12406.721640 kJ/mol
# Density = 2.006655 g / cm^3
# Si number density = 20.112328 Si / 1000 Ang^3
#
#
#
# Elastic Constant Matrix: (Units=GPa)
#
#
# Indices 1 2 3 4 5 6 
#
# 1 76.0276 19.8788 28.3024 0.0000 -13.9139 0.0000
# 2 19.8788 71.7378 19.4561 0.0000 -5.0761 0.0000
# 3 28.3024 19.4561 68.5913 0.0000 -9.7533 0.0000
# 4 0.0000 0.0000 0.0000 35.5168 0.0000 1.3344
# 5 -13.9139 -5.0761 -9.7533 0.0000 24.7627 0.0000
# 6 0.0000 0.0000 0.0000 1.3344 0.0000 32.4672
#
#
#
# Elastic Compliance Matrix: (Units=1/GPa)
#
#
# Indices 1 2 3 4 5 6 
#
# 1 0.017131 -0.002823 -0.005277 0.000000 0.006969 0.000000
# 2 -0.002823 0.015619 -0.003216 0.000000 0.000349 0.000000
# 3 -0.005277 -0.003216 0.018171 0.000000 0.003533 0.000000
# 4 0.000000 0.000000 0.000000 0.028199 0.000000 -0.001159
# 5 0.006969 0.000349 0.003533 0.000000 0.045762 0.000000
# 6 0.000000 0.000000 0.000000 -0.001159 0.000000 0.030848
#
#
# Mechanical properties :
#
#
# Convention : Reuss Voigt Hill
#
# Bulk Modulus (GPa) = 35.34909 39.07014 37.20962
# Shear Modulus (GPa) = 26.62533 28.46397 27.54465
#
# Velocity S-wave (km/s) = 3.64240 3.76606 3.70475
# Velocity P-wave (km/s) = 5.94167 6.19509 6.06970
#
# Compressibility (1/GPa) = 0.02828927
#
# Stress axis : x y z
#
# Youngs Moduli (GPa) = 58.37373 64.02566 55.03243
#
# Poissons Ratio (x) = 0.18073 0.29041
# Poissons Ratio (y) = 0.16478 0.17698
# Poissons Ratio (z) = 0.30804 0.20590
#
# Static dielectric constant tensor:
#      x y z
#    x 3.713650 0.000000 -0.179740 
#    y 0.000000 3.617250 0.000000 
#    z -0.179740 0.000000 3.565550 
# 
# 
# High freq. dielectric constant tensor:
#      x y z
#    x 1.785840 0.000000 -0.010640 
#    y 0.000000 1.787940 0.000000 
#    z -0.010640 0.000000 1.779750 
# 
# From -- ./inp_files/63646.got.cif
#   From: 2010.06.25/outbox.cif.g09.slc.cpg/sg10_32_cif.got.tgz:63646.got - 2010.06.27 22:07:45.
