data_PCOD8061861
_publ_section_title
;
Structure prediction by ZEFSAII (Michael W. Deem and Ramdas Pophale) SiO2 
 PCOD8061861
Probable space group: P 2/M
;
_chemical_formula_sum "Si O2"
_cell_formula_units_Z 28
_cell_length_a 15.383376
_cell_length_b 8.767619
_cell_length_c 19.274438
_cell_angle_alpha 90.000000
_cell_angle_beta 142.542286
_cell_angle_gamma 90.000000
_cell_volume 1581.044682
_symmetry_space_group_name_H-M "P 2/M"
_symmetry_group_IT_number 10
_symmetry_cell_setting 'monoclinic'
loop_
_space_group_symop_operation_xyz
x,y,z
-x,y,-z
-x,-y,-z
x,-y,z
loop_
_atom_site_type_symbol
_atom_site_label
_atom_site_fract_x
_atom_site_fract_y
_atom_site_fract_z
Si Si1 0.618783 0.681055 0.126339
Si Si2 0.598482 0.319095 0.269558
Si Si3 0.137813 0.667520 0.134740
Si Si4 0.071672 0.679883 0.885725
Si Si5 0.926683 0.680449 0.272468
Si Si6 0.690044 0.178559 0.867945
Si Si7 0.103545 0.819870 0.503420
O O1 0.614032 0.500000 0.119726
O O2 0.586517 0.739565 0.182978
O O3 0.772835 0.739564 0.200024
O O4 0.500000 0.751826 0.000000
O O5 0.599970 0.500000 0.274656
O O6 0.464078 0.256042 0.226245
O O7 0.742958 0.256897 0.393900
O O8 0.210160 0.500000 0.187880
O O9 0.248561 0.783917 0.169946
O O10 0.077849 0.726179 0.171163
O O11 0.000000 0.651875 0.000000
O O12 0.100557 0.500000 0.911588
O O13 0.055097 0.728947 0.795788
O O14 0.207659 0.761828 0.006078
O O15 0.945116 0.500000 0.294701
O O16 0.043354 0.768763 0.391161
O O17 0.672818 0.000000 0.865044
O O18 0.000000 0.762190 0.500000
O O19 0.121224 0.000000 0.517386
#
# Coordination Sequence:
#
# PCOD8061861 Si02
#       7
#     4   4   4   4   4   4   4
#     4   9  17  29  49  77 104 130 165 211 257 301
#     4  11  21  35  56  76 101 138 182 224 259 304
#     4   8  15  30  51  76 106 140 176 213 257 310
#     4   9  18  33  55  81 109 140 176 219 261 309
#     4  10  19  34  56  79 103 135 181 222 257 306
#     4  11  21  32  50  79 113 144 174 213 266 320
#     4  11  23  38  54  74 106 140 176 220 267 313
#
# _framework density 17.709807999999999
#
# number of rings (size 3 to 8) (size 9 to 14) (size 15 to 20)
#    0.000    2.143    1.429    3.857    0.000    6.000 
#    0.000    0.000    0.000    3.000    0.000    6.000 
#    0.000    0.000    0.000    0.000    0.000    0.000 
#
# Total GULP energy -347184.652024 kJ/mol
# GULP energy per Si atom -12399.451858 kJ/mol
# Density = 1.766950 g / cm^3
# Si number density = 17.709808 Si / 1000 Ang^3
#
#
#
# Elastic Constant Matrix: (Units=GPa)
#
#
# Indices 1 2 3 4 5 6 
#
# 1 130.9570 39.7936 60.0866 0.0000 12.0767 0.0000
# 2 39.7936 65.0077 40.1316 0.0000 2.8312 0.0000
# 3 60.0866 40.1316 109.4085 0.0000 15.7067 0.0000
# 4 0.0000 0.0000 0.0000 14.2565 0.0000 1.4761
# 5 12.0767 2.8312 15.7067 0.0000 14.5963 0.0000
# 6 0.0000 0.0000 0.0000 1.4761 0.0000 19.6841
#
#
#
# Elastic Compliance Matrix: (Units=1/GPa)
#
#
# Indices 1 2 3 4 5 6 
#
# 1 0.011107 -0.004160 -0.003986 0.000000 -0.004093 0.000000
# 2 -0.004160 0.021723 -0.006591 0.000000 0.006320 0.000000
# 3 -0.003986 -0.006591 0.015481 0.000000 -0.012082 0.000000
# 4 0.000000 0.000000 0.000000 0.070692 0.000000 -0.005301
# 5 -0.004093 0.006320 -0.012082 0.000000 0.083672 0.000000
# 6 0.000000 0.000000 0.000000 -0.005301 0.000000 0.051200
#
#
# Mechanical properties :
#
#
# Convention : Reuss Voigt Hill
#
# Bulk Modulus (GPa) = 53.08696 65.04408 59.06552
# Shear Modulus (GPa) = 17.26354 20.73148 18.99751
#
# Velocity S-wave (km/s) = 3.12557 3.42515 3.27878
# Velocity P-wave (km/s) = 6.56252 7.24221 6.91073
#
# Compressibility (1/GPa) = 0.01883702
#
# Stress axis : x y z
#
# Youngs Moduli (GPa) = 90.03721 46.03514 64.59347
#
# Poissons Ratio (x) = 0.19149 0.25749
# Poissons Ratio (y) = 0.37452 0.42573
# Poissons Ratio (z) = 0.35892 0.30341
#
# Static dielectric constant tensor:
#      x y z
#    x 3.738880 0.000000 -0.113750 
#    y 0.000000 3.095920 0.000000 
#    z -0.113750 0.000000 3.158260 
# 
# 
# High freq. dielectric constant tensor:
#      x y z
#    x 1.695410 0.000000 -0.000100 
#    y 0.000000 1.670570 0.000000 
#    z -0.000100 0.000000 1.663820 
# 
# From -- ./inp_files/63491.got.cif
#   From: 2010.06.25/outbox.cif.g09.slc.cpg/sg10_32_cif.got.tgz:63491.got - 2010.06.27 22:07:45.
