data_PCOD8061749
_publ_section_title
;
Structure prediction by ZEFSAII (Michael W. Deem and Ramdas Pophale) SiO2 
 PCOD8061749
Probable space group: P 2/M
;
_chemical_formula_sum "Si O2"
_cell_formula_units_Z 32
_cell_length_a 25.293277
_cell_length_b 12.930280
_cell_length_c 10.787375
_cell_angle_alpha 90.000000
_cell_angle_beta 150.272076
_cell_angle_gamma 90.000000
_cell_volume 1749.472447
_symmetry_space_group_name_H-M "P 2/M"
_symmetry_group_IT_number 10
_symmetry_cell_setting 'monoclinic'
loop_
_space_group_symop_operation_xyz
x,y,z
-x,y,-z
-x,-y,-z
x,-y,z
loop_
_atom_site_type_symbol
_atom_site_label
_atom_site_fract_x
_atom_site_fract_y
_atom_site_fract_z
Si Si1 0.136978 0.272027 0.036525
Si Si2 0.680981 0.877575 0.657207
Si Si3 0.292081 0.883677 0.860335
Si Si4 0.378312 0.252421 0.238860
Si Si5 0.107838 0.735878 0.473047
Si Si6 0.182356 0.379151 0.869630
Si Si7 0.487236 0.882826 0.103923
Si Si8 0.874129 0.614711 0.735136
O O1 0.213321 0.172585 0.186947
O O2 0.170495 0.331847 0.230662
O O3 0.144984 0.342767 0.929730
O O4 0.014926 0.234679 0.798260
O O5 0.667967 0.838268 0.769555
O O6 0.572069 0.834609 0.372615
O O7 0.696309 0.000000 0.688008
O O8 0.171376 0.844404 0.601134
O O9 0.289354 0.000000 0.911125
O O10 0.362778 0.799942 0.075736
O O11 0.361125 0.883240 0.875636
O O12 0.500000 0.285504 0.500000
O O13 0.308402 0.356115 0.112927
O O14 0.120345 0.677892 0.630873
O O15 0.155843 0.670897 0.455175
O O16 0.159263 0.500000 0.810179
O O17 0.528858 0.000000 0.175416
O O18 0.500000 0.822974 0.000000
O O19 0.824052 0.500000 0.627188
O O20 0.000000 0.607675 0.000000
#
# Coordination Sequence:
#
# PCOD8061749 Si02
#       8
#     4   4   4   4   4   4   4   4
#     4  10  21  35  53  80 109 139 176 214 260 316
#     4  10  20  33  53  78 106 140 175 214 258 308
#     4  10  20  33  53  78 106 140 175 214 258 308
#     4  10  19  34  54  78 104 134 174 219 264 311
#     4  10  21  35  53  80 109 139 176 214 260 316
#     4  10  21  36  56  80 104 135 175 220 268 315
#     4   9  18  31  49  73  98 134 179 215 251 295
#     4   9  18  34  55  76 101 136 177 220 261 304
#
# _framework density 18.291229000000001
#
# number of rings (size 3 to 8) (size 9 to 14) (size 15 to 20)
#    0.000    2.250    1.250    1.500    1.750    3.250 
#    0.000    0.000    0.000    6.750    0.000    0.875 
#    0.000    0.000    0.000    0.000    0.000    0.000 
#
# Total GULP energy -396482.224422 kJ/mol
# GULP energy per Si atom -12390.069513 kJ/mol
# Density = 1.824960 g / cm^3
# Si number density = 18.291229 Si / 1000 Ang^3
#
#
#
# Elastic Constant Matrix: (Units=GPa)
#
#
# Indices 1 2 3 4 5 6 
#
# 1 88.8937 17.0711 16.7637 0.0000 -6.4277 0.0000
# 2 17.0711 56.6539 16.6584 0.0000 9.0673 0.0000
# 3 16.7637 16.6584 66.8059 0.0000 17.2578 0.0000
# 4 0.0000 0.0000 0.0000 15.9866 0.0000 0.6415
# 5 -6.4277 9.0673 17.2578 0.0000 36.9095 0.0000
# 6 0.0000 0.0000 0.0000 0.6415 0.0000 15.3373
#
#
#
# Elastic Compliance Matrix: (Units=1/GPa)
#
#
# Indices 1 2 3 4 5 6 
#
# 1 0.012974 -0.003624 -0.003600 0.000000 0.004833 0.000000
# 2 -0.003624 0.020317 -0.003076 0.000000 -0.004184 0.000000
# 3 -0.003600 -0.003076 0.018887 0.000000 -0.008703 0.000000
# 4 0.000000 0.000000 0.000000 0.062657 0.000000 -0.002621
# 5 0.004833 -0.004184 -0.008703 0.000000 0.033032 0.000000
# 6 0.000000 0.000000 0.000000 -0.002621 0.000000 0.065310
#
#
# Mechanical properties :
#
#
# Convention : Reuss Voigt Hill
#
# Bulk Modulus (GPa) = 31.66824 34.81555 33.24190
# Shear Modulus (GPa) = 20.46625 24.43735 22.45180
#
# Velocity S-wave (km/s) = 3.34864 3.65912 3.50732
# Velocity P-wave (km/s) = 5.68350 6.07680 5.88344
#
# Compressibility (1/GPa) = 0.03157738
#
# Stress axis : x y z
#
# Youngs Moduli (GPa) = 77.07830 49.21942 52.94567
#
# Poissons Ratio (x) = 0.17838 0.19062
# Poissons Ratio (y) = 0.27935 0.16286
# Poissons Ratio (z) = 0.27751 0.15139
#
# Static dielectric constant tensor:
#      x y z
#    x 3.529380 0.000000 -0.138770 
#    y 0.000000 3.187880 0.000000 
#    z -0.138770 0.000000 3.477480 
# 
# 
# High freq. dielectric constant tensor:
#      x y z
#    x 1.722560 0.000000 -0.004840 
#    y 0.000000 1.685730 0.000000 
#    z -0.004840 0.000000 1.704520 
# 
# From -- ./inp_files/57671.got.cif
#   From: 2010.06.25/outbox.cif.g09.slc.cpg/sg10_29_cif.got.tgz:57671.got - 2010.06.27 22:07:45.
