data_PCOD8061832
_publ_section_title
;
Structure prediction by ZEFSAII (Michael W. Deem and Ramdas Pophale) SiO2 
 PCOD8061832
Probable space group: P 2/M
;
_chemical_formula_sum "Si O2"
_cell_formula_units_Z 32
_cell_length_a 9.551624
_cell_length_b 14.228181
_cell_length_c 12.606961
_cell_angle_alpha 90.000000
_cell_angle_beta 91.420288
_cell_angle_gamma 90.000000
_cell_volume 1712.787806
_symmetry_space_group_name_H-M "P 2/M"
_symmetry_group_IT_number 10
_symmetry_cell_setting 'monoclinic'
loop_
_space_group_symop_operation_xyz
x,y,z
-x,y,-z
-x,-y,-z
x,-y,z
loop_
_atom_site_type_symbol
_atom_site_label
_atom_site_fract_x
_atom_site_fract_y
_atom_site_fract_z
Si Si1 0.651750 0.897362 0.778924
Si Si2 0.860869 0.390946 0.282795
Si Si3 0.648716 0.701272 0.867355
Si Si4 0.835864 0.724417 0.486585
Si Si5 0.322663 0.297331 0.894362
Si Si6 0.344001 0.893094 0.467863
Si Si7 0.182676 0.608068 0.309696
Si Si8 0.393572 0.898721 0.900999
O O1 0.708671 0.807307 0.845733
O O2 0.682314 0.880579 0.657014
O O3 0.484474 0.903752 0.794956
O O4 0.716664 0.000000 0.815529
O O5 0.831175 0.500000 0.301710
O O6 0.799564 0.335837 0.382174
O O7 0.783042 0.358273 0.175583
O O8 0.024622 0.370191 0.270104
O O9 0.480849 0.695023 0.853231
O O10 0.713823 0.629520 0.784879
O O11 0.692883 0.667485 0.985170
O O12 0.762625 0.825353 0.472695
O O13 0.775932 0.669789 0.587575
O O14 0.000000 0.740988 0.500000
O O15 0.281731 0.185665 0.889984
O O16 0.500000 0.861818 0.500000
O O17 0.315486 0.000000 0.504039
O O18 0.198703 0.500000 0.343389
O O19 0.319196 0.000000 0.919401
O O20 0.500000 0.874167 0.000000
#
# Coordination Sequence:
#
# PCOD8061832 Si02
#       8
#     4   4   4   4   4   4   4   4
#     4   9  16  29  50  76 109 144 177 212 258 320
#     4  10  23  40  57  77 106 145 185 230 283 331
#     4  10  19  34  55  83 111 141 182 223 269 323
#     4  10  21  38  60  81 107 141 185 232 275 322
#     4  10  20  34  54  83 116 141 177 227 277 318
#     4  10  21  34  53  85 117 145 177 219 270 327
#     4  10  21  39  60  79 100 138 190 233 275 332
#     4   9  15  27  50  79 107 139 177 212 254 313
#
# _framework density 18.682991000000001
#
# number of rings (size 3 to 8) (size 9 to 14) (size 15 to 20)
#    0.000    2.250    3.750    0.375    3.500    3.250 
#    0.000    2.500    0.000    3.750    0.000    1.750 
#    0.000    0.000    0.000    0.000    0.000    0.000 
#
# Total GULP energy -396628.890260 kJ/mol
# GULP energy per Si atom -12394.652821 kJ/mol
# Density = 1.864047 g / cm^3
# Si number density = 18.682991 Si / 1000 Ang^3
#
#
#
# Elastic Constant Matrix: (Units=GPa)
#
#
# Indices 1 2 3 4 5 6 
#
# 1 39.6656 33.3194 33.2839 0.0000 -1.5001 0.0000
# 2 33.3194 93.2578 35.5160 0.0000 -1.1689 0.0000
# 3 33.2839 35.5160 84.8626 0.0000 -3.7612 0.0000
# 4 0.0000 0.0000 0.0000 28.1519 0.0000 -0.8042
# 5 -1.5001 -1.1689 -3.7612 0.0000 26.3954 0.0000
# 6 0.0000 0.0000 0.0000 -0.8042 0.0000 27.5878
#
#
#
# Elastic Compliance Matrix: (Units=1/GPa)
#
#
# Indices 1 2 3 4 5 6 
#
# 1 0.045840 -0.011339 -0.013224 0.000000 0.000219 0.000000
# 2 -0.011339 0.015562 -0.002077 0.000000 -0.000251 0.000000
# 3 -0.013224 -0.002077 0.017915 0.000000 0.001709 0.000000
# 4 0.000000 0.000000 0.000000 0.035551 0.000000 0.001036
# 5 0.000219 -0.000251 0.001709 0.000000 0.038130 0.000000
# 6 0.000000 0.000000 0.000000 0.001036 0.000000 0.036278
#
#
# Mechanical properties :
#
#
# Convention : Reuss Voigt Hill
#
# Bulk Modulus (GPa) = 38.40511 46.89162 42.64837
# Shear Modulus (GPa) = 19.90169 24.13814 22.01991
#
# Velocity S-wave (km/s) = 3.26733 3.59832 3.43681
# Velocity P-wave (km/s) = 5.90209 6.51283 6.21497
#
# Compressibility (1/GPa) = 0.02603820
#
# Stress axis : x y z
#
# Youngs Moduli (GPa) = 21.81497 64.25922 55.81889
#
# Poissons Ratio (x) = 0.72864 0.73813
# Poissons Ratio (y) = 0.24736 0.11592
# Poissons Ratio (z) = 0.28847 0.13345
#
# Static dielectric constant tensor:
#      x y z
#    x 3.032500 0.000000 -0.151770 
#    y 0.000000 3.627730 0.000000 
#    z -0.151770 0.000000 3.492880 
# 
# 
# High freq. dielectric constant tensor:
#      x y z
#    x 1.673710 0.000000 -0.015680 
#    y 0.000000 1.741090 0.000000 
#    z -0.015680 0.000000 1.732700 
# 
# From -- ./inp_files/29526.got.cif
#   From: 2010.06.25/outbox.cif.g09.slc.cpg/sg10_15_cif.got.tgz:29526.got - 2010.06.27 22:07:45.
