data_PCOD8061410
_publ_section_title
;
Structure prediction by ZEFSAII (Michael W. Deem and Ramdas Pophale) SiO2 
 PCOD8061410
Probable space group: P 2/M
;
_chemical_formula_sum "Si O2"
_cell_formula_units_Z 20
_cell_length_a 10.859500
_cell_length_b 12.907541
_cell_length_c 14.588618
_cell_angle_alpha 90.000000
_cell_angle_beta 151.496368
_cell_angle_gamma 90.000000
_cell_volume 975.845575
_symmetry_space_group_name_H-M "P 2/M"
_symmetry_group_IT_number 10
_symmetry_cell_setting 'monoclinic'
loop_
_space_group_symop_operation_xyz
x,y,z
-x,y,-z
-x,-y,-z
x,-y,z
loop_
_atom_site_type_symbol
_atom_site_label
_atom_site_fract_x
_atom_site_fract_y
_atom_site_fract_z
Si Si1 0.887695 0.879365 0.757193
Si Si2 0.300625 0.314481 0.792034
Si Si3 0.467580 0.882185 0.133475
Si Si4 0.270776 0.382176 0.571441
Si Si5 0.488618 0.808104 0.347921
O O1 0.711609 0.854537 0.556285
O O2 0.786821 0.820067 0.782151
O O3 0.881288 0.000000 0.776969
O O4 0.176787 0.844066 0.921833
O O5 0.340259 0.191860 0.797607
O O6 0.344139 0.378596 0.726916
O O7 0.009303 0.333474 0.633605
O O8 0.500000 0.354051 0.000000
O O9 0.509400 0.873887 0.269097
O O10 0.519262 0.000000 0.135400
O O11 0.283158 0.500000 0.545073
O O12 0.473520 0.314285 0.646352
#
# Coordination Sequence:
#
# PCOD8061410 Si02
#       5
#     4   4   4   4   4
#     4  10  19  33  55  80 108 140 169 199 247 312
#     4  10  20  36  56  77 102 135 173 213 257 309
#     4  10  20  33  52  79 109 138 167 205 253 305
#     4  10  22  38  55  75 100 134 176 221 262 299
#     4  10  19  34  54  77 105 137 174 211 250 302
#
# _framework density 20.495045999999999
#
# number of rings (size 3 to 8) (size 9 to 14) (size 15 to 20)
#    0.000    2.000    0.000    5.400    0.000    3.600 
#    0.000   12.000    0.000   10.800    0.000    0.000 
#    0.000    0.000    0.000    0.000    0.000    0.000 
#
# Total GULP energy -248025.397228 kJ/mol
# GULP energy per Si atom -12401.269861 kJ/mol
# Density = 2.044840 g / cm^3
# Si number density = 20.495046 Si / 1000 Ang^3
#
#
#
# Elastic Constant Matrix: (Units=GPa)
#
#
# Indices 1 2 3 4 5 6 
#
# 1 20.5715 19.0049 13.5203 0.0000 -2.8094 0.0000
# 2 19.0049 121.8315 27.0943 0.0000 26.7214 0.0000
# 3 13.5203 27.0943 99.7156 0.0000 -15.8617 0.0000
# 4 0.0000 0.0000 0.0000 17.3615 0.0000 7.1992
# 5 -2.8094 26.7214 -15.8617 0.0000 19.4514 0.0000
# 6 0.0000 0.0000 0.0000 7.1992 0.0000 21.0209
#
#
#
# Elastic Compliance Matrix: (Units=1/GPa)
#
#
# Indices 1 2 3 4 5 6 
#
# 1 0.071619 -0.020569 0.002319 0.000000 0.040492 0.000000
# 2 -0.020569 0.023273 -0.010448 0.000000 -0.043462 0.000000
# 3 0.002319 -0.010448 0.017109 0.000000 0.028639 0.000000
# 4 0.000000 0.000000 0.000000 0.067132 0.000000 -0.022991
# 5 0.040492 -0.043462 0.028639 0.000000 0.140318 0.000000
# 6 0.000000 0.000000 0.000000 -0.022991 0.000000 0.055446
#
#
# Mechanical properties :
#
#
# Convention : Reuss Voigt Hill
#
# Bulk Modulus (GPa) = 18.31344 40.15085 29.23214
# Shear Modulus (GPa) = 11.09892 23.73336 17.41614
#
# Velocity S-wave (km/s) = 2.32963 3.40664 2.91825
# Velocity P-wave (km/s) = 4.02383 5.92508 5.06447
#
# Compressibility (1/GPa) = 0.05460471
#
# Stress axis : x y z
#
# Youngs Moduli (GPa) = 13.96274 42.96877 58.45026
#
# Poissons Ratio (x) = 0.88383 -0.13556
# Poissons Ratio (y) = 0.28720 0.61069
# Poissons Ratio (z) = -0.03238 0.44894
#
# Static dielectric constant tensor:
#      x y z
#    x 3.654170 0.000000 -0.021640 
#    y 0.000000 3.937880 0.000000 
#    z -0.021640 0.000000 3.938250 
# 
# 
# High freq. dielectric constant tensor:
#      x y z
#    x 1.787680 0.000000 -0.008780 
#    y 0.000000 1.788680 0.000000 
#    z -0.008780 0.000000 1.812670 
# 
# From -- ./inp_files/50939.got.cif
#   From: 2010.06.25/outbox.cif.g09.slc.cpg/sg10_26_cif.got.tgz:50939.got - 2010.06.27 22:07:45.
