data_PCOD8061709
_publ_section_title
;
Structure prediction by ZEFSAII (Michael W. Deem and Ramdas Pophale) SiO2 
 PCOD8061709
Probable space group: P 2/M
;
_chemical_formula_sum "Si O2"
_cell_formula_units_Z 22
_cell_length_a 27.776870
_cell_length_b 8.790205
_cell_length_c 5.177606
_cell_angle_alpha 90.000000
_cell_angle_beta 112.115575
_cell_angle_gamma 90.000000
_cell_volume 1171.176087
_symmetry_space_group_name_H-M "P 2/M"
_symmetry_group_IT_number 10
_symmetry_cell_setting 'monoclinic'
loop_
_space_group_symop_operation_xyz
x,y,z
-x,y,-z
-x,-y,-z
x,-y,z
loop_
_atom_site_type_symbol
_atom_site_label
_atom_site_fract_x
_atom_site_fract_y
_atom_site_fract_z
Si Si1 0.296612 0.180955 0.841484
Si Si2 0.532600 0.677478 0.315554
Si Si3 0.134690 0.331349 0.986979
Si Si4 0.035232 0.500000 0.821041
Si Si5 0.178345 0.179755 0.576338
Si Si6 0.644475 0.819580 0.539151
O O1 0.237434 0.237715 0.721207
O O2 0.326649 0.247087 0.653776
O O3 0.298110 0.000000 0.840668
O O4 0.325477 0.246341 0.151658
O O5 0.500000 0.724344 0.500000
O O6 0.546115 0.500000 0.341034
O O7 0.585264 0.770363 0.423293
O O8 0.500000 0.725786 0.000000
O O9 0.160741 0.500000 0.054761
O O10 0.157464 0.223120 0.252667
O O11 0.072228 0.349836 0.894734
O O12 0.144398 0.259521 0.726908
O O13 0.000000 0.500000 0.500000
O O14 0.000000 0.500000 0.000000
O O15 0.174311 0.000000 0.602562
O O16 0.646820 0.000000 0.544344
#
# Coordination Sequence:
#
# PCOD8061709 Si02
#       6
#     4   4   4   2   4   4
#     4   9  19  33  53  77 108 144 172 213 271 336
#     4  10  21  36  52  70  98 132 168 213 270 329
#     4  10  22  36  59  88 115 149 199 243 274 337
#     4  10  20  38  64  84 112 160 202 234 284 342
#     4  11  20  37  60  86 119 156 191 230 292 347
#     4  10  19  34  53  76 100 130 178 219 260 320
#
# _framework density 18.784537
#
# number of rings (size 3 to 8) (size 9 to 14) (size 15 to 20)
#    0.545    1.455    0.000    4.364    0.000    3.636 
#    0.000    5.455    0.000   10.909    0.000    0.000 
#    0.000    0.000    0.000    0.000    0.000    0.000 
#
# Total GULP energy -272804.590680 kJ/mol
# GULP energy per Si atom -12400.208667 kJ/mol
# Density = 1.874178 g / cm^3
# Si number density = 18.784537 Si / 1000 Ang^3
#
#
#
# Elastic Constant Matrix: (Units=GPa)
#
#
# Indices 1 2 3 4 5 6 
#
# 1 121.2252 28.6116 55.8921 0.0000 -3.8440 0.0000
# 2 28.6116 40.4962 17.5535 0.0000 -2.6075 0.0000
# 3 55.8921 17.5535 143.1488 0.0000 -5.3824 0.0000
# 4 0.0000 0.0000 0.0000 27.1306 0.0000 1.7115
# 5 -3.8440 -2.6075 -5.3824 0.0000 41.8346 0.0000
# 6 0.0000 0.0000 0.0000 1.7115 0.0000 41.3054
#
#
#
# Elastic Compliance Matrix: (Units=1/GPa)
#
#
# Indices 1 2 3 4 5 6 
#
# 1 0.011488 -0.006510 -0.003681 0.000000 0.000176 0.000000
# 2 -0.006510 0.029831 -0.001074 0.000000 0.001123 0.000000
# 3 -0.003681 -0.001074 0.008581 0.000000 0.000699 0.000000
# 4 0.000000 0.000000 0.000000 0.036955 0.000000 -0.001531
# 5 0.000176 0.001123 0.000699 0.000000 0.024080 0.000000
# 6 0.000000 0.000000 0.000000 -0.001531 0.000000 0.024273
#
#
# Mechanical properties :
#
#
# Convention : Reuss Voigt Hill
#
# Bulk Modulus (GPa) = 36.53521 56.55384 46.54452
# Shear Modulus (GPa) = 29.96503 35.57498 32.77000
#
# Velocity S-wave (km/s) = 3.99832 4.35655 4.18128
# Velocity P-wave (km/s) = 6.38806 7.44836 6.93849
#
# Compressibility (1/GPa) = 0.02737086
#
# Stress axis : x y z
#
# Youngs Moduli (GPa) = 87.04609 33.52220 116.53921
#
# Poissons Ratio (x) = 0.21823 0.42894
# Poissons Ratio (y) = 0.56666 0.12516
# Poissons Ratio (z) = 0.32038 0.03600
#
# Static dielectric constant tensor:
#      x y z
#    x 3.499980 0.000000 -0.065000 
#    y 0.000000 3.153600 0.000000 
#    z -0.065000 0.000000 3.573090 
# 
# 
# High freq. dielectric constant tensor:
#      x y z
#    x 1.738600 0.000000 -0.007550 
#    y 0.000000 1.702190 0.000000 
#    z -0.007550 0.000000 1.749120 
# 
# From -- ./inp_files/13021.got.cif
#   From: 2010.06.25/outbox.cif.g09.slc.cpg/sg10_7_cif.got.tgz:13021.got - 2010.06.27 22:07:45.
