data_PCOD8061520
_publ_section_title
;
Structure prediction by ZEFSAII (Michael W. Deem and Ramdas Pophale) SiO2 
 PCOD8061520
Probable space group: P 2/M
;
_chemical_formula_sum "Si O2"
_cell_formula_units_Z 28
_cell_length_a 12.342799
_cell_length_b 9.013058
_cell_length_c 14.924579
_cell_angle_alpha 90.000000
_cell_angle_beta 105.582477
_cell_angle_gamma 90.000000
_cell_volume 1599.280234
_symmetry_space_group_name_H-M "P 2/M"
_symmetry_group_IT_number 10
_symmetry_cell_setting 'monoclinic'
loop_
_space_group_symop_operation_xyz
x,y,z
-x,y,-z
-x,-y,-z
x,-y,z
loop_
_atom_site_type_symbol
_atom_site_label
_atom_site_fract_x
_atom_site_fract_y
_atom_site_fract_z
Si Si1 0.412756 0.826335 0.607952
Si Si2 0.616110 0.673536 0.217925
Si Si3 0.260492 0.175610 0.912547
Si Si4 0.341487 0.827581 0.398090
Si Si5 0.203922 0.672308 0.225736
Si Si6 0.967178 0.671009 0.093894
Si Si7 0.363769 0.326175 0.103352
O O1 0.362065 0.729438 0.676607
O O2 0.338581 0.792339 0.503253
O O3 0.540485 0.774963 0.617911
O O4 0.408480 0.000000 0.631133
O O5 0.642277 0.500000 0.217710
O O6 0.701486 0.761175 0.174153
O O7 0.489102 0.710483 0.161834
O O8 0.132090 0.221836 0.898891
O O9 0.270355 0.000000 0.914667
O O10 0.341549 0.240404 0.006744
O O11 0.238788 0.745658 0.327050
O O12 0.326203 0.000000 0.377765
O O13 0.229502 0.500000 0.239432
O O14 0.277750 0.734710 0.159388
O O15 0.073105 0.705329 0.180828
O O16 0.928290 0.500000 0.093366
O O17 0.000000 0.707707 0.000000
O O18 0.345052 0.500000 0.080921
#
# Coordination Sequence:
#
# PCOD8061520 Si02
#       7
#     4   4   4   4   4   4   4
#     4   9  18  33  52  78 112 146 177 213 265 321
#     4  11  22  36  56  79 108 146 183 221 265 317
#     4  12  25  37  53  78 109 144 184 224 265 320
#     4   9  18  32  52  79 113 146 173 214 270 321
#     4  10  19  33  56  82 108 140 180 222 265 313
#     4  10  20  38  59  76 104 143 181 224 269 312
#     4  10  20  36  54  78 110 145 180 216 265 319
#
# _framework density 17.507877000000001
#
# number of rings (size 3 to 8) (size 9 to 14) (size 15 to 20)
#    0.000    1.857    2.857    3.000    0.000    4.857 
#    0.000    1.429    0.000    0.857    0.000    6.000 
#    0.000    0.000    0.000    0.000    0.000    0.000 
#
# Total GULP energy -347296.454408 kJ/mol
# GULP energy per Si atom -12403.444800 kJ/mol
# Density = 1.746803 g / cm^3
# Si number density = 17.507877 Si / 1000 Ang^3
#
#
#
# Elastic Constant Matrix: (Units=GPa)
#
#
# Indices 1 2 3 4 5 6 
#
# 1 64.9881 38.6348 40.1506 0.0000 -6.7518 0.0000
# 2 38.6348 76.1079 52.8581 0.0000 -3.9670 0.0000
# 3 40.1506 52.8581 126.7413 0.0000 -1.8983 0.0000
# 4 0.0000 0.0000 0.0000 34.9574 0.0000 -2.7502
# 5 -6.7518 -3.9670 -1.8983 0.0000 22.5422 0.0000
# 6 0.0000 0.0000 0.0000 -2.7502 0.0000 20.4695
#
#
#
# Elastic Compliance Matrix: (Units=1/GPa)
#
#
# Indices 1 2 3 4 5 6 
#
# 1 0.023615 -0.009259 -0.003542 0.000000 0.005145 0.000000
# 2 -0.009259 0.022282 -0.006350 0.000000 0.000613 0.000000
# 3 -0.003542 -0.006350 0.011643 0.000000 -0.001198 0.000000
# 4 0.000000 0.000000 0.000000 0.028912 0.000000 0.003885
# 5 0.005145 0.000613 -0.001198 0.000000 0.045909 0.000000
# 6 0.000000 0.000000 0.000000 0.003885 0.000000 0.049375
#
#
# Mechanical properties :
#
#
# Convention : Reuss Voigt Hill
#
# Bulk Modulus (GPa) = 51.98656 59.01382 55.50019
# Shear Modulus (GPa) = 22.07970 24.67339 23.37655
#
# Velocity S-wave (km/s) = 3.55509 3.75810 3.65801
# Velocity P-wave (km/s) = 6.82710 7.25336 7.04346
#
# Compressibility (1/GPa) = 0.01923574
#
# Stress axis : x y z
#
# Youngs Moduli (GPa) = 42.34571 44.87934 85.89030
#
# Poissons Ratio (x) = 0.41556 0.30425
# Poissons Ratio (y) = 0.39210 0.54543
# Poissons Ratio (z) = 0.15000 0.28500
#
# Static dielectric constant tensor:
#      x y z
#    x 3.138520 0.000000 -0.005080 
#    y 0.000000 3.148630 0.000000 
#    z -0.005080 0.000000 3.299570 
# 
# 
# High freq. dielectric constant tensor:
#      x y z
#    x 1.658110 0.000000 0.000400 
#    y 0.000000 1.672830 0.000000 
#    z 0.000400 0.000000 1.681370 
# 
# From -- ./inp_files/49171.got.cif
#   From: 2010.06.25/outbox.cif.g09.slc.cpg/sg10_25_cif.got.tgz:49171.got - 2010.06.27 22:07:45.
