data_PCOD8061373
_publ_section_title
;
Structure prediction by ZEFSAII (Michael W. Deem and Ramdas Pophale) SiO2 
 PCOD8061373
Probable space group: P 2/M
;
_chemical_formula_sum "Si O2"
_cell_formula_units_Z 32
_cell_length_a 14.411736
_cell_length_b 8.792405
_cell_length_c 22.466250
_cell_angle_alpha 90.000000
_cell_angle_beta 36.967540
_cell_angle_gamma 90.000000
_cell_volume 1711.949276
_symmetry_space_group_name_H-M "P 2/M"
_symmetry_group_IT_number 10
_symmetry_cell_setting 'monoclinic'
loop_
_space_group_symop_operation_xyz
x,y,z
-x,y,-z
-x,-y,-z
x,-y,z
loop_
_atom_site_type_symbol
_atom_site_label
_atom_site_fract_x
_atom_site_fract_y
_atom_site_fract_z
Si Si1 0.429666 0.319948 0.676399
Si Si2 0.764418 0.678757 0.783554
Si Si3 0.152184 0.679890 0.388583
Si Si4 0.135892 0.679466 0.140909
Si Si5 0.822413 0.177637 0.277925
Si Si6 0.526374 0.179326 0.746601
Si Si7 0.435281 0.678620 0.911791
Si Si8 0.350840 0.666804 0.535935
O O1 0.418075 0.500000 0.691357
O O2 0.279152 0.265962 0.718106
O O3 0.433578 0.235141 0.736755
O O4 0.587884 0.277059 0.559732
O O5 0.761412 0.500000 0.793454
O O6 0.858975 0.725550 0.675629
O O7 0.843217 0.745293 0.802604
O O8 0.587910 0.735600 0.868448
O O9 0.169568 0.500000 0.386925
O O10 0.301517 0.753356 0.341957
O O11 0.000000 0.740761 0.500000
O O12 0.101621 0.500000 0.157402
O O13 0.997634 0.768782 0.180235
O O14 0.288716 0.720464 0.026176
O O15 0.768978 0.216500 0.373049
O O16 0.806278 0.000000 0.274804
O O17 0.426065 0.234581 0.854001
O O18 0.538122 0.000000 0.740576
O O19 0.446679 0.500000 0.892255
O O20 0.500000 0.650466 0.500000
O O21 0.270824 0.500000 0.571648
#
# Coordination Sequence:
#
# PCOD8061373 Si02
#       8
#     4   4   4   4   4   4   4   4
#     4  10  20  37  59  78 101 139 186 225 257 307
#     4   8  15  30  54  81 104 131 175 223 260 300
#     4   9  18  34  55  80 111 146 183 219 254 303
#     4  10  19  33  55  79 104 138 180 225 269 312
#     4  11  22  34  50  78 115 144 171 215 268 319
#     4  11  22  35  54  80 110 141 173 216 273 330
#     4   9  18  35  57  78 101 134 180 227 266 313
#     4   8  16  32  53  74  97 131 173 213 252 299
#
# _framework density 18.692142
#
# number of rings (size 3 to 8) (size 9 to 14) (size 15 to 20)
#    0.000    2.500    0.000    4.500    0.000    6.000 
#    0.000    5.625    0.000    7.500    0.000    0.000 
#    0.000    0.000    0.000    0.000    0.000    0.000 
#
# Total GULP energy -396728.866188 kJ/mol
# GULP energy per Si atom -12397.777068 kJ/mol
# Density = 1.864960 g / cm^3
# Si number density = 18.692142 Si / 1000 Ang^3
#
#
#
# Elastic Constant Matrix: (Units=GPa)
#
#
# Indices 1 2 3 4 5 6 
#
# 1 90.3194 23.2342 54.7662 0.0000 10.9003 0.0000
# 2 23.2342 56.5598 37.1239 0.0000 -2.0247 0.0000
# 3 54.7662 37.1239 119.0941 0.0000 0.3625 0.0000
# 4 0.0000 0.0000 0.0000 12.7815 0.0000 -1.0277
# 5 10.9003 -2.0247 0.3625 0.0000 24.4254 0.0000
# 6 0.0000 0.0000 0.0000 -1.0277 0.0000 12.2456
#
#
#
# Elastic Compliance Matrix: (Units=1/GPa)
#
#
# Indices 1 2 3 4 5 6 
#
# 1 0.016866 -0.002674 -0.006899 0.000000 -0.007646 0.000000
# 2 -0.002674 0.022745 -0.005870 0.000000 0.003166 0.000000
# 3 -0.006899 -0.005870 0.013392 0.000000 0.002394 0.000000
# 4 0.000000 0.000000 0.000000 0.078770 0.000000 0.006611
# 5 -0.007646 0.003166 0.002394 0.000000 0.044580 0.000000
# 6 0.000000 0.000000 0.000000 0.006611 0.000000 0.082217
#
#
# Mechanical properties :
#
#
# Convention : Reuss Voigt Hill
#
# Bulk Modulus (GPa) = 45.21466 55.13578 50.17522
# Shear Modulus (GPa) = 16.84481 19.94710 18.39596
#
# Velocity S-wave (km/s) = 3.00521 3.27025 3.14053
# Velocity P-wave (km/s) = 6.02357 6.61968 6.32865
#
# Compressibility (1/GPa) = 0.02211672
#
# Stress axis : x y z
#
# Youngs Moduli (GPa) = 59.29183 43.96571 74.67204
#
# Poissons Ratio (x) = 0.11755 0.51517
# Poissons Ratio (y) = 0.15852 0.43834
# Poissons Ratio (z) = 0.40906 0.25809
#
# Static dielectric constant tensor:
#      x y z
#    x 3.401520 0.000000 0.144170 
#    y 0.000000 3.196600 0.000000 
#    z 0.144170 0.000000 3.631550 
# 
# 
# High freq. dielectric constant tensor:
#      x y z
#    x 1.718220 0.000000 0.005660 
#    y 0.000000 1.703950 0.000000 
#    z 0.005660 0.000000 1.727210 
# 
# From -- ./inp_files/84700.got.cif
#   From: 2010.06.25/outbox.cif.g09.slc.cpg/sg10_43_cif.got.tgz:84700.got - 2010.06.27 22:07:45.
