data_PCOD8061424
_publ_section_title
;
Structure prediction by ZEFSAII (Michael W. Deem and Ramdas Pophale) SiO2 
 PCOD8061424
Probable space group: P 2/M
;
_chemical_formula_sum "Si O2"
_cell_formula_units_Z 32
_cell_length_a 29.768619
_cell_length_b 13.609562
_cell_length_c 10.248263
_cell_angle_alpha 90.000000
_cell_angle_beta 152.607806
_cell_angle_gamma 90.000000
_cell_volume 1910.228599
_symmetry_space_group_name_H-M "P 2/M"
_symmetry_group_IT_number 10
_symmetry_cell_setting 'monoclinic'
loop_
_space_group_symop_operation_xyz
x,y,z
-x,y,-z
-x,-y,-z
x,-y,z
loop_
_atom_site_type_symbol
_atom_site_label
_atom_site_fract_x
_atom_site_fract_y
_atom_site_fract_z
Si Si1 0.525191 0.887330 0.715847
Si Si2 0.210244 0.115280 0.258749
Si Si3 0.183365 0.113957 0.704658
Si Si4 0.724110 0.799697 0.305535
Si Si5 0.680408 0.883713 0.715131
Si Si6 0.161713 0.610444 0.399431
Si Si7 0.016088 0.389831 0.252049
Si Si8 0.995267 0.197082 0.336531
O O1 0.500000 0.879010 0.500000
O O2 0.432065 0.851358 0.559452
O O3 0.554380 0.000000 0.825050
O O4 0.612842 0.813645 0.974112
O O5 0.262531 0.138183 0.528923
O O6 0.279722 0.153680 0.320897
O O7 0.189995 0.000000 0.192626
O O8 0.109382 0.173088 0.992562
O O9 0.201398 0.163254 0.612098
O O10 0.071720 0.129840 0.456562
O O11 0.206122 0.000000 0.746443
O O12 0.253971 0.160394 0.998007
O O13 0.747943 0.684647 0.388918
O O14 0.687620 0.000000 0.742762
O O15 0.203235 0.500000 0.492391
O O16 0.113119 0.624237 0.415924
O O17 0.079550 0.630714 0.080010
O O18 0.013365 0.500000 0.303405
O O19 0.019307 0.312211 0.378215
O O20 0.000000 0.169902 0.500000
#
# Coordination Sequence:
#
# PCOD8061424 Si02
#       8
#     4   4   4   4   4   4   4   4
#     4  10  19  33  55  81 106 138 181 221 258 306
#     4  11  23  35  49  77 114 145 177 215 255 312
#     4  11  21  33  51  76 110 149 179 208 253 317
#     4  12  21  34  56  82 103 134 180 228 265 304
#     4   9  19  36  52  71 106 148 183 214 254 303
#     4   9  18  34  56  76 101 134 170 218 275 322
#     4   9  18  35  53  74 102 134 177 225 265 309
#     4  12  22  33  52  77 107 149 181 207 261 325
#
# _framework density 16.751920999999999
#
# number of rings (size 3 to 8) (size 9 to 14) (size 15 to 20)
#    0.000    1.625    5.000    2.250    0.000    1.750 
#    0.000    3.125    0.000    0.375    0.000    2.625 
#    0.000    0.000    0.000    0.000    0.000    0.000 
#
# Total GULP energy -396839.711743 kJ/mol
# GULP energy per Si atom -12401.240992 kJ/mol
# Density = 1.671379 g / cm^3
# Si number density = 16.751921 Si / 1000 Ang^3
#
#
#
# Elastic Constant Matrix: (Units=GPa)
#
#
# Indices 1 2 3 4 5 6 
#
# 1 94.9883 14.7506 26.1711 0.0000 1.0594 0.0000
# 2 14.7506 67.0999 18.4588 0.0000 4.7719 0.0000
# 3 26.1711 18.4588 69.9040 0.0000 11.3760 0.0000
# 4 0.0000 0.0000 0.0000 22.2296 0.0000 1.1902
# 5 1.0594 4.7719 11.3760 0.0000 31.4813 0.0000
# 6 0.0000 0.0000 0.0000 1.1902 0.0000 20.3807
#
#
#
# Elastic Compliance Matrix: (Units=1/GPa)
#
#
# Indices 1 2 3 4 5 6 
#
# 1 0.011932 -0.001543 -0.004285 0.000000 0.001381 0.000000
# 2 -0.001543 0.016297 -0.003541 0.000000 -0.001139 0.000000
# 3 -0.004285 -0.003541 0.017779 0.000000 -0.005744 0.000000
# 4 0.000000 0.000000 0.000000 0.045126 0.000000 -0.002635
# 5 0.001381 -0.001139 -0.005744 0.000000 0.033967 0.000000
# 6 0.000000 0.000000 0.000000 -0.002635 0.000000 0.049220
#
#
# Mechanical properties :
#
#
# Convention : Reuss Voigt Hill
#
# Bulk Modulus (GPa) = 36.66622 38.97259 37.81941
# Shear Modulus (GPa) = 24.73440 26.32577 25.53009
#
# Velocity S-wave (km/s) = 3.84671 3.96853 3.90809
# Velocity P-wave (km/s) = 6.45483 6.65687 6.55663
#
# Compressibility (1/GPa) = 0.02727306
#
# Stress axis : x y z
#
# Youngs Moduli (GPa) = 83.80653 61.36001 56.24598
#
# Poissons Ratio (x) = 0.09465 0.24099
# Poissons Ratio (y) = 0.12928 0.19914
# Poissons Ratio (z) = 0.35908 0.21725
#
# Static dielectric constant tensor:
#      x y z
#    x 3.269280 0.000000 0.024470 
#    y 0.000000 3.006610 0.000000 
#    z 0.024470 0.000000 3.122310 
# 
# 
# High freq. dielectric constant tensor:
#      x y z
#    x 1.649870 0.000000 -0.001550 
#    y 0.000000 1.622260 0.000000 
#    z -0.001550 0.000000 1.636810 
# 
# From -- ./inp_files/29533.got.cif
#   From: 2010.06.25/outbox.cif.g09.slc.cpg/sg10_15_cif.got.tgz:29533.got - 2010.06.27 22:07:45.
