data_PCOD8061481
_publ_section_title
;
Structure prediction by ZEFSAII (Michael W. Deem and Ramdas Pophale) SiO2 
 PCOD8061481
Probable space group: P 2/M
;
_chemical_formula_sum "Si O2"
_cell_formula_units_Z 30
_cell_length_a 23.651286
_cell_length_b 10.933721
_cell_length_c 29.257365
_cell_angle_alpha 90.000000
_cell_angle_beta 168.315860
_cell_angle_gamma 90.000000
_cell_volume 1532.208229
_symmetry_space_group_name_H-M "P 2/M"
_symmetry_group_IT_number 10
_symmetry_cell_setting 'monoclinic'
loop_
_space_group_symop_operation_xyz
x,y,z
-x,y,-z
-x,-y,-z
x,-y,z
loop_
_atom_site_type_symbol
_atom_site_label
_atom_site_fract_x
_atom_site_fract_y
_atom_site_fract_z
Si Si1 0.208623 0.212928 0.410337
Si Si2 0.693823 0.363980 0.749061
Si Si3 0.974913 0.864242 0.831015
Si Si4 0.671112 0.640676 0.006031
Si Si5 0.346049 0.642293 0.834422
Si Si6 0.234641 0.358742 0.585069
Si Si7 0.500000 0.706264 0.500000
Si Si8 0.605566 0.138394 0.348272
O O1 0.471954 0.288484 0.601684
O O2 0.081984 0.135840 0.268388
O O3 0.315411 0.127464 0.535850
O O4 0.972383 0.299905 0.243668
O O5 0.693883 0.500000 0.769534
O O6 0.614473 0.373009 0.632664
O O7 0.000000 0.304765 0.000000
O O8 0.759249 0.784755 0.688314
O O9 0.935758 0.000000 0.818724
O O10 0.286672 0.819748 0.088857
O O11 0.722160 0.500000 0.057213
O O12 0.475889 0.701021 0.891094
O O13 0.523722 0.657644 0.840545
O O14 0.415772 0.500000 0.887923
O O15 0.014672 0.663295 0.576026
O O16 0.500000 0.702221 0.000000
O O17 0.213714 0.500000 0.548498
O O18 0.214753 0.249858 0.531900
O O19 0.655837 0.000000 0.367320
#
# Coordination Sequence:
#
# PCOD8061481 Si02
#       8
#     4   4   4   4   4   4   2   4
#     4  11  21  36  58  82 112 153 195 238 286 349
#     4  10  21  36  54  81 117 151 187 233 292 348
#     4  10  21  38  57  80 109 144 190 241 288 344
#     4  10  19  33  55  86 118 150 193 242 290 344
#     4   9  17  30  52  82 116 151 189 237 289 339
#     4  10  20  36  58  86 116 153 195 240 290 345
#     4  10  20  36  58  80 104 144 190 236 290 346
#     4  11  23  39  59  85 118 155 195 241 293 347
#
# _framework density 19.579584000000001
#
# number of rings (size 3 to 8) (size 9 to 14) (size 15 to 20)
#    0.000    1.867    1.333    3.200    0.000    3.733 
#    0.000    0.667    0.000   12.400    0.000    0.000 
#    0.000    0.000    0.000    0.000    0.000    0.000 
#
# Total GULP energy -371826.713894 kJ/mol
# GULP energy per Si atom -12394.223796 kJ/mol
# Density = 1.953502 g / cm^3
# Si number density = 19.579584 Si / 1000 Ang^3
#
#
#
# Elastic Constant Matrix: (Units=GPa)
#
#
# Indices 1 2 3 4 5 6 
#
# 1 82.7690 30.5956 29.0500 0.0000 6.2224 0.0000
# 2 30.5956 75.9617 26.0559 0.0000 11.0658 0.0000
# 3 29.0500 26.0559 111.9418 0.0000 3.9163 0.0000
# 4 0.0000 0.0000 0.0000 -15.4627 0.0000 -47.4947
# 5 6.2224 11.0658 3.9163 0.0000 29.4996 0.0000
# 6 0.0000 0.0000 0.0000 -47.4947 0.0000 -57.7826
#
#
#
# Elastic Compliance Matrix: (Units=1/GPa)
#
#
# Indices 1 2 3 4 5 6 
#
# 1 0.014927 -0.004954 -0.002688 0.000000 -0.000933 0.000000
# 2 -0.004954 0.016708 -0.002432 0.000000 -0.004900 0.000000
# 3 -0.002688 -0.002432 0.010192 0.000000 0.000126 0.000000
# 4 0.000000 0.000000 0.000000 0.042416 0.000000 -0.034864
# 5 -0.000933 -0.004900 0.000126 0.000000 0.035917 0.000000
# 6 0.000000 0.000000 0.000000 -0.034864 0.000000 0.011351
#
#
# Mechanical properties :
#
#
# Convention : Reuss Voigt Hill
#
# Bulk Modulus (GPa) = 46.12737 49.11950 47.62343
# Shear Modulus (GPa) = 31.46931 3.58227 17.52579
#
# Velocity S-wave (km/s) = 4.01340 1.35409 2.99508
# Velocity P-wave (km/s) = 6.71466 5.25227 6.02797
#
# Compressibility (1/GPa) = 0.02167910
#
# Stress axis : x y z
#
# Youngs Moduli (GPa) = 66.99425 59.85196 98.11267
#
# Poissons Ratio (x) = 0.29652 0.26371
# Poissons Ratio (y) = 0.33190 0.23860
# Poissons Ratio (z) = 0.18007 0.14555
#
# Static dielectric constant tensor:
#      x y z
#    x 3.673820 0.000000 -0.069000 
#    y 0.000000 3.253490 0.000000 
#    z -0.069000 0.000000 3.647800 
# 
# 
# High freq. dielectric constant tensor:
#      x y z
#    x 1.763550 0.000000 -0.004950 
#    y 0.000000 1.733180 0.000000 
#    z -0.004950 0.000000 1.779860 
# 
# From -- ./inp_files/95834.got.cif
#   From: 2010.06.25/outbox.cif.g09.slc.cpg/sg10_48_cif.got.tgz:95834.got - 2010.06.27 22:07:45.
