data_PCOD8061064
_publ_section_title
;
Structure prediction by ZEFSAII (Michael W. Deem and Ramdas Pophale) SiO2 
 PCOD8061064
Probable space group: P 2/M
;
_chemical_formula_sum "Si O2"
_cell_formula_units_Z 24
_cell_length_a 12.447893
_cell_length_b 13.117468
_cell_length_c 12.335693
_cell_angle_alpha 90.000000
_cell_angle_beta 131.140213
_cell_angle_gamma 90.000000
_cell_volume 1516.921527
_symmetry_space_group_name_H-M "P 2/M"
_symmetry_group_IT_number 10
_symmetry_cell_setting 'monoclinic'
loop_
_space_group_symop_operation_xyz
x,y,z
-x,y,-z
-x,-y,-z
x,-y,z
loop_
_atom_site_type_symbol
_atom_site_label
_atom_site_fract_x
_atom_site_fract_y
_atom_site_fract_z
Si Si1 0.144671 0.710870 0.398168
Si Si2 0.353650 0.618354 0.113672
Si Si3 0.325417 0.617386 0.707360
Si Si4 0.342983 0.617870 0.358607
Si Si5 0.828844 0.697146 0.191871
Si Si6 0.975798 0.885276 0.356062
O O1 0.232508 0.679183 0.561108
O O2 0.228227 0.687424 0.343669
O O3 0.990953 0.652815 0.296157
O O4 0.112965 0.832636 0.388099
O O5 0.333429 0.500000 0.069877
O O6 0.512187 0.655939 0.189444
O O7 0.322310 0.637651 0.218534
O O8 0.241982 0.686554 0.972966
O O9 0.320178 0.500000 0.669145
O O10 0.265550 0.632180 0.787751
O O11 0.500000 0.651533 0.500000
O O12 0.317516 0.500000 0.372981
O O13 0.836102 0.816889 0.232758
O O14 0.000000 0.883757 0.500000
O O15 0.955632 0.000000 0.299201
#
# Coordination Sequence:
#
# PCOD8061064 Si02
#       6
#     4   4   4   4   4   4
#     4  10  19  33  53  79  97 136 175 219 248 296
#     4  10  21  33  49  73 111 152 171 195 247 308
#     4  11  19  31  49  76 112 144 166 200 252 309
#     4  10  19  33  51  73 106 147 179 200 237 304
#     4  10  20  33  49  81 103 132 172 216 264 298
#     4   9  18  36  57  77 101 129 171 221 274 310
#
# _framework density 15.821519
#
# number of rings (size 3 to 8) (size 9 to 14) (size 15 to 20)
#    1.000    1.000    3.333    2.000    0.000    5.333 
#    0.000    1.667    0.000    5.500    0.000    0.000 
#    0.000    0.000    0.000    0.000    0.000    0.000 
#
# Total GULP energy -297482.564280 kJ/mol
# GULP energy per Si atom -12395.106845 kJ/mol
# Density = 1.578551 g / cm^3
# Si number density = 15.821519 Si / 1000 Ang^3
#
#
#
# Elastic Constant Matrix: (Units=GPa)
#
#
# Indices 1 2 3 4 5 6 
#
# 1 110.9112 30.3570 33.0466 0.0000 -1.8000 0.0000
# 2 30.3570 69.9292 34.8352 0.0000 3.2281 0.0000
# 3 33.0466 34.8352 109.8442 0.0000 -0.5519 0.0000
# 4 0.0000 0.0000 0.0000 11.5112 0.0000 -10.7505
# 5 -1.8000 3.2281 -0.5519 0.0000 23.6711 0.0000
# 6 0.0000 0.0000 0.0000 -10.7505 0.0000 6.8917
#
#
#
# Elastic Compliance Matrix: (Units=1/GPa)
#
#
# Indices 1 2 3 4 5 6 
#
# 1 0.010646 -0.003667 -0.002034 0.000000 0.001262 0.000000
# 2 -0.003667 0.018388 -0.004743 0.000000 -0.002897 0.000000
# 3 -0.002034 -0.004743 0.011224 0.000000 0.000754 0.000000
# 4 0.000000 0.000000 0.000000 -0.190164 0.000000 -0.296639
# 5 0.001262 -0.002897 0.000754 0.000000 0.042754 0.000000
# 6 0.000000 0.000000 0.000000 -0.296639 0.000000 -0.317630
#
#
# Mechanical properties :
#
#
# Convention : Reuss Voigt Hill
#
# Bulk Modulus (GPa) = 51.62285 54.12914 52.87600
# Shear Modulus (GPa) = -12.58061 21.24454 4.33197
#
# Velocity S-wave (km/s) = -2.82291 3.66835 1.65649
# Velocity P-wave (km/s) = 4.69829 7.22696 6.09520
#
# Compressibility (1/GPa) = 0.01937127
#
# Stress axis : x y z
#
# Youngs Moduli (GPa) = 93.92934 54.38207 89.09810
#
# Poissons Ratio (x) = 0.19941 0.18120
# Poissons Ratio (y) = 0.34442 0.42259
# Poissons Ratio (z) = 0.19103 0.25793
#
# Static dielectric constant tensor:
#      x y z
#    x 3.068300 0.000000 0.015020 
#    y 0.000000 2.865280 0.000000 
#    z 0.015020 0.000000 2.954560 
# 
# 
# High freq. dielectric constant tensor:
#      x y z
#    x 1.609610 0.000000 -0.002550 
#    y 0.000000 1.571920 0.000000 
#    z -0.002550 0.000000 1.612750 
# 
# From -- ./inp_files/42312.got.cif
#   From: 2010.06.25/outbox.cif.g09.slc.cpg/sg10_22_cif.got.tgz:42312.got - 2010.06.27 22:07:45.
