data_PCOD8061362
_publ_section_title
;
Structure prediction by ZEFSAII (Michael W. Deem and Ramdas Pophale) SiO2 
 PCOD8061362
Probable space group: P 2/M
;
_chemical_formula_sum "Si O2"
_cell_formula_units_Z 32
_cell_length_a 28.191152
_cell_length_b 9.169417
_cell_length_c 21.727864
_cell_angle_alpha 90.000000
_cell_angle_beta 161.125045
_cell_angle_gamma 90.000000
_cell_volume 1816.983639
_symmetry_space_group_name_H-M "P 2/M"
_symmetry_group_IT_number 10
_symmetry_cell_setting 'monoclinic'
loop_
_space_group_symop_operation_xyz
x,y,z
-x,y,-z
-x,-y,-z
x,-y,z
loop_
_atom_site_type_symbol
_atom_site_label
_atom_site_fract_x
_atom_site_fract_y
_atom_site_fract_z
Si Si1 0.905587 0.326292 0.940518
Si Si2 0.832305 0.329651 0.286089
Si Si3 0.669515 0.666656 0.857593
Si Si4 0.105102 0.172180 0.430914
Si Si5 0.329837 0.329186 0.788904
Si Si6 0.034977 0.667997 0.850270
Si Si7 0.191796 0.829150 0.865865
Si Si8 0.420436 0.327613 0.461603
O O1 0.900212 0.500000 0.931115
O O2 0.742135 0.261213 0.732009
O O3 0.000000 0.262207 0.000000
O O4 0.975978 0.278943 0.092346
O O5 0.816312 0.500000 0.252981
O O6 0.741605 0.281557 0.234389
O O7 0.768414 0.243355 0.149915
O O8 0.000000 0.283074 0.500000
O O9 0.669879 0.500000 0.881365
O O10 0.514355 0.710134 0.637408
O O11 0.689835 0.772185 0.940208
O O12 0.796726 0.689352 0.963375
O O13 0.253309 0.241825 0.639635
O O14 0.074390 0.235567 0.325314
O O15 0.971095 0.215481 0.311562
O O16 0.124586 0.000000 0.449472
O O17 0.306334 0.500000 0.747674
O O18 0.500000 0.286760 0.000000
O O19 0.986957 0.500000 0.784182
O O20 0.208500 0.000000 0.879574
O O21 0.500000 0.257924 0.500000
O O22 0.409847 0.500000 0.439294
#
# Coordination Sequence:
#
# PCOD8061362 Si02
#       8
#     4   4   4   4   4   4   4   4
#     4   9  16  26  43  71 101 125 157 206 256 295
#     4  10  19  33  55  79 101 128 164 205 250 299
#     4   9  16  27  47  71  96 129 168 208 249 298
#     4  10  20  33  51  75 103 135 171 208 247 299
#     4  10  21  37  56  79 105 132 165 208 253 298
#     4   9  16  28  48  71  96 129 167 206 250 299
#     4  10  20  32  49  75 106 135 167 210 253 296
#     4   9  14  24  43  68  94 121 158 200 244 293
#
# _framework density 17.611605999999998
#
# number of rings (size 3 to 8) (size 9 to 14) (size 15 to 20)
#    0.000    2.500    2.500    0.750    0.000    2.000 
#    0.000    1.250    0.000    6.000    0.000    0.000 
#    0.000    0.000    0.000    0.000    0.000    0.000 
#
# Total GULP energy -396814.026266 kJ/mol
# GULP energy per Si atom -12400.438321 kJ/mol
# Density = 1.757152 g / cm^3
# Si number density = 17.611606 Si / 1000 Ang^3
#
#
#
# Elastic Constant Matrix: (Units=GPa)
#
#
# Indices 1 2 3 4 5 6 
#
# 1 128.6828 36.4625 75.3248 0.0000 -11.9628 0.0000
# 2 36.4625 42.7342 40.7735 0.0000 -10.2983 0.0000
# 3 75.3248 40.7735 132.1502 0.0000 -8.2190 0.0000
# 4 0.0000 0.0000 0.0000 7.8221 0.0000 4.5708
# 5 -11.9628 -10.2983 -8.2190 0.0000 27.3744 0.0000
# 6 0.0000 0.0000 0.0000 4.5708 0.0000 5.7156
#
#
#
# Elastic Compliance Matrix: (Units=1/GPa)
#
#
# Indices 1 2 3 4 5 6 
#
# 1 0.012603 -0.005021 -0.005512 0.000000 0.001964 0.000000
# 2 -0.005021 0.037828 -0.008215 0.000000 0.009571 0.000000
# 3 -0.005512 -0.008215 0.013147 0.000000 -0.001552 0.000000
# 4 0.000000 0.000000 0.000000 0.239985 0.000000 -0.191914
# 5 0.001964 0.009571 -0.001552 0.000000 0.040523 0.000000
# 6 0.000000 0.000000 0.000000 -0.191914 0.000000 0.328430
#
#
# Mechanical properties :
#
#
# Convention : Reuss Voigt Hill
#
# Bulk Modulus (GPa) = 38.33873 67.63209 52.98541
# Shear Modulus (GPa) = 6.95694 18.24951 12.60323
#
# Velocity S-wave (km/s) = 1.98967 3.22253 2.67801
# Velocity P-wave (km/s) = 5.20525 7.23406 6.30184
#
# Compressibility (1/GPa) = 0.02608328
#
# Stress axis : x y z
#
# Youngs Moduli (GPa) = 79.34693 26.43523 76.06185
#
# Poissons Ratio (x) = 0.13272 0.41928
# Poissons Ratio (y) = 0.39836 0.62482
# Poissons Ratio (z) = 0.43739 0.21715
#
# Static dielectric constant tensor:
#      x y z
#    x 3.285230 0.000000 -0.056000 
#    y 0.000000 2.928640 0.000000 
#    z -0.056000 0.000000 3.268080 
# 
# 
# High freq. dielectric constant tensor:
#      x y z
#    x 1.674310 0.000000 -0.018610 
#    y 0.000000 1.648500 0.000000 
#    z -0.018610 0.000000 1.677050 
# 
# From -- ./inp_files/52706.got.cif
#   From: 2010.06.25/outbox.cif.g09.slc.cpg/sg10_27_cif.got.tgz:52706.got - 2010.06.27 22:07:45.
