data_PCOD8061764
_publ_section_title
;
Structure prediction by ZEFSAII (Michael W. Deem and Ramdas Pophale) SiO2 
 PCOD8061764
Probable space group: P 2/M
;
_chemical_formula_sum "Si O2"
_cell_formula_units_Z 32
_cell_length_a 11.895054
_cell_length_b 18.214170
_cell_length_c 15.160115
_cell_angle_alpha 90.000000
_cell_angle_beta 28.225115
_cell_angle_gamma 90.000000
_cell_volume 1553.393983
_symmetry_space_group_name_H-M "P 2/M"
_symmetry_group_IT_number 10
_symmetry_cell_setting 'monoclinic'
loop_
_space_group_symop_operation_xyz
x,y,z
-x,y,-z
-x,-y,-z
x,-y,z
loop_
_atom_site_type_symbol
_atom_site_label
_atom_site_fract_x
_atom_site_fract_y
_atom_site_fract_z
Si Si1 0.384165 0.916662 0.276007
Si Si2 0.386714 0.582704 0.210167
Si Si3 0.809776 0.824926 0.066063
Si Si4 0.483354 0.268982 0.410424
Si Si5 0.969344 0.216379 0.771225
Si Si6 0.834669 0.631391 0.804792
Si Si7 0.351350 0.584198 0.434761
Si Si8 0.121613 0.915600 0.283984
O O1 0.601220 0.874025 0.170002
O O2 0.325103 0.894997 0.215199
O O3 0.141620 0.905329 0.496369
O O4 0.466816 0.000000 0.222319
O O5 0.289343 0.500000 0.276534
O O6 0.216021 0.630224 0.265192
O O7 0.377998 0.612035 0.315652
O O8 0.651421 0.584101 0.988462
O O9 0.694907 0.761866 0.205221
O O10 0.961162 0.788549 0.882687
O O11 0.000000 0.866546 0.000000
O O12 0.500000 0.245902 0.500000
O O13 0.500551 0.357724 0.389325
O O14 0.232638 0.234056 0.551887
O O15 0.807919 0.284304 0.852559
O O16 0.859032 0.140346 0.810695
O O17 0.082531 0.592385 0.653179
O O18 0.440083 0.500000 0.386833
O O19 0.157258 0.000000 0.227275
#
# Coordination Sequence:
#
# PCOD8061764 Si02
#       8
#     4   4   4   4   4   4   4   4
#     4   9  20  39  64  94 127 163 202 245 299 362
#     4  10  19  34  54  81 123 159 188 237 304 362
#     4  12  24  40  66  88 121 162 207 253 304 357
#     4  11  23  43  61  83 121 156 202 256 309 356
#     4  11  23  38  62  93 118 161 205 250 304 361
#     4  10  20  33  53  84 121 154 195 239 295 359
#     4  10  21  36  58  84 111 152 203 249 295 357
#     4   9  19  40  65  91 129 166 195 244 309 362
#
# _framework density 20.600055000000001
#
# number of rings (size 3 to 8) (size 9 to 14) (size 15 to 20)
#    0.000    1.750    2.500    3.375    0.000    5.500 
#    2.250    1.250    0.000    2.625    0.000    0.000 
#    0.000    0.000    0.000    0.000    0.000    0.000 
#
# Total GULP energy -396651.140592 kJ/mol
# GULP energy per Si atom -12395.348143 kJ/mol
# Density = 2.055317 g / cm^3
# Si number density = 20.600055 Si / 1000 Ang^3
#
#
#
# Elastic Constant Matrix: (Units=GPa)
#
#
# Indices 1 2 3 4 5 6 
#
# 1 108.2938 53.7980 26.8469 0.0000 -0.3512 0.0000
# 2 53.7980 102.1312 19.5410 0.0000 3.3076 0.0000
# 3 26.8469 19.5410 58.4521 0.0000 4.0931 0.0000
# 4 0.0000 0.0000 0.0000 20.9829 0.0000 2.1304
# 5 -0.3512 3.3076 4.0931 0.0000 36.4464 0.0000
# 6 0.0000 0.0000 0.0000 2.1304 0.0000 29.4457
#
#
#
# Elastic Compliance Matrix: (Units=1/GPa)
#
#
# Indices 1 2 3 4 5 6 
#
# 1 0.013392 -0.006302 -0.004125 0.000000 0.001164 0.000000
# 2 -0.006302 0.013438 -0.001520 0.000000 -0.001110 0.000000
# 3 -0.004125 -0.001520 0.019659 0.000000 -0.002110 0.000000
# 4 0.000000 0.000000 0.000000 0.048011 0.000000 -0.003473
# 5 0.001164 -0.001110 -0.002110 0.000000 0.027786 0.000000
# 6 0.000000 0.000000 0.000000 -0.003473 0.000000 0.034212
#
#
# Mechanical properties :
#
#
# Convention : Reuss Voigt Hill
#
# Bulk Modulus (GPa) = 44.26224 52.13878 48.20051
# Shear Modulus (GPa) = 26.60659 28.62109 27.61384
#
# Velocity S-wave (km/s) = 3.59775 3.73147 3.66522
# Velocity P-wave (km/s) = 6.22829 6.62798 6.43124
#
# Compressibility (1/GPa) = 0.02259262
#
# Stress axis : x y z
#
# Youngs Moduli (GPa) = 74.67413 74.41629 50.86824
#
# Poissons Ratio (x) = 0.46900 0.20984
# Poissons Ratio (y) = 0.47063 0.07732
# Poissons Ratio (z) = 0.30805 0.11311
#
# Static dielectric constant tensor:
#      x y z
#    x 3.725460 0.000000 0.032150 
#    y 0.000000 3.647750 0.000000 
#    z 0.032150 0.000000 3.806160 
# 
# 
# High freq. dielectric constant tensor:
#      x y z
#    x 1.797400 0.000000 0.004490 
#    y 0.000000 1.794840 0.000000 
#    z 0.004490 0.000000 1.816870 
# 
# From -- ./inp_files/65400.got.cif
#   From: 2010.06.25/outbox.cif.g09.slc.cpg/sg10_33_cif.got.tgz:65400.got - 2010.06.27 22:07:45.
