data_PCOD8061428
_publ_section_title
;
Structure prediction by ZEFSAII (Michael W. Deem and Ramdas Pophale) SiO2 
 PCOD8061428
Probable space group: P 2/M
;
_chemical_formula_sum "Si O2"
_cell_formula_units_Z 24
_cell_length_a 10.451601
_cell_length_b 14.086387
_cell_length_c 15.654252
_cell_angle_alpha 90.000000
_cell_angle_beta 155.682323
_cell_angle_gamma 90.000000
_cell_volume 949.065930
_symmetry_space_group_name_H-M "P 2/M"
_symmetry_group_IT_number 10
_symmetry_cell_setting 'monoclinic'
loop_
_space_group_symop_operation_xyz
x,y,z
-x,y,-z
-x,-y,-z
x,-y,z
loop_
_atom_site_type_symbol
_atom_site_label
_atom_site_fract_x
_atom_site_fract_y
_atom_site_fract_z
Si Si1 0.673482 0.500000 0.232084
Si Si2 0.192805 0.196665 0.767852
Si Si3 0.004235 0.500000 0.742296
Si Si4 0.656617 0.203134 0.750631
Si Si5 0.638599 0.000000 0.791141
Si Si6 0.729541 0.000000 0.267532
Si Si7 0.576851 0.305139 0.238020
Si Si8 0.909433 0.704948 0.743580
O O1 0.957863 0.500000 0.337367
O O2 0.691072 0.412721 0.307871
O O3 0.350384 0.500000 0.987459
O O4 0.239827 0.085940 0.779533
O O5 0.163772 0.249023 0.659398
O O6 0.910820 0.224516 0.660916
O O7 0.500000 0.238616 0.000000
O O8 0.829194 0.595868 0.668108
O O9 0.427447 0.266600 0.668527
O O10 0.654887 0.252490 0.655642
O O11 0.510915 0.095654 0.666654
O O12 0.000000 0.200205 0.000000
O O13 0.574344 0.000000 0.855602
O O14 0.000000 0.000000 0.000000
O O15 0.000000 0.000000 0.500000
O O16 0.237515 0.291147 0.990769
#
# Coordination Sequence:
#
# PCOD8061428 Si02
#       8
#     2   4   2   4   2   2   4   4
#     4   9  14  21  39  65 107 146 175 227 290 339
#     4  10  19  33  55  81 108 143 197 234 276 335
#     4   9  14  23  37  67 109 143 170 227 303 323
#     4   9  17  28  44  70 106 142 186 228 281 332
#     4  10  20  34  56  77 107 150 194 231 289 338
#     4  12  25  40  58  87 120 150 189 245 295 338
#     4   9  15  26  43  71 103 144 183 228 282 336
#     4   9  17  26  45  74 107 140 183 238 279 338
#
# _framework density 25.288021000000001
#
# number of rings (size 3 to 8) (size 9 to 14) (size 15 to 20)
#    0.000    2.500    3.333    0.250    2.333    1.333 
#    0.000    3.333    0.000    2.000    0.000    2.333 
#    0.000    1.333    0.000    0.000    0.000    0.000 
#
# Total GULP energy -297491.816763 kJ/mol
# GULP energy per Si atom -12395.492365 kJ/mol
# Density = 2.523046 g / cm^3
# Si number density = 25.288021 Si / 1000 Ang^3
#
#
#
# Elastic Constant Matrix: (Units=GPa)
#
#
# Indices 1 2 3 4 5 6 
#
# 1 268.2619 143.8045 35.9929 0.0000 5.0971 0.0000
# 2 143.8045 265.3296 -4.1598 0.0000 -16.2478 0.0000
# 3 35.9929 -4.1598 31.2717 0.0000 -4.2366 0.0000
# 4 0.0000 0.0000 0.0000 -19.3553 0.0000 -8.4104
# 5 5.0971 -16.2478 -4.2366 0.0000 39.9796 0.0000
# 6 0.0000 0.0000 0.0000 -8.4104 0.0000 54.6853
#
#
#
# Elastic Compliance Matrix: (Units=1/GPa)
#
#
# Indices 1 2 3 4 5 6 
#
# 1 0.007484 -0.004441 -0.009718 0.000000 -0.003789 0.000000
# 2 -0.004441 0.006517 0.006507 0.000000 0.003904 0.000000
# 3 -0.009718 0.006507 0.045203 0.000000 0.008673 0.000000
# 4 0.000000 0.000000 0.000000 -0.048429 0.000000 -0.007448
# 5 -0.003789 0.003904 0.008673 0.000000 0.028001 0.000000
# 6 0.000000 0.000000 0.000000 -0.007448 0.000000 0.017141
#
#
# Mechanical properties :
#
#
# Convention : Reuss Voigt Hill
#
# Bulk Modulus (GPa) = 22.77867 101.79315 62.28591
# Shear Modulus (GPa) = 58.23848 41.01028 49.62438
#
# Velocity S-wave (km/s) = 4.80417 4.03144 4.43467
# Velocity P-wave (km/s) = 6.30878 7.87470 7.13483
#
# Compressibility (1/GPa) = 0.04390071
#
# Stress axis : x y z
#
# Youngs Moduli (GPa) = 133.62021 153.45278 22.12230
#
# Poissons Ratio (x) = 0.68141 0.21498
# Poissons Ratio (y) = 0.59334 -0.14394
# Poissons Ratio (z) = 1.29848 -0.99847
#
# Static dielectric constant tensor:
#      x y z
#    x 4.464610 0.000000 0.157060 
#    y 0.000000 4.618520 0.000000 
#    z 0.157060 0.000000 4.213600 
# 
# 
# High freq. dielectric constant tensor:
#      x y z
#    x 2.020710 0.000000 0.005590 
#    y 0.000000 2.009660 0.000000 
#    z 0.005590 0.000000 2.021960 
# 
# From -- ./inp_files/62005.got.cif
#   From: 2010.06.25/outbox.cif.g09.slc.cpg/sg10_32_cif.got.tgz:62005.got - 2010.06.27 22:07:45.
