data_PCOD8061230
_publ_section_title
;
Structure prediction by ZEFSAII (Michael W. Deem and Ramdas Pophale) SiO2 
 PCOD8061230
Probable space group: P 2/M
;
_chemical_formula_sum "Si O2"
_cell_formula_units_Z 28
_cell_length_a 10.275989
_cell_length_b 7.881113
_cell_length_c 28.631372
_cell_angle_alpha 90.000000
_cell_angle_beta 139.101870
_cell_angle_gamma 90.000000
_cell_volume 1518.121024
_symmetry_space_group_name_H-M "P 2/M"
_symmetry_group_IT_number 10
_symmetry_cell_setting 'monoclinic'
loop_
_space_group_symop_operation_xyz
x,y,z
-x,y,-z
-x,-y,-z
x,-y,z
loop_
_atom_site_type_symbol
_atom_site_label
_atom_site_fract_x
_atom_site_fract_y
_atom_site_fract_z
Si Si1 0.404099 0.201698 0.905601
Si Si2 0.560220 0.804625 0.186451
Si Si3 0.793603 0.500000 0.612888
Si Si4 0.869554 0.190379 0.510048
Si Si5 0.808226 0.200352 0.062690
Si Si6 0.382677 0.500000 0.537346
Si Si7 0.120093 0.693640 0.076475
Si Si8 0.948320 0.803890 0.341677
O O1 0.380198 0.281769 0.847252
O O2 0.228363 0.261662 0.893448
O O3 0.402089 0.000000 0.905886
O O4 0.618669 0.262835 0.981793
O O5 0.337624 0.770827 0.142781
O O6 0.718648 0.753123 0.269322
O O7 0.580708 0.000000 0.181523
O O8 0.621792 0.500000 0.605518
O O9 0.689875 0.500000 0.534964
O O10 0.918832 0.673739 0.652601
O O11 0.694434 0.328097 0.459017
O O12 0.000000 0.211845 0.500000
O O13 0.012734 0.224885 0.593037
O O14 0.777805 0.000000 0.488272
O O15 0.003269 0.285540 0.093482
O O16 0.837491 0.000000 0.067568
O O17 0.154147 0.500000 0.073280
O O18 0.000000 0.778889 0.000000
O O19 0.995100 0.000000 0.339917
#
# Coordination Sequence:
#
# PCOD8061230 Si02
#       8
#     4   4   2   4   4   2   4   4
#     4   8  15  28  50  73  88 115 160 207 252 300
#     4  10  19  33  54  73  93 129 173 212 254 309
#     4   9  18  32  52  76 107 131 162 214 256 296
#     4   9  17  31  53  80 109 139 174 214 251 297
#     4   9  16  30  50  69  90 117 158 208 254 299
#     4   9  17  30  52  82 103 131 170 207 255 305
#     4  11  22  32  45  72 103 129 166 214 260 303
#     4   9  19  33  52  77 102 136 175 207 256 314
#
# _framework density 18.443852
#
# number of rings (size 3 to 8) (size 9 to 14) (size 15 to 20)
#    0.000    2.714    1.429    1.500    1.000    1.143 
#    0.000    5.000    3.143    0.000    0.000    0.000 
#    0.000    0.000    0.000    0.000    0.000    0.000 
#
# Total GULP energy -346949.694754 kJ/mol
# GULP energy per Si atom -12391.060527 kJ/mol
# Density = 1.840187 g / cm^3
# Si number density = 18.443852 Si / 1000 Ang^3
#
#
#
# Elastic Constant Matrix: (Units=GPa)
#
#
# Indices 1 2 3 4 5 6 
#
# 1 131.3173 29.6031 56.6799 0.0000 13.2454 0.0000
# 2 29.6031 68.3740 38.1840 0.0000 7.8952 0.0000
# 3 56.6799 38.1840 90.4840 0.0000 19.4352 0.0000
# 4 0.0000 0.0000 0.0000 14.6442 0.0000 3.0383
# 5 13.2454 7.8952 19.4352 0.0000 24.6810 0.0000
# 6 0.0000 0.0000 0.0000 3.0383 0.0000 16.5000
#
#
#
# Elastic Compliance Matrix: (Units=1/GPa)
#
#
# Indices 1 2 3 4 5 6 
#
# 1 0.010511 -0.001147 -0.005979 0.000000 -0.000566 0.000000
# 2 -0.001147 0.019262 -0.007485 0.000000 0.000348 0.000000
# 3 -0.005979 -0.007485 0.020162 0.000000 -0.010274 0.000000
# 4 0.000000 0.000000 0.000000 0.070999 0.000000 -0.013074
# 5 -0.000566 0.000348 -0.010274 0.000000 0.048800 0.000000
# 6 0.000000 0.000000 0.000000 -0.013074 0.000000 0.063013
#
#
# Mechanical properties :
#
#
# Convention : Reuss Voigt Hill
#
# Bulk Modulus (GPa) = 48.27519 59.90105 54.08812
# Shear Modulus (GPa) = 18.59613 22.21226 20.40419
#
# Velocity S-wave (km/s) = 3.17875 3.47409 3.32970
# Velocity P-wave (km/s) = 6.30108 6.97427 6.64620
#
# Compressibility (1/GPa) = 0.02071457
#
# Stress axis : x y z
#
# Youngs Moduli (GPa) = 95.13472 51.91652 49.59760
#
# Poissons Ratio (x) = 0.05953 0.29654
# Poissons Ratio (y) = 0.10909 0.37123
# Poissons Ratio (z) = 0.56881 0.38859
#
# Static dielectric constant tensor:
#      x y z
#    x 3.496450 0.000000 -0.020050 
#    y 0.000000 3.382640 0.000000 
#    z -0.020050 0.000000 3.484110 
# 
# 
# High freq. dielectric constant tensor:
#      x y z
#    x 1.712320 0.000000 0.003860 
#    y 0.000000 1.711310 0.000000 
#    z 0.003860 0.000000 1.683020 
# 
# From -- ./inp_files/94558.got.cif
#   From: 2010.06.25/outbox.cif.g09.slc.cpg/sg10_48_cif.got.tgz:94558.got - 2010.06.27 22:07:45.
