data_PCOD8061976
_publ_section_title
;
Structure prediction by ZEFSAII (Michael W. Deem and Ramdas Pophale) SiO2 
 PCOD8061976
Probable space group: P 2/M
;
_chemical_formula_sum "Si O2"
_cell_formula_units_Z 28
_cell_length_a 28.519848
_cell_length_b 11.620480
_cell_length_c 22.753942
_cell_angle_alpha 90.000000
_cell_angle_beta 11.458820
_cell_angle_gamma 90.000000
_cell_volume 1498.118577
_symmetry_space_group_name_H-M "P 2/M"
_symmetry_group_IT_number 10
_symmetry_cell_setting 'monoclinic'
loop_
_space_group_symop_operation_xyz
x,y,z
-x,y,-z
-x,-y,-z
x,-y,z
loop_
_atom_site_type_symbol
_atom_site_label
_atom_site_fract_x
_atom_site_fract_y
_atom_site_fract_z
Si Si1 0.292130 0.796188 0.909053
Si Si2 0.096986 0.203806 0.701849
Si Si3 0.983549 0.000000 0.923578
Si Si4 0.447576 0.129258 0.176603
Si Si5 0.388046 0.000000 0.519059
Si Si6 0.475690 0.631192 0.286517
Si Si7 0.170481 0.291427 0.244170
Si Si8 0.943823 0.870720 0.432030
O O1 0.460655 0.883521 0.667496
O O2 0.430045 0.691051 0.770040
O O3 0.104330 0.743530 0.093466
O O4 0.162770 0.869311 0.118232
O O5 0.286911 0.130642 0.432124
O O6 0.230569 0.308937 0.569337
O O7 0.973280 0.116486 0.898599
O O8 0.225004 0.000000 0.662510
O O9 0.755550 0.000000 0.244461
O O10 0.295798 0.168683 0.306415
O O11 0.541766 0.000000 0.052385
O O12 0.665532 0.213374 0.916120
O O13 0.418773 0.500000 0.371880
O O14 0.670219 0.631483 0.994756
O O15 0.000000 0.360892 0.500000
O O16 0.991475 0.213460 0.426931
O O17 0.917947 0.000000 0.487910
#
# Coordination Sequence:
#
# PCOD8061976 Si02
#       8
#     4   4   2   4   2   4   4   4
#     4  10  19  34  57  82 112 146 182 225 268 320
#     4  10  19  34  57  82 112 146 182 225 268 320
#     4  11  21  33  57  94 127 150 170 208 272 331
#     4   9  17  29  48  73 103 140 176 212 260 323
#     4  11  21  33  57  94 127 150 170 208 272 331
#     4  10  22  39  58  77 102 142 193 241 276 315
#     4  10  21  33  48  72 101 135 177 226 280 327
#     4   9  17  29  48  73 103 140 176 212 260 323
#
# _framework density 18.690110000000001
#
# number of rings (size 3 to 8) (size 9 to 14) (size 15 to 20)
#    0.000    2.143    2.857    0.857    0.000    3.714 
#    0.000    1.429    0.000    1.714    0.000   10.000 
#    0.000    0.000    0.000    0.000    0.000    0.000 
#
# Total GULP energy -347108.328787 kJ/mol
# GULP energy per Si atom -12396.726028 kJ/mol
# Density = 1.864757 g / cm^3
# Si number density = 18.690110 Si / 1000 Ang^3
#
#
#
# Elastic Constant Matrix: (Units=GPa)
#
#
# Indices 1 2 3 4 5 6 
#
# 1 83.1960 41.9842 57.3146 0.0000 -19.9246 0.0000
# 2 41.9842 105.4476 34.2258 0.0000 -13.6004 0.0000
# 3 57.3146 34.2258 69.3090 0.0000 -4.0791 0.0000
# 4 0.0000 0.0000 0.0000 9.7168 0.0000 -0.5282
# 5 -19.9246 -13.6004 -4.0791 0.0000 35.6772 0.0000
# 6 0.0000 0.0000 0.0000 -0.5282 0.0000 10.0470
#
#
#
# Elastic Compliance Matrix: (Units=1/GPa)
#
#
# Indices 1 2 3 4 5 6 
#
# 1 0.036680 -0.003579 -0.027626 0.000000 0.015962 0.000000
# 2 -0.003579 0.012147 -0.002904 0.000000 0.002300 0.000000
# 3 -0.027626 -0.002904 0.037989 0.000000 -0.012192 0.000000
# 4 0.000000 0.000000 0.000000 0.103210 0.000000 0.005426
# 5 0.015962 0.002300 -0.012192 0.000000 0.036426 0.000000
# 6 0.000000 0.000000 0.000000 0.005426 0.000000 0.099817
#
#
# Mechanical properties :
#
#
# Convention : Reuss Voigt Hill
#
# Bulk Modulus (GPa) = 53.76210 58.33352 56.04781
# Shear Modulus (GPa) = 12.47855 19.38340 15.93098
#
# Velocity S-wave (km/s) = 2.58671 3.22389 2.92271
# Velocity P-wave (km/s) = 6.14401 6.71838 6.43760
#
# Compressibility (1/GPa) = 0.01860046
#
# Stress axis : x y z
#
# Youngs Moduli (GPa) = 27.26260 82.32183 26.32315
#
# Poissons Ratio (x) = 0.29463 0.72720
# Poissons Ratio (y) = 0.09757 0.07643
# Poissons Ratio (z) = 0.75315 0.23903
#
# Static dielectric constant tensor:
#      x y z
#    x 3.572890 0.000000 -0.195050 
#    y 0.000000 2.983860 0.000000 
#    z -0.195050 0.000000 3.462830 
# 
# 
# High freq. dielectric constant tensor:
#      x y z
#    x 1.735750 0.000000 -0.014050 
#    y 0.000000 1.682960 0.000000 
#    z -0.014050 0.000000 1.727800 
# 
# From -- ./inp_files/85835.got.cif
#   From: 2010.06.25/outbox.cif.g09.slc.cpg/sg10_43_cif.got.tgz:85835.got - 2010.06.27 22:07:45.
