data_PCOD8061171
_publ_section_title
;
Structure prediction by ZEFSAII (Michael W. Deem and Ramdas Pophale) SiO2 
 PCOD8061171
Probable space group: P 2/M
;
_chemical_formula_sum "Si O2"
_cell_formula_units_Z 28
_cell_length_a 20.302287
_cell_length_b 15.256084
_cell_length_c 9.204943
_cell_angle_alpha 90.000000
_cell_angle_beta 149.540804
_cell_angle_gamma 90.000000
_cell_volume 1445.281740
_symmetry_space_group_name_H-M "P 2/M"
_symmetry_group_IT_number 10
_symmetry_cell_setting 'monoclinic'
loop_
_space_group_symop_operation_xyz
x,y,z
-x,y,-z
-x,-y,-z
x,-y,z
loop_
_atom_site_type_symbol
_atom_site_label
_atom_site_fract_x
_atom_site_fract_y
_atom_site_fract_z
Si Si1 0.887167 0.596211 0.903517
Si Si2 0.056661 0.221741 0.892079
Si Si3 0.199057 0.811572 0.450301
Si Si4 0.550826 0.781483 0.441207
Si Si5 0.785501 0.898508 0.986603
Si Si6 0.668799 0.095325 0.068935
Si Si7 0.374019 0.666397 0.675192
O O1 0.908632 0.500000 0.016513
O O2 0.743411 0.595770 0.557163
O O3 0.892592 0.677199 0.028143
O O4 0.000000 0.614278 0.000000
O O5 0.904113 0.228374 0.631343
O O6 0.131250 0.172599 0.167055
O O7 0.088417 0.160971 0.813759
O O8 0.321358 0.747270 0.669200
O O9 0.254159 0.899001 0.631299
O O10 0.500000 0.746498 0.500000
O O11 0.663486 0.853327 0.675178
O O12 0.438419 0.830245 0.140166
O O13 0.592806 0.697958 0.425797
O O14 0.770631 0.893743 0.131088
O O15 0.800716 0.000000 0.964485
O O16 0.602202 0.000000 0.932350
O O17 0.500000 0.627501 0.000000
#
# Coordination Sequence:
#
# PCOD8061171 Si02
#       7
#     4   4   4   4   4   4   4
#     4  10  19  35  60  86 111 140 175 223 280 337
#     4  10  19  36  56  78 106 138 187 221 275 329
#     4  10  19  34  51  76 106 139 173 230 272 316
#     4  10  19  33  53  75 105 146 187 224 267 322
#     4  10  20  34  53  76 107 148 188 225 265 323
#     4  10  21  34  49  76 109 147 192 226 267 320
#     4  11  19  34  56  83 111 135 182 227 276 327
#
# _framework density 19.373384000000001
#
# number of rings (size 3 to 8) (size 9 to 14) (size 15 to 20)
#    0.000    1.857    7.143    0.429    0.000    3.714 
#    0.000    3.571    0.000    0.429    0.000    6.000 
#    0.000    0.143    0.000    0.000    0.000    0.000 
#
# Total GULP energy -346893.548090 kJ/mol
# GULP energy per Si atom -12389.055289 kJ/mol
# Density = 1.932929 g / cm^3
# Si number density = 19.373384 Si / 1000 Ang^3
#
#
#
# Elastic Constant Matrix: (Units=GPa)
#
#
# Indices 1 2 3 4 5 6 
#
# 1 81.7920 36.0207 23.4028 0.0000 15.4257 0.0000
# 2 36.0207 82.9610 6.5157 0.0000 -5.2217 0.0000
# 3 23.4028 6.5157 53.8386 0.0000 7.2766 0.0000
# 4 0.0000 0.0000 0.0000 12.8499 0.0000 2.5003
# 5 15.4257 -5.2217 7.2766 0.0000 29.2050 0.0000
# 6 0.0000 0.0000 0.0000 2.5003 0.0000 6.1070
#
#
#
# Elastic Compliance Matrix: (Units=1/GPa)
#
#
# Indices 1 2 3 4 5 6 
#
# 1 0.019840 -0.008794 -0.006138 0.000000 -0.010522 0.000000
# 2 -0.008794 0.016266 0.000862 0.000000 0.007339 0.000000
# 3 -0.006138 0.000862 0.021399 0.000000 -0.001936 0.000000
# 4 0.000000 0.000000 0.000000 0.084558 0.000000 -0.034620
# 5 -0.010522 0.007339 -0.001936 0.000000 0.041593 0.000000
# 6 0.000000 0.000000 0.000000 -0.034620 0.000000 0.177920
#
#
# Mechanical properties :
#
#
# Convention : Reuss Voigt Hill
#
# Bulk Modulus (GPa) = 34.05287 38.94112 36.49700
# Shear Modulus (GPa) = 12.51551 19.80920 16.16235
#
# Velocity S-wave (km/s) = 2.54444 3.20112 2.89148
# Velocity P-wave (km/s) = 5.12324 5.81436 5.47971
#
# Compressibility (1/GPa) = 0.02936610
#
# Stress axis : x y z
#
# Youngs Moduli (GPa) = 50.40394 61.47616 46.73072
#
# Poissons Ratio (x) = 0.54065 0.28681
# Poissons Ratio (y) = 0.44327 -0.04030
# Poissons Ratio (z) = 0.30936 -0.05301
#
# Static dielectric constant tensor:
#      x y z
#    x 3.700390 0.000000 0.256240 
#    y 0.000000 3.316800 0.000000 
#    z 0.256240 0.000000 3.428240 
# 
# 
# High freq. dielectric constant tensor:
#      x y z
#    x 1.751190 0.000000 0.023410 
#    y 0.000000 1.725080 0.000000 
#    z 0.023410 0.000000 1.747570 
# 
# From -- ./inp_files/35313.got.cif
#   From: 2010.06.25/outbox.cif.g09.slc.cpg/sg10_18_cif.got.tgz:35313.got - 2010.06.27 22:07:45.
