data_PCOD8061512
_publ_section_title
;
Structure prediction by ZEFSAII (Michael W. Deem and Ramdas Pophale) SiO2 
 PCOD8061512
Probable space group: P 2/M
;
_chemical_formula_sum "Si O2"
_cell_formula_units_Z 28
_cell_length_a 17.308662
_cell_length_b 17.106559
_cell_length_c 4.945890
_cell_angle_alpha 90.000000
_cell_angle_beta 107.820643
_cell_angle_gamma 90.000000
_cell_volume 1394.171863
_symmetry_space_group_name_H-M "P 2/M"
_symmetry_group_IT_number 10
_symmetry_cell_setting 'monoclinic'
loop_
_space_group_symop_operation_xyz
x,y,z
-x,y,-z
-x,-y,-z
x,-y,z
loop_
_atom_site_type_symbol
_atom_site_label
_atom_site_fract_x
_atom_site_fract_y
_atom_site_fract_z
Si Si1 0.805958 0.324141 0.862072
Si Si2 0.354102 0.767885 0.283592
Si Si3 0.285220 0.086792 0.435954
Si Si4 0.822780 0.912420 0.187459
Si Si5 0.052684 0.782469 0.804666
Si Si6 0.589348 0.683256 0.150778
Si Si7 0.251427 0.589923 0.708922
O O1 0.740535 0.255415 0.832901
O O2 0.800163 0.357028 0.552993
O O3 0.893149 0.287693 0.017204
O O4 0.788101 0.396577 0.041395
O O5 0.356361 0.856423 0.399967
O O6 0.404842 0.712283 0.536566
O O7 0.393641 0.757142 0.030866
O O8 0.248409 0.116359 0.682974
O O9 0.323318 0.000000 0.507160
O O10 0.210648 0.085734 0.150060
O O11 0.898003 0.853812 0.276323
O O12 0.850760 0.000000 0.305186
O O13 0.000000 0.748128 0.500000
O O14 0.000000 0.814162 0.000000
O O15 0.654082 0.614349 0.174479
O O16 0.500000 0.648809 0.000000
O O17 0.245795 0.500000 0.619816
#
# Coordination Sequence:
#
# PCOD8061512 Si02
#       7
#     4   4   4   4   4   4   4
#     4  10  21  37  58  83 111 143 195 231 264 337
#     4  10  19  34  59  78 110 154 190 230 271 321
#     4  10  19  33  56  81 108 146 197 244 275 314
#     4  10  21  35  53  80 115 149 187 237 288 331
#     4  12  24  36  57  82 116 154 187 236 288 330
#     4  10  21  35  56  89 119 145 176 221 279 343
#     4  10  21  38  63  87 110 146 180 224 279 332
#
# _framework density 20.083607000000001
#
# number of rings (size 3 to 8) (size 9 to 14) (size 15 to 20)
#    0.000    1.714    1.429    3.429    4.000    0.857 
#    0.000    0.000    0.000   16.286    0.000    0.000 
#    0.000    0.000    0.000    0.000    0.000    0.000 
#
# Total GULP energy -347231.709907 kJ/mol
# GULP energy per Si atom -12401.132497 kJ/mol
# Density = 2.003790 g / cm^3
# Si number density = 20.083607 Si / 1000 Ang^3
#
#
#
# Elastic Constant Matrix: (Units=GPa)
#
#
# Indices 1 2 3 4 5 6 
#
# 1 44.4313 24.1410 19.0498 0.0000 3.4098 0.0000
# 2 24.1410 84.2164 2.1439 0.0000 1.2295 0.0000
# 3 19.0498 2.1439 78.9069 0.0000 -0.7401 0.0000
# 4 0.0000 0.0000 0.0000 20.0599 0.0000 -3.8334
# 5 3.4098 1.2295 -0.7401 0.0000 36.4420 0.0000
# 6 0.0000 0.0000 0.0000 -3.8334 0.0000 16.1301
#
#
#
# Elastic Compliance Matrix: (Units=1/GPa)
#
#
# Indices 1 2 3 4 5 6 
#
# 1 0.030383 -0.008488 -0.007130 0.000000 -0.002701 0.000000
# 2 -0.008488 0.014260 0.001665 0.000000 0.000347 0.000000
# 3 -0.007130 0.001665 0.014358 0.000000 0.000903 0.000000
# 4 0.000000 0.000000 0.000000 0.052222 0.000000 0.012411
# 5 -0.002701 0.000347 0.000903 0.000000 0.027700 0.000000
# 6 0.000000 0.000000 0.000000 0.012411 0.000000 0.064945
#
#
# Mechanical properties :
#
#
# Convention : Reuss Voigt Hill
#
# Bulk Modulus (GPa) = 32.16024 33.13599 32.64811
# Shear Modulus (GPa) = 20.64927 25.34106 22.99517
#
# Velocity S-wave (km/s) = 3.20998 3.55601 3.38741
# Velocity P-wave (km/s) = 5.45771 5.77885 5.62057
#
# Compressibility (1/GPa) = 0.03109430
#
# Stress axis : x y z
#
# Youngs Moduli (GPa) = 32.91328 70.12645 69.64929
#
# Poissons Ratio (x) = 0.59526 0.49658
# Poissons Ratio (y) = 0.27938 -0.11597
# Poissons Ratio (z) = 0.23466 -0.11677
#
# Static dielectric constant tensor:
#      x y z
#    x 3.413370 0.000000 -0.128070 
#    y 0.000000 3.467090 0.000000 
#    z -0.128070 0.000000 3.765010 
# 
# 
# High freq. dielectric constant tensor:
#      x y z
#    x 1.757060 0.000000 -0.016790 
#    y 0.000000 1.766410 0.000000 
#    z -0.016790 0.000000 1.803360 
# 
# From -- ./inp_files/9677.got.cif
#   From: 2010.06.25/outbox.cif.g09.slc.cpg/sg10_5_cif.got.tgz:9677.got - 2010.06.27 22:07:45.
