data_PCOD8061960
_publ_section_title
;
Structure prediction by ZEFSAII (Michael W. Deem and Ramdas Pophale) SiO2 
 PCOD8061960
Probable space group: P 2/M
;
_chemical_formula_sum "Si O2"
_cell_formula_units_Z 32
_cell_length_a 13.998170
_cell_length_b 18.510378
_cell_length_c 14.630547
_cell_angle_alpha 90.000000
_cell_angle_beta 30.020995
_cell_angle_gamma 90.000000
_cell_volume 1896.673777
_symmetry_space_group_name_H-M "P 2/M"
_symmetry_group_IT_number 10
_symmetry_cell_setting 'monoclinic'
loop_
_space_group_symop_operation_xyz
x,y,z
-x,y,-z
-x,-y,-z
x,-y,z
loop_
_atom_site_type_symbol
_atom_site_label
_atom_site_fract_x
_atom_site_fract_y
_atom_site_fract_z
Si Si1 0.029291 0.669312 0.080247
Si Si2 0.270092 0.080652 0.084406
Si Si3 0.658017 0.583356 0.440994
Si Si4 0.108551 0.775964 0.168436
Si Si5 0.522373 0.308240 0.086236
Si Si6 0.707662 0.080534 0.720694
Si Si7 0.853237 0.774022 0.544522
Si Si8 0.602371 0.583268 0.174020
O O1 0.069600 0.743626 0.100823
O O2 0.847082 0.630413 0.274691
O O3 0.209105 0.616358 0.936792
O O4 0.000000 0.691265 0.000000
O O5 0.139306 0.137479 0.137100
O O6 0.266544 0.099372 0.194368
O O7 0.191078 0.000000 0.130854
O O8 0.488627 0.085634 0.870789
O O9 0.500000 0.610524 0.500000
O O10 0.709794 0.500000 0.378104
O O11 0.576515 0.593732 0.610259
O O12 0.931618 0.754213 0.379662
O O13 0.298880 0.744552 0.055918
O O14 0.344282 0.265804 0.275011
O O15 0.554533 0.380784 0.116992
O O16 0.500000 0.331676 0.000000
O O17 0.829556 0.138955 0.564413
O O18 0.786511 0.000000 0.634254
O O19 0.000000 0.747714 0.500000
O O20 0.644297 0.500000 0.120278
#
# Coordination Sequence:
#
# PCOD8061960 Si02
#       8
#     4   4   4   4   4   4   4   4
#     4  11  22  37  57  80 105 129 172 218 261 314
#     4   9  16  30  49  72 106 139 170 211 255 296
#     4  10  19  34  57  82 108 131 158 207 273 321
#     4  11  22  34  52  77 102 141 176 211 260 305
#     4  11  21  36  51  72 109 141 178 212 244 299
#     4   9  17  28  47  75 107 138 170 211 253 297
#     4  12  20  30  52  74 107 145 175 207 252 303
#     4  10  22  37  57  80 102 136 171 211 263 310
#
# _framework density 16.871642000000001
#
# number of rings (size 3 to 8) (size 9 to 14) (size 15 to 20)
#    0.000    1.625    5.000    1.875    0.000    1.500 
#    0.000    0.000    0.000    0.750    0.000    0.000 
#    0.000    2.500    0.000    0.000    0.000    0.000 
#
# Total GULP energy -396844.652976 kJ/mol
# GULP energy per Si atom -12401.395406 kJ/mol
# Density = 1.683324 g / cm^3
# Si number density = 16.871642 Si / 1000 Ang^3
#
#
#
# Elastic Constant Matrix: (Units=GPa)
#
#
# Indices 1 2 3 4 5 6 
#
# 1 94.0239 53.1123 37.4159 0.0000 6.9742 0.0000
# 2 53.1123 104.9625 39.3903 0.0000 5.4321 0.0000
# 3 37.4159 39.3903 93.9246 0.0000 -0.3820 0.0000
# 4 0.0000 0.0000 0.0000 102.4262 0.0000 6.7948
# 5 6.9742 5.4321 -0.3820 0.0000 21.7521 0.0000
# 6 0.0000 0.0000 0.0000 6.7948 0.0000 21.5478
#
#
#
# Elastic Compliance Matrix: (Units=1/GPa)
#
#
# Indices 1 2 3 4 5 6 
#
# 1 0.016070 -0.006573 -0.003660 0.000000 -0.003575 0.000000
# 2 -0.006573 0.014182 -0.003335 0.000000 -0.001493 0.000000
# 3 -0.003660 -0.003335 0.013513 0.000000 0.002244 0.000000
# 4 0.000000 0.000000 0.000000 0.009972 0.000000 -0.003144
# 5 -0.003575 -0.001493 0.002244 0.000000 0.047531 0.000000
# 6 0.000000 0.000000 0.000000 -0.003144 0.000000 0.047400
#
#
# Mechanical properties :
#
#
# Convention : Reuss Voigt Hill
#
# Bulk Modulus (GPa) = 60.13706 61.41644 60.77675
# Shear Modulus (GPa) = 27.57140 40.01136 33.79138
#
# Velocity S-wave (km/s) = 4.04689 4.87510 4.48018
# Velocity P-wave (km/s) = 7.58668 8.25652 7.92867
#
# Compressibility (1/GPa) = 0.01662868
#
# Stress axis : x y z
#
# Youngs Moduli (GPa) = 62.22690 70.51021 74.00518
#
# Poissons Ratio (x) = 0.46349 0.27083
# Poissons Ratio (y) = 0.40904 0.24683
# Poissons Ratio (z) = 0.22772 0.23517
#
# Static dielectric constant tensor:
#      x y z
#    x 2.954950 0.000000 -0.083460 
#    y 0.000000 3.173690 0.000000 
#    z -0.083460 0.000000 3.262500 
# 
# 
# High freq. dielectric constant tensor:
#      x y z
#    x 1.619350 0.000000 -0.010270 
#    y 0.000000 1.648130 0.000000 
#    z -0.010270 0.000000 1.666570 
# 
# From -- ./inp_files/67720.got.cif
#   From: 2010.06.25/outbox.cif.g09.slc.cpg/sg10_34_cif.got.tgz:67720.got - 2010.06.27 22:07:45.
