data_PCOD8061825
_publ_section_title
;
Structure prediction by ZEFSAII (Michael W. Deem and Ramdas Pophale) SiO2 
 PCOD8061825
Probable space group: P 2/M
;
_chemical_formula_sum "Si O2"
_cell_formula_units_Z 26
_cell_length_a 25.674293
_cell_length_b 10.416104
_cell_length_c 5.169759
_cell_angle_alpha 90.000000
_cell_angle_beta 101.405351
_cell_angle_gamma 90.000000
_cell_volume 1355.227328
_symmetry_space_group_name_H-M "P 2/M"
_symmetry_group_IT_number 10
_symmetry_cell_setting 'monoclinic'
loop_
_space_group_symop_operation_xyz
x,y,z
-x,y,-z
-x,-y,-z
x,-y,z
loop_
_atom_site_type_symbol
_atom_site_label
_atom_site_fract_x
_atom_site_fract_y
_atom_site_fract_z
Si Si1 0.464386 0.145317 0.213817
Si Si2 0.963797 0.500000 0.213608
Si Si3 0.305966 0.351156 0.534658
Si Si4 0.123797 0.716943 0.900583
Si Si5 0.187438 0.347318 0.463127
Si Si6 0.973582 0.854074 0.224593
Si Si7 0.628699 0.348443 0.911330
O O1 0.500000 0.160500 0.500000
O O2 0.421035 0.256997 0.185959
O O3 0.439899 0.000000 0.178854
O O4 0.500000 0.171349 0.000000
O O5 0.925132 0.620747 0.175282
O O6 0.000000 0.500000 0.500000
O O7 0.000000 0.500000 0.000000
O O8 0.299645 0.500000 0.586134
O O9 0.247077 0.291252 0.491745
O O10 0.330016 0.323452 0.278388
O O11 0.344282 0.298205 0.797829
O O12 0.167611 0.695932 0.724132
O O13 0.091338 0.849914 0.840205
O O14 0.151602 0.713100 0.205162
O O15 0.185383 0.500000 0.432690
O O16 0.000000 0.785049 0.500000
O O17 0.992358 0.000000 0.244074
O O18 0.000000 0.785600 0.000000
O O19 0.611859 0.500000 0.905111
#
# Coordination Sequence:
#
# PCOD8061825 Si02
#       7
#     4   2   4   4   4   4   4
#     4  10  21  36  55  81 115 152 184 217 266 329
#     4  12  22  32  46  72 108 130 156 200 256 316
#     4   9  19  33  54  77 106 139 177 225 261 307
#     4  12  21  34  53  76 103 133 167 209 258 314
#     4  11  20  35  52  78 107 137 172 207 262 324
#     4  10  21  38  56  72  93 129 172 208 250 307
#     4  10  19  34  55  82 108 141 187 229 269 303
#
# _framework density 19.184971999999998
#
# number of rings (size 3 to 8) (size 9 to 14) (size 15 to 20)
#    0.000    1.538    1.538    4.615    0.000    3.077 
#    0.000    0.000    0.000    5.538    0.000    0.000 
#    0.000    0.000    0.000    0.000    0.000    0.000 
#
# Total GULP energy -322295.096602 kJ/mol
# GULP energy per Si atom -12395.965254 kJ/mol
# Density = 1.914131 g / cm^3
# Si number density = 19.184972 Si / 1000 Ang^3
#
#
#
# Elastic Constant Matrix: (Units=GPa)
#
#
# Indices 1 2 3 4 5 6 
#
# 1 103.1597 37.3465 23.2223 0.0000 1.4895 0.0000
# 2 37.3465 51.4814 18.4907 0.0000 4.7544 0.0000
# 3 23.2223 18.4907 109.6944 0.0000 -4.2176 0.0000
# 4 0.0000 0.0000 0.0000 9.8410 0.0000 3.2915
# 5 1.4895 4.7544 -4.2176 0.0000 35.8856 0.0000
# 6 0.0000 0.0000 0.0000 3.2915 0.0000 16.3546
#
#
#
# Elastic Compliance Matrix: (Units=1/GPa)
#
#
# Indices 1 2 3 4 5 6 
#
# 1 0.013319 -0.009267 -0.001237 0.000000 0.000530 0.000000
# 2 -0.009267 0.027487 -0.002810 0.000000 -0.003587 0.000000
# 3 -0.001237 -0.002810 0.009913 0.000000 0.001589 0.000000
# 4 0.000000 0.000000 0.000000 0.108950 0.000000 -0.021927
# 5 0.000530 -0.003587 0.001589 0.000000 0.028506 0.000000
# 6 0.000000 0.000000 0.000000 -0.021927 0.000000 0.065558
#
#
# Mechanical properties :
#
#
# Convention : Reuss Voigt Hill
#
# Bulk Modulus (GPa) = 41.50717 46.93938 44.22328
# Shear Modulus (GPa) = 17.33750 24.76796 21.05273
#
# Velocity S-wave (km/s) = 3.00943 3.59696 3.31623
# Velocity P-wave (km/s) = 5.81014 6.46302 6.14526
#
# Compressibility (1/GPa) = 0.02409222
#
# Stress axis : x y z
#
# Youngs Moduli (GPa) = 75.07817 36.38022 100.87916
#
# Poissons Ratio (x) = 0.33713 0.12482
# Poissons Ratio (y) = 0.69574 0.28343
# Poissons Ratio (z) = 0.09289 0.10221
#
# Static dielectric constant tensor:
#      x y z
#    x 3.572960 0.000000 -0.069640 
#    y 0.000000 4.278860 0.000000 
#    z -0.069640 0.000000 3.800240 
# 
# 
# High freq. dielectric constant tensor:
#      x y z
#    x 1.748540 0.000000 -0.006970 
#    y 0.000000 1.717900 0.000000 
#    z -0.006970 0.000000 1.771540 
# 
# From -- ./inp_files/12305.got.cif
#   From: 2010.06.25/outbox.cif.g09.slc.cpg/sg10_7_cif.got.tgz:12305.got - 2010.06.27 22:07:45.
