data_PCOD8061587
_publ_section_title
;
Structure prediction by ZEFSAII (Michael W. Deem and Ramdas Pophale) SiO2 
 PCOD8061587
Probable space group: P 2/M
;
_chemical_formula_sum "Si O2"
_cell_formula_units_Z 30
_cell_length_a 7.688595
_cell_length_b 12.971332
_cell_length_c 16.036714
_cell_angle_alpha 90.000000
_cell_angle_beta 71.493598
_cell_angle_gamma 90.000000
_cell_volume 1516.656701
_symmetry_space_group_name_H-M "P 2/M"
_symmetry_group_IT_number 10
_symmetry_cell_setting 'monoclinic'
loop_
_space_group_symop_operation_xyz
x,y,z
-x,y,-z
-x,-y,-z
x,-y,z
loop_
_atom_site_type_symbol
_atom_site_label
_atom_site_fract_x
_atom_site_fract_y
_atom_site_fract_z
Si Si1 0.041880 0.379900 0.820686
Si Si2 0.746848 0.888354 0.115994
Si Si3 0.613449 0.738033 0.257095
Si Si4 0.018606 0.117725 0.401921
Si Si5 0.382083 0.887697 0.091229
Si Si6 0.772584 0.251974 0.759888
Si Si7 0.613684 0.114572 0.399678
Si Si8 0.000000 0.261524 0.000000
O O1 0.012342 0.500000 0.837146
O O2 0.253166 0.361295 0.758001
O O3 0.905428 0.344874 0.766514
O O4 0.993409 0.330130 0.918037
O O5 0.759943 0.822333 0.198354
O O6 0.530134 0.906582 0.141095
O O7 0.846784 0.000000 0.108092
O O8 0.827399 0.818600 0.027578
O O9 0.434837 0.708576 0.228704
O O10 0.547374 0.789937 0.352973
O O11 0.826869 0.126283 0.385070
O O12 0.000000 0.156412 0.500000
O O13 0.159165 0.190734 0.331602
O O14 0.093189 0.000000 0.389712
O O15 0.223725 0.819394 0.156838
O O16 0.304389 0.000000 0.071935
O O17 0.500000 0.833144 0.000000
O O18 0.500000 0.126926 0.500000
O O19 0.575316 0.000000 0.366691
#
# Coordination Sequence:
#
# PCOD8061587 Si02
#       8
#     4   4   4   4   4   4   4   2
#     4  11  24  42  61  83 112 149 207 267 313 359
#     4   9  17  29  49  79 117 152 186 225 277 352
#     4  10  21  37  57  84 116 158 196 244 300 353
#     4  10  20  34  56  93 132 164 199 235 283 355
#     4   9  17  29  47  76 115 153 188 227 276 346
#     4  11  21  37  61  85 116 159 199 248 303 358
#     4  10  19  33  56  89 129 165 194 229 284 356
#     4  10  20  36  58  84 116 156 196 248 310 358
#
# _framework density 19.780349999999999
#
# number of rings (size 3 to 8) (size 9 to 14) (size 15 to 20)
#    0.000    2.000    1.333    2.800    0.000    3.200 
#    0.000    1.333    0.000    9.200    0.000    0.000 
#    0.000    0.000    0.000    0.000    0.000    0.000 
#
# Total GULP energy -371655.552010 kJ/mol
# GULP energy per Si atom -12388.518400 kJ/mol
# Density = 1.973533 g / cm^3
# Si number density = 19.780350 Si / 1000 Ang^3
#
#
#
# Elastic Constant Matrix: (Units=GPa)
#
#
# Indices 1 2 3 4 5 6 
#
# 1 89.1204 33.3165 19.4893 0.0000 -7.3907 0.0000
# 2 33.3165 99.3711 36.2330 0.0000 -6.7370 0.0000
# 3 19.4893 36.2330 91.4946 0.0000 -3.9347 0.0000
# 4 0.0000 0.0000 0.0000 21.9609 0.0000 -0.5814
# 5 -7.3907 -6.7370 -3.9347 0.0000 27.0523 0.0000
# 6 0.0000 0.0000 0.0000 -0.5814 0.0000 15.7689
#
#
#
# Elastic Compliance Matrix: (Units=1/GPa)
#
#
# Indices 1 2 3 4 5 6 
#
# 1 0.013102 -0.003795 -0.001182 0.000000 0.002463 0.000000
# 2 -0.003795 0.013000 -0.004272 0.000000 0.001579 0.000000
# 3 -0.001182 -0.004272 0.012894 0.000000 0.000489 0.000000
# 4 0.000000 0.000000 0.000000 0.045580 0.000000 0.001681
# 5 0.002463 0.001579 0.000489 0.000000 0.038103 0.000000
# 6 0.000000 0.000000 0.000000 0.001681 0.000000 0.063478
#
#
# Mechanical properties :
#
#
# Convention : Reuss Voigt Hill
#
# Bulk Modulus (GPa) = 48.78375 50.89597 49.83986
# Shear Modulus (GPa) = 23.64196 25.68622 24.66409
#
# Velocity S-wave (km/s) = 3.46095 3.60748 3.53498
# Velocity P-wave (km/s) = 6.37865 6.56798 6.47401
#
# Compressibility (1/GPa) = 0.02049863
#
# Stress axis : x y z
#
# Youngs Moduli (GPa) = 76.32324 76.92101 77.55410
#
# Poissons Ratio (x) = 0.29190 0.09169
# Poissons Ratio (y) = 0.28963 0.33131
# Poissons Ratio (z) = 0.09023 0.32861
#
# Static dielectric constant tensor:
#      x y z
#    x 2.692710 0.000000 0.095530 
#    y 0.000000 3.454630 0.000000 
#    z 0.095530 0.000000 3.573290 
# 
# 
# High freq. dielectric constant tensor:
#      x y z
#    x 1.775680 0.000000 -0.003720 
#    y 0.000000 1.729770 0.000000 
#    z -0.003720 0.000000 1.773930 
# 
# From -- ./inp_files/74994.got.cif
#   From: 2010.06.25/outbox.cif.g09.slc.cpg/sg10_38_cif.got.tgz:74994.got - 2010.06.27 22:07:45.
