data_PCOD8061310
_publ_section_title
;
Structure prediction by ZEFSAII (Michael W. Deem and Ramdas Pophale) SiO2 
 PCOD8061310
Probable space group: P 2/M
;
_chemical_formula_sum "Si O2"
_cell_formula_units_Z 28
_cell_length_a 10.359565
_cell_length_b 7.597710
_cell_length_c 31.203599
_cell_angle_alpha 90.000000
_cell_angle_beta 36.021818
_cell_angle_gamma 90.000000
_cell_volume 1444.358952
_symmetry_space_group_name_H-M "P 2/M"
_symmetry_group_IT_number 10
_symmetry_cell_setting 'monoclinic'
loop_
_space_group_symop_operation_xyz
x,y,z
-x,y,-z
-x,-y,-z
x,-y,z
loop_
_atom_site_type_symbol
_atom_site_label
_atom_site_fract_x
_atom_site_fract_y
_atom_site_fract_z
Si Si1 0.853668 0.500000 0.920264
Si Si2 0.806979 0.210926 0.186029
Si Si3 0.913488 0.707716 0.590589
Si Si4 0.216616 0.794898 0.710059
Si Si5 0.629385 0.801562 0.742528
Si Si6 0.255192 0.210165 0.195226
Si Si7 0.685050 0.299300 0.567978
Si Si8 0.432236 0.500000 0.087591
O O1 0.735678 0.500000 0.906363
O O2 0.993740 0.320505 0.888016
O O3 0.681812 0.500000 0.005025
O O4 0.788214 0.275449 0.240151
O O5 0.586358 0.279537 0.221783
O O6 0.848960 0.000000 0.170709
O O7 0.895689 0.500000 0.601886
O O8 0.840466 0.792377 0.654969
O O9 0.751319 0.780948 0.596531
O O10 0.160720 0.774578 0.511990
O O11 0.427687 0.722242 0.627603
O O12 0.999178 0.737785 0.743405
O O13 0.244878 0.000000 0.703996
O O14 0.683211 0.717378 0.774165
O O15 0.571312 0.000000 0.768463
O O16 0.400343 0.320295 0.122950
O O17 0.291514 0.000000 0.178327
O O18 0.755225 0.500000 0.552204
#
# Coordination Sequence:
#
# PCOD8061310 Si02
#       8
#     2   4   4   4   4   4   4   2
#     4  11  24  39  65  95 116 146 191 236 283 350
#     4  10  21  37  59  91 118 146 194 241 283 334
#     4   9  18  31  48  79 114 148 190 240 293 332
#     4  10  19  33  54  80 110 149 192 234 284 331
#     4  10  21  37  58  83 115 156 195 236 289 340
#     4  10  23  41  59  86 121 153 192 238 282 345
#     4   9  18  30  49  78 114 149 188 243 292 332
#     4  11  24  41  63  93 116 153 192 220 297 355
#
# _framework density 19.385763000000001
#
# number of rings (size 3 to 8) (size 9 to 14) (size 15 to 20)
#    0.000    2.143    2.857    0.857    4.000    1.143 
#    0.000    5.000    0.000    6.857    0.000    0.000 
#    0.000    0.000    0.000    0.000    0.000    0.000 
#
# Total GULP energy -347025.099387 kJ/mol
# GULP energy per Si atom -12393.753550 kJ/mol
# Density = 1.934164 g / cm^3
# Si number density = 19.385763 Si / 1000 Ang^3
#
#
#
# Elastic Constant Matrix: (Units=GPa)
#
#
# Indices 1 2 3 4 5 6 
#
# 1 123.2109 31.9386 69.7855 0.0000 0.4609 0.0000
# 2 31.9386 50.1775 40.0703 0.0000 -3.2506 0.0000
# 3 69.7855 40.0703 163.0838 0.0000 -7.5526 0.0000
# 4 0.0000 0.0000 0.0000 15.1748 0.0000 -3.3124
# 5 0.4609 -3.2506 -7.5526 0.0000 29.0452 0.0000
# 6 0.0000 0.0000 0.0000 -3.3124 0.0000 13.5262
#
#
#
# Elastic Compliance Matrix: (Units=1/GPa)
#
#
# Indices 1 2 3 4 5 6 
#
# 1 0.011454 -0.004259 -0.003933 0.000000 -0.001681 0.000000
# 2 -0.004259 0.026420 -0.004584 0.000000 0.001832 0.000000
# 3 -0.003933 -0.004584 0.009029 0.000000 0.001897 0.000000
# 4 0.000000 0.000000 0.000000 0.069620 0.000000 0.017049
# 5 -0.001681 0.001832 0.001897 0.000000 0.035154 0.000000
# 6 0.000000 0.000000 0.000000 0.017049 0.000000 0.078106
#
#
# Mechanical properties :
#
#
# Convention : Reuss Voigt Hill
#
# Bulk Modulus (GPa) = 46.83644 68.89569 57.86606
# Shear Modulus (GPa) = 19.05123 24.52777 21.78950
#
# Velocity S-wave (km/s) = 3.13827 3.56089 3.35624
# Velocity P-wave (km/s) = 6.11100 7.24728 6.70326
#
# Compressibility (1/GPa) = 0.02135090
#
# Stress axis : x y z
#
# Youngs Moduli (GPa) = 87.30676 37.85080 110.75624
#
# Poissons Ratio (x) = 0.16120 0.43557
# Poissons Ratio (y) = 0.37183 0.50772
# Poissons Ratio (z) = 0.34335 0.17351
#
# Static dielectric constant tensor:
#      x y z
#    x 3.644600 0.000000 -0.081670 
#    y 0.000000 3.405130 0.000000 
#    z -0.081670 0.000000 3.627540 
# 
# 
# High freq. dielectric constant tensor:
#      x y z
#    x 1.737580 0.000000 -0.007930 
#    y 0.000000 1.752170 0.000000 
#    z -0.007930 0.000000 1.749060 
# 
# From -- ./inp_files/92022.got.cif
#   From: 2010.06.25/outbox.cif.g09.slc.cpg/sg10_47_cif.got.tgz:92022.got - 2010.06.27 22:07:45.
