data_PCOD8061498
_publ_section_title
;
Structure prediction by ZEFSAII (Michael W. Deem and Ramdas Pophale) SiO2 
 PCOD8061498
Probable space group: P 2/M
;
_chemical_formula_sum "Si O2"
_cell_formula_units_Z 24
_cell_length_a 16.532960
_cell_length_b 8.606704
_cell_length_c 29.752347
_cell_angle_alpha 90.000000
_cell_angle_beta 17.702792
_cell_angle_gamma 90.000000
_cell_volume 1287.347611
_symmetry_space_group_name_H-M "P 2/M"
_symmetry_group_IT_number 10
_symmetry_cell_setting 'monoclinic'
loop_
_space_group_symop_operation_xyz
x,y,z
-x,y,-z
-x,-y,-z
x,-y,z
loop_
_atom_site_type_symbol
_atom_site_label
_atom_site_fract_x
_atom_site_fract_y
_atom_site_fract_z
Si Si1 0.684925 0.682941 0.442962
Si Si2 0.132425 0.679050 0.315346
Si Si3 0.279564 0.182483 0.836924
Si Si4 0.286898 0.321750 0.331393
Si Si5 0.578858 0.182527 0.592283
Si Si6 0.251244 0.816860 0.161803
O O1 0.500000 0.740719 0.500000
O O2 0.730561 0.500000 0.416898
O O3 0.536137 0.728167 0.567989
O O4 0.972888 0.764142 0.286963
O O5 0.045387 0.500000 0.355721
O O6 0.310741 0.701806 0.265192
O O7 0.301050 0.733609 0.183141
O O8 0.869223 0.782963 0.458636
O O9 0.492337 0.217401 0.762587
O O10 0.367717 0.245081 0.741062
O O11 0.249170 0.000000 0.848962
O O12 0.000000 0.259133 0.000000
O O13 0.332192 0.500000 0.321632
O O14 0.000000 0.264885 0.500000
O O15 0.549828 0.000000 0.598796
O O16 0.241880 0.000000 0.174115
O O17 0.500000 0.765633 0.000000
#
# Coordination Sequence:
#
# PCOD8061498 Si02
#       6
#     4   4   4   4   4   4
#     4  10  21  37  58  82 107 140 181 223 268 321
#     4  10  19  33  56  82 109 140 179 223 266 315
#     4  10  22  38  54  78 112 146 180 220 268 318
#     4  10  20  35  56  82 109 139 180 223 263 316
#     4  10  19  33  56  80 106 142 182 221 267 317
#     4  10  21  37  57  82 111 142 177 220 271 321
#
# _framework density 18.642983000000001
#
# number of rings (size 3 to 8) (size 9 to 14) (size 15 to 20)
#    0.000    2.000    1.667    4.000    0.000    5.333 
#    3.000    0.000    0.000    0.000    0.000    0.000 
#    0.000    0.000    0.000    0.000    0.000    0.000 
#
# Total GULP energy -297601.260445 kJ/mol
# GULP energy per Si atom -12400.052519 kJ/mol
# Density = 1.860055 g / cm^3
# Si number density = 18.642983 Si / 1000 Ang^3
#
#
#
# Elastic Constant Matrix: (Units=GPa)
#
#
# Indices 1 2 3 4 5 6 
#
# 1 130.2920 19.9837 68.6443 0.0000 11.9951 0.0000
# 2 19.9837 30.2543 14.9055 0.0000 8.1615 0.0000
# 3 68.6443 14.9055 142.6866 0.0000 20.0891 0.0000
# 4 0.0000 0.0000 0.0000 16.4364 0.0000 2.3948
# 5 11.9951 8.1615 20.0891 0.0000 24.7763 0.0000
# 6 0.0000 0.0000 0.0000 2.3948 0.0000 31.7731
#
#
#
# Elastic Compliance Matrix: (Units=1/GPa)
#
#
# Indices 1 2 3 4 5 6 
#
# 1 0.010924 -0.004920 -0.004770 0.000000 0.000199 0.000000
# 2 -0.004920 0.039222 -0.000279 0.000000 -0.010312 0.000000
# 3 -0.004770 -0.000279 0.010153 0.000000 -0.005831 0.000000
# 4 0.000000 0.000000 0.000000 0.061516 0.000000 -0.004637
# 5 0.000199 -0.010312 -0.005831 0.000000 0.048390 0.000000
# 6 0.000000 0.000000 0.000000 -0.004637 0.000000 0.031823
#
#
# Mechanical properties :
#
#
# Convention : Reuss Voigt Hill
#
# Bulk Modulus (GPa) = 24.77481 56.70001 40.73741
# Shear Modulus (GPa) = 21.23887 27.91046 24.57466
#
# Velocity S-wave (km/s) = 3.37893 3.87344 3.63460
# Velocity P-wave (km/s) = 5.34236 7.10523 6.28590
#
# Compressibility (1/GPa) = 0.04036358
#
# Stress axis : x y z
#
# Youngs Moduli (GPa) = 91.54065 25.49601 98.49274
#
# Poissons Ratio (x) = 0.12543 0.46976
# Poissons Ratio (y) = 0.45033 0.02745
# Poissons Ratio (z) = 0.43661 0.00710
#
# Static dielectric constant tensor:
#      x y z
#    x 3.502940 0.000000 0.244540 
#    y 0.000000 3.389280 0.000000 
#    z 0.244540 0.000000 3.620930 
# 
# 
# High freq. dielectric constant tensor:
#      x y z
#    x 1.725630 0.000000 0.017420 
#    y 0.000000 1.726420 0.000000 
#    z 0.017420 0.000000 1.714880 
# 
# From -- ./inp_files/95401.got.cif
#   From: 2010.06.25/outbox.cif.g09.slc.cpg/sg10_48_cif.got.tgz:95401.got - 2010.06.27 22:07:45.
