data_PCOD8061486
_publ_section_title
;
Structure prediction by ZEFSAII (Michael W. Deem and Ramdas Pophale) SiO2 
 PCOD8061486
Probable space group: P 2/M
;
_chemical_formula_sum "Si O2"
_cell_formula_units_Z 28
_cell_length_a 9.518325
_cell_length_b 21.378988
_cell_length_c 15.562051
_cell_angle_alpha 90.000000
_cell_angle_beta 28.995673
_cell_angle_gamma 90.000000
_cell_volume 1535.064265
_symmetry_space_group_name_H-M "P 2/M"
_symmetry_group_IT_number 10
_symmetry_cell_setting 'monoclinic'
loop_
_space_group_symop_operation_xyz
x,y,z
-x,y,-z
-x,-y,-z
x,-y,z
loop_
_atom_site_type_symbol
_atom_site_label
_atom_site_fract_x
_atom_site_fract_y
_atom_site_fract_z
Si Si1 0.625826 0.383328 0.024527
Si Si2 0.184380 0.073211 0.638989
Si Si3 0.192235 0.370603 0.629134
Si Si4 0.873936 0.292618 0.662350
Si Si5 0.442369 0.500000 0.219841
Si Si6 0.372914 0.068114 0.973032
Si Si7 0.173971 0.500000 0.542389
Si Si8 0.871758 0.849821 0.661897
O O1 0.959790 0.364343 0.831114
O O2 0.500000 0.406398 0.000000
O O3 0.439358 0.325448 0.160936
O O4 0.618915 0.438879 0.097158
O O5 0.500000 0.095475 0.500000
O O6 0.087193 0.113041 0.608972
O O7 0.180585 0.000000 0.615207
O O8 0.966496 0.085831 0.835805
O O9 0.500000 0.348649 0.500000
O O10 0.211234 0.440702 0.583321
O O11 0.109944 0.324252 0.596790
O O12 0.835367 0.221208 0.712652
O O13 0.000000 0.299678 0.500000
O O14 0.413418 0.500000 0.338511
O O15 0.136034 0.500000 0.336391
O O16 0.551395 0.119862 0.825720
O O17 0.405918 0.000000 0.910342
O O18 0.500000 0.064263 0.000000
O O19 0.000000 0.852082 0.500000
#
# Coordination Sequence:
#
# PCOD8061486 Si02
#       8
#     4   4   4   4   2   4   2   4
#     4  10  19  33  56  78 100 134 178 212 247 304
#     4   9  18  33  53  77 106 139 171 206 254 309
#     4  11  23  37  54  80 108 132 168 219 261 297
#     4  10  21  38  55  74 101 137 178 212 254 311
#     4  11  18  32  58  82 100 139 174 202 251 312
#     4   8  15  29  50  75 103 135 170 209 250 299
#     4  11  20  33  56  79 110 136 162 208 263 308
#     4  10  20  33  53  78 103 133 173 219 256 297
#
# _framework density 18.240278
#
# number of rings (size 3 to 8) (size 9 to 14) (size 15 to 20)
#    0.000    2.143    2.857    3.000    0.000    6.857 
#    0.000    4.286    0.000    6.000    0.000    0.000 
#    0.000    0.000    0.000    0.000    0.000    0.000 
#
# Total GULP energy -347153.558035 kJ/mol
# GULP energy per Si atom -12398.341358 kJ/mol
# Density = 1.819876 g / cm^3
# Si number density = 18.240278 Si / 1000 Ang^3
#
#
#
# Elastic Constant Matrix: (Units=GPa)
#
#
# Indices 1 2 3 4 5 6 
#
# 1 51.0057 42.6723 47.9672 0.0000 -11.1192 0.0000
# 2 42.6723 137.6565 60.4527 0.0000 -0.3086 0.0000
# 3 47.9672 60.4527 136.3084 0.0000 -16.0004 0.0000
# 4 0.0000 0.0000 0.0000 23.7482 0.0000 17.5409
# 5 -11.1192 -0.3086 -16.0004 0.0000 32.2148 0.0000
# 6 0.0000 0.0000 0.0000 17.5409 0.0000 8.0094
#
#
#
# Elastic Compliance Matrix: (Units=1/GPa)
#
#
# Indices 1 2 3 4 5 6 
#
# 1 0.035149 -0.007275 -0.008205 0.000000 0.007987 0.000000
# 2 -0.007275 0.010652 -0.002599 0.000000 -0.003700 0.000000
# 3 -0.008205 -0.002599 0.011724 0.000000 0.002966 0.000000
# 4 0.000000 0.000000 0.000000 -0.068179 0.000000 0.149316
# 5 0.007987 -0.003700 0.002966 0.000000 0.035236 0.000000
# 6 0.000000 0.000000 0.000000 0.149316 0.000000 -0.202155
#
#
# Mechanical properties :
#
#
# Convention : Reuss Voigt Hill
#
# Bulk Modulus (GPa) = 46.79660 69.68390 58.24025
# Shear Modulus (GPa) = -37.23248 24.38638 -6.42305
#
# Velocity S-wave (km/s) = -4.52289 3.66040 -1.87856
# Velocity P-wave (km/s) = 1.25062 7.49340 5.22431
#
# Compressibility (1/GPa) = 0.02136907
#
# Stress axis : x y z
#
# Youngs Moduli (GPa) = 28.44995 93.87486 85.29187
#
# Poissons Ratio (x) = 0.68291 0.69984
# Poissons Ratio (y) = 0.20697 0.22164
# Poissons Ratio (z) = 0.23344 0.24395
#
# Static dielectric constant tensor:
#      x y z
#    x 3.052710 0.000000 -0.079230 
#    y 0.000000 3.532000 0.000000 
#    z -0.079230 0.000000 3.929230 
# 
# 
# High freq. dielectric constant tensor:
#      x y z
#    x 1.669280 0.000000 0.004890 
#    y 0.000000 1.708250 0.000000 
#    z 0.004890 0.000000 1.723260 
# 
# From -- ./inp_files/62598.got.cif
#   From: 2010.06.25/outbox.cif.g09.slc.cpg/sg10_32_cif.got.tgz:62598.got - 2010.06.27 22:07:45.
