data_PCOD8061445
_publ_section_title
;
Structure prediction by ZEFSAII (Michael W. Deem and Ramdas Pophale) SiO2 
 PCOD8061445
Probable space group: P 2/M
;
_chemical_formula_sum "Si O2"
_cell_formula_units_Z 24
_cell_length_a 10.133884
_cell_length_b 8.813478
_cell_length_c 13.812243
_cell_angle_alpha 90.000000
_cell_angle_beta 89.849916
_cell_angle_gamma 90.000000
_cell_volume 1233.632987
_symmetry_space_group_name_H-M "P 2/M"
_symmetry_group_IT_number 10
_symmetry_cell_setting 'monoclinic'
loop_
_space_group_symop_operation_xyz
x,y,z
-x,y,-z
-x,-y,-z
x,-y,z
loop_
_atom_site_type_symbol
_atom_site_label
_atom_site_fract_x
_atom_site_fract_y
_atom_site_fract_z
Si Si1 0.112102 0.820230 0.574184
Si Si2 0.743120 0.820806 0.078364
Si Si3 0.610755 0.679106 0.424764
Si Si4 0.479551 0.821361 0.773545
Si Si5 0.028062 0.180852 0.784945
Si Si6 0.249189 0.180608 0.137952
O O1 0.250458 0.748743 0.541820
O O2 0.070711 0.758743 0.679813
O O3 0.000000 0.767049 0.500000
O O4 0.128971 0.000000 0.573770
O O5 0.609299 0.777453 0.133964
O O6 0.868998 0.755377 0.136228
O O7 0.758116 0.000000 0.071141
O O8 0.739739 0.751014 0.970517
O O9 0.500000 0.736100 0.500000
O O10 0.623389 0.500000 0.425346
O O11 0.572992 0.733131 0.318414
O O12 0.627366 0.766643 0.797488
O O13 0.470717 0.000000 0.751662
O O14 0.883065 0.243287 0.811350
O O15 0.027772 0.000000 0.784562
O O16 0.248145 0.000000 0.131617
#
# Coordination Sequence:
#
# PCOD8061445 Si02
#       6
#     4   4   4   4   4   4
#     4  10  21  37  60  88 113 137 178 234 283 329
#     4   9  15  27  47  76 114 146 175 216 269 325
#     4  11  25  42  58  78 108 147 189 228 275 333
#     4  10  19  33  55  82 110 140 181 228 274 320
#     4   9  16  28  46  77 113 142 172 213 270 328
#     4   9  17  26  46  81 116 145 173 216 271 324
#
# _framework density 19.454733000000001
#
# number of rings (size 3 to 8) (size 9 to 14) (size 15 to 20)
#    0.000    2.333    1.667    1.500    2.333    5.667 
#    0.000    0.000    0.000    2.000    0.000    1.167 
#    0.000    0.000    0.000    0.000    0.000    0.000 
#
# Total GULP energy -297606.881356 kJ/mol
# GULP energy per Si atom -12400.286723 kJ/mol
# Density = 1.941045 g / cm^3
# Si number density = 19.454733 Si / 1000 Ang^3
#
#
#
# Elastic Constant Matrix: (Units=GPa)
#
#
# Indices 1 2 3 4 5 6 
#
# 1 179.7823 25.3851 56.4181 0.0000 2.9505 0.0000
# 2 25.3851 19.0054 20.6608 0.0000 -0.5197 0.0000
# 3 56.4181 20.6608 104.7618 0.0000 2.0223 0.0000
# 4 0.0000 0.0000 0.0000 8.0058 0.0000 -3.2210
# 5 2.9505 -0.5197 2.0223 0.0000 40.2431 0.0000
# 6 0.0000 0.0000 0.0000 -3.2210 0.0000 12.0144
#
#
#
# Elastic Compliance Matrix: (Units=1/GPa)
#
#
# Indices 1 2 3 4 5 6 
#
# 1 0.007375 -0.007074 -0.002567 0.000000 -0.000503 0.000000
# 2 -0.007074 0.073855 -0.010795 0.000000 0.002015 0.000000
# 3 -0.002567 -0.010795 0.013068 0.000000 -0.000608 0.000000
# 4 0.000000 0.000000 0.000000 0.140011 0.000000 0.037536
# 5 -0.000503 0.002015 -0.000608 0.000000 0.024942 0.000000
# 6 0.000000 0.000000 0.000000 0.037536 0.000000 0.093296
#
#
# Mechanical properties :
#
#
# Convention : Reuss Voigt Hill
#
# Bulk Modulus (GPa) = 18.71700 56.49748 37.60724
# Shear Modulus (GPa) = 12.15870 25.45838 18.80854
#
# Velocity S-wave (km/s) = 2.50266 3.62138 3.11269
# Velocity P-wave (km/s) = 4.24179 6.82564 5.68252
#
# Compressibility (1/GPa) = 0.05342737
#
# Stress axis : x y z
#
# Youngs Moduli (GPa) = 135.59581 13.54005 76.51997
#
# Poissons Ratio (x) = 0.09578 0.19642
# Poissons Ratio (y) = 0.95917 0.82602
# Poissons Ratio (z) = 0.34806 0.14616
#
# Static dielectric constant tensor:
#      x y z
#    x 3.872530 0.000000 -0.039350 
#    y 0.000000 2.917470 0.000000 
#    z -0.039350 0.000000 3.745930 
# 
# 
# High freq. dielectric constant tensor:
#      x y z
#    x 1.779060 0.000000 0.000470 
#    y 0.000000 1.688500 0.000000 
#    z 0.000470 0.000000 1.769540 
# 
# From -- ./inp_files/60283.got.cif
#   From: 2010.06.25/outbox.cif.g09.slc.cpg/sg10_31_cif.got.tgz:60283.got - 2010.06.27 22:07:45.
