data_PCOD8061157
_publ_section_title
;
Structure prediction by ZEFSAII (Michael W. Deem and Ramdas Pophale) SiO2 
 PCOD8061157
Probable space group: P 2/M
;
_chemical_formula_sum "Si O2"
_cell_formula_units_Z 24
_cell_length_a 24.075922
_cell_length_b 8.994973
_cell_length_c 17.853287
_cell_angle_alpha 90.000000
_cell_angle_beta 160.407029
_cell_angle_gamma 90.000000
_cell_volume 1296.525770
_symmetry_space_group_name_H-M "P 2/M"
_symmetry_group_IT_number 10
_symmetry_cell_setting 'monoclinic'
loop_
_space_group_symop_operation_xyz
x,y,z
-x,y,-z
-x,-y,-z
x,-y,z
loop_
_atom_site_type_symbol
_atom_site_label
_atom_site_fract_x
_atom_site_fract_y
_atom_site_fract_z
Si Si1 0.353569 0.826481 0.015255
Si Si2 0.818928 0.332649 0.804832
Si Si3 0.088983 0.675247 0.782364
Si Si4 0.293306 0.827740 0.476270
Si Si5 0.054487 0.824922 0.896135
Si Si6 0.862359 0.836065 0.388976
O O1 0.546440 0.789719 0.270501
O O2 0.314079 0.000000 0.981030
O O3 0.247705 0.727762 0.937518
O O4 0.306362 0.787319 0.868606
O O5 0.761280 0.500000 0.749891
O O6 0.694262 0.261900 0.585842
O O7 0.818436 0.236083 0.879888
O O8 0.000000 0.329672 0.000000
O O9 0.090699 0.500000 0.792599
O O10 0.101287 0.747933 0.878710
O O11 0.916739 0.722953 0.523066
O O12 0.133663 0.781201 0.321799
O O13 0.283343 0.000000 0.441830
O O14 0.078899 0.000000 0.919744
O O15 0.000000 0.841042 0.500000
O O16 0.841730 0.000000 0.399197
#
# Coordination Sequence:
#
# PCOD8061157 Si02
#       6
#     4   4   4   4   4   4
#     4   9  18  34  54  75  99 127 163 205 245 289
#     4   9  17  30  49  73 101 131 161 196 241 293
#     4  11  21  32  49  74 102 131 164 202 245 292
#     4   9  18  33  54  77  98 126 165 204 243 289
#     4  10  19  33  53  74  98 130 167 204 241 286
#     4   8  15  30  51  71  94 128 166 201 239 287
#
# _framework density 18.511009000000001
#
# number of rings (size 3 to 8) (size 9 to 14) (size 15 to 20)
#    0.000    2.667    0.000    3.500    0.000    6.333 
#    0.000    1.667    0.000   10.000    0.000    0.000 
#    0.000    0.000    0.000    0.000    0.000    0.000 
#
# Total GULP energy -297542.749358 kJ/mol
# GULP energy per Si atom -12397.614557 kJ/mol
# Density = 1.846888 g / cm^3
# Si number density = 18.511009 Si / 1000 Ang^3
#
#
#
# Elastic Constant Matrix: (Units=GPa)
#
#
# Indices 1 2 3 4 5 6 
#
# 1 33.8471 14.8396 -24.9696 0.0000 -4.5096 0.0000
# 2 14.8396 84.8334 -4.8070 0.0000 -1.2628 0.0000
# 3 -24.9696 -4.8070 40.3555 0.0000 -1.9034 0.0000
# 4 0.0000 0.0000 0.0000 9.8632 0.0000 -1.4715
# 5 -4.5096 -1.2628 -1.9034 0.0000 16.1516 0.0000
# 6 0.0000 0.0000 0.0000 -1.4715 0.0000 23.0773
#
#
#
# Elastic Compliance Matrix: (Units=1/GPa)
#
#
# Indices 1 2 3 4 5 6 
#
# 1 0.067316 -0.009073 0.041655 0.000000 0.022994 0.000000
# 2 -0.009073 0.013110 -0.004146 0.000000 -0.001997 0.000000
# 3 0.041655 -0.004146 0.050876 0.000000 0.017301 0.000000
# 4 0.000000 0.000000 0.000000 0.102361 0.000000 0.006527
# 5 0.022994 -0.001997 0.017301 0.000000 0.070216 0.000000
# 6 0.000000 0.000000 0.000000 0.006527 0.000000 0.043749
#
#
# Mechanical properties :
#
#
# Convention : Reuss Voigt Hill
#
# Bulk Modulus (GPa) = 5.31426 14.35134 9.83280
# Shear Modulus (GPa) = 14.14507 21.41661 17.78084
#
# Velocity S-wave (km/s) = 2.76731 3.40511 3.10264
# Velocity P-wave (km/s) = 3.61771 4.81969 4.26129
#
# Compressibility (1/GPa) = 0.18817297
#
# Stress axis : x y z
#
# Youngs Moduli (GPa) = 14.85541 76.27643 19.65582
#
# Poissons Ratio (x) = 0.69203 -0.81876
# Poissons Ratio (y) = 0.13478 0.08150
# Poissons Ratio (z) = -0.61880 0.31626
#
# Static dielectric constant tensor:
#      x y z
#    x 3.228230 0.000000 -0.382090 
#    y 0.000000 3.429720 0.000000 
#    z -0.382090 0.000000 3.652360 
# 
# 
# High freq. dielectric constant tensor:
#      x y z
#    x 1.694370 0.000000 -0.030890 
#    y 0.000000 1.717260 0.000000 
#    z -0.030890 0.000000 1.712680 
# 
# From -- ./inp_files/45172.got.cif
#   From: 2010.06.25/outbox.cif.g09.slc.cpg/sg10_23_cif.got.tgz:45172.got - 2010.06.27 22:07:45.
