data_PCOD8061060
_publ_section_title
;
Structure prediction by ZEFSAII (Michael W. Deem and Ramdas Pophale) SiO2 
 PCOD8061060
Probable space group: P 2/M
;
_chemical_formula_sum "Si O2"
_cell_formula_units_Z 28
_cell_length_a 16.895707
_cell_length_b 10.378109
_cell_length_c 24.108623
_cell_angle_alpha 90.000000
_cell_angle_beta 159.067803
_cell_angle_gamma 90.000000
_cell_volume 1510.271191
_symmetry_space_group_name_H-M "P 2/M"
_symmetry_group_IT_number 10
_symmetry_cell_setting 'monoclinic'
loop_
_space_group_symop_operation_xyz
x,y,z
-x,y,-z
-x,-y,-z
x,-y,z
loop_
_atom_site_type_symbol
_atom_site_label
_atom_site_fract_x
_atom_site_fract_y
_atom_site_fract_z
Si Si1 0.590613 0.151474 0.303929
Si Si2 0.239781 0.850098 0.169885
Si Si3 0.023508 0.152958 0.748860
Si Si4 0.298057 0.735322 0.831727
Si Si5 0.423953 0.147385 0.078485
Si Si6 0.458161 0.154016 0.534696
Si Si7 0.056286 0.642194 0.474073
O O1 0.397085 0.174002 0.220893
O O2 0.507488 0.208841 0.190548
O O3 0.794254 0.243659 0.454015
O O4 0.663843 0.000000 0.350525
O O5 0.351968 0.792500 0.299327
O O6 0.202493 0.000000 0.156403
O O7 0.000000 0.785483 0.000000
O O8 0.115270 0.196445 0.749888
O O9 0.778177 0.208112 0.598811
O O10 0.020989 0.000000 0.747955
O O11 0.186836 0.206098 0.904337
O O12 0.401080 0.839864 0.856948
O O13 0.169281 0.631263 0.710003
O O14 0.500000 0.672872 0.000000
O O15 0.388235 0.000000 0.069580
O O16 0.500000 0.205851 0.500000
O O17 0.454908 0.000000 0.533483
O O18 0.169144 0.500000 0.545645
O O19 0.000000 0.680362 0.500000
#
# Coordination Sequence:
#
# PCOD8061060 Si02
#       7
#     4   4   4   4   4   4   4
#     4  10  20  34  55  80 107 138 180 219 259 312
#     4   9  18  30  47  74 105 134 168 217 266 307
#     4   9  17  28  46  71 105 137 169 216 263 304
#     4  10  19  33  51  73 100 132 175 217 253 307
#     4   9  17  28  46  75 104 137 170 211 261 308
#     4   9  17  27  40  61  95 138 173 201 253 318
#     4  11  23  38  54  76 108 143 176 214 262 313
#
# _framework density 18.539715999999999
#
# number of rings (size 3 to 8) (size 9 to 14) (size 15 to 20)
#    0.000    2.429    1.429    1.286    2.000    4.571 
#    0.000    0.000    0.000    0.429    0.000    0.000 
#    0.000    2.857    0.000    0.000    0.000    0.000 
#
# Total GULP energy -346949.163459 kJ/mol
# GULP energy per Si atom -12391.041552 kJ/mol
# Density = 1.849752 g / cm^3
# Si number density = 18.539716 Si / 1000 Ang^3
#
#
#
# Elastic Constant Matrix: (Units=GPa)
#
#
# Indices 1 2 3 4 5 6 
#
# 1 119.9598 15.3381 76.6691 0.0000 -3.6928 0.0000
# 2 15.3381 42.7198 28.3116 0.0000 6.1302 0.0000
# 3 76.6691 28.3116 158.9253 0.0000 -5.6429 0.0000
# 4 0.0000 0.0000 0.0000 5.0676 0.0000 0.2011
# 5 -3.6928 6.1302 -5.6429 0.0000 36.8365 0.0000
# 6 0.0000 0.0000 0.0000 0.2011 0.0000 5.1925
#
#
#
# Elastic Compliance Matrix: (Units=1/GPa)
#
#
# Indices 1 2 3 4 5 6 
#
# 1 0.012070 -0.000622 -0.005696 0.000000 0.000441 0.000000
# 2 -0.000622 0.027590 -0.004807 0.000000 -0.005390 0.000000
# 3 -0.005696 -0.004807 0.009959 0.000000 0.001754 0.000000
# 4 0.000000 0.000000 0.000000 0.197638 0.000000 -0.007653
# 5 0.000441 -0.005390 0.001754 0.000000 0.028357 0.000000
# 6 0.000000 0.000000 0.000000 -0.007653 0.000000 0.192882
#
#
# Mechanical properties :
#
#
# Convention : Reuss Voigt Hill
#
# Bulk Modulus (GPa) = 36.53636 62.47140 49.50388
# Shear Modulus (GPa) = 10.00263 22.83839 16.42051
#
# Velocity S-wave (km/s) = 2.32529 3.51360 2.97929
# Velocity P-wave (km/s) = 5.19222 7.08729 6.21244
#
# Compressibility (1/GPa) = 0.02736999
#
# Stress axis : x y z
#
# Youngs Moduli (GPa) = 82.85095 36.24443 100.41296
#
# Poissons Ratio (x) = 0.02253 0.57199
# Poissons Ratio (y) = 0.05151 0.48264
# Poissons Ratio (z) = 0.47195 0.17421
#
# Static dielectric constant tensor:
#      x y z
#    x 3.449350 0.000000 -0.148250 
#    y 0.000000 2.733860 0.000000 
#    z -0.148250 0.000000 3.957090 
# 
# 
# High freq. dielectric constant tensor:
#      x y z
#    x 1.724320 0.000000 -0.013500 
#    y 0.000000 1.640870 0.000000 
#    z -0.013500 0.000000 1.742610 
# 
# From -- ./inp_files/90158.got.cif
#   From: 2010.06.25/outbox.cif.g09.slc.cpg/sg10_46_cif.got.tgz:90158.got - 2010.06.27 22:07:45.
