data_PCOD8061716
_publ_section_title
;
Structure prediction by ZEFSAII (Michael W. Deem and Ramdas Pophale) SiO2 
 PCOD8061716
Probable space group: P 2/M
;
_chemical_formula_sum "Si O2"
_cell_formula_units_Z 18
_cell_length_a 17.899369
_cell_length_b 8.157914
_cell_length_c 5.013101
_cell_angle_alpha 90.000000
_cell_angle_beta 93.085770
_cell_angle_gamma 90.000000
_cell_volume 730.959214
_symmetry_space_group_name_H-M "P 2/M"
_symmetry_group_IT_number 10
_symmetry_cell_setting 'monoclinic'
loop_
_space_group_symop_operation_xyz
x,y,z
-x,y,-z
-x,-y,-z
x,-y,z
loop_
_atom_site_type_symbol
_atom_site_label
_atom_site_fract_x
_atom_site_fract_y
_atom_site_fract_z
Si Si1 0.211896 0.186381 0.300091
Si Si2 0.954163 0.195454 0.738431
Si Si3 0.553932 0.000000 0.764101
Si Si4 0.587965 0.322420 0.548652
Si Si5 0.693318 0.188510 0.159434
O O1 0.129950 0.269321 0.273069
O O2 0.241738 0.195758 0.605044
O O3 0.204669 0.000000 0.196000
O O4 0.270093 0.269969 0.100647
O O5 0.000000 0.267622 0.500000
O O6 0.949088 0.000000 0.719590
O O7 0.000000 0.256636 0.000000
O O8 0.500000 0.000000 0.500000
O O9 0.606080 0.167122 0.754506
O O10 0.500000 0.000000 0.000000
O O11 0.500000 0.328881 0.500000
O O12 0.615583 0.500000 0.664584
O O13 0.623605 0.291552 0.263229
O O14 0.664219 0.000000 0.110941
#
# Coordination Sequence:
#
# PCOD8061716 Si02
#       5
#     4   4   2   4   4
#     4   9  18  30  48  75 109 150 191 232 287 345
#     4   9  15  24  41  68 105 145 183 228 279 333
#     4  10  22  40  62  86 116 150 188 240 300 350
#     4  10  22  41  63  89 118 154 202 252 298 353
#     4  10  19  34  53  76 110 150 190 237 289 345
#
# _framework density 24.625177000000001
#
# number of rings (size 3 to 8) (size 9 to 14) (size 15 to 20)
#    0.000    2.444    1.111    1.333    0.000    9.333 
#    0.000    5.556    0.000    0.000    0.000    0.000 
#    0.000   17.778    0.000    0.000    0.000    0.000 
#
# Total GULP energy -223134.161941 kJ/mol
# GULP energy per Si atom -12396.342330 kJ/mol
# Density = 2.456913 g / cm^3
# Si number density = 24.625177 Si / 1000 Ang^3
#
#
#
# Elastic Constant Matrix: (Units=GPa)
#
#
# Indices 1 2 3 4 5 6 
#
# 1 144.9013 23.5408 23.7154 0.0000 -37.9379 0.0000
# 2 23.5408 132.1711 36.0146 0.0000 -10.1113 0.0000
# 3 23.7154 36.0146 125.5567 0.0000 -38.7825 0.0000
# 4 0.0000 0.0000 0.0000 12.0376 0.0000 7.2807
# 5 -37.9379 -10.1113 -38.7825 0.0000 44.6580 0.0000
# 6 0.0000 0.0000 0.0000 7.2807 0.0000 -6.4948
#
#
#
# Elastic Compliance Matrix: (Units=1/GPa)
#
#
# Indices 1 2 3 4 5 6 
#
# 1 0.009159 -0.001330 0.001315 0.000000 0.008622 0.000000
# 2 -0.001330 0.008403 -0.002624 0.000000 -0.001506 0.000000
# 3 0.001315 -0.002624 0.011794 0.000000 0.010765 0.000000
# 4 0.000000 0.000000 0.000000 0.049506 0.000000 0.055497
# 5 0.008622 -0.001506 0.010765 0.000000 0.038724 0.000000
# 6 0.000000 0.000000 0.000000 0.055497 0.000000 -0.091757
#
#
# Mechanical properties :
#
#
# Convention : Reuss Voigt Hill
#
# Bulk Modulus (GPa) = 41.53393 63.24118 52.38756
# Shear Modulus (GPa) = 127.76217 31.33073 79.54645
#
# Velocity S-wave (km/s) = 7.21078 3.57081 5.68973
# Velocity P-wave (km/s) = 9.28602 6.53744 8.03021
#
# Compressibility (1/GPa) = 0.02407670
#
# Stress axis : x y z
#
# Youngs Moduli (GPa) = 109.17644 119.00976 84.78809
#
# Poissons Ratio (x) = 0.15828 -0.11146
# Poissons Ratio (y) = 0.14520 0.22251
# Poissons Ratio (z) = -0.14351 0.31232
#
# Static dielectric constant tensor:
#      x y z
#    x 4.675210 0.000000 -0.149900 
#    y 0.000000 6.374910 0.000000 
#    z -0.149900 0.000000 4.583460 
# 
# 
# High freq. dielectric constant tensor:
#      x y z
#    x 2.003890 0.000000 -0.001800 
#    y 0.000000 1.919130 0.000000 
#    z -0.001800 0.000000 1.992560 
# 
# From -- ./inp_files/10549.got.cif
#   From: 2010.06.25/outbox.cif.g09.slc.cpg/sg10_6_cif.got.tgz:10549.got - 2010.06.27 22:07:45.
