data_PCOD8061375
_publ_section_title
;
Structure prediction by ZEFSAII (Michael W. Deem and Ramdas Pophale) SiO2 
 PCOD8061375
Probable space group: P 2/M
;
_chemical_formula_sum "Si O2"
_cell_formula_units_Z 32
_cell_length_a 23.706921
_cell_length_b 9.115972
_cell_length_c 11.574549
_cell_angle_alpha 90.000000
_cell_angle_beta 43.385331
_cell_angle_gamma 90.000000
_cell_volume 1718.211645
_symmetry_space_group_name_H-M "P 2/M"
_symmetry_group_IT_number 10
_symmetry_cell_setting 'monoclinic'
loop_
_space_group_symop_operation_xyz
x,y,z
-x,y,-z
-x,-y,-z
x,-y,z
loop_
_atom_site_type_symbol
_atom_site_label
_atom_site_fract_x
_atom_site_fract_y
_atom_site_fract_z
Si Si1 0.418345 0.666381 0.547929
Si Si2 0.340893 0.327949 0.288471
Si Si3 0.465646 0.171799 0.253801
Si Si4 0.128339 0.330404 0.995126
Si Si5 0.026342 0.834783 0.828488
Si Si6 0.820690 0.669844 0.334062
Si Si7 0.655766 0.172557 0.950667
Si Si8 0.277460 0.670506 0.932219
O O1 0.500000 0.677991 0.500000
O O2 0.404820 0.500000 0.522311
O O3 0.422131 0.775341 0.435088
O O4 0.343128 0.717931 0.738320
O O5 0.354968 0.500000 0.249629
O O6 0.425430 0.254416 0.205062
O O7 0.270523 0.293822 0.487035
O O8 0.314073 0.255342 0.208339
O O9 0.561279 0.212322 0.116919
O O10 0.451126 0.000000 0.259005
O O11 0.104780 0.500000 0.022413
O O12 0.173344 0.282260 0.809001
O O13 0.187568 0.298461 0.014687
O O14 0.044294 0.242344 0.142199
O O15 0.113852 0.755792 0.683953
O O16 0.035649 0.000000 0.770386
O O17 0.000000 0.825186 0.000000
O O18 0.841425 0.500000 0.318823
O O19 0.711804 0.230034 0.971484
O O20 0.668946 0.000000 0.915894
O O21 0.289850 0.500000 0.946439
#
# Coordination Sequence:
#
# PCOD8061375 Si02
#       8
#     4   4   4   4   4   4   4   4
#     4  10  19  33  55  79 105 137 177 222 262 308
#     4  11  23  38  58  79 101 135 183 229 266 311
#     4  11  23  37  54  77 108 141 177 221 272 324
#     4   9  17  31  53  80 110 139 170 210 257 311
#     4   9  17  29  49  79 112 141 169 202 251 314
#     4   9  18  34  55  80 108 136 170 213 263 312
#     4  11  24  39  53  73 105 143 181 222 271 319
#     4  10  20  35  55  79 106 141 183 222 263 312
#
# _framework density 18.624016000000001
#
# number of rings (size 3 to 8) (size 9 to 14) (size 15 to 20)
#    0.000    2.000    1.250    2.625    0.000    8.750 
#    0.000    2.500    0.000    0.750    0.000    5.250 
#    0.000    0.000    0.000    0.000    0.000    0.000 
#
# Total GULP energy -396924.507046 kJ/mol
# GULP energy per Si atom -12403.890845 kJ/mol
# Density = 1.858163 g / cm^3
# Si number density = 18.624016 Si / 1000 Ang^3
#
#
#
# Elastic Constant Matrix: (Units=GPa)
#
#
# Indices 1 2 3 4 5 6 
#
# 1 111.0889 56.5859 31.1064 0.0000 -3.2426 0.0000
# 2 56.5859 92.8006 33.2492 0.0000 -1.2981 0.0000
# 3 31.1064 33.2492 32.3574 0.0000 4.9497 0.0000
# 4 0.0000 0.0000 0.0000 21.2476 0.0000 1.1564
# 5 -3.2426 -1.2981 4.9497 0.0000 26.1589 0.0000
# 6 0.0000 0.0000 0.0000 1.1564 0.0000 29.0287
#
#
#
# Elastic Compliance Matrix: (Units=1/GPa)
#
#
# Indices 1 2 3 4 5 6 
#
# 1 0.014347 -0.005688 -0.008420 0.000000 0.003089 0.000000
# 2 -0.005688 0.019790 -0.015354 0.000000 0.003182 0.000000
# 3 -0.008420 -0.015354 0.056693 0.000000 -0.012533 0.000000
# 4 0.000000 0.000000 0.000000 0.047166 0.000000 -0.001879
# 5 0.003089 0.003182 -0.012533 0.000000 0.041140 0.000000
# 6 0.000000 0.000000 0.000000 -0.001879 0.000000 0.034524
#
#
# Mechanical properties :
#
#
# Convention : Reuss Voigt Hill
#
# Bulk Modulus (GPa) = 31.34166 53.12556 42.23361
# Shear Modulus (GPa) = 17.65416 22.97406 20.31411
#
# Velocity S-wave (km/s) = 3.08218 3.51603 3.30623
# Velocity P-wave (km/s) = 5.43430 6.71346 6.10746
#
# Compressibility (1/GPa) = 0.03190642
#
# Stress axis : x y z
#
# Youngs Moduli (GPa) = 69.70013 50.53115 17.63879
#
# Poissons Ratio (x) = 0.28744 0.14852
# Poissons Ratio (y) = 0.39648 0.27082
# Poissons Ratio (z) = 0.58687 0.77583
#
# Static dielectric constant tensor:
#      x y z
#    x 3.450880 0.000000 -0.089650 
#    y 0.000000 3.418570 0.000000 
#    z -0.089650 0.000000 3.245670 
# 
# 
# High freq. dielectric constant tensor:
#      x y z
#    x 1.724850 0.000000 -0.010060 
#    y 0.000000 1.723960 0.000000 
#    z -0.010060 0.000000 1.698540 
# 
# From -- ./inp_files/55204.got.cif
#   From: 2010.06.25/outbox.cif.g09.slc.cpg/sg10_28_cif.got.tgz:55204.got - 2010.06.27 22:07:45.
