data_PCOD8061869
_publ_section_title
;
Structure prediction by ZEFSAII (Michael W. Deem and Ramdas Pophale) SiO2 
 PCOD8061869
Probable space group: P 2/M
;
_chemical_formula_sum "Si O2"
_cell_formula_units_Z 28
_cell_length_a 12.891453
_cell_length_b 13.906340
_cell_length_c 8.360698
_cell_angle_alpha 90.000000
_cell_angle_beta 75.497466
_cell_angle_gamma 90.000000
_cell_volume 1451.088408
_symmetry_space_group_name_H-M "P 2/M"
_symmetry_group_IT_number 10
_symmetry_cell_setting 'monoclinic'
loop_
_space_group_symop_operation_xyz
x,y,z
-x,y,-z
-x,-y,-z
x,-y,z
loop_
_atom_site_type_symbol
_atom_site_label
_atom_site_fract_x
_atom_site_fract_y
_atom_site_fract_z
Si Si1 0.496152 0.106717 0.812238
Si Si2 0.781594 0.606566 0.269861
Si Si3 0.688572 0.232123 0.724221
Si Si4 0.409822 0.605522 0.418340
Si Si5 0.093562 0.886945 0.845744
Si Si6 0.710157 0.776862 0.089968
Si Si7 0.899678 0.747926 0.431133
O O1 0.612010 0.142842 0.704536
O O2 0.403485 0.182869 0.802066
O O3 0.474312 0.000000 0.748620
O O4 0.500000 0.099988 0.000000
O O5 0.815735 0.500000 0.193154
O O6 0.697797 0.593579 0.442051
O O7 0.730523 0.669219 0.146543
O O8 0.882451 0.661902 0.309652
O O9 0.615721 0.327028 0.722878
O O10 0.794542 0.230328 0.576500
O O11 0.720627 0.227759 0.895946
O O12 0.500000 0.650774 0.500000
O O13 0.447910 0.500000 0.341496
O O14 0.204589 0.851495 0.875437
O O15 0.072067 0.843610 0.678552
O O16 0.097018 0.000000 0.824203
O O17 0.000000 0.853223 0.000000
O O18 0.000000 0.717863 0.500000
#
# Coordination Sequence:
#
# PCOD8061869 Si02
#       7
#     4   4   4   4   4   4   4
#     4   9  18  32  50  75 107 141 175 213 262 318
#     4   9  19  34  53  77 106 142 180 220 269 324
#     4  10  20  33  54  81 107 140 181 225 272 320
#     4   9  17  31  50  73 105 141 177 220 269 319
#     4  10  21  37  57  80 107 141 180 222 271 323
#     4  10  19  34  56  79 110 144 180 223 269 320
#     4  10  21  37  56  79 109 141 180 227 273 322
#
# _framework density 19.295860000000001
#
# number of rings (size 3 to 8) (size 9 to 14) (size 15 to 20)
#    0.000    2.429    0.000    2.143    0.000    2.286 
#    0.000    0.000    0.000   28.714    0.000    0.000 
#    0.000    0.000    0.000    0.000    0.000    0.000 
#
# Total GULP energy -347091.297926 kJ/mol
# GULP energy per Si atom -12396.117783 kJ/mol
# Density = 1.925194 g / cm^3
# Si number density = 19.295860 Si / 1000 Ang^3
#
#
#
# Elastic Constant Matrix: (Units=GPa)
#
#
# Indices 1 2 3 4 5 6 
#
# 1 108.0950 47.6785 25.9642 0.0000 3.6653 0.0000
# 2 47.6785 124.5284 43.6828 0.0000 2.4711 0.0000
# 3 25.9642 43.6828 55.4981 0.0000 2.8333 0.0000
# 4 0.0000 0.0000 0.0000 18.8106 0.0000 0.5840
# 5 3.6653 2.4711 2.8333 0.0000 31.6916 0.0000
# 6 0.0000 0.0000 0.0000 0.5840 0.0000 17.9296
#
#
#
# Elastic Compliance Matrix: (Units=1/GPa)
#
#
# Indices 1 2 3 4 5 6 
#
# 1 0.011422 -0.003449 -0.002587 0.000000 -0.000821 0.000000
# 2 -0.003449 0.012135 -0.007946 0.000000 0.000163 0.000000
# 3 -0.002587 -0.007946 0.025553 0.000000 -0.001366 0.000000
# 4 0.000000 0.000000 0.000000 0.053215 0.000000 -0.001733
# 5 -0.000821 0.000163 -0.001366 0.000000 0.031758 0.000000
# 6 0.000000 0.000000 0.000000 -0.001733 0.000000 0.055830
#
#
# Mechanical properties :
#
#
# Convention : Reuss Voigt Hill
#
# Bulk Modulus (GPa) = 47.29150 58.08582 52.68866
# Shear Modulus (GPa) = 22.22948 25.07276 23.65112
#
# Velocity S-wave (km/s) = 3.39784 3.60861 3.50481
# Velocity P-wave (km/s) = 6.32105 6.89426 6.61387
#
# Compressibility (1/GPa) = 0.02114545
#
# Stress axis : x y z
#
# Youngs Moduli (GPa) = 87.55251 82.40509 39.13445
#
# Poissons Ratio (x) = 0.28425 0.10122
# Poissons Ratio (y) = 0.30201 0.31097
# Poissons Ratio (z) = 0.22646 0.65481
#
# Static dielectric constant tensor:
#      x y z
#    x 3.606590 0.000000 0.016070 
#    y 0.000000 3.973900 0.000000 
#    z 0.016070 0.000000 3.350480 
# 
# 
# High freq. dielectric constant tensor:
#      x y z
#    x 1.757670 0.000000 0.002330 
#    y 0.000000 1.755990 0.000000 
#    z 0.002330 0.000000 1.731280 
# 
# From -- ./inp_files/24874.got.cif
#   From: 2010.06.25/outbox.cif.g09.slc.cpg/sg10_13_cif.got.tgz:24874.got - 2010.06.27 22:07:45.
