data_PCOD8061350
_publ_section_title
;
Structure prediction by ZEFSAII (Michael W. Deem and Ramdas Pophale) SiO2 
 PCOD8061350
Probable space group: P 2/M
;
_chemical_formula_sum "Si O2"
_cell_formula_units_Z 28
_cell_length_a 14.021000
_cell_length_b 9.402444
_cell_length_c 17.286764
_cell_angle_alpha 90.000000
_cell_angle_beta 135.860479
_cell_angle_gamma 90.000000
_cell_volume 1587.074023
_symmetry_space_group_name_H-M "P 2/M"
_symmetry_group_IT_number 10
_symmetry_cell_setting 'monoclinic'
loop_
_space_group_symop_operation_xyz
x,y,z
-x,y,-z
-x,-y,-z
x,-y,z
loop_
_atom_site_type_symbol
_atom_site_label
_atom_site_fract_x
_atom_site_fract_y
_atom_site_fract_z
Si Si1 0.864550 0.665090 0.806747
Si Si2 0.151344 0.836278 0.612336
Si Si3 0.187285 0.337416 0.394849
Si Si4 0.323712 0.666650 0.158807
Si Si5 0.928152 0.838424 0.267937
Si Si6 0.634345 0.335054 0.361969
Si Si7 0.135311 0.167902 0.940027
O O1 0.909527 0.500000 0.837361
O O2 0.789756 0.701309 0.681862
O O3 0.758300 0.704416 0.811337
O O4 0.998545 0.761598 0.895604
O O5 0.170947 0.815220 0.716347
O O6 0.269098 0.747124 0.640723
O O7 0.000000 0.783014 0.500000
O O8 0.169366 0.000000 0.598344
O O9 0.143153 0.500000 0.376837
O O10 0.323298 0.305362 0.523991
O O11 0.064456 0.250655 0.360964
O O12 0.312147 0.500000 0.132139
O O13 0.479110 0.715992 0.261989
O O14 0.266520 0.759630 0.055082
O O15 0.852063 0.797008 0.144018
O O16 0.978600 0.000000 0.292561
O O17 0.648858 0.500000 0.350033
O O18 0.133093 0.000000 0.955757
#
# Coordination Sequence:
#
# PCOD8061350 Si02
#       7
#     4   4   4   4   4   4   4
#     4   9  18  33  54  76 100 134 171 207 249 298
#     4  10  19  33  55  78 100 131 167 203 251 308
#     4   9  17  30  50  77 103 129 165 206 250 296
#     4  10  21  36  51  71 104 141 172 204 247 298
#     4   9  18  33  52  76 102 128 163 208 254 298
#     4  10  21  34  50  76 107 135 166 207 251 297
#     4  10  20  34  54  77 101 130 170 215 251 290
#
# _framework density 17.642529
#
# number of rings (size 3 to 8) (size 9 to 14) (size 15 to 20)
#    0.000    2.429    1.429    0.857    0.000    4.857 
#    0.000    3.571    0.000    4.286    0.000    6.000 
#    0.000    0.000    0.000    0.000    0.000    0.000 
#
# Total GULP energy -347183.154018 kJ/mol
# GULP energy per Si atom -12399.398358 kJ/mol
# Density = 1.760237 g / cm^3
# Si number density = 17.642529 Si / 1000 Ang^3
#
#
#
# Elastic Constant Matrix: (Units=GPa)
#
#
# Indices 1 2 3 4 5 6 
#
# 1 75.3379 33.6992 61.8664 0.0000 -2.1778 0.0000
# 2 33.6992 56.8500 55.9146 0.0000 2.9916 0.0000
# 3 61.8664 55.9146 143.1294 0.0000 7.0152 0.0000
# 4 0.0000 0.0000 0.0000 5.2047 0.0000 -23.2137
# 5 -2.1778 2.9916 7.0152 0.0000 22.7034 0.0000
# 6 0.0000 0.0000 0.0000 -23.2137 0.0000 4.4982
#
#
#
# Elastic Compliance Matrix: (Units=1/GPa)
#
#
# Indices 1 2 3 4 5 6 
#
# 1 0.022343 -0.006121 -0.007525 0.000000 0.005275 0.000000
# 2 -0.006121 0.030245 -0.009083 0.000000 -0.001766 0.000000
# 3 -0.007525 -0.009083 0.013976 0.000000 -0.003843 0.000000
# 4 0.000000 0.000000 0.000000 -0.008726 0.000000 -0.045035
# 5 0.005275 -0.001766 -0.003843 0.000000 0.045973 0.000000
# 6 0.000000 0.000000 0.000000 -0.045035 0.000000 -0.010097
#
#
# Mechanical properties :
#
#
# Convention : Reuss Voigt Hill
#
# Bulk Modulus (GPa) = 47.37928 64.25307 55.81617
# Shear Modulus (GPa) = 34.19787 14.73705 24.46746
#
# Velocity S-wave (km/s) = 4.40748 2.89332 3.72808
# Velocity P-wave (km/s) = 7.26736 6.90364 7.08783
#
# Compressibility (1/GPa) = 0.02110627
#
# Stress axis : x y z
#
# Youngs Moduli (GPa) = 44.75579 33.06308 71.55021
#
# Poissons Ratio (x) = 0.20238 0.53843
# Poissons Ratio (y) = 0.27394 0.64991
# Poissons Ratio (z) = 0.33679 0.30032
#
# Static dielectric constant tensor:
#      x y z
#    x 3.198030 0.000000 -0.233910 
#    y 0.000000 3.266550 0.000000 
#    z -0.233910 0.000000 3.476070 
# 
# 
# High freq. dielectric constant tensor:
#      x y z
#    x 1.669900 0.000000 -0.020320 
#    y 0.000000 1.680650 0.000000 
#    z -0.020320 0.000000 1.685200 
# 
# From -- ./inp_files/54724.got.cif
#   From: 2010.06.25/outbox.cif.g09.slc.cpg/sg10_28_cif.got.tgz:54724.got - 2010.06.27 22:07:45.
