data_PCOD8061645
_publ_section_title
;
Structure prediction by ZEFSAII (Michael W. Deem and Ramdas Pophale) SiO2 
 PCOD8061645
Probable space group: P 2/M
;
_chemical_formula_sum "Si O2"
_cell_formula_units_Z 24
_cell_length_a 12.351930
_cell_length_b 8.902492
_cell_length_c 11.650987
_cell_angle_alpha 90.000000
_cell_angle_beta 69.746990
_cell_angle_gamma 90.000000
_cell_volume 1201.965858
_symmetry_space_group_name_H-M "P 2/M"
_symmetry_group_IT_number 10
_symmetry_cell_setting 'monoclinic'
loop_
_space_group_symop_operation_xyz
x,y,z
-x,y,-z
-x,-y,-z
x,-y,z
loop_
_atom_site_type_symbol
_atom_site_label
_atom_site_fract_x
_atom_site_fract_y
_atom_site_fract_z
Si Si1 0.747021 0.822257 0.345857
Si Si2 0.539908 0.823363 0.276660
Si Si3 0.280231 0.178637 0.388571
Si Si4 0.615800 0.667983 0.028304
Si Si5 0.177131 0.322232 0.208212
Si Si6 0.976765 0.178010 0.139115
O O1 0.622745 0.760389 0.347640
O O2 0.767322 0.771167 0.469371
O O3 0.849619 0.767242 0.224550
O O4 0.742105 0.000000 0.342412
O O5 0.410913 0.755740 0.329412
O O6 0.604176 0.783154 0.135897
O O7 0.528226 0.000000 0.291402
O O8 0.196307 0.253577 0.327006
O O9 0.277497 0.000000 0.372849
O O10 0.642850 0.500000 0.064173
O O11 0.500000 0.667007 0.000000
O O12 0.717441 0.728714 0.910719
O O13 0.168577 0.500000 0.222794
O O14 0.061836 0.257570 0.196078
O O15 0.992686 0.000000 0.144193
O O16 0.000000 0.231564 0.000000
#
# Coordination Sequence:
#
# PCOD8061645 Si02
#       6
#     4   4   4   4   4   4
#     4   9  19  36  57  83 114 147 181 226 282 329
#     4  10  19  33  58  87 112 141 185 234 273 323
#     4  10  20  35  57  84 114 147 184 225 275 332
#     4  10  20  35  53  76 111 148 178 218 279 333
#     4  11  23  38  57  81 114 149 185 230 275 325
#     4  10  21  39  62  84 110 144 185 230 275 329
#
# _framework density 19.967289999999998
#
# number of rings (size 3 to 8) (size 9 to 14) (size 15 to 20)
#    0.000    2.000    1.667    2.000    0.000    6.000 
#    0.000    5.833    0.000    2.000    0.000    0.000 
#    0.000    0.000    0.000    0.000    0.000    0.000 
#
# Total GULP energy -297578.938265 kJ/mol
# GULP energy per Si atom -12399.122428 kJ/mol
# Density = 1.992184 g / cm^3
# Si number density = 19.967290 Si / 1000 Ang^3
#
#
#
# Elastic Constant Matrix: (Units=GPa)
#
#
# Indices 1 2 3 4 5 6 
#
# 1 121.0583 29.9617 56.3324 0.0000 19.8255 0.0000
# 2 29.9617 28.9535 22.6618 0.0000 4.7495 0.0000
# 3 56.3324 22.6618 133.6072 0.0000 14.5927 0.0000
# 4 0.0000 0.0000 0.0000 6.5387 0.0000 -8.6112
# 5 19.8255 4.7495 14.5927 0.0000 32.9304 0.0000
# 6 0.0000 0.0000 0.0000 -8.6112 0.0000 15.4948
#
#
#
# Elastic Compliance Matrix: (Units=1/GPa)
#
#
# Indices 1 2 3 4 5 6 
#
# 1 0.013118 -0.010210 -0.003255 0.000000 -0.004983 0.000000
# 2 -0.010210 0.048035 -0.003949 0.000000 0.000968 0.000000
# 3 -0.003255 -0.003949 0.009721 0.000000 -0.001779 0.000000
# 4 0.000000 0.000000 0.000000 0.570436 0.000000 0.317020
# 5 -0.004983 0.000968 -0.001779 0.000000 0.034015 0.000000
# 6 0.000000 0.000000 0.000000 0.317020 0.000000 0.240722
#
#
# Mechanical properties :
#
#
# Convention : Reuss Voigt Hill
#
# Bulk Modulus (GPa) = 27.74119 55.72564 41.73342
# Shear Modulus (GPa) = 5.19270 22.63699 13.91485
#
# Velocity S-wave (km/s) = 1.61439 3.37070 2.64272
# Velocity P-wave (km/s) = 4.17115 6.56642 5.50075
#
# Compressibility (1/GPa) = 0.03604748
#
# Stress axis : x y z
#
# Youngs Moduli (GPa) = 76.23084 20.81815 102.87007
#
# Poissons Ratio (x) = 0.21255 0.33484
# Poissons Ratio (y) = 0.77830 0.40618
# Poissons Ratio (z) = 0.24813 0.08220
#
# Static dielectric constant tensor:
#      x y z
#    x 3.849700 0.000000 -0.141080 
#    y 0.000000 3.349830 0.000000 
#    z -0.141080 0.000000 4.134310 
# 
# 
# High freq. dielectric constant tensor:
#      x y z
#    x 1.789340 0.000000 0.003010 
#    y 0.000000 1.744930 0.000000 
#    z 0.003010 0.000000 1.787450 
# 
# From -- ./inp_files/45026.got.cif
#   From: 2010.06.25/outbox.cif.g09.slc.cpg/sg10_23_cif.got.tgz:45026.got - 2010.06.27 22:07:45.
