data_PCOD8061602
_publ_section_title
;
Structure prediction by ZEFSAII (Michael W. Deem and Ramdas Pophale) SiO2 
 PCOD8061602
Probable space group: P 2/M
;
_chemical_formula_sum "Si O2"
_cell_formula_units_Z 24
_cell_length_a 10.073698
_cell_length_b 11.170396
_cell_length_c 23.758390
_cell_angle_alpha 90.000000
_cell_angle_beta 28.217565
_cell_angle_gamma 90.000000
_cell_volume 1264.070186
_symmetry_space_group_name_H-M "P 2/M"
_symmetry_group_IT_number 10
_symmetry_cell_setting 'monoclinic'
loop_
_space_group_symop_operation_xyz
x,y,z
-x,y,-z
-x,-y,-z
x,-y,z
loop_
_atom_site_type_symbol
_atom_site_label
_atom_site_fract_x
_atom_site_fract_y
_atom_site_fract_z
Si Si1 0.685010 0.860582 0.569995
Si Si2 0.835797 0.500000 0.988280
Si Si3 0.106292 0.137939 0.736741
Si Si4 0.473358 0.500000 0.788033
Si Si5 0.721366 0.732099 0.962889
Si Si6 0.325542 0.138873 0.192092
Si Si7 0.726621 0.751473 0.670031
O O1 0.441659 0.842413 0.614229
O O2 0.585490 0.821776 0.670093
O O3 0.938370 0.773574 0.457456
O O4 0.780025 0.000000 0.535317
O O5 0.830931 0.618010 0.953711
O O6 0.143712 0.500000 0.899209
O O7 0.556006 0.500000 0.132875
O O8 0.986117 0.208437 0.834475
O O9 0.968043 0.179729 0.728888
O O10 0.026497 0.000000 0.775424
O O11 0.643446 0.612078 0.698928
O O12 0.500000 0.686754 0.000000
O O13 0.584233 0.830319 0.055089
O O14 0.383539 0.202492 0.229256
O O15 0.317250 0.000000 0.208171
#
# Coordination Sequence:
#
# PCOD8061602 Si02
#       7
#     4   2   4   2   4   4   4
#     4  10  21  37  59  83 111 144 179 225 272 325
#     4  11  21  38  54  81 108 143 187 220 272 323
#     4   9  19  35  55  85 117 143 177 220 271 326
#     4  11  24  37  58  76 108 146 182 233 267 318
#     4  10  19  34  57  83 111 145 179 223 272 324
#     4  10  19  33  57  84 112 144 179 223 274 327
#     4  11  21  38  56  79 108 144 188 225 270 320
#
# _framework density 18.986287999999998
#
# number of rings (size 3 to 8) (size 9 to 14) (size 15 to 20)
#    0.000    1.833    1.667    3.750    0.000    4.000 
#    0.000    3.333    0.000    5.000    0.000    0.000 
#    0.000    0.000    0.000    0.000    0.000    0.000 
#
# Total GULP energy -297455.503400 kJ/mol
# GULP energy per Si atom -12393.979308 kJ/mol
# Density = 1.894307 g / cm^3
# Si number density = 18.986288 Si / 1000 Ang^3
#
#
#
# Elastic Constant Matrix: (Units=GPa)
#
#
# Indices 1 2 3 4 5 6 
#
# 1 48.0785 21.1001 10.2245 0.0000 2.7140 0.0000
# 2 21.1001 92.5328 34.1984 0.0000 -2.5081 0.0000
# 3 10.2245 34.1984 62.0807 0.0000 -5.0759 0.0000
# 4 0.0000 0.0000 0.0000 37.6651 0.0000 2.4414
# 5 2.7140 -2.5081 -5.0759 0.0000 29.6097 0.0000
# 6 0.0000 0.0000 0.0000 2.4414 0.0000 22.6937
#
#
#
# Elastic Compliance Matrix: (Units=1/GPa)
#
#
# Indices 1 2 3 4 5 6 
#
# 1 0.023402 -0.004901 -0.001383 0.000000 -0.002797 0.000000
# 2 -0.004901 0.014597 -0.007197 0.000000 0.000452 0.000000
# 3 -0.001383 -0.007197 0.020549 0.000000 0.003040 0.000000
# 4 0.000000 0.000000 0.000000 0.026736 0.000000 -0.002876
# 5 -0.002797 0.000452 0.003040 0.000000 0.034588 0.000000
# 6 0.000000 0.000000 0.000000 -0.002876 0.000000 0.044375
#
#
# Mechanical properties :
#
#
# Convention : Reuss Voigt Hill
#
# Bulk Modulus (GPa) = 31.65965 37.08200 34.37083
# Shear Modulus (GPa) = 24.78471 27.13830 25.96151
#
# Velocity S-wave (km/s) = 3.61695 3.78479 3.70182
# Velocity P-wave (km/s) = 5.84417 6.21875 6.03437
#
# Compressibility (1/GPa) = 0.03158595
#
# Stress axis : x y z
#
# Youngs Moduli (GPa) = 42.73089 68.50926 48.66456
#
# Poissons Ratio (x) = 0.33576 0.06731
# Poissons Ratio (y) = 0.20942 0.35022
# Poissons Ratio (z) = 0.05910 0.49304
#
# Static dielectric constant tensor:
#      x y z
#    x 3.781230 0.000000 0.057780 
#    y 0.000000 3.509700 0.000000 
#    z 0.057780 0.000000 3.338650 
# 
# 
# High freq. dielectric constant tensor:
#      x y z
#    x 1.749770 0.000000 0.000890 
#    y 0.000000 1.731880 0.000000 
#    z 0.000890 0.000000 1.728140 
# 
# From -- ./inp_files/89727.got.cif
#   From: 2010.06.25/outbox.cif.g09.slc.cpg/sg10_45_cif.got.tgz:89727.got - 2010.06.27 22:07:45.
