data_PCOD8061694
_publ_section_title
;
Structure prediction by ZEFSAII (Michael W. Deem and Ramdas Pophale) SiO2 
 PCOD8061694
Probable space group: P 2/M
;
_chemical_formula_sum "Si O2"
_cell_formula_units_Z 20
_cell_length_a 5.244141
_cell_length_b 16.389012
_cell_length_c 12.746746
_cell_angle_alpha 90.000000
_cell_angle_beta 80.703948
_cell_angle_gamma 90.000000
_cell_volume 1081.147692
_symmetry_space_group_name_H-M "P 2/M"
_symmetry_group_IT_number 10
_symmetry_cell_setting 'monoclinic'
loop_
_space_group_symop_operation_xyz
x,y,z
-x,y,-z
-x,-y,-z
x,-y,z
loop_
_atom_site_type_symbol
_atom_site_label
_atom_site_fract_x
_atom_site_fract_y
_atom_site_fract_z
Si Si1 0.214545 0.161312 0.628694
Si Si2 0.141357 0.593587 0.387819
Si Si3 0.305075 0.339676 0.707756
Si Si4 0.277477 0.906146 0.395830
Si Si5 0.278609 0.594088 0.932247
O O1 0.219793 0.252815 0.669052
O O2 0.440799 0.110511 0.672331
O O3 0.250170 0.150907 0.500692
O O4 0.936517 0.121613 0.675139
O O5 0.219926 0.500000 0.397348
O O6 0.410659 0.640676 0.355440
O O7 0.000000 0.629446 0.500000
O O8 0.930375 0.600375 0.309026
O O9 0.319852 0.345137 0.832166
O O10 0.242945 0.000000 0.430835
O O11 0.308682 0.500000 0.893351
O O12 0.500000 0.616596 0.000000
O O13 0.000000 0.610122 0.000000
#
# Coordination Sequence:
#
# PCOD8061694 Si02
#       5
#     4   4   4   4   4
#     4  10  20  30  50  78 104 141 175 216 271 304
#     4  11  24  37  51  73 109 155 189 216 261 324
#     4  12  23  36  57  80 111 138 189 239 278 326
#     4  10  19  34  52  75 111 147 182 212 247 321
#     4  10  21  38  59  78 100 138 187 241 295 329
#
# _framework density 18.498858999999999
#
# number of rings (size 3 to 8) (size 9 to 14) (size 15 to 20)
#    0.000    1.400    0.000    7.800    8.400    3.200 
#    0.000    0.000    0.000    0.000    0.000    0.000 
#    0.000   27.200    0.000    0.000    0.000    0.000 
#
# Total GULP energy -247869.029082 kJ/mol
# GULP energy per Si atom -12393.451454 kJ/mol
# Density = 1.845676 g / cm^3
# Si number density = 18.498859 Si / 1000 Ang^3
#
#
#
# Elastic Constant Matrix: (Units=GPa)
#
#
# Indices 1 2 3 4 5 6 
#
# 1 193.1746 44.3271 32.6865 0.0000 5.5932 0.0000
# 2 44.3271 98.7578 51.4906 0.0000 3.0341 0.0000
# 3 32.6865 51.4906 74.7955 0.0000 6.0921 0.0000
# 4 0.0000 0.0000 0.0000 2.1873 0.0000 21.9558
# 5 5.5932 3.0341 6.0921 0.0000 22.7674 0.0000
# 6 0.0000 0.0000 0.0000 21.9558 0.0000 4.9423
#
#
#
# Elastic Compliance Matrix: (Units=1/GPa)
#
#
# Indices 1 2 3 4 5 6 
#
# 1 0.005852 -0.002034 -0.001086 0.000000 -0.000876 0.000000
# 2 -0.002034 0.016517 -0.010574 0.000000 0.001128 0.000000
# 3 -0.001086 -0.010574 0.021455 0.000000 -0.004065 0.000000
# 4 0.000000 0.000000 0.000000 -0.010488 0.000000 0.046591
# 5 -0.000876 0.001128 -0.004065 0.000000 0.045075 0.000000
# 6 0.000000 0.000000 0.000000 0.046591 0.000000 -0.004642
#
#
# Mechanical properties :
#
#
# Convention : Reuss Voigt Hill
#
# Bulk Modulus (GPa) = 60.83848 69.30402 65.07125
# Shear Modulus (GPa) = 46.88855 21.86098 34.37476
#
# Velocity S-wave (km/s) = 5.04002 3.44138 4.31537
# Velocity P-wave (km/s) = 8.17485 7.30316 7.75126
#
# Compressibility (1/GPa) = 0.01643697
#
# Stress axis : x y z
#
# Youngs Moduli (GPa) = 170.86786 60.54445 46.60991
#
# Poissons Ratio (x) = 0.12312 0.05063
# Poissons Ratio (y) = 0.34747 0.49284
# Poissons Ratio (z) = 0.18561 0.64017
#
# Static dielectric constant tensor:
#      x y z
#    x 4.659900 0.000000 0.048180 
#    y 0.000000 3.218010 0.000000 
#    z 0.048180 0.000000 2.982350 
# 
# 
# High freq. dielectric constant tensor:
#      x y z
#    x 1.766070 0.000000 0.006020 
#    y 0.000000 1.703170 0.000000 
#    z 0.006020 0.000000 1.655170 
# 
# From -- ./inp_files/6816.got.cif
#   From: 2010.06.25/outbox.cif.g09.slc.cpg/sg10_4_cif.got.tgz:6816.got - 2010.06.27 22:07:45.
