data_PCOD8061195
_publ_section_title
;
Structure prediction by ZEFSAII (Michael W. Deem and Ramdas Pophale) SiO2 
 PCOD8061195
Probable space group: P 2/M
;
_chemical_formula_sum "Si O2"
_cell_formula_units_Z 28
_cell_length_a 9.981652
_cell_length_b 11.791497
_cell_length_c 13.924962
_cell_angle_alpha 90.000000
_cell_angle_beta 105.015995
_cell_angle_gamma 90.000000
_cell_volume 1582.984498
_symmetry_space_group_name_H-M "P 2/M"
_symmetry_group_IT_number 10
_symmetry_cell_setting 'monoclinic'
loop_
_space_group_symop_operation_xyz
x,y,z
-x,y,-z
-x,-y,-z
x,-y,z
loop_
_atom_site_type_symbol
_atom_site_label
_atom_site_fract_x
_atom_site_fract_y
_atom_site_fract_z
Si Si1 0.640039 0.262016 0.315481
Si Si2 0.105006 0.131934 0.308484
Si Si3 0.139859 0.704077 0.478394
Si Si4 0.804626 0.868217 0.184941
Si Si5 0.542245 0.500000 0.345377
Si Si6 0.710059 0.500000 0.573217
Si Si7 0.365438 0.867683 0.025720
Si Si8 0.368416 0.134945 0.240666
O O1 0.746252 0.257925 0.423229
O O2 0.713266 0.214451 0.233982
O O3 0.585433 0.390754 0.290402
O O4 0.506969 0.184625 0.315224
O O5 0.097269 0.184770 0.412203
O O6 0.236236 0.179794 0.274751
O O7 0.965884 0.161169 0.224115
O O8 0.120310 0.000000 0.328109
O O9 0.195152 0.611815 0.412726
O O10 0.000000 0.654382 0.500000
O O11 0.767384 0.844880 0.066588
O O12 0.772669 0.000000 0.206377
O O13 0.620197 0.500000 0.460521
O O14 0.379271 0.500000 0.344841
O O15 0.391903 0.000000 0.045018
O O16 0.500000 0.812724 0.000000
O O17 0.348032 0.816027 0.128761
O O18 0.378004 0.000000 0.244941
#
# Coordination Sequence:
#
# PCOD8061195 Si02
#       8
#     4   4   4   4   2   2   4   4
#     4  11  20  34  55  76 104 135 175 212 258 310
#     4  10  22  35  48  77 114 140 170 208 257 316
#     4  11  21  35  53  77 103 142 176 212 254 305
#     4  10  19  33  53  77 106 139 173 214 258 303
#     4   9  20  34  52  77 101 132 168 223 263 297
#     4   9  19  36  54  72 100 130 179 224 257 289
#     4   9  16  29  52  78 100 131 176 218 254 295
#     4  10  20  34  54  79 105 136 175 216 256 307
#
# _framework density 17.688109000000001
#
# number of rings (size 3 to 8) (size 9 to 14) (size 15 to 20)
#    0.000    2.000    2.857    1.500    0.000    3.714 
#    0.000    4.286    0.000    1.714    0.000    0.000 
#    0.000    4.571    0.000    0.000    0.000    0.000 
#
# Total GULP energy -347135.242639 kJ/mol
# GULP energy per Si atom -12397.687237 kJ/mol
# Density = 1.764785 g / cm^3
# Si number density = 17.688109 Si / 1000 Ang^3
#
#
#
# Elastic Constant Matrix: (Units=GPa)
#
#
# Indices 1 2 3 4 5 6 
#
# 1 122.6743 43.7402 34.4311 0.0000 13.8516 0.0000
# 2 43.7402 54.6131 30.4454 0.0000 -1.6288 0.0000
# 3 34.4311 30.4454 78.4389 0.0000 13.9229 0.0000
# 4 0.0000 0.0000 0.0000 8.9672 0.0000 -3.6691
# 5 13.8516 -1.6288 13.9229 0.0000 26.2687 0.0000
# 6 0.0000 0.0000 0.0000 -3.6691 0.0000 24.1149
#
#
#
# Elastic Compliance Matrix: (Units=1/GPa)
#
#
# Indices 1 2 3 4 5 6 
#
# 1 0.012684 -0.010175 -0.000352 0.000000 -0.007132 0.000000
# 2 -0.010175 0.032722 -0.010538 0.000000 0.012980 0.000000
# 3 -0.000352 -0.010538 0.018850 0.000000 -0.010458 0.000000
# 4 0.000000 0.000000 0.000000 0.118921 0.000000 0.018094
# 5 -0.007132 0.012980 -0.010458 0.000000 0.048177 0.000000
# 6 0.000000 0.000000 0.000000 0.018094 0.000000 0.044221
#
#
# Mechanical properties :
#
#
# Convention : Reuss Voigt Hill
#
# Bulk Modulus (GPa) = 45.19815 52.55106 48.87461
# Shear Modulus (GPa) = 15.38080 21.67748 18.52914
#
# Velocity S-wave (km/s) = 2.95202 3.50457 3.24010
# Velocity P-wave (km/s) = 6.10144 6.79340 6.45670
#
# Compressibility (1/GPa) = 0.02212480
#
# Stress axis : x y z
#
# Youngs Moduli (GPa) = 78.84070 30.56079 53.05013
#
# Poissons Ratio (x) = 0.31095 0.01869
# Poissons Ratio (y) = 0.80220 0.55905
# Poissons Ratio (z) = 0.02778 0.32205
#
# Static dielectric constant tensor:
#      x y z
#    x 3.571250 0.000000 0.034610 
#    y 0.000000 3.151320 0.000000 
#    z 0.034610 0.000000 3.215190 
# 
# 
# High freq. dielectric constant tensor:
#      x y z
#    x 1.698630 0.000000 0.006340 
#    y 0.000000 1.658280 0.000000 
#    z 0.006340 0.000000 1.671450 
# 
# From -- ./inp_files/61048.got.cif
#   From: 2010.06.25/outbox.cif.g09.slc.cpg/sg10_31_cif.got.tgz:61048.got - 2010.06.27 22:07:45.
