data_PCOD8061096
_publ_section_title
;
Structure prediction by ZEFSAII (Michael W. Deem and Ramdas Pophale) SiO2 
 PCOD8061096
Probable space group: P 2/M
;
_chemical_formula_sum "Si O2"
_cell_formula_units_Z 24
_cell_length_a 10.107687
_cell_length_b 8.774800
_cell_length_c 21.337077
_cell_angle_alpha 90.000000
_cell_angle_beta 135.063806
_cell_angle_gamma 90.000000
_cell_volume 1336.671715
_symmetry_space_group_name_H-M "P 2/M"
_symmetry_group_IT_number 10
_symmetry_cell_setting 'monoclinic'
loop_
_space_group_symop_operation_xyz
x,y,z
-x,y,-z
-x,-y,-z
x,-y,z
loop_
_atom_site_type_symbol
_atom_site_label
_atom_site_fract_x
_atom_site_fract_y
_atom_site_fract_z
Si Si1 0.214205 0.680870 0.736597
Si Si2 0.513706 0.819830 0.267993
Si Si3 0.499257 0.680269 0.601091
Si Si4 0.511667 0.179124 0.075059
Si Si5 0.206376 0.820942 0.070007
Si Si6 0.793418 0.680103 0.598829
O O1 0.216687 0.500000 0.734237
O O2 0.306013 0.745544 0.704242
O O3 0.319425 0.734925 0.834316
O O4 0.002880 0.746630 0.668972
O O5 0.501467 0.771874 0.335197
O O6 0.327004 0.760668 0.169493
O O7 0.533528 0.000000 0.268149
O O8 0.499463 0.500000 0.614424
O O9 0.682925 0.733023 0.624047
O O10 0.316260 0.731556 0.500534
O O11 0.314849 0.220047 0.042256
O O12 0.553466 0.000000 0.093213
O O13 0.500000 0.236743 0.000000
O O14 0.182194 0.000000 0.068839
O O15 0.000000 0.743457 0.000000
O O16 0.797555 0.500000 0.600785
#
# Coordination Sequence:
#
# PCOD8061096 Si02
#       6
#     4   4   4   4   4   4
#     4  10  19  33  52  73  98 130 167 202 239 286
#     4  10  20  33  49  74 103 128 160 202 247 292
#     4   9  17  34  55  72  95 128 165 203 244 289
#     4   9  18  32  49  70  97 127 159 197 243 290
#     4   8  15  29  47  65  89 123 159 192 229 280
#     4   8  17  33  53  74  96 127 166 204 241 288
#
# _framework density 17.955044000000001
#
# number of rings (size 3 to 8) (size 9 to 14) (size 15 to 20)
#    0.000    3.000    0.000    3.000    0.000    2.333 
#    0.000   10.000    0.000   12.500    0.000    0.000 
#    0.000    0.000    0.000    0.000    0.000    0.000 
#
# Total GULP energy -297519.880104 kJ/mol
# GULP energy per Si atom -12396.661671 kJ/mol
# Density = 1.791418 g / cm^3
# Si number density = 17.955044 Si / 1000 Ang^3
#
#
#
# Elastic Constant Matrix: (Units=GPa)
#
#
# Indices 1 2 3 4 5 6 
#
# 1 148.4058 29.9051 107.1260 0.0000 5.1778 0.0000
# 2 29.9051 39.8569 28.9533 0.0000 1.5905 0.0000
# 3 107.1260 28.9533 121.1376 0.0000 4.0650 0.0000
# 4 0.0000 0.0000 0.0000 26.4391 0.0000 -6.1182
# 5 5.1778 1.5905 4.0650 0.0000 45.4998 0.0000
# 6 0.0000 0.0000 0.0000 -6.1182 0.0000 22.0115
#
#
#
# Elastic Compliance Matrix: (Units=1/GPa)
#
#
# Indices 1 2 3 4 5 6 
#
# 1 0.018847 -0.002449 -0.016060 0.000000 -0.000624 0.000000
# 2 -0.002449 0.030687 -0.005157 0.000000 -0.000333 0.000000
# 3 -0.016060 -0.005157 0.023694 0.000000 -0.000109 0.000000
# 4 0.000000 0.000000 0.000000 0.040423 0.000000 0.011236
# 5 -0.000624 -0.000333 -0.000109 0.000000 0.022071 0.000000
# 6 0.000000 0.000000 0.000000 0.011236 0.000000 0.048554
#
#
# Mechanical properties :
#
#
# Convention : Reuss Voigt Hill
#
# Bulk Modulus (GPa) = 38.61917 71.26324 54.94121
# Shear Modulus (GPa) = 20.81241 28.35114 24.58178
#
# Velocity S-wave (km/s) = 3.40831 3.97798 3.70411
# Velocity P-wave (km/s) = 6.08640 7.80225 6.99712
#
# Compressibility (1/GPa) = 0.02589387
#
# Stress axis : x y z
#
# Youngs Moduli (GPa) = 53.05941 32.58681 42.20432
#
# Poissons Ratio (x) = 0.07981 0.67782
# Poissons Ratio (y) = 0.12996 0.21767
# Poissons Ratio (z) = 0.85216 0.16807
#
# Static dielectric constant tensor:
#      x y z
#    x 3.601550 0.000000 0.256480 
#    y 0.000000 2.987810 0.000000 
#    z 0.256480 0.000000 3.610730 
# 
# 
# High freq. dielectric constant tensor:
#      x y z
#    x 1.702240 0.000000 0.001430 
#    y 0.000000 1.665810 0.000000 
#    z 0.001430 0.000000 1.699460 
# 
# From -- ./inp_files/33755.got.cif
#   From: 2010.06.25/outbox.cif.g09.slc.cpg/sg10_17_cif.got.tgz:33755.got - 2010.06.27 22:07:45.
