data_PCOD8061241
_publ_section_title
;
Structure prediction by ZEFSAII (Michael W. Deem and Ramdas Pophale) SiO2 
 PCOD8061241
Probable space group: P 2/M
;
_chemical_formula_sum "Si O2"
_cell_formula_units_Z 28
_cell_length_a 18.544641
_cell_length_b 8.788396
_cell_length_c 22.820996
_cell_angle_alpha 90.000000
_cell_angle_beta 23.557730
_cell_angle_gamma 90.000000
_cell_volume 1486.508234
_symmetry_space_group_name_H-M "P 2/M"
_symmetry_group_IT_number 10
_symmetry_cell_setting 'monoclinic'
loop_
_space_group_symop_operation_xyz
x,y,z
-x,y,-z
-x,-y,-z
x,-y,z
loop_
_atom_site_type_symbol
_atom_site_label
_atom_site_fract_x
_atom_site_fract_y
_atom_site_fract_z
Si Si1 0.796528 0.179299 0.499891
Si Si2 0.103633 0.680737 0.196890
Si Si3 0.193329 0.819951 0.374682
Si Si4 0.859761 0.678249 0.274689
Si Si5 0.478550 0.180044 0.948775
Si Si6 0.160345 0.318378 0.840084
Si Si7 0.547317 0.321270 0.593145
O O1 0.762626 0.229303 0.591954
O O2 0.622490 0.234056 0.593619
O O3 0.981698 0.255456 0.340343
O O4 0.820605 0.000000 0.475835
O O5 0.099577 0.500000 0.203939
O O6 0.020154 0.738743 0.197111
O O7 0.304798 0.741260 0.050615
O O8 0.348815 0.758079 0.215643
O O9 0.000000 0.750146 0.500000
O O10 0.185532 0.000000 0.374275
O O11 0.882489 0.500000 0.250339
O O12 0.867123 0.752125 0.204507
O O13 0.667746 0.717421 0.446745
O O14 0.455225 0.000000 0.960393
O O15 0.500000 0.230162 0.000000
O O16 0.162607 0.500000 0.835684
O O17 0.347434 0.260959 0.728577
O O18 0.000000 0.256340 0.000000
O O19 0.552775 0.500000 0.603114
#
# Coordination Sequence:
#
# PCOD8061241 Si02
#       7
#     4   4   4   4   4   4   4
#     4  10  19  33  54  76 101 133 168 207 251 302
#     4  10  20  34  53  77 105 133 165 209 255 298
#     4   9  18  33  53  76  99 128 169 209 243 288
#     4   8  15  28  45  66  93 127 162 196 240 292
#     4  10  20  35  56  78 101 133 171 207 246 298
#     4   9  16  26  44  70  96 125 164 206 246 292
#     4   9  17  30  49  71  97 128 163 205 249 295
#
# _framework density 18.836089000000001
#
# number of rings (size 3 to 8) (size 9 to 14) (size 15 to 20)
#    0.000    2.714    0.000    3.000    0.000    5.429 
#    0.000    2.857    0.000   11.143    0.000    0.000 
#    0.000    0.000    0.000    0.000    0.000    0.000 
#
# Total GULP energy -347163.676809 kJ/mol
# GULP energy per Si atom -12398.702743 kJ/mol
# Density = 1.879322 g / cm^3
# Si number density = 18.836089 Si / 1000 Ang^3
#
#
#
# Elastic Constant Matrix: (Units=GPa)
#
#
# Indices 1 2 3 4 5 6 
#
# 1 130.4564 27.3286 96.0449 0.0000 0.4485 0.0000
# 2 27.3286 29.8051 26.7509 0.0000 -1.8664 0.0000
# 3 96.0449 26.7509 166.3317 0.0000 -6.6253 0.0000
# 4 0.0000 0.0000 0.0000 18.6847 0.0000 -3.7564
# 5 0.4485 -1.8664 -6.6253 0.0000 37.7691 0.0000
# 6 0.0000 0.0000 0.0000 -3.7564 0.0000 23.8460
#
#
#
# Elastic Compliance Matrix: (Units=1/GPa)
#
#
# Indices 1 2 3 4 5 6 
#
# 1 0.014517 -0.006820 -0.007357 0.000000 -0.001800 0.000000
# 2 -0.006820 0.042442 -0.002821 0.000000 0.001684 0.000000
# 3 -0.007357 -0.002821 0.010787 0.000000 0.001840 0.000000
# 4 0.000000 0.000000 0.000000 0.055270 0.000000 0.008707
# 5 -0.001800 0.001684 0.001840 0.000000 0.026904 0.000000
# 6 0.000000 0.000000 0.000000 0.008707 0.000000 0.043307
#
#
# Mechanical properties :
#
#
# Convention : Reuss Voigt Hill
#
# Bulk Modulus (GPa) = 29.62970 69.64910 49.63940
# Shear Modulus (GPa) = 20.96666 27.82453 24.39560
#
# Velocity S-wave (km/s) = 3.33995 3.84760 3.60273
# Velocity P-wave (km/s) = 5.53517 7.53627 6.61186
#
# Compressibility (1/GPa) = 0.03374992
#
# Stress axis : x y z
#
# Youngs Moduli (GPa) = 68.88511 23.56171 92.70076
#
# Poissons Ratio (x) = 0.16069 0.68203
# Poissons Ratio (y) = 0.46980 0.26148
# Poissons Ratio (z) = 0.50681 0.06646
#
# Static dielectric constant tensor:
#      x y z
#    x 3.761620 0.000000 -0.010290 
#    y 0.000000 3.013060 0.000000 
#    z -0.010290 0.000000 3.621900 
# 
# 
# High freq. dielectric constant tensor:
#      x y z
#    x 1.747090 0.000000 -0.002550 
#    y 0.000000 1.685980 0.000000 
#    z -0.002550 0.000000 1.734950 
# 
# From -- ./inp_files/90368.got.cif
#   From: 2010.06.25/outbox.cif.g09.slc.cpg/sg10_46_cif.got.tgz:90368.got - 2010.06.27 22:07:45.
