data_PCOD8061284
_publ_section_title
;
Structure prediction by ZEFSAII (Michael W. Deem and Ramdas Pophale) SiO2 
 PCOD8061284
Probable space group: P 2/M
;
_chemical_formula_sum "Si O2"
_cell_formula_units_Z 32
_cell_length_a 20.755778
_cell_length_b 9.338017
_cell_length_c 11.188909
_cell_angle_alpha 90.000000
_cell_angle_beta 127.514577
_cell_angle_gamma 90.000000
_cell_volume 1720.137912
_symmetry_space_group_name_H-M "P 2/M"
_symmetry_group_IT_number 10
_symmetry_cell_setting 'monoclinic'
loop_
_space_group_symop_operation_xyz
x,y,z
-x,y,-z
-x,-y,-z
x,-y,z
loop_
_atom_site_type_symbol
_atom_site_label
_atom_site_fract_x
_atom_site_fract_y
_atom_site_fract_z
Si Si1 0.589648 0.337106 0.116051
Si Si2 0.051437 0.334268 0.236196
Si Si3 0.258332 0.835780 0.093807
Si Si4 0.881569 0.335180 0.948747
Si Si5 0.183007 0.831585 0.503735
Si Si6 0.674888 0.665429 0.458812
Si Si7 0.272327 0.833577 0.843452
Si Si8 0.407457 0.834772 0.421594
O O1 0.595193 0.500000 0.077818
O O2 0.613074 0.322613 0.280062
O O3 0.645049 0.245285 0.092541
O O4 0.500000 0.274803 0.000000
O O5 0.064005 0.500000 0.285364
O O6 0.091980 0.300043 0.155222
O O7 0.093116 0.232499 0.382073
O O8 0.955824 0.296461 0.122021
O O9 0.198853 0.752319 0.114323
O O10 0.351949 0.814143 0.240517
O O11 0.232770 0.000000 0.074527
O O12 0.244506 0.780185 0.942710
O O13 0.858985 0.500000 0.937171
O O14 0.243431 0.751386 0.480934
O O15 0.204833 0.799264 0.666688
O O16 0.185432 0.000000 0.478633
O O17 0.697891 0.500000 0.512229
O O18 0.629723 0.734294 0.519334
O O19 0.293230 0.000000 0.870995
O O20 0.500000 0.786742 0.500000
O O21 0.405687 0.000000 0.462644
#
# Coordination Sequence:
#
# PCOD8061284 Si02
#       8
#     4   4   4   4   4   4   4   4
#     4   9  19  34  52  75 101 129 169 221 265 304
#     4   9  18  34  56  81 110 136 170 216 260 310
#     4  10  21  37  54  74 106 142 176 216 261 312
#     4   9  19  35  55  81 108 139 173 211 260 313
#     4  10  19  33  54  79 105 135 174 217 259 307
#     4  10  20  34  52  75 104 135 170 213 263 313
#     4   9  20  36  52  74 102 138 179 214 257 312
#     4  10  22  37  53  76 105 137 175 219 262 309
#
# _framework density 18.603159000000002
#
# number of rings (size 3 to 8) (size 9 to 14) (size 15 to 20)
#    0.000    2.500    0.000    2.250    1.750    5.500 
#    0.000    1.875    0.000    3.750    0.000    0.000 
#    0.000    0.000    0.000    0.000    0.000    0.000 
#
# Total GULP energy -396793.751677 kJ/mol
# GULP energy per Si atom -12399.804740 kJ/mol
# Density = 1.856082 g / cm^3
# Si number density = 18.603159 Si / 1000 Ang^3
#
#
#
# Elastic Constant Matrix: (Units=GPa)
#
#
# Indices 1 2 3 4 5 6 
#
# 1 64.0994 29.7263 35.0951 0.0000 1.1203 0.0000
# 2 29.7263 63.4138 35.7797 0.0000 1.6587 0.0000
# 3 35.0951 35.7797 84.6770 0.0000 17.4683 0.0000
# 4 0.0000 0.0000 0.0000 29.0538 0.0000 3.1627
# 5 1.1203 1.6587 17.4683 0.0000 29.1450 0.0000
# 6 0.0000 0.0000 0.0000 3.1627 0.0000 29.5268
#
#
#
# Elastic Compliance Matrix: (Units=1/GPa)
#
#
# Indices 1 2 3 4 5 6 
#
# 1 0.022626 -0.006510 -0.007444 0.000000 0.003963 0.000000
# 2 -0.006510 0.023144 -0.007829 0.000000 0.003625 0.000000
# 3 -0.007444 -0.007829 0.020599 0.000000 -0.011614 0.000000
# 4 0.000000 0.000000 0.000000 0.034825 0.000000 -0.003730
# 5 0.003963 0.003625 -0.011614 0.000000 0.040914 0.000000
# 6 0.000000 0.000000 0.000000 -0.003730 0.000000 0.034267
#
#
# Mechanical properties :
#
#
# Convention : Reuss Voigt Hill
#
# Bulk Modulus (GPa) = 43.85501 45.93251 44.89376
# Shear Modulus (GPa) = 21.97395 24.98439 23.47917
#
# Velocity S-wave (km/s) = 3.44058 3.66870 3.55647
# Velocity P-wave (km/s) = 6.27763 6.53377 6.40698
#
# Compressibility (1/GPa) = 0.02280241
#
# Stress axis : x y z
#
# Youngs Moduli (GPa) = 44.19623 43.20863 48.54584
#
# Poissons Ratio (x) = 0.28128 0.36140
# Poissons Ratio (y) = 0.28771 0.38007
# Poissons Ratio (z) = 0.32902 0.33828
#
# Static dielectric constant tensor:
#      x y z
#    x 3.216500 0.000000 0.086180 
#    y 0.000000 3.394840 0.000000 
#    z 0.086180 0.000000 3.696780 
# 
# 
# High freq. dielectric constant tensor:
#      x y z
#    x 1.700900 0.000000 0.007600 
#    y 0.000000 1.721330 0.000000 
#    z 0.007600 0.000000 1.736180 
# 
# From -- ./inp_files/55219.got.cif
#   From: 2010.06.25/outbox.cif.g09.slc.cpg/sg10_28_cif.got.tgz:55219.got - 2010.06.27 22:07:45.
