data_PCOD8061138
_publ_section_title
;
Structure prediction by ZEFSAII (Michael W. Deem and Ramdas Pophale) SiO2 
 PCOD8061138
Probable space group: P 2/M
;
_chemical_formula_sum "Si O2"
_cell_formula_units_Z 28
_cell_length_a 13.798259
_cell_length_b 19.466543
_cell_length_c 9.273161
_cell_angle_alpha 90.000000
_cell_angle_beta 145.274351
_cell_angle_gamma 90.000000
_cell_volume 1418.884770
_symmetry_space_group_name_H-M "P 2/M"
_symmetry_group_IT_number 10
_symmetry_cell_setting 'monoclinic'
loop_
_space_group_symop_operation_xyz
x,y,z
-x,y,-z
-x,-y,-z
x,-y,z
loop_
_atom_site_type_symbol
_atom_site_label
_atom_site_fract_x
_atom_site_fract_y
_atom_site_fract_z
Si Si1 0.191079 0.075626 0.073911
Si Si2 0.411197 0.657832 0.745486
Si Si3 0.213798 0.076285 0.423664
Si Si4 0.770289 0.795079 0.375558
Si Si5 0.802473 0.580136 0.738236
Si Si6 0.644936 0.320550 0.771246
Si Si7 0.174571 0.202386 0.877243
O O1 0.272216 0.090136 0.330528
O O2 0.249246 0.000000 0.091543
O O3 0.254374 0.132873 0.040129
O O4 0.988520 0.079353 0.827815
O O5 0.321728 0.731908 0.658167
O O6 0.265004 0.608878 0.498700
O O7 0.569814 0.657356 0.832032
O O8 0.500000 0.629514 0.000000
O O9 0.292379 0.134174 0.625700
O O10 0.273016 0.000000 0.547311
O O11 0.724126 0.790987 0.150030
O O12 0.972964 0.795468 0.623695
O O13 0.763585 0.500000 0.694901
O O14 0.708607 0.613671 0.759965
O O15 0.000000 0.596692 0.000000
O O16 0.500000 0.282981 0.500000
O O17 0.792548 0.266017 0.976758
#
# Coordination Sequence:
#
# PCOD8061138 Si02
#       7
#     4   4   4   4   4   4   4
#     4   8  15  27  46  73 107 143 191 251 299 341
#     4  11  22  39  60  88 125 159 192 233 288 349
#     4   8  15  28  46  74 106 144 194 247 299 343
#     4  10  20  32  54  80 113 152 192 245 289 344
#     4  10  23  44  68  93 119 150 191 236 281 338
#     4  10  22  37  59  85 115 154 189 230 284 346
#     4  10  19  33  52  81 111 147 198 244 293 338
#
# _framework density 19.733808
#
# number of rings (size 3 to 8) (size 9 to 14) (size 15 to 20)
#    0.000    2.429    1.429    1.714    4.000    3.429 
#    0.000    2.857    0.000    3.429    0.000    0.000 
#    0.000    0.000    0.000    0.000    0.000    0.000 
#
# Total GULP energy -346940.721803 kJ/mol
# GULP energy per Si atom -12390.740064 kJ/mol
# Density = 1.968889 g / cm^3
# Si number density = 19.733808 Si / 1000 Ang^3
#
#
#
# Elastic Constant Matrix: (Units=GPa)
#
#
# Indices 1 2 3 4 5 6 
#
# 1 87.0095 55.0399 39.0970 0.0000 -22.6332 0.0000
# 2 55.0399 145.1080 66.2613 0.0000 -17.9982 0.0000
# 3 39.0970 66.2613 100.8300 0.0000 -23.1579 0.0000
# 4 0.0000 0.0000 0.0000 19.0563 0.0000 -16.3411
# 5 -22.6332 -17.9982 -23.1579 0.0000 26.1352 0.0000
# 6 0.0000 0.0000 0.0000 -16.3411 0.0000 0.4917
#
#
#
# Elastic Compliance Matrix: (Units=1/GPa)
#
#
# Indices 1 2 3 4 5 6 
#
# 1 0.018048 -0.004909 -0.001204 0.000000 0.011182 0.000000
# 2 -0.004909 0.011217 -0.005864 0.000000 -0.001722 0.000000
# 3 -0.001204 -0.005864 0.016411 0.000000 0.009461 0.000000
# 4 0.000000 0.000000 0.000000 -0.001908 0.000000 -0.063421
# 5 0.011182 -0.001722 0.009461 0.000000 0.055144 0.000000
# 6 0.000000 0.000000 0.000000 -0.063421 0.000000 -0.073959
#
#
# Mechanical properties :
#
#
# Convention : Reuss Voigt Hill
#
# Bulk Modulus (GPa) = 46.03393 72.63822 59.33608
# Shear Modulus (GPa) = 89.05307 20.63992 54.84650
#
# Velocity S-wave (km/s) = 6.72496 3.23757 5.27764
# Velocity P-wave (km/s) = 9.14758 7.13195 8.20192
#
# Compressibility (1/GPa) = 0.02172311
#
# Stress axis : x y z
#
# Youngs Moduli (GPa) = 55.40771 89.14770 60.93600
#
# Poissons Ratio (x) = 0.43762 0.07336
# Poissons Ratio (y) = 0.27199 0.35730
# Poissons Ratio (z) = 0.06671 0.52273
#
# Static dielectric constant tensor:
#      x y z
#    x 3.615260 0.000000 -0.233380 
#    y 0.000000 3.649840 0.000000 
#    z -0.233380 0.000000 3.765860 
# 
# 
# High freq. dielectric constant tensor:
#      x y z
#    x 1.760970 0.000000 -0.010600 
#    y 0.000000 1.763270 0.000000 
#    z -0.010600 0.000000 1.767700 
# 
# From -- ./inp_files/30187.got.cif
#   From: 2010.06.25/outbox.cif.g09.slc.cpg/sg10_16_cif.got.tgz:30187.got - 2010.06.27 22:07:45.
