data_PCOD8061570
_publ_section_title
;
Structure prediction by ZEFSAII (Michael W. Deem and Ramdas Pophale) SiO2 
 PCOD8061570
Probable space group: P 2/M
;
_chemical_formula_sum "Si O2"
_cell_formula_units_Z 28
_cell_length_a 11.878718
_cell_length_b 9.120822
_cell_length_c 25.925293
_cell_angle_alpha 90.000000
_cell_angle_beta 32.686157
_cell_angle_gamma 90.000000
_cell_volume 1516.878286
_symmetry_space_group_name_H-M "P 2/M"
_symmetry_group_IT_number 10
_symmetry_cell_setting 'monoclinic'
loop_
_space_group_symop_operation_xyz
x,y,z
-x,y,-z
-x,-y,-z
x,-y,z
loop_
_atom_site_type_symbol
_atom_site_label
_atom_site_fract_x
_atom_site_fract_y
_atom_site_fract_z
Si Si1 0.842110 0.826697 0.962584
Si Si2 0.893547 0.170194 0.718902
Si Si3 0.493168 0.327288 0.842104
Si Si4 0.312924 0.331486 0.533063
Si Si5 0.745542 0.670946 0.169221
Si Si6 0.985039 0.832340 0.796818
Si Si7 0.382452 0.668219 0.669975
O O1 0.853742 0.782962 0.897607
O O2 0.042763 0.764140 0.915283
O O3 0.828739 0.000000 0.976644
O O4 0.634885 0.751460 0.063495
O O5 0.726760 0.265268 0.751907
O O6 0.853419 0.194460 0.795600
O O7 0.123206 0.222489 0.615224
O O8 0.870711 0.000000 0.712910
O O9 0.495783 0.500000 0.851056
O O10 0.395738 0.286737 0.824587
O O11 0.500000 0.296135 0.500000
O O12 0.239188 0.500000 0.567808
O O13 0.396167 0.300693 0.442661
O O14 0.807422 0.500000 0.144593
O O15 0.613817 0.713841 0.271215
O O16 0.201761 0.748549 0.708298
O O17 0.048295 0.000000 0.778917
O O18 0.322624 0.500000 0.687516
#
# Coordination Sequence:
#
# PCOD8061570 Si02
#       7
#     4   4   4   4   4   4   4
#     4  10  20  35  57  82 107 137 176 220 267 315
#     4  11  23  37  54  77 109 145 179 215 263 319
#     4  11  23  38  54  75 107 144 182 222 262 308
#     4  10  19  33  56  85 110 135 171 217 265 315
#     4   9  19  36  57  80 106 140 180 219 259 309
#     4   9  19  34  52  78 109 139 172 215 264 316
#     4   9  17  32  56  82 107 135 172 217 263 311
#
# _framework density 18.458964000000002
#
# number of rings (size 3 to 8) (size 9 to 14) (size 15 to 20)
#    0.000    2.143    1.429    1.714    0.000    5.429 
#    0.000    3.571    0.000    4.286    0.000    0.000 
#    0.000    0.000    0.000    0.000    0.000    0.000 
#
# Total GULP energy -347223.258632 kJ/mol
# GULP energy per Si atom -12400.830665 kJ/mol
# Density = 1.841695 g / cm^3
# Si number density = 18.458964 Si / 1000 Ang^3
#
#
#
# Elastic Constant Matrix: (Units=GPa)
#
#
# Indices 1 2 3 4 5 6 
#
# 1 59.2070 31.6565 34.6039 0.0000 -7.2402 0.0000
# 2 31.6565 69.5570 35.9730 0.0000 -6.9384 0.0000
# 3 34.6039 35.9730 91.1867 0.0000 -3.2017 0.0000
# 4 0.0000 0.0000 0.0000 -519.3512 0.0000 385.3134
# 5 -7.2402 -6.9384 -3.2017 0.0000 22.8640 0.0000
# 6 0.0000 0.0000 0.0000 385.3134 0.0000 -246.9067
#
#
#
# Elastic Compliance Matrix: (Units=1/GPa)
#
#
# Indices 1 2 3 4 5 6 
#
# 1 0.025360 -0.007757 -0.006396 0.000000 0.004781 0.000000
# 2 -0.007757 0.020908 -0.005194 0.000000 0.003161 0.000000
# 3 -0.006396 -0.005194 0.015392 0.000000 -0.001446 0.000000
# 4 0.000000 0.000000 0.000000 0.012202 0.000000 0.019042
# 5 0.004781 0.003161 -0.001446 0.000000 0.046008 0.000000
# 6 0.000000 0.000000 0.000000 0.019042 0.000000 0.025666
#
#
# Mechanical properties :
#
#
# Convention : Reuss Voigt Hill
#
# Bulk Modulus (GPa) = 43.54031 47.15750 45.34890
# Shear Modulus (GPa) = 26.05734 -140.83097 -57.38681
#
# Velocity S-wave (km/s) = 3.76125 -8.74412 -5.58179
# Velocity P-wave (km/s) = 6.51932 8.73748 4.11352
#
# Compressibility (1/GPa) = 0.02296723
#
# Stress axis : x y z
#
# Youngs Moduli (GPa) = 39.43192 47.82747 64.97015
#
# Poissons Ratio (x) = 0.37101 0.41553
# Poissons Ratio (y) = 0.30588 0.33743
# Poissons Ratio (z) = 0.25219 0.24840
#
# Static dielectric constant tensor:
#      x y z
#    x 3.442580 0.000000 0.298130 
#    y 0.000000 3.407650 0.000000 
#    z 0.298130 0.000000 3.470560 
# 
# 
# High freq. dielectric constant tensor:
#      x y z
#    x 1.706610 0.000000 0.016250 
#    y 0.000000 1.719810 0.000000 
#    z 0.016250 0.000000 1.714670 
# 
# From -- ./inp_files/68699.got.cif
#   From: 2010.06.25/outbox.cif.g09.slc.cpg/sg10_35_cif.got.tgz:68699.got - 2010.06.27 22:07:45.
