data_PCOD8061497
_publ_section_title
;
Structure prediction by ZEFSAII (Michael W. Deem and Ramdas Pophale) SiO2 
 PCOD8061497
Probable space group: P 2/M
;
_chemical_formula_sum "Si O2"
_cell_formula_units_Z 28
_cell_length_a 14.699989
_cell_length_b 8.810779
_cell_length_c 11.922847
_cell_angle_alpha 90.000000
_cell_angle_beta 71.245621
_cell_angle_gamma 90.000000
_cell_volume 1462.237627
_symmetry_space_group_name_H-M "P 2/M"
_symmetry_group_IT_number 10
_symmetry_cell_setting 'monoclinic'
loop_
_space_group_symop_operation_xyz
x,y,z
-x,y,-z
-x,-y,-z
x,-y,z
loop_
_atom_site_type_symbol
_atom_site_label
_atom_site_fract_x
_atom_site_fract_y
_atom_site_fract_z
Si Si1 0.831297 0.321045 0.886652
Si Si2 0.426488 0.323538 0.392299
Si Si3 0.621826 0.179113 0.359473
Si Si4 0.955900 0.673731 0.233102
Si Si5 0.093890 0.178278 0.524275
Si Si6 0.748419 0.325129 0.685951
Si Si7 0.782230 0.674827 0.147850
O O1 0.842344 0.500000 0.895824
O O2 0.763163 0.275158 0.809375
O O3 0.938588 0.252533 0.827706
O O4 0.782449 0.261071 0.020369
O O5 0.449941 0.500000 0.402093
O O6 0.524777 0.231884 0.335077
O O7 0.369984 0.261810 0.523707
O O8 0.361927 0.300037 0.306692
O O9 0.712104 0.221253 0.247801
O O10 0.619045 0.000000 0.380460
O O11 0.967590 0.500000 0.265199
O O12 0.899006 0.757796 0.353876
O O13 0.891761 0.689714 0.147287
O O14 0.187429 0.222725 0.418870
O O15 0.000000 0.245842 0.500000
O O16 0.087909 0.000000 0.535069
O O17 0.779229 0.500000 0.657838
O O18 0.747314 0.500000 0.168950
#
# Coordination Sequence:
#
# PCOD8061497 Si02
#       7
#     4   4   4   4   4   4   4
#     4   9  18  34  55  79 108 140 180 223 262 311
#     4  10  20  36  60  86 108 133 172 222 273 319
#     4  11  22  37  57  81 109 141 175 216 269 321
#     4  10  19  33  56  80 105 141 183 225 266 308
#     4  11  22  33  48  75 111 146 177 214 262 314
#     4  10  20  35  57  82 107 140 178 220 269 315
#     4  10  20  35  56  81 107 140 181 224 266 309
#
# _framework density 19.148734999999999
#
# number of rings (size 3 to 8) (size 9 to 14) (size 15 to 20)
#    0.000    1.857    1.429    4.286    0.000    7.429 
#    0.000    2.143    0.000    6.000    0.000    0.000 
#    0.000    0.000    0.000    0.000    0.000    0.000 
#
# Total GULP energy -347237.304732 kJ/mol
# GULP energy per Si atom -12401.332312 kJ/mol
# Density = 1.910515 g / cm^3
# Si number density = 19.148735 Si / 1000 Ang^3
#
#
#
# Elastic Constant Matrix: (Units=GPa)
#
#
# Indices 1 2 3 4 5 6 
#
# 1 103.5734 19.8938 42.7963 0.0000 14.5571 0.0000
# 2 19.8938 58.8140 20.9978 0.0000 2.4082 0.0000
# 3 42.7963 20.9978 98.7379 0.0000 11.3231 0.0000
# 4 0.0000 0.0000 0.0000 0.7184 0.0000 -3.9415
# 5 14.5571 2.4082 11.3231 0.0000 28.9631 0.0000
# 6 0.0000 0.0000 0.0000 -3.9415 0.0000 18.9482
#
#
#
# Elastic Compliance Matrix: (Units=1/GPa)
#
#
# Indices 1 2 3 4 5 6 
#
# 1 0.012576 -0.002497 -0.004417 0.000000 -0.004387 0.000000
# 2 -0.002497 0.018896 -0.003036 0.000000 0.000871 0.000000
# 3 -0.004417 -0.003036 0.012987 0.000000 -0.002605 0.000000
# 4 0.000000 0.000000 0.000000 -9.848750 0.000000 -2.048689
# 5 -0.004387 0.000871 -0.002605 0.000000 0.037677 0.000000
# 6 0.000000 0.000000 0.000000 -2.048689 0.000000 -0.373383
#
#
# Mechanical properties :
#
#
# Convention : Reuss Voigt Hill
#
# Bulk Modulus (GPa) = 40.71930 47.61123 44.16527
# Shear Modulus (GPa) = -0.49447 21.55508 10.53030
#
# Velocity S-wave (km/s) = -0.50871 3.35873 2.34759
# Velocity P-wave (km/s) = 4.57885 6.32134 5.51929
#
# Compressibility (1/GPa) = 0.02455838
#
# Stress axis : x y z
#
# Youngs Moduli (GPa) = 79.51523 52.92209 77.00291
#
# Poissons Ratio (x) = 0.13217 0.34011
# Poissons Ratio (y) = 0.19858 0.23377
# Poissons Ratio (z) = 0.35120 0.16066
#
# Static dielectric constant tensor:
#      x y z
#    x 3.614910 0.000000 0.184740 
#    y 0.000000 3.299040 0.000000 
#    z 0.184740 0.000000 3.486880 
# 
# 
# High freq. dielectric constant tensor:
#      x y z
#    x 1.749710 0.000000 0.009870 
#    y 0.000000 1.725450 0.000000 
#    z 0.009870 0.000000 1.736360 
# 
# From -- ./inp_files/49071.got.cif
#   From: 2010.06.25/outbox.cif.g09.slc.cpg/sg10_25_cif.got.tgz:49071.got - 2010.06.27 22:07:45.
