data_PCOD8061923
_publ_section_title
;
Structure prediction by ZEFSAII (Michael W. Deem and Ramdas Pophale) SiO2 
 PCOD8061923
Probable space group: P 2/M
;
_chemical_formula_sum "Si O2"
_cell_formula_units_Z 28
_cell_length_a 14.550299
_cell_length_b 8.850085
_cell_length_c 12.672497
_cell_angle_alpha 90.000000
_cell_angle_beta 120.617036
_cell_angle_gamma 90.000000
_cell_volume 1404.359097
_symmetry_space_group_name_H-M "P 2/M"
_symmetry_group_IT_number 10
_symmetry_cell_setting 'monoclinic'
loop_
_space_group_symop_operation_xyz
x,y,z
-x,y,-z
-x,-y,-z
x,-y,z
loop_
_atom_site_type_symbol
_atom_site_label
_atom_site_fract_x
_atom_site_fract_y
_atom_site_fract_z
Si Si1 0.911891 0.672086 0.536480
Si Si2 0.990388 0.173246 0.787910
Si Si3 0.770734 0.173066 0.764076
Si Si4 0.619404 0.820022 0.087860
Si Si5 0.609736 0.321835 0.513220
Si Si6 0.220482 0.179476 0.996429
Si Si7 0.306926 0.821990 0.640874
O O1 0.870306 0.500000 0.519346
O O2 0.964037 0.718691 0.676181
O O3 0.814914 0.781529 0.452588
O O4 0.000000 0.692417 0.500000
O O5 0.897855 0.185792 0.821182
O O6 0.100929 0.234536 0.900885
O O7 0.002008 0.000000 0.755319
O O8 0.709662 0.272048 0.642355
O O9 0.732960 0.000000 0.728822
O O10 0.746027 0.235744 0.867110
O O11 0.696375 0.754848 0.040954
O O12 0.660454 0.760797 0.224781
O O13 0.621426 0.000000 0.085810
O O14 0.500000 0.758274 0.000000
O O15 0.500000 0.263241 0.500000
O O16 0.611838 0.500000 0.503952
O O17 0.615967 0.252194 0.400407
O O18 0.222554 0.000000 0.997673
O O19 0.321593 0.000000 0.641963
#
# Coordination Sequence:
#
# PCOD8061923 Si02
#       7
#     4   4   4   4   4   4   4
#     4  11  23  37  56  83 120 163 199 238 290 348
#     4  10  19  34  56  86 117 149 193 242 295 346
#     4  10  20  35  60  90 116 149 194 242 292 349
#     4   9  19  34  54  85 119 150 187 237 293 343
#     4  11  25  42  60  84 120 160 196 241 298 353
#     4   9  18  33  55  84 121 155 186 238 297 347
#     4  11  22  38  63  91 117 151 197 248 295 345
#
# _framework density 19.937919999999998
#
# number of rings (size 3 to 8) (size 9 to 14) (size 15 to 20)
#    0.000    1.857    1.429    2.571    2.000    5.143 
#    0.000    0.714    0.000    5.143    0.000    0.000 
#    0.000    0.000    0.000    0.000    0.000    0.000 
#
# Total GULP energy -347276.337962 kJ/mol
# GULP energy per Si atom -12402.726356 kJ/mol
# Density = 1.989254 g / cm^3
# Si number density = 19.937920 Si / 1000 Ang^3
#
#
#
# Elastic Constant Matrix: (Units=GPa)
#
#
# Indices 1 2 3 4 5 6 
#
# 1 119.7608 26.6395 40.7116 0.0000 -16.4818 0.0000
# 2 26.6395 41.3163 16.1840 0.0000 -10.0547 0.0000
# 3 40.7116 16.1840 107.3128 0.0000 -25.9419 0.0000
# 4 0.0000 0.0000 0.0000 8.8929 0.0000 1.6820
# 5 -16.4818 -10.0547 -25.9419 0.0000 40.8654 0.0000
# 6 0.0000 0.0000 0.0000 1.6820 0.0000 43.6342
#
#
#
# Elastic Compliance Matrix: (Units=1/GPa)
#
#
# Indices 1 2 3 4 5 6 
#
# 1 0.010734 -0.005489 -0.002982 0.000000 0.001086 0.000000
# 2 -0.005489 0.029272 -0.001331 0.000000 0.004144 0.000000
# 3 -0.002982 -0.001331 0.012144 0.000000 0.006179 0.000000
# 4 0.000000 0.000000 0.000000 0.113276 0.000000 -0.004367
# 5 0.001086 0.004144 0.006179 0.000000 0.029851 0.000000
# 6 0.000000 0.000000 0.000000 -0.004367 0.000000 0.023086
#
#
# Mechanical properties :
#
#
# Convention : Reuss Voigt Hill
#
# Bulk Modulus (GPa) = 30.72387 48.38447 39.55417
# Shear Modulus (GPa) = 20.09528 31.00214 25.54871
#
# Velocity S-wave (km/s) = 3.17818 3.94754 3.58357
# Velocity P-wave (km/s) = 5.37689 6.71548 6.08312
#
# Compressibility (1/GPa) = 0.03254798
#
# Stress axis : x y z
#
# Youngs Moduli (GPa) = 93.16195 34.16219 82.34324
#
# Poissons Ratio (x) = 0.18751 0.24554
# Poissons Ratio (y) = 0.51134 0.10956
# Poissons Ratio (z) = 0.27781 0.04546
#
# Static dielectric constant tensor:
#      x y z
#    x 3.918380 0.000000 -0.141310 
#    y 0.000000 3.304570 0.000000 
#    z -0.141310 0.000000 3.727830 
# 
# 
# High freq. dielectric constant tensor:
#      x y z
#    x 1.793830 0.000000 -0.006890 
#    y 0.000000 1.742510 0.000000 
#    z -0.006890 0.000000 1.786760 
# 
# From -- ./inp_files/50055.got.cif
#   From: 2010.06.25/outbox.cif.g09.slc.cpg/sg10_26_cif.got.tgz:50055.got - 2010.06.27 22:07:45.
