data_PCOD8061166
_publ_section_title
;
Structure prediction by ZEFSAII (Michael W. Deem and Ramdas Pophale) SiO2 
 PCOD8061166
Probable space group: P 2/M
;
_chemical_formula_sum "Si O2"
_cell_formula_units_Z 28
_cell_length_a 14.939823
_cell_length_b 9.092441
_cell_length_c 16.767351
_cell_angle_alpha 90.000000
_cell_angle_beta 133.933273
_cell_angle_gamma 90.000000
_cell_volume 1640.258696
_symmetry_space_group_name_H-M "P 2/M"
_symmetry_group_IT_number 10
_symmetry_cell_setting 'monoclinic'
loop_
_space_group_symop_operation_xyz
x,y,z
-x,y,-z
-x,-y,-z
x,-y,z
loop_
_atom_site_type_symbol
_atom_site_label
_atom_site_fract_x
_atom_site_fract_y
_atom_site_fract_z
Si Si1 0.671267 0.167776 0.249914
Si Si2 0.068479 0.174155 0.163895
Si Si3 0.102202 0.169166 0.499461
Si Si4 0.610852 0.171666 0.913481
Si Si5 0.970610 0.673428 0.702685
Si Si6 0.818530 0.173662 0.925943
Si Si7 0.254948 0.673182 0.862168
O O1 0.760671 0.191489 0.380354
O O2 0.532518 0.204717 0.193662
O O3 0.710077 0.276951 0.204411
O O4 0.680574 0.000000 0.224068
O O5 0.099885 0.256553 0.265293
O O6 0.168609 0.225097 0.158293
O O7 0.072267 0.000000 0.181302
O O8 0.933669 0.229400 0.050370
O O9 0.094912 0.268212 0.417015
O O10 0.000000 0.223345 0.500000
O O11 0.076089 0.000000 0.460287
O O12 0.690676 0.230079 0.886960
O O13 0.636238 0.000000 0.943198
O O14 0.650464 0.253726 0.017954
O O15 0.955634 0.500000 0.696012
O O16 0.114433 0.722844 0.793480
O O17 0.825977 0.000000 0.929476
O O18 0.270733 0.500000 0.877765
#
# Coordination Sequence:
#
# PCOD8061166 Si02
#       7
#     4   4   4   4   4   4   4
#     4  10  21  35  52  74  97 129 171 207 243 289
#     4   9  16  30  52  75  98 128 164 198 244 297
#     4  10  20  35  54  72  94 128 170 212 248 285
#     4  10  19  33  53  75 102 131 162 202 245 293
#     4  11  22  33  49  75 104 132 165 205 247 288
#     4   8  15  28  50  77 100 125 159 200 245 293
#     4  11  22  33  47  72 106 138 165 196 241 296
#
# _framework density 17.070478999999999
#
# number of rings (size 3 to 8) (size 9 to 14) (size 15 to 20)
#    0.000    2.143    2.857    2.143    0.000    4.286 
#    0.000    2.143    0.000    0.857    0.000    6.000 
#    0.000    0.000    0.000    0.000    0.000    0.000 
#
# Total GULP energy -347200.215903 kJ/mol
# GULP energy per Si atom -12400.007711 kJ/mol
# Density = 1.703163 g / cm^3
# Si number density = 17.070479 Si / 1000 Ang^3
#
#
#
# Elastic Constant Matrix: (Units=GPa)
#
#
# Indices 1 2 3 4 5 6 
#
# 1 83.5332 37.4189 46.4518 0.0000 -18.8979 0.0000
# 2 37.4189 47.8623 37.5393 0.0000 -6.0400 0.0000
# 3 46.4518 37.5393 100.8758 0.0000 -9.4011 0.0000
# 4 0.0000 0.0000 0.0000 7.1876 0.0000 8.3303
# 5 -18.8979 -6.0400 -9.4011 0.0000 31.3619 0.0000
# 6 0.0000 0.0000 0.0000 8.3303 0.0000 10.0851
#
#
#
# Elastic Compliance Matrix: (Units=1/GPa)
#
#
# Indices 1 2 3 4 5 6 
#
# 1 0.022444 -0.012607 -0.004742 0.000000 0.009675 0.000000
# 2 -0.012607 0.036772 -0.008155 0.000000 -0.002959 0.000000
# 3 -0.004742 -0.008155 0.015142 0.000000 0.000111 0.000000
# 4 0.000000 0.000000 0.000000 3.259471 0.000000 -2.692324
# 5 0.009675 -0.002959 0.000111 0.000000 0.037179 0.000000
# 6 0.000000 0.000000 0.000000 -2.692324 0.000000 2.323015
#
#
# Mechanical properties :
#
#
# Convention : Reuss Voigt Hill
#
# Bulk Modulus (GPa) = 42.82507 52.78792 47.80650
# Shear Modulus (GPa) = 0.86914 17.11768 8.99341
#
# Velocity S-wave (km/s) = 0.71432 3.17008 2.29779
# Velocity P-wave (km/s) = 5.08154 6.66257 5.92503
#
# Compressibility (1/GPa) = 0.02335081
#
# Stress axis : x y z
#
# Youngs Moduli (GPa) = 44.55448 27.19491 66.04225
#
# Poissons Ratio (x) = 0.34284 0.31319
# Poissons Ratio (y) = 0.56169 0.53854
# Poissons Ratio (z) = 0.21129 0.22176
#
# Static dielectric constant tensor:
#      x y z
#    x 3.486820 0.000000 -0.045130 
#    y 0.000000 3.000970 0.000000 
#    z -0.045130 0.000000 3.069040 
# 
# 
# High freq. dielectric constant tensor:
#      x y z
#    x 1.658690 0.000000 -0.009400 
#    y 0.000000 1.643170 0.000000 
#    z -0.009400 0.000000 1.643790 
# 
# From -- ./inp_files/49076.got.cif
#   From: 2010.06.25/outbox.cif.g09.slc.cpg/sg10_25_cif.got.tgz:49076.got - 2010.06.27 22:07:45.
