data_PCOD8061304
_publ_section_title
;
Structure prediction by ZEFSAII (Michael W. Deem and Ramdas Pophale) SiO2 
 PCOD8061304
Probable space group: P 2/M
;
_chemical_formula_sum "Si O2"
_cell_formula_units_Z 32
_cell_length_a 22.577418
_cell_length_b 9.133497
_cell_length_c 14.918588
_cell_angle_alpha 90.000000
_cell_angle_beta 31.215921
_cell_angle_gamma 90.000000
_cell_volume 1594.375789
_symmetry_space_group_name_H-M "P 2/M"
_symmetry_group_IT_number 10
_symmetry_cell_setting 'monoclinic'
loop_
_space_group_symop_operation_xyz
x,y,z
-x,y,-z
-x,-y,-z
x,-y,z
loop_
_atom_site_type_symbol
_atom_site_label
_atom_site_fract_x
_atom_site_fract_y
_atom_site_fract_z
Si Si1 0.723016 0.334487 0.330701
Si Si2 0.889961 0.164332 0.000842
Si Si3 0.503402 0.171740 0.600026
Si Si4 0.325307 0.174237 0.976932
Si Si5 0.607182 0.826433 0.917999
Si Si6 0.084890 0.162584 0.242430
Si Si7 0.887776 0.666058 0.284569
Si Si8 0.160101 0.824938 0.475580
O O1 0.704275 0.500000 0.321375
O O2 0.773373 0.238779 0.184388
O O3 0.604736 0.262328 0.514265
O O4 0.803269 0.329495 0.311873
O O5 0.898274 0.000000 0.029277
O O6 0.887606 0.159280 0.897722
O O7 0.995489 0.259905 0.899745
O O8 0.500000 0.215812 0.500000
O O9 0.390644 0.220426 0.801336
O O10 0.526233 0.000000 0.582305
O O11 0.312712 0.000000 0.995294
O O12 0.394792 0.226806 0.975666
O O13 0.195077 0.241753 0.145873
O O14 0.728377 0.772490 0.721911
O O15 0.600127 0.000000 0.921268
O O16 0.500000 0.759729 0.000000
O O17 0.957861 0.233363 0.420484
O O18 0.077521 0.000000 0.292215
O O19 0.913125 0.500000 0.282574
O O20 0.830238 0.756036 0.439033
O O21 0.153047 0.000000 0.495586
#
# Coordination Sequence:
#
# PCOD8061304 Si02
#       8
#     4   4   4   4   4   4   4   4
#     4  11  23  35  50  74 107 146 183 224 274 332
#     4  10  19  33  54  80 108 140 181 228 273 323
#     4  10  21  36  55  79 104 140 188 233 277 326
#     4   9  17  30  50  76 107 141 175 224 282 323
#     4   9  18  30  47  77 112 141 175 224 277 327
#     4   8  15  29  49  75 104 133 171 218 269 324
#     4  10  21  35  51  75 109 144 181 223 272 331
#     4   9  18  32  53  79 106 137 178 225 270 325
#
# _framework density 20.070550000000001
#
# number of rings (size 3 to 8) (size 9 to 14) (size 15 to 20)
#    0.000    2.500    0.000    3.000    1.750    6.250 
#    0.000    2.500    0.000    1.875    0.000    3.500 
#    0.000    0.000    0.000    0.000    0.000    0.000 
#
# Total GULP energy -396569.012457 kJ/mol
# GULP energy per Si atom -12392.781639 kJ/mol
# Density = 2.002487 g / cm^3
# Si number density = 20.070550 Si / 1000 Ang^3
#
#
#
# Elastic Constant Matrix: (Units=GPa)
#
#
# Indices 1 2 3 4 5 6 
#
# 1 98.6502 14.0215 55.7141 0.0000 -18.3548 0.0000
# 2 14.0215 51.5038 21.5476 0.0000 -6.4334 0.0000
# 3 55.7141 21.5476 139.2493 0.0000 -15.4169 0.0000
# 4 0.0000 0.0000 0.0000 4.8389 0.0000 -2.0019
# 5 -18.3548 -6.4334 -15.4169 0.0000 33.1837 0.0000
# 6 0.0000 0.0000 0.0000 -2.0019 0.0000 13.2699
#
#
#
# Elastic Compliance Matrix: (Units=1/GPa)
#
#
# Indices 1 2 3 4 5 6 
#
# 1 0.014019 -0.001128 -0.004850 0.000000 0.005282 0.000000
# 2 -0.001128 0.021078 -0.002559 0.000000 0.002274 0.000000
# 3 -0.004850 -0.002559 0.009663 0.000000 0.001311 0.000000
# 4 0.000000 0.000000 0.000000 0.220413 0.000000 0.033251
# 5 0.005282 0.002274 0.001311 0.000000 0.034107 0.000000
# 6 0.000000 0.000000 0.000000 0.033251 0.000000 0.080375
#
#
# Mechanical properties :
#
#
# Convention : Reuss Voigt Hill
#
# Bulk Modulus (GPa) = 36.11778 52.44107 44.27943
# Shear Modulus (GPa) = 12.31665 23.46650 17.89157
#
# Velocity S-wave (km/s) = 2.47992 3.42307 2.98893
# Velocity P-wave (km/s) = 5.12196 6.46593 5.83278
#
# Compressibility (1/GPa) = 0.02768719
#
# Stress axis : x y z
#
# Youngs Moduli (GPa) = 71.33238 47.44389 103.49004
#
# Poissons Ratio (x) = 0.05350 0.50189
# Poissons Ratio (y) = 0.08045 0.26479
# Poissons Ratio (z) = 0.34594 0.12139
#
# Static dielectric constant tensor:
#      x y z
#    x 3.733140 0.000000 -0.250380 
#    y 0.000000 3.384110 0.000000 
#    z -0.250380 0.000000 3.941390 
# 
# 
# High freq. dielectric constant tensor:
#      x y z
#    x 1.786170 0.000000 -0.011270 
#    y 0.000000 1.731810 0.000000 
#    z -0.011270 0.000000 1.792120 
# 
# From -- ./inp_files/71440.got.cif
#   From: 2010.06.25/outbox.cif.g09.slc.cpg/sg10_36_cif.got.tgz:71440.got - 2010.06.27 22:07:45.
