data_PCOD8061018
_publ_section_title
;
Structure prediction by ZEFSAII (Michael W. Deem and Ramdas Pophale) SiO2 
 PCOD8061018
Probable space group: P 2/M
;
_chemical_formula_sum "Si O2"
_cell_formula_units_Z 30
_cell_length_a 9.174737
_cell_length_b 13.894273
_cell_length_c 12.006637
_cell_angle_alpha 90.000000
_cell_angle_beta 65.724388
_cell_angle_gamma 90.000000
_cell_volume 1395.226888
_symmetry_space_group_name_H-M "P 2/M"
_symmetry_group_IT_number 10
_symmetry_cell_setting 'monoclinic'
loop_
_space_group_symop_operation_xyz
x,y,z
-x,y,-z
-x,-y,-z
x,-y,z
loop_
_atom_site_type_symbol
_atom_site_label
_atom_site_fract_x
_atom_site_fract_y
_atom_site_fract_z
Si Si1 0.547216 0.888555 0.174474
Si Si2 0.786232 0.213050 0.760447
Si Si3 0.405044 0.389470 0.138805
Si Si4 0.343026 0.105322 0.619012
Si Si5 0.736976 0.696981 0.436107
Si Si6 0.533238 0.609905 0.333261
Si Si7 0.000000 0.735550 0.500000
Si Si8 0.129458 0.887651 0.050454
O O1 0.388392 0.833887 0.188998
O O2 0.609943 0.855032 0.274557
O O3 0.501654 0.000000 0.190875
O O4 0.689276 0.866850 0.043706
O O5 0.754922 0.326319 0.795112
O O6 0.879085 0.200179 0.613614
O O7 0.894487 0.168027 0.825118
O O8 0.349149 0.500000 0.148712
O O9 0.528566 0.373108 0.202801
O O10 0.500000 0.356630 0.000000
O O11 0.500000 0.088517 0.500000
O O12 0.238060 0.188579 0.594834
O O13 0.253877 0.000000 0.654875
O O14 0.706923 0.637606 0.331055
O O15 0.591912 0.680395 0.567401
O O16 0.900179 0.666581 0.446988
O O17 0.490805 0.500000 0.376218
O O18 0.099705 0.000000 0.081191
O O19 0.000000 0.850503 0.000000
#
# Coordination Sequence:
#
# PCOD8061018 Si02
#       8
#     4   4   4   4   4   4   2   4
#     4  10  21  39  66  95 122 165 221 265 317 387
#     4  12  23  43  62  94 128 175 215 265 324 386
#     4  10  21  40  68  99 125 155 210 270 321 386
#     4  10  19  32  56  87 120 162 206 257 316 368
#     4  11  20  39  57  86 125 162 210 266 305 384
#     4  10  20  39  68  93 116 159 211 260 324 384
#     4  12  28  40  60  94 134 174 218 266 330 378
#     4  10  23  43  67  97 130 167 217 273 325 384
#
# _framework density 21.501878999999999
#
# number of rings (size 3 to 8) (size 9 to 14) (size 15 to 20)
#    0.000    1.467    2.667    4.000    1.867    1.067 
#    0.000    6.000    0.000    0.400    0.000    0.000 
#    0.000    0.000    0.000    0.000    0.000    0.000 
#
# Total GULP energy -371867.004372 kJ/mol
# GULP energy per Si atom -12395.566812 kJ/mol
# Density = 2.145294 g / cm^3
# Si number density = 21.501879 Si / 1000 Ang^3
#
#
#
# Elastic Constant Matrix: (Units=GPa)
#
#
# Indices 1 2 3 4 5 6 
#
# 1 124.3868 46.3300 43.7127 0.0000 20.4737 0.0000
# 2 46.3300 90.8495 39.6035 0.0000 15.1792 0.0000
# 3 43.7127 39.6035 129.8880 0.0000 18.7606 0.0000
# 4 0.0000 0.0000 0.0000 25.5173 0.0000 10.4047
# 5 20.4737 15.1792 18.7606 0.0000 37.8657 0.0000
# 6 0.0000 0.0000 0.0000 10.4047 0.0000 22.5631
#
#
#
# Elastic Compliance Matrix: (Units=1/GPa)
#
#
# Indices 1 2 3 4 5 6 
#
# 1 0.010777 -0.004127 -0.001902 0.000000 -0.003230 0.000000
# 2 -0.004127 0.014699 -0.002762 0.000000 -0.002293 0.000000
# 3 -0.001902 -0.002762 0.009557 0.000000 -0.002599 0.000000
# 4 0.000000 0.000000 0.000000 0.048264 0.000000 -0.022256
# 5 -0.003230 -0.002293 -0.002599 0.000000 0.030363 0.000000
# 6 0.000000 0.000000 0.000000 -0.022256 0.000000 0.054583
#
#
# Mechanical properties :
#
#
# Convention : Reuss Voigt Hill
#
# Bulk Modulus (GPa) = 57.30385 67.15742 62.23064
# Shear Modulus (GPa) = 26.09056 31.55441 28.82249
#
# Velocity S-wave (km/s) = 3.48718 3.83498 3.66521
# Velocity P-wave (km/s) = 6.55152 7.13516 6.84956
#
# Compressibility (1/GPa) = 0.01745083
#
# Stress axis : x y z
#
# Youngs Moduli (GPa) = 92.79331 68.03302 104.64064
#
# Poissons Ratio (x) = 0.28077 0.19902
# Poissons Ratio (y) = 0.38295 0.28899
# Poissons Ratio (z) = 0.17648 0.18789
#
# Static dielectric constant tensor:
#      x y z
#    x 3.964530 0.000000 0.304340 
#    y 0.000000 4.018420 0.000000 
#    z 0.304340 0.000000 4.061840 
# 
# 
# High freq. dielectric constant tensor:
#      x y z
#    x 1.828130 0.000000 0.026810 
#    y 0.000000 1.836430 0.000000 
#    z 0.026810 0.000000 1.850390 
# 
# From -- ./inp_files/42926.got.cif
#   From: 2010.06.25/outbox.cif.g09.slc.cpg/sg10_22_cif.got.tgz:42926.got - 2010.06.27 22:07:45.
