data_PCOD8061992
_publ_section_title
;
Structure prediction by ZEFSAII (Michael W. Deem and Ramdas Pophale) SiO2 
 PCOD8061992
Probable space group: P 2/M
;
_chemical_formula_sum "Si O2"
_cell_formula_units_Z 24
_cell_length_a 17.367645
_cell_length_b 8.745254
_cell_length_c 24.732984
_cell_angle_alpha 90.000000
_cell_angle_beta 160.372196
_cell_angle_gamma 90.000000
_cell_volume 1261.859811
_symmetry_space_group_name_H-M "P 2/M"
_symmetry_group_IT_number 10
_symmetry_cell_setting 'monoclinic'
loop_
_space_group_symop_operation_xyz
x,y,z
-x,y,-z
-x,-y,-z
x,-y,z
loop_
_atom_site_type_symbol
_atom_site_label
_atom_site_fract_x
_atom_site_fract_y
_atom_site_fract_z
Si Si1 0.488785 0.319054 0.932828
Si Si2 0.225909 0.180348 0.178646
Si Si3 0.265874 0.323312 0.319217
Si Si4 0.275161 0.818889 0.526631
Si Si5 0.012640 0.322816 0.760333
Si Si6 0.980667 0.318200 0.425598
O O1 0.462740 0.500000 0.917197
O O2 0.265624 0.251994 0.755837
O O3 0.500000 0.249991 0.000000
O O4 0.724298 0.269308 0.060212
O O5 0.206833 0.224462 0.228386
O O6 0.463629 0.242071 0.309520
O O7 0.223771 0.000000 0.172375
O O8 0.000000 0.250009 0.000000
O O9 0.500000 0.263589 0.500000
O O10 0.286468 0.500000 0.315590
O O11 0.074176 0.293890 0.237018
O O12 0.123032 0.770652 0.374661
O O13 0.180515 0.749640 0.519976
O O14 0.269681 0.000000 0.527423
O O15 0.992537 0.500000 0.729603
O O16 0.997712 0.500000 0.432548
O O17 0.000000 0.262185 0.500000
#
# Coordination Sequence:
#
# PCOD8061992 Si02
#       6
#     4   4   4   4   4   4
#     4   9  16  30  55  81 106 141 179 218 266 319
#     4  10  23  41  58  79 113 155 193 229 277 342
#     4  10  20  34  57  89 116 141 182 238 287 325
#     4  11  22  36  57  82 109 145 186 228 281 330
#     4  10  19  34  57  83 114 146 183 228 275 330
#     4  10  21  37  58  83 110 144 185 225 271 332
#
# _framework density 19.019545999999998
#
# number of rings (size 3 to 8) (size 9 to 14) (size 15 to 20)
#    0.000    2.000    3.333    0.500    0.000    3.667 
#    0.000    3.333    0.000    0.000    0.000    0.000 
#    0.000    0.000    0.000    0.000    0.000    0.000 
#
# Total GULP energy -297546.957050 kJ/mol
# GULP energy per Si atom -12397.789877 kJ/mol
# Density = 1.897626 g / cm^3
# Si number density = 19.019546 Si / 1000 Ang^3
#
#
#
# Elastic Constant Matrix: (Units=GPa)
#
#
# Indices 1 2 3 4 5 6 
#
# 1 139.8610 23.6103 94.3371 0.0000 10.9845 0.0000
# 2 23.6103 23.8711 19.7844 0.0000 3.2572 0.0000
# 3 94.3371 19.7844 160.2348 0.0000 5.8604 0.0000
# 4 0.0000 0.0000 0.0000 23.0819 0.0000 4.5026
# 5 10.9845 3.2572 5.8604 0.0000 37.9575 0.0000
# 6 0.0000 0.0000 0.0000 4.5026 0.0000 35.5206
#
#
#
# Elastic Compliance Matrix: (Units=1/GPa)
#
#
# Indices 1 2 3 4 5 6 
#
# 1 0.013048 -0.007032 -0.006735 0.000000 -0.002133 0.000000
# 2 -0.007032 0.050830 -0.002063 0.000000 -0.002008 0.000000
# 3 -0.006735 -0.002063 0.010442 0.000000 0.000514 0.000000
# 4 0.000000 0.000000 0.000000 0.044422 0.000000 -0.005631
# 5 -0.002133 -0.002008 0.000514 0.000000 0.027055 0.000000
# 6 0.000000 0.000000 0.000000 -0.005631 0.000000 0.028866
#
#
# Mechanical properties :
#
#
# Convention : Reuss Voigt Hill
#
# Bulk Modulus (GPa) = 23.44106 66.60336 45.02221
# Shear Modulus (GPa) = 22.67119 31.72767 27.19943
#
# Velocity S-wave (km/s) = 3.45627 4.08874 3.78574
# Velocity P-wave (km/s) = 5.31782 7.57528 6.54462
#
# Compressibility (1/GPa) = 0.04266019
#
# Stress axis : x y z
#
# Youngs Moduli (GPa) = 76.64244 19.67333 95.76536
#
# Poissons Ratio (x) = 0.13834 0.64502
# Poissons Ratio (y) = 0.53893 0.19754
# Poissons Ratio (z) = 0.51622 0.04058
#
# Static dielectric constant tensor:
#      x y z
#    x 3.573140 0.000000 0.223410 
#    y 0.000000 3.166970 0.000000 
#    z 0.223410 0.000000 3.798000 
# 
# 
# High freq. dielectric constant tensor:
#      x y z
#    x 1.751980 0.000000 0.011570 
#    y 0.000000 1.708110 0.000000 
#    z 0.011570 0.000000 1.747480 
# 
# From -- ./inp_files/48879.got.cif
#   From: 2010.06.25/outbox.cif.g09.slc.cpg/sg10_25_cif.got.tgz:48879.got - 2010.06.27 22:07:45.
