data_PCOD8061706
_publ_section_title
;
Structure prediction by ZEFSAII (Michael W. Deem and Ramdas Pophale) SiO2 
 PCOD8061706
Probable space group: P 2/M
;
_chemical_formula_sum "Si O2"
_cell_formula_units_Z 32
_cell_length_a 17.326831
_cell_length_b 12.510576
_cell_length_c 23.491473
_cell_angle_alpha 90.000000
_cell_angle_beta 20.348427
_cell_angle_gamma 90.000000
_cell_volume 1770.706813
_symmetry_space_group_name_H-M "P 2/M"
_symmetry_group_IT_number 10
_symmetry_cell_setting 'monoclinic'
loop_
_space_group_symop_operation_xyz
x,y,z
-x,y,-z
-x,-y,-z
x,-y,z
loop_
_atom_site_type_symbol
_atom_site_label
_atom_site_fract_x
_atom_site_fract_y
_atom_site_fract_z
Si Si1 0.016562 0.299085 0.398117
Si Si2 0.965349 0.115620 0.193447
Si Si3 0.416676 0.246115 0.495597
Si Si4 0.932802 0.375116 0.333538
Si Si5 0.186418 0.119325 0.827620
Si Si6 0.696204 0.619500 0.706558
Si Si7 0.692777 0.737788 0.990887
Si Si8 0.641925 0.878019 0.845075
O O1 0.210278 0.370927 0.293234
O O2 0.120456 0.182175 0.312683
O O3 0.908696 0.352768 0.417093
O O4 0.816506 0.294452 0.582299
O O5 0.153422 0.203110 0.070699
O O6 0.741116 0.145920 0.381803
O O7 0.931145 0.107259 0.150854
O O8 0.038980 0.000000 0.167009
O O9 0.500000 0.291491 0.500000
O O10 0.280908 0.335918 0.554759
O O11 0.611538 0.203472 0.319149
O O12 0.958965 0.500000 0.303201
O O13 0.158175 0.313073 0.161585
O O14 0.267714 0.000000 0.791028
O O15 0.000000 0.164493 0.000000
O O16 0.738253 0.500000 0.654617
O O17 0.433863 0.642704 0.888662
O O18 0.507429 0.821266 0.098866
O O19 0.693006 0.000000 0.792228
O O20 0.500000 0.872732 0.000000
#
# Coordination Sequence:
#
# PCOD8061706 Si02
#       8
#     4   4   4   4   4   4   4   4
#     4  10  20  36  52  77  99 134 175 208 253 301
#     4   9  17  31  51  73 101 133 165 204 250 305
#     4   9  19  34  51  73 100 131 164 202 257 308
#     4  11  21  34  54  76 100 127 173 219 250 294
#     4   9  17  31  52  76 100 128 163 203 247 298
#     4  10  20  35  54  71 105 142 171 213 259 299
#     4  10  20  33  50  79 100 133 173 209 253 298
#     4  10  19  34  53  74 105 136 165 205 254 300
#
# _framework density 18.071878999999999
#
# number of rings (size 3 to 8) (size 9 to 14) (size 15 to 20)
#    0.000    2.250    1.250    2.625    0.000    2.750 
#    0.000    8.125    0.000    0.375    0.000    0.000 
#    0.000    0.000    0.000    0.000    0.000    0.000 
#
# Total GULP energy -396583.861927 kJ/mol
# GULP energy per Si atom -12393.245685 kJ/mol
# Density = 1.803075 g / cm^3
# Si number density = 18.071879 Si / 1000 Ang^3
#
#
#
# Elastic Constant Matrix: (Units=GPa)
#
#
# Indices 1 2 3 4 5 6 
#
# 1 69.3941 40.5517 37.8731 0.0000 -5.7006 0.0000
# 2 40.5517 102.9259 37.1953 0.0000 -1.4960 0.0000
# 3 37.8731 37.1953 105.4307 0.0000 1.8849 0.0000
# 4 0.0000 0.0000 0.0000 23.2518 0.0000 -1.9795
# 5 -5.7006 -1.4960 1.8849 0.0000 23.8770 0.0000
# 6 0.0000 0.0000 0.0000 -1.9795 0.0000 14.0426
#
#
#
# Elastic Compliance Matrix: (Units=1/GPa)
#
#
# Indices 1 2 3 4 5 6 
#
# 1 0.021654 -0.006431 -0.005603 0.000000 0.005209 0.000000
# 2 -0.006431 0.013070 -0.002291 0.000000 -0.000536 0.000000
# 3 -0.005603 -0.002291 0.012350 0.000000 -0.002456 0.000000
# 4 0.000000 0.000000 0.000000 0.043530 0.000000 0.006136
# 5 0.005209 -0.000536 -0.002456 0.000000 0.043285 0.000000
# 6 0.000000 0.000000 0.000000 0.006136 0.000000 0.072077
#
#
# Mechanical properties :
#
#
# Convention : Reuss Voigt Hill
#
# Bulk Modulus (GPa) = 54.27861 56.55452 55.41657
# Shear Modulus (GPa) = 20.76776 23.04298 21.90537
#
# Velocity S-wave (km/s) = 3.39363 3.57469 3.48534
# Velocity P-wave (km/s) = 6.74208 6.95701 6.85039
#
# Compressibility (1/GPa) = 0.01842346
#
# Stress axis : x y z
#
# Youngs Moduli (GPa) = 46.17981 76.51292 80.97252
#
# Poissons Ratio (x) = 0.49206 0.45369
# Poissons Ratio (y) = 0.29699 0.18552
# Poissons Ratio (z) = 0.25875 0.17530
#
# Static dielectric constant tensor:
#      x y z
#    x 3.247700 0.000000 -0.036780 
#    y 0.000000 3.395230 0.000000 
#    z -0.036780 0.000000 3.393290 
# 
# 
# High freq. dielectric constant tensor:
#      x y z
#    x 1.687850 0.000000 0.002490 
#    y 0.000000 1.691010 0.000000 
#    z 0.002490 0.000000 1.701210 
# 
# From -- ./inp_files/38261.got.cif
#   From: 2010.06.25/outbox.cif.g09.slc.cpg/sg10_20_cif.got.tgz:38261.got - 2010.06.27 22:07:45.
