data_PCOD8061921
_publ_section_title
;
Structure prediction by ZEFSAII (Michael W. Deem and Ramdas Pophale) SiO2 
 PCOD8061921
Probable space group: P 2/M
;
_chemical_formula_sum "Si O2"
_cell_formula_units_Z 28
_cell_length_a 12.093153
_cell_length_b 14.166468
_cell_length_c 8.949203
_cell_angle_alpha 90.000000
_cell_angle_beta 55.149920
_cell_angle_gamma 90.000000
_cell_volume 1258.182082
_symmetry_space_group_name_H-M "P 2/M"
_symmetry_group_IT_number 10
_symmetry_cell_setting 'monoclinic'
loop_
_space_group_symop_operation_xyz
x,y,z
-x,y,-z
-x,-y,-z
x,-y,z
loop_
_atom_site_type_symbol
_atom_site_label
_atom_site_fract_x
_atom_site_fract_y
_atom_site_fract_z
Si Si1 0.632935 0.110462 0.809207
Si Si2 0.917326 0.238627 0.217966
Si Si3 0.494426 0.216987 0.328513
Si Si4 0.263326 0.895662 0.805272
Si Si5 0.894360 0.102619 0.788092
Si Si6 0.122200 0.390712 0.513786
Si Si7 0.572848 0.607108 0.788727
O O1 0.634184 0.167634 0.651483
O O2 0.769520 0.138955 0.786906
O O3 0.624732 0.000000 0.785431
O O4 0.500000 0.146062 0.000000
O O5 0.783353 0.177227 0.287447
O O6 0.877716 0.337045 0.326310
O O7 0.992270 0.182446 0.294927
O O8 0.000000 0.258497 0.000000
O O9 0.500000 0.203970 0.500000
O O10 0.622739 0.153862 0.179890
O O11 0.498396 0.326783 0.280321
O O12 0.307102 0.000000 0.708347
O O13 0.140804 0.912729 0.011546
O O14 0.946533 0.000000 0.687953
O O15 0.103090 0.500000 0.569766
O O16 0.266608 0.374031 0.320963
O O17 0.000000 0.357844 0.500000
O O18 0.544182 0.500000 0.760869
O O19 0.500000 0.630461 0.000000
#
# Coordination Sequence:
#
# PCOD8061921 Si02
#       7
#     4   4   4   4   4   4   4
#     4  10  19  34  56  85 123 171 223 275 320 380
#     4  10  21  37  64  96 131 176 220 266 324 395
#     4  12  24  36  59  91 129 167 208 266 337 400
#     4  10  20  36  56  87 131 175 217 262 315 380
#     4   9  18  34  59  89 123 170 222 266 314 378
#     4  10  23  44  68  96 132 171 217 277 339 400
#     4  10  24  46  71  97 127 167 221 282 343 402
#
# _framework density 22.254331000000001
#
# number of rings (size 3 to 8) (size 9 to 14) (size 15 to 20)
#    0.000    1.857    1.429    2.143    2.000    4.571 
#    0.000    0.714    0.000    0.857    0.000    0.000 
#    0.000    0.000    0.000    0.000    0.000    0.000 
#
# Total GULP energy -346969.101873 kJ/mol
# GULP energy per Si atom -12391.753638 kJ/mol
# Density = 2.220368 g / cm^3
# Si number density = 22.254331 Si / 1000 Ang^3
#
#
#
# Elastic Constant Matrix: (Units=GPa)
#
#
# Indices 1 2 3 4 5 6 
#
# 1 141.5841 67.8160 37.7174 0.0000 17.2586 0.0000
# 2 67.8160 124.8995 28.5505 0.0000 9.6620 0.0000
# 3 37.7174 28.5505 73.8936 0.0000 6.8873 0.0000
# 4 0.0000 0.0000 0.0000 10.0341 0.0000 10.3207
# 5 17.2586 9.6620 6.8873 0.0000 32.2531 0.0000
# 6 0.0000 0.0000 0.0000 10.3207 0.0000 41.4915
#
#
#
# Elastic Compliance Matrix: (Units=1/GPa)
#
#
# Indices 1 2 3 4 5 6 
#
# 1 0.010647 -0.004759 -0.003263 0.000000 -0.003575 0.000000
# 2 -0.004759 0.011030 -0.001798 0.000000 -0.000374 0.000000
# 3 -0.003263 -0.001798 0.015999 0.000000 -0.001132 0.000000
# 4 0.000000 0.000000 0.000000 0.133924 0.000000 -0.033313
# 5 -0.003575 -0.000374 -0.001132 0.000000 0.033272 0.000000
# 6 0.000000 0.000000 0.000000 -0.033313 0.000000 0.032388
#
#
# Mechanical properties :
#
#
# Convention : Reuss Voigt Hill
#
# Bulk Modulus (GPa) = 55.44128 67.61613 61.52870
# Shear Modulus (GPa) = 19.01789 30.50862 24.76326
#
# Velocity S-wave (km/s) = 2.92647 3.70659 3.33939
# Velocity P-wave (km/s) = 6.03205 6.98339 6.52508
#
# Compressibility (1/GPa) = 0.01803710
#
# Stress axis : x y z
#
# Youngs Moduli (GPa) = 93.92104 90.66060 62.50560
#
# Poissons Ratio (x) = 0.43142 0.20394
# Poissons Ratio (y) = 0.44694 0.11238
# Poissons Ratio (z) = 0.30645 0.16300
#
# Static dielectric constant tensor:
#      x y z
#    x 4.159730 0.000000 -0.139780 
#    y 0.000000 4.183110 0.000000 
#    z -0.139780 0.000000 3.776110 
# 
# 
# High freq. dielectric constant tensor:
#      x y z
#    x 1.881140 0.000000 -0.000040 
#    y 0.000000 1.880060 0.000000 
#    z -0.000040 0.000000 1.862010 
# 
# From -- ./inp_files/25184.got.cif
#   From: 2010.06.25/outbox.cif.g09.slc.cpg/sg10_13_cif.got.tgz:25184.got - 2010.06.27 22:07:45.
