data_PCOD8061978
_publ_section_title
;
Structure prediction by ZEFSAII (Michael W. Deem and Ramdas Pophale) SiO2 
 PCOD8061978
Probable space group: P 2/M
;
_chemical_formula_sum "Si O2"
_cell_formula_units_Z 24
_cell_length_a 18.160473
_cell_length_b 13.293683
_cell_length_c 5.249167
_cell_angle_alpha 90.000000
_cell_angle_beta 61.689792
_cell_angle_gamma 90.000000
_cell_volume 1115.679320
_symmetry_space_group_name_H-M "P 2/M"
_symmetry_group_IT_number 10
_symmetry_cell_setting 'monoclinic'
loop_
_space_group_symop_operation_xyz
x,y,z
-x,y,-z
-x,-y,-z
x,-y,z
loop_
_atom_site_type_symbol
_atom_site_label
_atom_site_fract_x
_atom_site_fract_y
_atom_site_fract_z
Si Si1 0.043770 0.223363 0.185755
Si Si2 0.668268 0.118157 0.708329
Si Si3 0.813778 0.750047 0.364090
Si Si4 0.403159 0.214093 0.687343
Si Si5 0.717647 0.611798 0.183249
Si Si6 0.890021 0.611522 0.625156
O O1 0.049271 0.344704 0.248379
O O2 0.000000 0.165923 0.500000
O O3 0.142250 0.199269 0.960633
O O4 0.000000 0.191381 0.000000
O O5 0.760894 0.165706 0.599690
O O6 0.630091 0.157334 0.507007
O O7 0.678191 0.000000 0.674825
O O8 0.609718 0.145188 0.042828
O O9 0.750693 0.660466 0.391429
O O10 0.890060 0.699103 0.405294
O O11 0.500000 0.238243 0.500000
O O12 0.356493 0.320126 0.808573
O O13 0.683039 0.500000 0.298524
O O14 0.793422 0.605397 0.861516
O O15 0.920284 0.500000 0.491859
#
# Coordination Sequence:
#
# PCOD8061978 Si02
#       6
#     4   4   4   4   4   4
#     4  11  22  37  54  84 118 159 190 240 299 348
#     4  11  24  42  66  90 116 156 203 250 301 357
#     4  10  20  38  61  83 118 154 207 245 291 350
#     4  11  23  40  62  93 127 155 193 247 302 358
#     4   9  19  35  57  86 121 163 205 241 285 348
#     4  10  19  34  57  82 115 160 200 239 285 346
#
# _framework density 21.511555999999999
#
# number of rings (size 3 to 8) (size 9 to 14) (size 15 to 20)
#    0.000    1.667    3.333    1.500    0.000    3.667 
#    0.000    0.000    0.000    4.000    0.000    0.000 
#    0.000    0.000    0.000    0.000    0.000    0.000 
#
# Total GULP energy -297325.884549 kJ/mol
# GULP energy per Si atom -12388.578523 kJ/mol
# Density = 2.146260 g / cm^3
# Si number density = 21.511556 Si / 1000 Ang^3
#
#
#
# Elastic Constant Matrix: (Units=GPa)
#
#
# Indices 1 2 3 4 5 6 
#
# 1 61.6076 27.8372 27.1933 0.0000 4.6841 0.0000
# 2 27.8372 95.2868 19.7250 0.0000 5.8506 0.0000
# 3 27.1933 19.7250 116.3330 0.0000 7.0808 0.0000
# 4 0.0000 0.0000 0.0000 18.5854 0.0000 1.5930
# 5 4.6841 5.8506 7.0808 0.0000 29.7291 0.0000
# 6 0.0000 0.0000 0.0000 1.5930 0.0000 15.2341
#
#
#
# Elastic Compliance Matrix: (Units=1/GPa)
#
#
# Indices 1 2 3 4 5 6 
#
# 1 0.020298 -0.005062 -0.003808 0.000000 -0.001295 0.000000
# 2 -0.005062 0.012227 -0.000804 0.000000 -0.001417 0.000000
# 3 -0.003808 -0.000804 0.009717 0.000000 -0.001556 0.000000
# 4 0.000000 0.000000 0.000000 0.054292 0.000000 -0.005677
# 5 -0.001295 -0.001417 -0.001556 0.000000 0.034491 0.000000
# 6 0.000000 0.000000 0.000000 -0.005677 0.000000 0.066236
#
#
# Mechanical properties :
#
#
# Convention : Reuss Voigt Hill
#
# Bulk Modulus (GPa) = 43.67708 46.97093 45.32400
# Shear Modulus (GPa) = 22.29757 25.94119 24.11938
#
# Velocity S-wave (km/s) = 3.22303 3.47640 3.35211
# Velocity P-wave (km/s) = 5.84796 6.16412 6.00812
#
# Compressibility (1/GPa) = 0.02289531
#
# Stress axis : x y z
#
# Youngs Moduli (GPa) = 49.26538 81.78706 102.91205
#
# Poissons Ratio (x) = 0.41402 0.39185
# Poissons Ratio (y) = 0.24939 0.08270
# Poissons Ratio (z) = 0.18758 0.06572
#
# Static dielectric constant tensor:
#      x y z
#    x 3.923520 0.000000 -0.175380 
#    y 0.000000 3.616360 0.000000 
#    z -0.175380 0.000000 4.288640 
# 
# 
# High freq. dielectric constant tensor:
#      x y z
#    x 1.843670 0.000000 -0.009350 
#    y 0.000000 1.803760 0.000000 
#    z -0.009350 0.000000 1.862520 
# 
# From -- ./inp_files/12183.got.cif
#   From: 2010.06.25/outbox.cif.g09.slc.cpg/sg10_7_cif.got.tgz:12183.got - 2010.06.27 22:07:45.
