data_PCOD8061927
_publ_section_title
;
Structure prediction by ZEFSAII (Michael W. Deem and Ramdas Pophale) SiO2 
 PCOD8061927
Probable space group: P 2/M
;
_chemical_formula_sum "Si O2"
_cell_formula_units_Z 32
_cell_length_a 13.143279
_cell_length_b 12.080166
_cell_length_c 11.378638
_cell_angle_alpha 90.000000
_cell_angle_beta 66.488597
_cell_angle_gamma 90.000000
_cell_volume 1656.636035
_symmetry_space_group_name_H-M "P 2/M"
_symmetry_group_IT_number 10
_symmetry_cell_setting 'monoclinic'
loop_
_space_group_symop_operation_xyz
x,y,z
-x,y,-z
-x,-y,-z
x,-y,z
loop_
_atom_site_type_symbol
_atom_site_label
_atom_site_fract_x
_atom_site_fract_y
_atom_site_fract_z
Si Si1 0.339662 0.626984 0.560584
Si Si2 0.979773 0.874122 0.638706
Si Si3 0.788498 0.239749 0.879565
Si Si4 0.310050 0.870011 0.846231
Si Si5 0.028856 0.618081 0.118216
Si Si6 0.594914 0.375227 0.869377
Si Si7 0.518572 0.305897 0.307414
Si Si8 0.153852 0.219411 0.713772
O O1 0.330655 0.500000 0.518128
O O2 0.383568 0.623056 0.675430
O O3 0.420858 0.706728 0.448388
O O4 0.223467 0.689728 0.609572
O O5 0.877937 0.817936 0.754328
O O6 0.000000 0.820425 0.500000
O O7 0.098387 0.869367 0.651826
O O8 0.943291 0.000000 0.640616
O O9 0.844678 0.341206 0.924031
O O10 0.695221 0.289061 0.836104
O O11 0.735966 0.159413 0.002896
O O12 0.427124 0.808770 0.764291
O O13 0.219874 0.840449 0.787752
O O14 0.334595 0.000000 0.830882
O O15 0.013790 0.500000 0.193428
O O16 0.951211 0.715740 0.192509
O O17 0.000000 0.591797 0.000000
O O18 0.635643 0.500000 0.877871
O O19 0.539216 0.374362 0.768036
O O20 0.500000 0.335196 0.000000
#
# Coordination Sequence:
#
# PCOD8061927 Si02
#       8
#     4   4   4   4   4   4   4   4
#     4  10  20  37  63  88 117 155 193 233 290 347
#     4  10  23  42  61  83 114 156 197 239 287 338
#     4  11  22  39  59  86 118 153 193 238 284 348
#     4  11  22  39  60  87 114 149 196 248 295 333
#     4  10  19  34  56  87 120 146 181 233 294 346
#     4  11  22  37  60  87 120 153 186 231 293 352
#     4  10  21  39  56  86 118 151 195 242 278 349
#     4  10  21  37  61  88 117 149 192 244 285 347
#
# _framework density 19.316251999999999
#
# number of rings (size 3 to 8) (size 9 to 14) (size 15 to 20)
#    0.000    1.625    2.500    3.000    1.750    0.000 
#    0.000    9.375    0.000    2.250    0.000    0.000 
#    0.000    0.000    0.000    0.000    0.000    0.000 
#
# Total GULP energy -396493.018088 kJ/mol
# GULP energy per Si atom -12390.406815 kJ/mol
# Density = 1.927229 g / cm^3
# Si number density = 19.316252 Si / 1000 Ang^3
#
#
#
# Elastic Constant Matrix: (Units=GPa)
#
#
# Indices 1 2 3 4 5 6 
#
# 1 95.2399 34.8761 44.3604 0.0000 -3.5407 0.0000
# 2 34.8761 108.2079 42.5144 0.0000 -11.2427 0.0000
# 3 44.3604 42.5144 111.2066 0.0000 -2.0459 0.0000
# 4 0.0000 0.0000 0.0000 25.2380 0.0000 -6.4824
# 5 -3.5407 -11.2427 -2.0459 0.0000 26.9971 0.0000
# 6 0.0000 0.0000 0.0000 -6.4824 0.0000 28.1283
#
#
#
# Elastic Compliance Matrix: (Units=1/GPa)
#
#
# Indices 1 2 3 4 5 6 
#
# 1 0.013507 -0.002591 -0.004391 0.000000 0.000360 0.000000
# 2 -0.002591 0.011874 -0.003426 0.000000 0.004345 0.000000
# 3 -0.004391 -0.003426 0.012033 0.000000 -0.001091 0.000000
# 4 0.000000 0.000000 0.000000 0.042116 0.000000 0.009706
# 5 0.000360 0.004345 -0.001091 0.000000 0.038815 0.000000
# 6 0.000000 0.000000 0.000000 0.009706 0.000000 0.037788
#
#
# Mechanical properties :
#
#
# Convention : Reuss Voigt Hill
#
# Bulk Modulus (GPa) = 60.24421 62.01737 61.13079
# Shear Modulus (GPa) = 27.39990 28.93291 28.16641
#
# Velocity S-wave (km/s) = 3.77037 3.87441 3.82274
# Velocity P-wave (km/s) = 7.08592 7.22432 7.15545
#
# Compressibility (1/GPa) = 0.01659911
#
# Stress axis : x y z
#
# Youngs Moduli (GPa) = 74.03517 84.21701 83.10139
#
# Poissons Ratio (x) = 0.21820 0.36489
# Poissons Ratio (y) = 0.19182 0.28471
# Poissons Ratio (z) = 0.32508 0.28853
#
# Static dielectric constant tensor:
#      x y z
#    x 3.670500 0.000000 0.447610 
#    y 0.000000 3.686740 0.000000 
#    z 0.447610 0.000000 4.787560 
# 
# 
# High freq. dielectric constant tensor:
#      x y z
#    x 1.756850 0.000000 -0.000150 
#    y 0.000000 1.744120 0.000000 
#    z -0.000150 0.000000 1.751370 
# 
# From -- ./inp_files/46978.got.cif
#   From: 2010.06.25/outbox.cif.g09.slc.cpg/sg10_24_cif.got.tgz:46978.got - 2010.06.27 22:07:45.
