data_PCOD8061987
_publ_section_title
;
Structure prediction by ZEFSAII (Michael W. Deem and Ramdas Pophale) SiO2 
 PCOD8061987
Probable space group: P 2/M
;
_chemical_formula_sum "Si O2"
_cell_formula_units_Z 28
_cell_length_a 9.779167
_cell_length_b 8.897939
_cell_length_c 27.838737
_cell_angle_alpha 90.000000
_cell_angle_beta 37.432141
_cell_angle_gamma 90.000000
_cell_volume 1472.369424
_symmetry_space_group_name_H-M "P 2/M"
_symmetry_group_IT_number 10
_symmetry_cell_setting 'monoclinic'
loop_
_space_group_symop_operation_xyz
x,y,z
-x,y,-z
-x,-y,-z
x,-y,z
loop_
_atom_site_type_symbol
_atom_site_label
_atom_site_fract_x
_atom_site_fract_y
_atom_site_fract_z
Si Si1 0.437440 0.173983 0.308639
Si Si2 0.429925 0.324028 0.870587
Si Si3 0.741221 0.831409 0.455890
Si Si4 0.750407 0.325825 0.552698
Si Si5 0.845297 0.323656 0.691796
Si Si6 0.330621 0.322741 0.006000
Si Si7 0.139221 0.173776 0.872957
O O1 0.427414 0.228929 0.366424
O O2 0.259379 0.276143 0.329916
O O3 0.685968 0.201626 0.218846
O O4 0.369091 0.000000 0.323123
O O5 0.387952 0.500000 0.875354
O O6 0.674331 0.277006 0.782020
O O7 0.426168 0.275840 0.927197
O O8 0.230415 0.242581 0.897377
O O9 0.500000 0.833975 0.500000
O O10 0.728947 0.720657 0.503943
O O11 0.920844 0.765675 0.367196
O O12 0.813304 0.000000 0.451024
O O13 0.689956 0.500000 0.575074
O O14 0.000000 0.287777 0.500000
O O15 0.893837 0.500000 0.678035
O O16 0.301254 0.500000 0.018328
O O17 0.500000 0.263232 0.000000
O O18 0.088683 0.249797 0.081205
O O19 0.094787 0.000000 0.895066
#
# Coordination Sequence:
#
# PCOD8061987 Si02
#       7
#     4   4   4   4   4   4   4
#     4  10  20  35  57  84 115 147 184 231 283 334
#     4   9  19  36  59  84 110 144 186 232 278 328
#     4  11  24  40  57  80 114 154 191 228 280 339
#     4  11  22  36  59  88 113 144 190 236 279 327
#     4  10  19  34  57  83 112 143 188 239 281 327
#     4  10  21  38  58  81 114 151 187 225 276 335
#     4  10  21  36  57  86 115 144 185 231 276 330
#
# _framework density 19.016964999999999
#
# number of rings (size 3 to 8) (size 9 to 14) (size 15 to 20)
#    0.000    1.857    1.429    2.571    0.000    6.571 
#    2.571    0.000    0.000    0.000    0.000    0.000 
#    0.000    0.000    0.000    0.000    0.000    0.000 
#
# Total GULP energy -347283.709470 kJ/mol
# GULP energy per Si atom -12402.989624 kJ/mol
# Density = 1.897368 g / cm^3
# Si number density = 19.016965 Si / 1000 Ang^3
#
#
#
# Elastic Constant Matrix: (Units=GPa)
#
#
# Indices 1 2 3 4 5 6 
#
# 1 102.2343 39.0719 59.0024 0.0000 -4.2948 0.0000
# 2 39.0719 65.2252 48.7889 0.0000 -5.7665 0.0000
# 3 59.0024 48.7889 119.5076 0.0000 -4.7339 0.0000
# 4 0.0000 0.0000 0.0000 11.5904 0.0000 56.6103
# 5 -4.2948 -5.7665 -4.7339 0.0000 29.6182 0.0000
# 6 0.0000 0.0000 0.0000 56.6103 0.0000 -144.7542
#
#
#
# Elastic Compliance Matrix: (Units=1/GPa)
#
#
# Indices 1 2 3 4 5 6 
#
# 1 0.014677 -0.004825 -0.005263 0.000000 0.000348 0.000000
# 2 -0.004825 0.023904 -0.007266 0.000000 0.002793 0.000000
# 3 -0.005263 -0.007266 0.013934 0.000000 0.000049 0.000000
# 4 0.000000 0.000000 0.000000 0.029648 0.000000 0.011595
# 5 0.000348 0.002793 0.000049 0.000000 0.034365 0.000000
# 6 0.000000 0.000000 0.000000 0.011595 0.000000 -0.002374
#
#
# Mechanical properties :
#
#
# Convention : Reuss Voigt Hill
#
# Bulk Modulus (GPa) = 56.15450 64.52150 60.33800
# Shear Modulus (GPa) = 32.30028 -11.36887 10.46571
#
# Velocity S-wave (km/s) = 4.12576 -2.44770 2.34847
# Velocity P-wave (km/s) = 7.23108 5.10036 6.25709
#
# Compressibility (1/GPa) = 0.01780801
#
# Stress axis : x y z
#
# Youngs Moduli (GPa) = 68.13211 41.83478 71.76536
#
# Poissons Ratio (x) = 0.20184 0.37770
# Poissons Ratio (y) = 0.32872 0.52144
# Poissons Ratio (z) = 0.35857 0.30397
#
# Static dielectric constant tensor:
#      x y z
#    x 2.305660 0.000000 0.292960 
#    y 0.000000 3.559960 0.000000 
#    z 0.292960 0.000000 3.669000 
# 
# 
# High freq. dielectric constant tensor:
#      x y z
#    x 1.713190 0.000000 0.001640 
#    y 0.000000 1.747380 0.000000 
#    z 0.001640 0.000000 1.755030 
# 
# From -- ./inp_files/91992.got.cif
#   From: 2010.06.25/outbox.cif.g09.slc.cpg/sg10_46_cif.got.tgz:91992.got - 2010.06.27 22:07:45.
