data_PCOD8061948
_publ_section_title
;
Structure prediction by ZEFSAII (Michael W. Deem and Ramdas Pophale) SiO2 
 PCOD8061948
Probable space group: P 2/M
;
_chemical_formula_sum "Si O2"
_cell_formula_units_Z 32
_cell_length_a 14.364548
_cell_length_b 9.150593
_cell_length_c 12.568130
_cell_angle_alpha 90.000000
_cell_angle_beta 84.546185
_cell_angle_gamma 90.000000
_cell_volume 1644.528530
_symmetry_space_group_name_H-M "P 2/M"
_symmetry_group_IT_number 10
_symmetry_cell_setting 'monoclinic'
loop_
_space_group_symop_operation_xyz
x,y,z
-x,y,-z
-x,-y,-z
x,-y,z
loop_
_atom_site_type_symbol
_atom_site_label
_atom_site_fract_x
_atom_site_fract_y
_atom_site_fract_z
Si Si1 0.672849 0.832624 0.248316
Si Si2 0.605211 0.327829 0.463295
Si Si3 0.879972 0.830472 0.265174
Si Si4 0.754397 0.325617 0.866720
Si Si5 0.965885 0.672009 0.887462
Si Si6 0.900908 0.333339 0.472742
Si Si7 0.731266 0.666266 0.635091
Si Si8 0.602899 0.829547 0.025990
O O1 0.634864 0.734600 0.347169
O O2 0.782874 0.803186 0.212475
O O3 0.613590 0.794662 0.149689
O O4 0.658451 0.000000 0.283767
O O5 0.500000 0.285956 0.500000
O O6 0.623382 0.500000 0.454305
O O7 0.664533 0.257779 0.554486
O O8 0.861294 0.769476 0.385064
O O9 0.966788 0.747695 0.204402
O O10 0.905661 0.000000 0.267735
O O11 0.749363 0.500000 0.871248
O O12 0.859454 0.273946 0.883767
O O13 0.726951 0.262558 0.752816
O O14 0.681492 0.261079 0.957157
O O15 0.974256 0.500000 0.868215
O O16 0.000000 0.719255 0.000000
O O17 0.906613 0.500000 0.429661
O O18 0.837076 0.323107 0.583672
O O19 0.000000 0.273653 0.500000
O O20 0.697907 0.500000 0.650558
O O21 0.618798 0.000000 0.000272
O O22 0.500000 0.778860 0.000000
#
# Coordination Sequence:
#
# PCOD8061948 Si02
#       8
#     4   4   4   4   4   4   4   4
#     4  10  22  40  59  83 117 152 190 237 287 342
#     4  10  21  36  58  86 112 144 188 237 287 340
#     4  11  22  35  55  84 116 149 187 235 286 339
#     4  10  21  38  60  87 116 147 190 239 287 338
#     4  10  21  37  58  84 114 151 195 239 284 341
#     4  10  19  34  57  81 110 152 191 226 277 335
#     4   9  18  34  54  81 116 146 178 229 283 333
#     4  10  23  42  61  83 114 153 194 236 287 344
#
# _framework density 19.458463999999999
#
# number of rings (size 3 to 8) (size 9 to 14) (size 15 to 20)
#    0.000    2.000    1.250    1.875    1.750    4.500 
#    0.000    1.250    0.000    0.000    0.000    0.000 
#    0.000    0.000    0.000    0.000    0.000    0.000 
#
# Total GULP energy -396813.928523 kJ/mol
# GULP energy per Si atom -12400.435266 kJ/mol
# Density = 1.941418 g / cm^3
# Si number density = 19.458464 Si / 1000 Ang^3
#
#
#
# Elastic Constant Matrix: (Units=GPa)
#
#
# Indices 1 2 3 4 5 6 
#
# 1 139.3006 33.7318 59.9751 0.0000 10.0458 0.0000
# 2 33.7318 32.2635 28.1323 0.0000 -2.6781 0.0000
# 3 59.9751 28.1323 115.7182 0.0000 8.0833 0.0000
# 4 0.0000 0.0000 0.0000 1.3503 0.0000 -1.6087
# 5 10.0458 -2.6781 8.0833 0.0000 37.4292 0.0000
# 6 0.0000 0.0000 0.0000 -1.6087 0.0000 13.1309
#
#
#
# Elastic Compliance Matrix: (Units=1/GPa)
#
#
# Indices 1 2 3 4 5 6 
#
# 1 0.010946 -0.008764 -0.003344 0.000000 -0.002843 0.000000
# 2 -0.008764 0.047276 -0.007464 0.000000 0.007347 0.000000
# 3 -0.003344 -0.007464 0.012350 0.000000 -0.002304 0.000000
# 4 0.000000 0.000000 0.000000 0.867109 0.000000 0.106229
# 5 -0.002843 0.007347 -0.002304 0.000000 0.028503 0.000000
# 6 0.000000 0.000000 0.000000 0.106229 0.000000 0.089171
#
#
# Mechanical properties :
#
#
# Convention : Reuss Voigt Hill
#
# Bulk Modulus (GPa) = 31.81899 58.99561 45.40730
# Shear Modulus (GPa) = 4.52499 21.41163 12.96831
#
# Velocity S-wave (km/s) = 1.52660 3.32079 2.58439
# Velocity P-wave (km/s) = 4.41533 6.71477 5.68257
#
# Compressibility (1/GPa) = 0.03142777
#
# Stress axis : x y z
#
# Youngs Moduli (GPa) = 91.36114 21.15245 80.97020
#
# Poissons Ratio (x) = 0.18538 0.27074
# Poissons Ratio (y) = 0.80069 0.60437
# Poissons Ratio (z) = 0.30549 0.15788
#
# Static dielectric constant tensor:
#      x y z
#    x 3.796810 0.000000 0.285020 
#    y 0.000000 3.310790 0.000000 
#    z 0.285020 0.000000 3.672680 
# 
# 
# High freq. dielectric constant tensor:
#      x y z
#    x 1.771740 0.000000 0.007350 
#    y 0.000000 1.730420 0.000000 
#    z 0.007350 0.000000 1.767630 
# 
# From -- ./inp_files/49818.got.cif
#   From: 2010.06.25/outbox.cif.g09.slc.cpg/sg10_25_cif.got.tgz:49818.got - 2010.06.27 22:07:45.
