data_PCOD8061336
_publ_section_title
;
Structure prediction by ZEFSAII (Michael W. Deem and Ramdas Pophale) SiO2 
 PCOD8061336
Probable space group: P 2/M
;
_chemical_formula_sum "Si O2"
_cell_formula_units_Z 32
_cell_length_a 12.410047
_cell_length_b 8.711401
_cell_length_c 28.928704
_cell_angle_alpha 90.000000
_cell_angle_beta 30.625191
_cell_angle_gamma 90.000000
_cell_volume 1593.185097
_symmetry_space_group_name_H-M "P 2/M"
_symmetry_group_IT_number 10
_symmetry_cell_setting 'monoclinic'
loop_
_space_group_symop_operation_xyz
x,y,z
-x,y,-z
-x,-y,-z
x,-y,z
loop_
_atom_site_type_symbol
_atom_site_label
_atom_site_fract_x
_atom_site_fract_y
_atom_site_fract_z
Si Si1 0.027596 0.826253 0.720095
Si Si2 0.420234 0.825037 0.149700
Si Si3 0.895868 0.182894 0.208492
Si Si4 0.290269 0.318275 0.295103
Si Si5 0.339484 0.681258 0.018892
Si Si6 0.174781 0.321042 0.500849
Si Si7 0.537555 0.818379 0.680058
Si Si8 0.698753 0.826336 0.459169
O O1 0.116442 0.752092 0.734372
O O2 0.114147 0.749635 0.640961
O O3 0.776464 0.818542 0.812783
O O4 0.114952 0.000000 0.685596
O O5 0.361247 0.752394 0.220423
O O6 0.594883 0.730219 0.057262
O O7 0.494691 0.000000 0.130271
O O8 0.683276 0.236494 0.261145
O O9 0.918830 0.000000 0.200053
O O10 0.104610 0.252276 0.109033
O O11 0.298695 0.500000 0.287685
O O12 0.455760 0.259062 0.272163
O O13 0.056888 0.262465 0.397515
O O14 0.328951 0.500000 0.025937
O O15 0.500000 0.742936 0.000000
O O16 0.174633 0.500000 0.489766
O O17 0.257647 0.236581 0.424523
O O18 0.334335 0.279015 0.483683
O O19 0.545727 0.000000 0.681880
O O20 0.500000 0.821087 0.500000
O O21 0.747814 0.000000 0.458131
#
# Coordination Sequence:
#
# PCOD8061336 Si02
#       8
#     4   4   4   4   4   4   4   4
#     4   9  17  31  55  85 116 151 191 240 296 346
#     4  11  21  37  64  91 117 155 202 247 294 350
#     4  10  21  40  63  90 121 156 200 250 301 356
#     4  11  24  42  62  87 124 162 202 252 303 355
#     4  11  23  38  60  93 128 160 195 239 298 365
#     4  11  23  38  58  86 121 162 204 248 301 358
#     4  11  24  41  64  90 118 157 208 256 298 352
#     4  10  19  33  54  82 118 158 201 248 296 352
#
# _framework density 20.085550999999999
#
# number of rings (size 3 to 8) (size 9 to 14) (size 15 to 20)
#    0.000    1.500    2.500    3.000    0.000    6.750 
#    0.000    1.250    0.000    3.750    0.000    0.000 
#    0.000    0.000    0.000    0.000    0.000    0.000 
#
# Total GULP energy -396700.907540 kJ/mol
# GULP energy per Si atom -12396.903361 kJ/mol
# Density = 2.003984 g / cm^3
# Si number density = 20.085551 Si / 1000 Ang^3
#
#
#
# Elastic Constant Matrix: (Units=GPa)
#
#
# Indices 1 2 3 4 5 6 
#
# 1 119.5138 24.4252 34.3074 0.0000 12.6877 0.0000
# 2 24.4252 44.2764 17.4407 0.0000 -0.1545 0.0000
# 3 34.3074 17.4407 92.2185 0.0000 14.1256 0.0000
# 4 0.0000 0.0000 0.0000 29.5169 0.0000 4.3873
# 5 12.6877 -0.1545 14.1256 0.0000 27.0151 0.0000
# 6 0.0000 0.0000 0.0000 4.3873 0.0000 25.4077
#
#
#
# Elastic Compliance Matrix: (Units=1/GPa)
#
#
# Indices 1 2 3 4 5 6 
#
# 1 0.010433 -0.004820 -0.002408 0.000000 -0.003668 0.000000
# 2 -0.004820 0.026823 -0.003968 0.000000 0.004492 0.000000
# 3 -0.002408 -0.003968 0.013393 0.000000 -0.005895 0.000000
# 4 0.000000 0.000000 0.000000 0.034771 0.000000 -0.006004
# 5 -0.003668 0.004492 -0.005895 0.000000 0.041847 0.000000
# 6 0.000000 0.000000 0.000000 -0.006004 0.000000 0.040395
#
#
# Mechanical properties :
#
#
# Convention : Reuss Voigt Hill
#
# Bulk Modulus (GPa) = 35.38829 45.37282 40.38056
# Shear Modulus (GPa) = 25.06620 28.37697 26.72158
#
# Velocity S-wave (km/s) = 3.53650 3.76281 3.65141
# Velocity P-wave (km/s) = 5.85942 6.44338 6.15832
#
# Compressibility (1/GPa) = 0.02825793
#
# Stress axis : x y z
#
# Youngs Moduli (GPa) = 95.85099 37.28175 74.66636
#
# Poissons Ratio (x) = 0.17968 0.17979
# Poissons Ratio (y) = 0.46197 0.29626
# Poissons Ratio (z) = 0.23080 0.14793
#
# Static dielectric constant tensor:
#      x y z
#    x 3.736120 0.000000 0.090400 
#    y 0.000000 3.495420 0.000000 
#    z 0.090400 0.000000 3.828320 
# 
# 
# High freq. dielectric constant tensor:
#      x y z
#    x 1.788250 0.000000 0.011030 
#    y 0.000000 1.768390 0.000000 
#    z 0.011030 0.000000 1.784860 
# 
# From -- ./inp_files/58077.got.cif
#   From: 2010.06.25/outbox.cif.g09.slc.cpg/sg10_30_cif.got.tgz:58077.got - 2010.06.27 22:07:45.
