data_PCOD8061175
_publ_section_title
;
Structure prediction by ZEFSAII (Michael W. Deem and Ramdas Pophale) SiO2 
 PCOD8061175
Probable space group: P 2/M
;
_chemical_formula_sum "Si O2"
_cell_formula_units_Z 32
_cell_length_a 20.051381
_cell_length_b 8.996359
_cell_length_c 25.732011
_cell_angle_alpha 90.000000
_cell_angle_beta 21.799693
_cell_angle_gamma 90.000000
_cell_volume 1723.785660
_symmetry_space_group_name_H-M "P 2/M"
_symmetry_group_IT_number 10
_symmetry_cell_setting 'monoclinic'
loop_
_space_group_symop_operation_xyz
x,y,z
-x,y,-z
-x,-y,-z
x,-y,z
loop_
_atom_site_type_symbol
_atom_site_label
_atom_site_fract_x
_atom_site_fract_y
_atom_site_fract_z
Si Si1 0.451384 0.323890 0.390994
Si Si2 0.465604 0.676965 0.082428
Si Si3 0.337486 0.832180 0.578384
Si Si4 0.014059 0.675852 0.137330
Si Si5 0.173553 0.323405 0.129597
Si Si6 0.926557 0.677450 0.607447
Si Si7 0.157348 0.323706 0.923397
Si Si8 0.896855 0.324148 0.415490
O O1 0.457018 0.500000 0.393965
O O2 0.385355 0.256763 0.492339
O O3 0.647795 0.259969 0.234133
O O4 0.308309 0.279360 0.449526
O O5 0.461497 0.500000 0.084373
O O6 0.276034 0.738243 0.240104
O O7 0.500000 0.739053 0.000000
O O8 0.626495 0.735363 0.002627
O O9 0.500000 0.829211 0.500000
O O10 0.177239 0.753903 0.724943
O O11 0.285058 0.000000 0.601055
O O12 0.982573 0.500000 0.160872
O O13 0.124848 0.731556 0.107216
O O14 0.121126 0.726224 0.008601
O O15 0.168686 0.500000 0.135815
O O16 0.031063 0.258545 0.274406
O O17 0.929450 0.500000 0.604811
O O18 0.000000 0.741808 0.500000
O O19 0.048265 0.737613 0.567326
O O20 0.161059 0.500000 0.916059
O O21 0.000000 0.259315 0.000000
O O22 0.919138 0.500000 0.399656
#
# Coordination Sequence:
#
# PCOD8061175 Si02
#       8
#     4   4   4   4   4   4   4   4
#     4  10  19  33  54  75  99 135 170 208 258 301
#     4   9  14  21  34  51  79 119 153 185 228 277
#     4  11  23  36  51  75 103 129 165 211 253 303
#     4  10  19  33  53  75  99 130 167 207 252 300
#     4   9  15  24  41  64  88 119 162 203 237 284
#     4   9  16  23  33  55  91 130 161 191 236 292
#     4   9  18  31  48  73 100 124 159 205 250 303
#     4   9  15  25  41  63  92 125 164 204 241 289
#
# _framework density 18.563794000000001
#
# number of rings (size 3 to 8) (size 9 to 14) (size 15 to 20)
#    0.000    2.500    2.500    1.125    0.000    3.000 
#    0.000    5.625    0.000    2.250    0.000    0.000 
#    0.000    5.000    0.000    0.000    0.000    0.125 
#
# Total GULP energy -396696.023825 kJ/mol
# GULP energy per Si atom -12396.750745 kJ/mol
# Density = 1.852154 g / cm^3
# Si number density = 18.563794 Si / 1000 Ang^3
#
#
#
# Elastic Constant Matrix: (Units=GPa)
#
#
# Indices 1 2 3 4 5 6 
#
# 1 135.1390 11.9131 56.0251 0.0000 -3.0523 0.0000
# 2 11.9131 16.4773 16.0246 0.0000 -2.4325 0.0000
# 3 56.0251 16.0246 134.4396 0.0000 -4.7355 0.0000
# 4 0.0000 0.0000 0.0000 1.0312 0.0000 -2.2158
# 5 -3.0523 -2.4325 -4.7355 0.0000 35.1974 0.0000
# 6 0.0000 0.0000 0.0000 -2.2158 0.0000 3.8775
#
#
#
# Elastic Compliance Matrix: (Units=1/GPa)
#
#
# Indices 1 2 3 4 5 6 
#
# 1 0.009099 -0.003256 -0.003400 0.000000 0.000107 0.000000
# 2 -0.003256 0.070285 -0.006892 0.000000 0.003648 0.000000
# 3 -0.003400 -0.006892 0.009695 0.000000 0.000533 0.000000
# 4 0.000000 0.000000 0.000000 -4.255980 0.000000 -2.432028
# 5 0.000107 0.003648 0.000533 0.000000 0.028744 0.000000
# 6 0.000000 0.000000 0.000000 -2.432028 0.000000 -1.131856
#
#
# Mechanical properties :
#
#
# Convention : Reuss Voigt Hill
#
# Bulk Modulus (GPa) = 16.13351 50.44241 33.28796
# Shear Modulus (GPa) = -0.95744 21.49408 10.26832
#
# Velocity S-wave (km/s) = -0.71894 3.40641 2.35444
# Velocity P-wave (km/s) = 2.83206 6.53475 5.03605
#
# Compressibility (1/GPa) = 0.06198279
#
# Stress axis : x y z
#
# Youngs Moduli (GPa) = 109.90537 14.22773 103.14149
#
# Poissons Ratio (x) = 0.04633 0.35066
# Poissons Ratio (y) = 0.35788 0.71088
# Poissons Ratio (z) = 0.37366 0.09806
#
# Static dielectric constant tensor:
#      x y z
#    x 3.826270 0.000000 -0.111730 
#    y 0.000000 2.773390 0.000000 
#    z -0.111730 0.000000 3.677280 
# 
# 
# High freq. dielectric constant tensor:
#      x y z
#    x 1.736130 0.000000 -0.006960 
#    y 0.000000 1.641230 0.000000 
#    z -0.006960 0.000000 1.730700 
# 
# From -- ./inp_files/86903.got.cif
#   From: 2010.06.25/outbox.cif.g09.slc.cpg/sg10_44_cif.got.tgz:86903.got - 2010.06.27 22:07:45.
