data_PCOD8061699
_publ_section_title
;
Structure prediction by ZEFSAII (Michael W. Deem and Ramdas Pophale) SiO2 
 PCOD8061699
Probable space group: P 2/M
;
_chemical_formula_sum "Si O2"
_cell_formula_units_Z 32
_cell_length_a 11.629769
_cell_length_b 8.850074
_cell_length_c 20.949975
_cell_angle_alpha 90.000000
_cell_angle_beta 59.415483
_cell_angle_gamma 90.000000
_cell_volume 1856.281741
_symmetry_space_group_name_H-M "P 2/M"
_symmetry_group_IT_number 10
_symmetry_cell_setting 'monoclinic'
loop_
_space_group_symop_operation_xyz
x,y,z
-x,y,-z
-x,-y,-z
x,-y,z
loop_
_atom_site_type_symbol
_atom_site_label
_atom_site_fract_x
_atom_site_fract_y
_atom_site_fract_z
Si Si1 0.886705 0.177244 0.481889
Si Si2 0.693936 0.175549 0.943017
Si Si3 0.879538 0.320794 0.349772
Si Si4 0.347293 0.325171 0.241905
Si Si5 0.876792 0.177147 0.780201
Si Si6 0.472714 0.325811 0.919706
Si Si7 0.636974 0.676750 0.617572
Si Si8 0.417104 0.323142 0.582432
O O1 0.923183 0.262928 0.406792
O O2 0.744552 0.229059 0.548222
O O3 0.000000 0.222802 0.500000
O O4 0.883915 0.000000 0.469149
O O5 0.830283 0.213800 0.866237
O O6 0.576470 0.224297 0.928973
O O7 0.684649 0.000000 0.961187
O O8 0.674773 0.266026 0.016170
O O9 0.884904 0.500000 0.347495
O O10 0.732614 0.256189 0.373408
O O11 0.981897 0.258369 0.268342
O O12 0.304671 0.500000 0.252293
O O13 0.229391 0.233025 0.242165
O O14 0.490553 0.302670 0.165272
O O15 0.367363 0.267838 0.308240
O O16 0.893399 0.000000 0.764847
O O17 0.487705 0.500000 0.934867
O O18 0.672438 0.500000 0.601679
O O19 0.492297 0.710971 0.627617
O O20 0.500000 0.250866 0.500000
O O21 0.403641 0.500000 0.573399
#
# Coordination Sequence:
#
# PCOD8061699 Si02
#       8
#     4   4   4   4   4   4   4   4
#     4  11  23  35  47  68  98 126 153 188 232 279
#     4   9  16  26  41  62  90 128 161 183 222 275
#     4  11  21  34  53  71  90 121 159 196 237 283
#     4   9  18  30  47  72  99 128 158 190 233 282
#     4  10  20  32  46  68 101 130 155 194 235 277
#     4   9  15  24  40  65  95 123 154 191 225 265
#     4  10  19  34  53  70  92 122 158 195 233 281
#     4   9  17  33  54  73  89 113 155 203 241 275
#
# _framework density 17.238764
#
# number of rings (size 3 to 8) (size 9 to 14) (size 15 to 20)
#    0.000    2.250    1.250    3.375    0.000    5.500 
#    0.000    1.875    0.000    0.000    0.000    0.875 
#    0.000    7.000    0.000    0.000    0.000    0.000 
#
# Total GULP energy -396602.839278 kJ/mol
# GULP energy per Si atom -12393.838727 kJ/mol
# Density = 1.719953 g / cm^3
# Si number density = 17.238764 Si / 1000 Ang^3
#
#
#
# Elastic Constant Matrix: (Units=GPa)
#
#
# Indices 1 2 3 4 5 6 
#
# 1 72.1470 21.4866 29.1685 0.0000 -20.0520 0.0000
# 2 21.4866 37.4167 28.2402 0.0000 -12.0515 0.0000
# 3 29.1685 28.2402 110.1090 0.0000 -28.7184 0.0000
# 4 0.0000 0.0000 0.0000 25.5429 0.0000 -8.5559
# 5 -20.0520 -12.0515 -28.7184 0.0000 19.3943 0.0000
# 6 0.0000 0.0000 0.0000 -8.5559 0.0000 7.0975
#
#
#
# Elastic Compliance Matrix: (Units=1/GPa)
#
#
# Indices 1 2 3 4 5 6 
#
# 1 0.020626 -0.006631 0.001180 0.000000 0.018952 0.000000
# 2 -0.006631 0.037431 -0.005808 0.000000 0.007803 0.000000
# 3 0.001180 -0.005808 0.015699 0.000000 0.020857 0.000000
# 4 0.000000 0.000000 0.000000 0.065664 0.000000 0.079157
# 5 0.018952 0.007803 0.020857 0.000000 0.106889 0.000000
# 6 0.000000 0.000000 0.000000 0.079157 0.000000 0.236318
#
#
# Mechanical properties :
#
#
# Convention : Reuss Voigt Hill
#
# Bulk Modulus (GPa) = 19.51723 41.94038 30.72880
# Shear Modulus (GPa) = 9.57444 19.79208 14.68326
#
# Velocity S-wave (km/s) = 2.35925 3.39206 2.92166
# Velocity P-wave (km/s) = 4.33217 6.30265 5.40791
#
# Compressibility (1/GPa) = 0.05123679
#
# Stress axis : x y z
#
# Youngs Moduli (GPa) = 48.48335 26.71599 63.69854
#
# Poissons Ratio (x) = 0.17714 -0.07514
# Poissons Ratio (y) = 0.32147 0.36999
# Poissons Ratio (z) = -0.05719 0.15518
#
# Static dielectric constant tensor:
#      x y z
#    x 3.000390 0.000000 -0.191110 
#    y 0.000000 3.156940 0.000000 
#    z -0.191110 0.000000 3.998840 
# 
# 
# High freq. dielectric constant tensor:
#      x y z
#    x 1.619040 0.000000 -0.013750 
#    y 0.000000 1.663600 0.000000 
#    z -0.013750 0.000000 1.682450 
# 
# From -- ./inp_files/56452.got.cif
#   From: 2010.06.25/outbox.cif.g09.slc.cpg/sg10_29_cif.got.tgz:56452.got - 2010.06.27 22:07:45.
