data_PCOD8061160
_publ_section_title
;
Structure prediction by ZEFSAII (Michael W. Deem and Ramdas Pophale) SiO2 
 PCOD8061160
Probable space group: P 2/M
;
_chemical_formula_sum "Si O2"
_cell_formula_units_Z 24
_cell_length_a 19.799928
_cell_length_b 16.562429
_cell_length_c 13.070282
_cell_angle_alpha 90.000000
_cell_angle_beta 18.043198
_cell_angle_gamma 90.000000
_cell_volume 1327.582178
_symmetry_space_group_name_H-M "P 2/M"
_symmetry_group_IT_number 10
_symmetry_cell_setting 'monoclinic'
loop_
_space_group_symop_operation_xyz
x,y,z
-x,y,-z
-x,-y,-z
x,-y,z
loop_
_atom_site_type_symbol
_atom_site_label
_atom_site_fract_x
_atom_site_fract_y
_atom_site_fract_z
Si Si1 0.719139 0.173633 0.741361
Si Si2 0.668074 0.000000 0.052024
Si Si3 0.415407 0.410822 0.736057
Si Si4 0.776235 0.294079 0.269278
Si Si5 0.858195 0.732204 0.915045
Si Si6 0.871490 0.000000 0.536551
Si Si7 0.443456 0.828269 0.798752
O O1 0.894669 0.241508 0.458893
O O2 0.786548 0.083111 0.606175
O O3 0.500000 0.198877 0.000000
O O4 0.694355 0.179285 0.898842
O O5 0.783493 0.000000 0.777064
O O6 0.866001 0.000000 0.848543
O O7 0.513718 0.922329 0.287317
O O8 0.500000 0.419116 0.500000
O O9 0.365573 0.500000 0.853301
O O10 0.607072 0.368247 0.525494
O O11 0.194018 0.356912 0.056615
O O12 0.674988 0.216814 0.474344
O O13 0.808959 0.268154 0.105716
O O14 0.000000 0.320344 0.000000
O O15 0.695705 0.794390 0.095017
#
# Coordination Sequence:
#
# PCOD8061160 Si02
#       7
#     4   2   4   4   4   2   4
#     4  11  20  31  51  77 103 131 167 211 254 289
#     4   9  16  30  51  69  92 132 180 210 231 285
#     4   8  16  32  54  76  97 128 167 200 237 295
#     4  10  20  34  51  76 106 128 159 208 256 296
#     4  10  19  33  53  75 100 131 168 206 244 295
#     4   9  17  30  47  72  99 129 172 214 242 279
#     4  10  19  34  52  71  98 137 174 205 242 295
#
# _framework density 18.077976
#
# number of rings (size 3 to 8) (size 9 to 14) (size 15 to 20)
#    0.000    2.333    1.667    3.250    0.000    0.333 
#    0.000    2.917    0.000    8.500    0.000    0.000 
#    0.000    0.000    0.000    0.000    0.000    0.000 
#
# Total GULP energy -297480.968611 kJ/mol
# GULP energy per Si atom -12395.040359 kJ/mol
# Density = 1.803683 g / cm^3
# Si number density = 18.077976 Si / 1000 Ang^3
#
#
#
# Elastic Constant Matrix: (Units=GPa)
#
#
# Indices 1 2 3 4 5 6 
#
# 1 54.7990 32.0869 17.8776 0.0000 -9.8568 0.0000
# 2 32.0869 170.3702 69.1392 0.0000 -12.9205 0.0000
# 3 17.8776 69.1392 86.8702 0.0000 -21.8379 0.0000
# 4 0.0000 0.0000 0.0000 24.5062 0.0000 0.0119
# 5 -9.8568 -12.9205 -21.8379 0.0000 32.1804 0.0000
# 6 0.0000 0.0000 0.0000 0.0119 0.0000 14.7820
#
#
#
# Elastic Compliance Matrix: (Units=1/GPa)
#
#
# Indices 1 2 3 4 5 6 
#
# 1 0.021289 -0.003484 -0.000387 0.000000 0.004859 0.000000
# 2 -0.003484 0.009296 -0.007248 0.000000 -0.002253 0.000000
# 3 -0.000387 -0.007248 0.020013 0.000000 0.010552 0.000000
# 4 0.000000 0.000000 0.000000 0.040806 0.000000 -0.000033
# 5 0.004859 -0.002253 0.010552 0.000000 0.038819 0.000000
# 6 0.000000 0.000000 0.000000 -0.000033 0.000000 0.067650
#
#
# Mechanical properties :
#
#
# Convention : Reuss Voigt Hill
#
# Bulk Modulus (GPa) = 35.26150 61.13855 48.20003
# Shear Modulus (GPa) = 21.78042 27.15609 24.46825
#
# Velocity S-wave (km/s) = 3.47479 3.87998 3.68296
# Velocity P-wave (km/s) = 5.97047 7.34609 6.69371
#
# Compressibility (1/GPa) = 0.02835955
#
# Stress axis : x y z
#
# Youngs Moduli (GPa) = 46.97312 107.56911 49.96874
#
# Poissons Ratio (x) = 0.37477 0.01932
# Poissons Ratio (y) = 0.16365 0.36219
# Poissons Ratio (z) = 0.01816 0.77970
#
# Static dielectric constant tensor:
#      x y z
#    x 3.159030 0.000000 -0.092340 
#    y 0.000000 3.750330 0.000000 
#    z -0.092340 0.000000 3.291150 
# 
# 
# High freq. dielectric constant tensor:
#      x y z
#    x 1.685580 0.000000 -0.013990 
#    y 0.000000 1.701140 0.000000 
#    z -0.013990 0.000000 1.680490 
# 
# From -- ./inp_files/25748.got.cif
#   From: 2010.06.25/outbox.cif.g09.slc.cpg/sg10_13_cif.got.tgz:25748.got - 2010.06.27 22:07:45.
