data_PCOD8061352
_publ_section_title
;
Structure prediction by ZEFSAII (Michael W. Deem and Ramdas Pophale) SiO2 
 PCOD8061352
Probable space group: P 2/M
;
_chemical_formula_sum "Si O2"
_cell_formula_units_Z 28
_cell_length_a 10.202710
_cell_length_b 9.150504
_cell_length_c 16.758489
_cell_angle_alpha 90.000000
_cell_angle_beta 68.062441
_cell_angle_gamma 90.000000
_cell_volume 1451.283308
_symmetry_space_group_name_H-M "P 2/M"
_symmetry_group_IT_number 10
_symmetry_cell_setting 'monoclinic'
loop_
_space_group_symop_operation_xyz
x,y,z
-x,y,-z
-x,-y,-z
x,-y,z
loop_
_atom_site_type_symbol
_atom_site_label
_atom_site_fract_x
_atom_site_fract_y
_atom_site_fract_z
Si Si1 0.763707 0.836580 0.912908
Si Si2 0.327335 0.826851 0.904577
Si Si3 0.817406 0.827746 0.726929
Si Si4 0.091627 0.670241 0.684803
Si Si5 0.408378 0.670784 0.594591
Si Si6 0.918270 0.835427 0.150741
Si Si7 0.528886 0.170884 0.720991
O O1 0.766576 0.761024 0.824772
O O2 0.920718 0.837411 0.915052
O O3 0.706886 0.000000 0.910577
O O4 0.667834 0.761687 0.005125
O O5 0.182461 0.775691 0.895792
O O6 0.459029 0.775514 0.820490
O O7 0.326706 0.000000 0.914710
O O8 0.696521 0.795438 0.688994
O O9 0.964304 0.752169 0.666630
O O10 0.847487 0.000000 0.729517
O O11 0.056701 0.500000 0.691181
O O12 0.244476 0.703398 0.610767
O O13 0.100520 0.725258 0.772465
O O14 0.500000 0.730919 0.500000
O O15 0.434099 0.500000 0.602237
O O16 0.458675 0.748167 0.663477
O O17 0.872329 0.000000 0.187599
O O18 0.500554 0.000000 0.715507
#
# Coordination Sequence:
#
# PCOD8061352 Si02
#       7
#     4   4   4   4   4   4   4
#     4   8  14  24  42  71 105 142 176 209 247 291
#     4   9  15  24  44  74 107 137 173 215 254 295
#     4   9  19  34  52  76 110 145 177 209 249 302
#     4  10  19  33  55  78 100 133 174 213 258 311
#     4  10  22  40  60  81 103 129 167 214 263 319
#     4   9  15  26  46  72 104 137 172 215 258 299
#     4  10  20  34  54  82 109 137 172 214 262 307
#
# _framework density 19.293268999999999
#
# number of rings (size 3 to 8) (size 9 to 14) (size 15 to 20)
#    0.000    2.714    1.429    1.714    0.000    3.714 
#    0.000    3.571    0.000   14.571    0.000    5.000 
#    0.000    0.000    0.000    0.000    0.000    0.000 
#
# Total GULP energy -346889.801318 kJ/mol
# GULP energy per Si atom -12388.921476 kJ/mol
# Density = 1.924936 g / cm^3
# Si number density = 19.293269 Si / 1000 Ang^3
#
#
#
# Elastic Constant Matrix: (Units=GPa)
#
#
# Indices 1 2 3 4 5 6 
#
# 1 101.8775 35.6800 28.7047 0.0000 -4.7945 0.0000
# 2 35.6800 43.8965 23.9135 0.0000 -7.1026 0.0000
# 3 28.7047 23.9135 66.4106 0.0000 -24.8547 0.0000
# 4 0.0000 0.0000 0.0000 13.5285 0.0000 -2.5781
# 5 -4.7945 -7.1026 -24.8547 0.0000 19.3832 0.0000
# 6 0.0000 0.0000 0.0000 -2.5781 0.0000 22.4154
#
#
#
# Elastic Compliance Matrix: (Units=1/GPa)
#
#
# Indices 1 2 3 4 5 6 
#
# 1 0.014466 -0.010040 -0.005144 0.000000 -0.006696 0.000000
# 2 -0.010040 0.035582 -0.008696 0.000000 -0.000596 0.000000
# 3 -0.005144 -0.008696 0.036039 0.000000 0.041753 0.000000
# 4 0.000000 0.000000 0.000000 0.075575 0.000000 0.008692
# 5 -0.006696 -0.000596 0.041753 0.000000 0.103256 0.000000
# 6 0.000000 0.000000 0.000000 0.008692 0.000000 0.045612
#
#
# Mechanical properties :
#
#
# Convention : Reuss Voigt Hill
#
# Bulk Modulus (GPa) = 26.09044 43.19789 34.64417
# Shear Modulus (GPa) = 13.47474 19.32450 16.39962
#
# Velocity S-wave (km/s) = 2.64562 3.16827 2.91867
# Velocity P-wave (km/s) = 4.78381 5.98520 5.41791
#
# Compressibility (1/GPa) = 0.03832821
#
# Stress axis : x y z
#
# Youngs Moduli (GPa) = 69.12783 28.10381 27.74775
#
# Poissons Ratio (x) = 0.28215 0.14272
# Poissons Ratio (y) = 0.69402 0.24130
# Poissons Ratio (z) = 0.35556 0.24440
#
# Static dielectric constant tensor:
#      x y z
#    x 3.749400 0.000000 -0.211110 
#    y 0.000000 3.112030 0.000000 
#    z -0.211110 0.000000 3.494830 
# 
# 
# High freq. dielectric constant tensor:
#      x y z
#    x 1.762050 0.000000 -0.007580 
#    y 0.000000 1.699180 0.000000 
#    z -0.007580 0.000000 1.733050 
# 
# From -- ./inp_files/63361.got.cif
#   From: 2010.06.25/outbox.cif.g09.slc.cpg/sg10_32_cif.got.tgz:63361.got - 2010.06.27 22:07:45.
