data_PCOD8061251
_publ_section_title
;
Structure prediction by ZEFSAII (Michael W. Deem and Ramdas Pophale) SiO2 
 PCOD8061251
Probable space group: P 2/M
;
_chemical_formula_sum "Si O2"
_cell_formula_units_Z 28
_cell_length_a 23.885422
_cell_length_b 16.113055
_cell_length_c 12.623172
_cell_angle_alpha 90.000000
_cell_angle_beta 18.371236
_cell_angle_gamma 90.000000
_cell_volume 1531.185516
_symmetry_space_group_name_H-M "P 2/M"
_symmetry_group_IT_number 10
_symmetry_cell_setting 'monoclinic'
loop_
_space_group_symop_operation_xyz
x,y,z
-x,y,-z
-x,-y,-z
x,-y,z
loop_
_atom_site_type_symbol
_atom_site_label
_atom_site_fract_x
_atom_site_fract_y
_atom_site_fract_z
Si Si1 0.994713 0.336102 0.888193
Si Si2 0.174321 0.811046 0.918536
Si Si3 0.466709 0.257475 0.756740
Si Si4 0.083636 0.093261 0.735411
Si Si5 0.169296 0.292064 0.128497
Si Si6 0.707721 0.593568 0.267993
Si Si7 0.330154 0.756568 0.234911
O O1 0.195577 0.321067 0.487239
O O2 0.000000 0.364250 0.000000
O O3 0.886561 0.250391 0.067683
O O4 0.892114 0.405721 0.003811
O O5 0.388215 0.814187 0.531489
O O6 0.108561 0.775414 0.149716
O O7 0.073441 0.896287 0.071746
O O8 0.558759 0.348559 0.590699
O O9 0.316488 0.250730 0.938027
O O10 0.382520 0.236029 0.019415
O O11 0.244381 0.156730 0.426727
O O12 0.158548 0.000000 0.590516
O O13 0.000000 0.108854 0.000000
O O14 0.000000 0.320465 0.500000
O O15 0.252582 0.372528 0.921385
O O16 0.635478 0.500000 0.390564
O O17 0.500000 0.735985 0.000000
#
# Coordination Sequence:
#
# PCOD8061251 Si02
#       7
#     4   4   4   4   4   4   4
#     4   9  17  32  51  71  96 132 175 210 250 303
#     4   9  17  32  52  73 101 136 175 211 248 299
#     4  10  19  33  54  77 101 135 177 216 253 303
#     4  10  20  34  53  80 112 139 165 206 260 307
#     4  10  19  33  54  78 101 133 176 218 257 303
#     4  10  21  35  51  74 104 136 172 218 269 311
#     4  11  19  32  55  79 104 134 174 214 250 304
#
# _framework density 18.286484000000002
#
# number of rings (size 3 to 8) (size 9 to 14) (size 15 to 20)
#    0.000    2.429    0.000    8.571    0.000    2.000 
#    0.000    2.857    0.000    7.286    0.000    0.000 
#    0.000    0.000    0.000    0.000    0.000    0.000 
#
# Total GULP energy -347048.456610 kJ/mol
# GULP energy per Si atom -12394.587736 kJ/mol
# Density = 1.824486 g / cm^3
# Si number density = 18.286484 Si / 1000 Ang^3
#
#
#
# Elastic Constant Matrix: (Units=GPa)
#
#
# Indices 1 2 3 4 5 6 
#
# 1 96.0342 13.9737 15.0968 0.0000 -0.0059 0.0000
# 2 13.9737 55.8271 19.5726 0.0000 6.8756 0.0000
# 3 15.0968 19.5726 87.6593 0.0000 6.3497 0.0000
# 4 0.0000 0.0000 0.0000 15.9093 0.0000 2.9446
# 5 -0.0059 6.8756 6.3497 0.0000 41.7700 0.0000
# 6 0.0000 0.0000 0.0000 2.9446 0.0000 12.5752
#
#
#
# Elastic Compliance Matrix: (Units=1/GPa)
#
#
# Indices 1 2 3 4 5 6 
#
# 1 0.010974 -0.002325 -0.001414 0.000000 0.000599 0.000000
# 2 -0.002325 0.020202 -0.003913 0.000000 -0.002731 0.000000
# 3 -0.001414 -0.003913 0.012617 0.000000 -0.001274 0.000000
# 4 0.000000 0.000000 0.000000 0.065704 0.000000 -0.015385
# 5 0.000599 -0.002731 -0.001274 0.000000 0.024584 0.000000
# 6 0.000000 0.000000 0.000000 -0.015385 0.000000 0.083124
#
#
# Mechanical properties :
#
#
# Convention : Reuss Voigt Hill
#
# Bulk Modulus (GPa) = 35.09983 37.42298 36.26140
# Shear Modulus (GPa) = 20.66072 26.77605 23.71839
#
# Velocity S-wave (km/s) = 3.36495 3.83071 3.60536
# Velocity P-wave (km/s) = 5.85946 6.33048 6.09952
#
# Compressibility (1/GPa) = 0.02849017
#
# Stress axis : x y z
#
# Youngs Moduli (GPa) = 91.12798 49.49900 79.25639
#
# Poissons Ratio (x) = 0.11507 0.11209
# Poissons Ratio (y) = 0.21185 0.31010
# Poissons Ratio (z) = 0.12888 0.19367
#
# Static dielectric constant tensor:
#      x y z
#    x 3.622630 0.000000 -0.135430 
#    y 0.000000 3.064930 0.000000 
#    z -0.135430 0.000000 3.483610 
# 
# 
# High freq. dielectric constant tensor:
#      x y z
#    x 1.727370 0.000000 -0.005980 
#    y 0.000000 1.660980 0.000000 
#    z -0.005980 0.000000 1.712750 
# 
# From -- ./inp_files/57074.got.cif
#   From: 2010.06.25/outbox.cif.g09.slc.cpg/sg10_29_cif.got.tgz:57074.got - 2010.06.27 22:07:45.
