data_PCOD8061098
_publ_section_title
;
Structure prediction by ZEFSAII (Michael W. Deem and Ramdas Pophale) SiO2 
 PCOD8061098
Probable space group: P 2/M
;
_chemical_formula_sum "Si O2"
_cell_formula_units_Z 32
_cell_length_a 10.962775
_cell_length_b 9.901737
_cell_length_c 28.751222
_cell_angle_alpha 90.000000
_cell_angle_beta 148.654043
_cell_angle_gamma 90.000000
_cell_volume 1623.536808
_symmetry_space_group_name_H-M "P 2/M"
_symmetry_group_IT_number 10
_symmetry_cell_setting 'monoclinic'
loop_
_space_group_symop_operation_xyz
x,y,z
-x,y,-z
-x,-y,-z
x,-y,z
loop_
_atom_site_type_symbol
_atom_site_label
_atom_site_fract_x
_atom_site_fract_y
_atom_site_fract_z
Si Si1 0.784079 0.346276 0.397992
Si Si2 0.741073 0.160432 0.056544
Si Si3 0.542934 0.846102 0.249180
Si Si4 0.739575 0.653013 0.554151
Si Si5 0.054286 0.845698 0.241959
Si Si6 0.116458 0.149369 0.716623
Si Si7 0.975419 0.160760 0.939270
Si Si8 0.470108 0.648680 0.379130
O O1 0.832487 0.500000 0.395819
O O2 0.727773 0.246209 0.337391
O O3 0.547519 0.342086 0.351256
O O4 0.000000 0.294853 0.500000
O O5 0.944496 0.206387 0.158214
O O6 0.819450 0.211297 0.030093
O O7 0.717254 0.000000 0.047838
O O8 0.500000 0.221691 0.000000
O O9 0.625349 0.840448 0.221969
O O10 0.276006 0.792388 0.163485
O O11 0.556543 0.000000 0.272816
O O12 0.500000 0.701125 0.500000
O O13 0.800432 0.500000 0.588121
O O14 0.702586 0.669273 0.486626
O O15 0.951084 0.743921 0.638552
O O16 0.863384 0.828237 0.221229
O O17 0.278590 0.759359 0.329011
O O18 0.136409 0.000000 0.263530
O O19 0.010875 0.000000 0.672868
O O20 0.980523 0.000000 0.943576
O O21 0.000000 0.219876 0.000000
O O22 0.363664 0.500000 0.355413
#
# Coordination Sequence:
#
# PCOD8061098 Si02
#       8
#     4   4   4   4   4   4   4   4
#     4  10  21  37  56  77 104 141 184 226 270 323
#     4   9  18  31  51  78 105 135 175 218 264 321
#     4  10  21  36  54  79 112 143 182 226 272 325
#     4  10  19  33  52  74 102 139 182 223 262 314
#     4  10  20  33  51  77 108 138 172 216 267 316
#     4  10  21  33  49  76 109 144 176 218 269 316
#     4   9  18  32  53  79 108 143 179 221 274 328
#     4  10  20  34  53  76 102 135 176 220 265 315
#
# _framework density 19.710055000000001
#
# number of rings (size 3 to 8) (size 9 to 14) (size 15 to 20)
#    0.000    2.250    1.250    1.500    1.750    4.000 
#    0.000    0.000    0.000    0.750    0.000    0.000 
#    0.000    0.000    0.000    0.000    0.000    0.000 
#
# Total GULP energy -396566.151014 kJ/mol
# GULP energy per Si atom -12392.692219 kJ/mol
# Density = 1.966519 g / cm^3
# Si number density = 19.710055 Si / 1000 Ang^3
#
#
#
# Elastic Constant Matrix: (Units=GPa)
#
#
# Indices 1 2 3 4 5 6 
#
# 1 124.4146 22.7354 38.3100 0.0000 -6.1385 0.0000
# 2 22.7354 54.1677 33.2113 0.0000 -1.7234 0.0000
# 3 38.3100 33.2113 80.7616 0.0000 -4.5623 0.0000
# 4 0.0000 0.0000 0.0000 185.2545 0.0000 48.1933
# 5 -6.1385 -1.7234 -4.5623 0.0000 31.3610 0.0000
# 6 0.0000 0.0000 0.0000 48.1933 0.0000 30.7527
#
#
#
# Elastic Compliance Matrix: (Units=1/GPa)
#
#
# Indices 1 2 3 4 5 6 
#
# 1 0.009567 -0.001653 -0.003789 0.000000 0.001231 0.000000
# 2 -0.001653 0.024971 -0.009503 0.000000 -0.000334 0.000000
# 3 -0.003789 -0.009503 0.018165 0.000000 0.001379 0.000000
# 4 0.000000 0.000000 0.000000 0.009113 0.000000 -0.014282
# 5 0.001231 -0.000334 0.001379 0.000000 0.032310 0.000000
# 6 0.000000 0.000000 0.000000 -0.014282 0.000000 0.054899
#
#
# Mechanical properties :
#
#
# Convention : Reuss Voigt Hill
#
# Bulk Modulus (GPa) = 43.83562 49.76191 46.79877
# Shear Modulus (GPa) = 26.80664 60.47945 43.64305
#
# Velocity S-wave (km/s) = 3.69189 5.54537 4.71069
# Velocity P-wave (km/s) = 6.36096 8.14269 7.30634
#
# Compressibility (1/GPa) = 0.02281250
#
# Stress axis : x y z
#
# Youngs Moduli (GPa) = 104.52425 40.04607 55.04993
#
# Poissons Ratio (x) = 0.06621 0.20857
# Poissons Ratio (y) = 0.17282 0.52316
# Poissons Ratio (z) = 0.39602 0.38057
#
# Static dielectric constant tensor:
#      x y z
#    x 4.039050 0.000000 -0.098530 
#    y 0.000000 3.240580 0.000000 
#    z -0.098530 0.000000 3.376320 
# 
# 
# High freq. dielectric constant tensor:
#      x y z
#    x 1.795740 0.000000 -0.003610 
#    y 0.000000 1.724730 0.000000 
#    z -0.003610 0.000000 1.748280 
# 
# From -- ./inp_files/95038.got.cif
#   From: 2010.06.25/outbox.cif.g09.slc.cpg/sg10_48_cif.got.tgz:95038.got - 2010.06.27 22:07:45.
