data_PCOD8061789
_publ_section_title
;
Structure prediction by ZEFSAII (Michael W. Deem and Ramdas Pophale) SiO2 
 PCOD8061789
Probable space group: P 2/M
;
_chemical_formula_sum "Si O2"
_cell_formula_units_Z 24
_cell_length_a 15.826598
_cell_length_b 8.444720
_cell_length_c 15.766227
_cell_angle_alpha 90.000000
_cell_angle_beta 142.809835
_cell_angle_gamma 90.000000
_cell_volume 1273.708001
_symmetry_space_group_name_H-M "P 2/M"
_symmetry_group_IT_number 10
_symmetry_cell_setting 'monoclinic'
loop_
_space_group_symop_operation_xyz
x,y,z
-x,y,-z
-x,-y,-z
x,-y,z
loop_
_atom_site_type_symbol
_atom_site_label
_atom_site_fract_x
_atom_site_fract_y
_atom_site_fract_z
Si Si1 0.481656 0.813780 0.248137
Si Si2 0.098639 0.812696 0.202346
Si Si3 0.769408 0.316855 0.525003
Si Si4 0.852872 0.184844 0.418842
Si Si5 0.196627 0.812937 0.098823
Si Si6 0.434015 0.315016 0.859279
O O1 0.606558 0.729122 0.398299
O O2 0.337088 0.742951 0.169498
O O3 0.488931 0.779537 0.153926
O O4 0.493525 0.000000 0.273729
O O5 0.161022 0.716922 0.329865
O O6 0.186223 0.763103 0.188914
O O7 0.108639 0.000000 0.227295
O O8 0.938810 0.755169 0.061878
O O9 0.783622 0.500000 0.512959
O O10 0.848026 0.216657 0.515465
O O11 0.731077 0.279352 0.272881
O O12 0.000000 0.245217 0.500000
O O13 0.831324 0.000000 0.384110
O O14 0.198099 0.000000 0.094558
O O15 0.459802 0.500000 0.865721
O O16 0.500000 0.256047 0.000000
#
# Coordination Sequence:
#
# PCOD8061789 Si02
#       6
#     4   4   4   4   4   4
#     4  10  19  34  55  78 102 133 175 217 256 299
#     4   9  17  35  57  77 103 134 172 215 257 303
#     4  11  22  35  51  76 108 140 171 206 255 308
#     4  10  21  37  57  79 101 131 174 218 256 298
#     4   8  17  33  56  80 101 131 172 218 261 300
#     4  10  21  36  53  76 107 140 170 205 256 311
#
# _framework density 18.842624000000001
#
# number of rings (size 3 to 8) (size 9 to 14) (size 15 to 20)
#    0.000    2.333    0.000    6.000    0.000    4.667 
#    0.000   13.333    0.000    0.000    0.000    0.000 
#    0.000    0.000    0.000    0.000    0.000    0.000 
#
# Total GULP energy -297620.146182 kJ/mol
# GULP energy per Si atom -12400.839424 kJ/mol
# Density = 1.879974 g / cm^3
# Si number density = 18.842624 Si / 1000 Ang^3
#
#
#
# Elastic Constant Matrix: (Units=GPa)
#
#
# Indices 1 2 3 4 5 6 
#
# 1 131.8104 6.8190 80.1542 0.0000 24.9933 0.0000
# 2 6.8190 39.2420 12.3863 0.0000 1.7449 0.0000
# 3 80.1542 12.3863 134.9510 0.0000 -10.0255 0.0000
# 4 0.0000 0.0000 0.0000 25.1043 0.0000 -6.1759
# 5 24.9933 1.7449 -10.0255 0.0000 33.8139 0.0000
# 6 0.0000 0.0000 0.0000 -6.1759 0.0000 3.7788
#
#
#
# Elastic Compliance Matrix: (Units=1/GPa)
#
#
# Indices 1 2 3 4 5 6 
#
# 1 0.018183 0.001455 -0.012206 0.000000 -0.017134 0.000000
# 2 0.001455 0.026508 -0.003557 0.000000 -0.003498 0.000000
# 3 -0.012206 -0.003557 0.016023 0.000000 0.013956 0.000000
# 4 0.000000 0.000000 0.000000 0.066620 0.000000 0.108880
# 5 -0.017134 -0.003498 0.013956 0.000000 0.046556 0.000000
# 6 0.000000 0.000000 0.000000 0.108880 0.000000 0.442582
#
#
# Mechanical properties :
#
#
# Convention : Reuss Voigt Hill
#
# Bulk Modulus (GPa) = 31.15459 56.08025 43.61742
# Shear Modulus (GPa) = 7.62442 26.31567 16.97004
#
# Velocity S-wave (km/s) = 2.01374 3.74117 3.00429
# Velocity P-wave (km/s) = 4.68795 6.96339 5.93573
#
# Compressibility (1/GPa) = 0.03209800
#
# Stress axis : x y z
#
# Youngs Moduli (GPa) = 54.99722 37.72393 62.40955
#
# Poissons Ratio (x) = -0.05489 0.76177
# Poissons Ratio (y) = -0.08002 0.22200
# Poissons Ratio (z) = 0.67130 0.13419
#
# Static dielectric constant tensor:
#      x y z
#    x 3.751540 0.000000 0.218740 
#    y 0.000000 3.265970 0.000000 
#    z 0.218740 0.000000 3.566990 
# 
# 
# High freq. dielectric constant tensor:
#      x y z
#    x 1.733680 0.000000 0.002260 
#    y 0.000000 1.721350 0.000000 
#    z 0.002260 0.000000 1.735530 
# 
# From -- ./inp_files/66322.got.cif
#   From: 2010.06.25/outbox.cif.g09.slc.cpg/sg10_34_cif.got.tgz:66322.got - 2010.06.27 22:07:45.
