data_PCOD8061915
_publ_section_title
;
Structure prediction by ZEFSAII (Michael W. Deem and Ramdas Pophale) SiO2 
 PCOD8061915
Probable space group: P 2/M
;
_chemical_formula_sum "Si O2"
_cell_formula_units_Z 32
_cell_length_a 12.622502
_cell_length_b 8.791759
_cell_length_c 30.975539
_cell_angle_alpha 90.000000
_cell_angle_beta 27.969106
_cell_angle_gamma 90.000000
_cell_volume 1612.162018
_symmetry_space_group_name_H-M "P 2/M"
_symmetry_group_IT_number 10
_symmetry_cell_setting 'monoclinic'
loop_
_space_group_symop_operation_xyz
x,y,z
-x,y,-z
-x,-y,-z
x,-y,z
loop_
_atom_site_type_symbol
_atom_site_label
_atom_site_fract_x
_atom_site_fract_y
_atom_site_fract_z
Si Si1 0.742260 0.822615 0.100814
Si Si2 0.049295 0.180203 0.656852
Si Si3 0.432532 0.819653 0.376520
Si Si4 0.558370 0.678361 0.718943
Si Si5 0.583196 0.672447 0.841827
Si Si6 0.308648 0.672107 0.099292
Si Si7 0.846500 0.820800 0.285691
Si Si8 0.063044 0.678404 0.565082
O O1 0.638341 0.726629 0.177496
O O2 0.624863 0.773848 0.098597
O O3 0.707668 0.000000 0.122908
O O4 0.000000 0.779609 0.000000
O O5 0.804611 0.253368 0.742482
O O6 0.172581 0.232044 0.657033
O O7 0.167464 0.243445 0.570950
O O8 0.034737 0.000000 0.659671
O O9 0.486101 0.769532 0.308879
O O10 0.632419 0.760454 0.336154
O O11 0.200324 0.742109 0.474937
O O12 0.407433 0.000000 0.387870
O O13 0.542826 0.500000 0.714731
O O14 0.801407 0.721362 0.651626
O O15 0.566567 0.500000 0.829934
O O16 0.582579 0.676665 0.893041
O O17 0.258015 0.500000 0.102642
O O18 0.074049 0.761114 0.181380
O O19 0.500000 0.747404 0.000000
O O20 0.860860 0.000000 0.278498
O O21 0.099879 0.500000 0.555576
#
# Coordination Sequence:
#
# PCOD8061915 Si02
#       8
#     4   4   4   4   4   4   4   4
#     4  11  24  40  60  88 119 154 199 246 297 356
#     4  10  19  35  61  86 114 153 196 242 294 349
#     4  11  24  41  61  87 123 162 201 246 299 359
#     4  11  24  42  63  87 120 157 200 252 301 355
#     4  10  19  34  56  83 115 150 191 242 295 348
#     4   9  19  35  57  85 115 151 196 241 290 354
#     4   9  21  39  57  84 119 155 196 245 297 351
#     4  11  23  39  61  90 120 154 202 251 300 358
#
# _framework density 19.849122000000001
#
# number of rings (size 3 to 8) (size 9 to 14) (size 15 to 20)
#    0.000    1.750    1.250    2.625    0.000    7.750 
#    0.000    5.000    0.000    0.000    0.000    0.000 
#    0.000    0.000    0.000    0.000    0.000    0.000 
#
# Total GULP energy -396836.208462 kJ/mol
# GULP energy per Si atom -12401.131514 kJ/mol
# Density = 1.980394 g / cm^3
# Si number density = 19.849122 Si / 1000 Ang^3
#
#
#
# Elastic Constant Matrix: (Units=GPa)
#
#
# Indices 1 2 3 4 5 6 
#
# 1 108.1826 43.8878 46.5345 0.0000 -4.5281 0.0000
# 2 43.8878 69.4877 36.6177 0.0000 -7.7853 0.0000
# 3 46.5345 36.6177 105.2611 0.0000 5.2464 0.0000
# 4 0.0000 0.0000 0.0000 23.5892 0.0000 7.1101
# 5 -4.5281 -7.7853 5.2464 0.0000 26.6841 0.0000
# 6 0.0000 0.0000 0.0000 7.1101 0.0000 29.5708
#
#
#
# Elastic Compliance Matrix: (Units=1/GPa)
#
#
# Indices 1 2 3 4 5 6 
#
# 1 0.013531 -0.006405 -0.003812 0.000000 0.001177 0.000000
# 2 -0.006405 0.021810 -0.005068 0.000000 0.006273 0.000000
# 3 -0.003812 -0.005068 0.013184 0.000000 -0.004718 0.000000
# 4 0.000000 0.000000 0.000000 0.045705 0.000000 -0.010989
# 5 0.001177 0.006273 -0.004718 0.000000 0.040433 0.000000
# 6 0.000000 0.000000 0.000000 -0.010989 0.000000 0.036459
#
#
# Mechanical properties :
#
#
# Convention : Reuss Voigt Hill
#
# Bulk Modulus (GPa) = 55.69959 59.66795 57.68377
# Shear Modulus (GPa) = 24.07567 26.36159 25.21863
#
# Velocity S-wave (km/s) = 3.48650 3.64826 3.56830
# Velocity P-wave (km/s) = 6.65808 6.91899 6.78979
#
# Compressibility (1/GPa) = 0.01795345
#
# Stress axis : x y z
#
# Youngs Moduli (GPa) = 73.90251 45.85026 75.85064
#
# Poissons Ratio (x) = 0.29369 0.28917
# Poissons Ratio (y) = 0.47337 0.38442
# Poissons Ratio (z) = 0.28175 0.23237
#
# Static dielectric constant tensor:
#      x y z
#    x 3.826800 0.000000 0.084810 
#    y 0.000000 3.629670 0.000000 
#    z 0.084810 0.000000 3.552090 
# 
# 
# High freq. dielectric constant tensor:
#      x y z
#    x 1.781890 0.000000 0.009310 
#    y 0.000000 1.778460 0.000000 
#    z 0.009310 0.000000 1.771430 
# 
# From -- ./inp_files/94921.got.cif
#   From: 2010.06.25/outbox.cif.g09.slc.cpg/sg10_48_cif.got.tgz:94921.got - 2010.06.27 22:07:45.
