data_PCOD8061190
_publ_section_title
;
Structure prediction by ZEFSAII (Michael W. Deem and Ramdas Pophale) SiO2 
 PCOD8061190
Probable space group: P 2/M
;
_chemical_formula_sum "Si O2"
_cell_formula_units_Z 32
_cell_length_a 14.902915
_cell_length_b 8.495219
_cell_length_c 15.010477
_cell_angle_alpha 90.000000
_cell_angle_beta 78.690272
_cell_angle_gamma 90.000000
_cell_volume 1863.476573
_symmetry_space_group_name_H-M "P 2/M"
_symmetry_group_IT_number 10
_symmetry_cell_setting 'monoclinic'
loop_
_space_group_symop_operation_xyz
x,y,z
-x,y,-z
-x,-y,-z
x,-y,z
loop_
_atom_site_type_symbol
_atom_site_label
_atom_site_fract_x
_atom_site_fract_y
_atom_site_fract_z
Si Si1 0.607377 0.816550 0.622669
Si Si2 0.429782 0.185669 0.892278
Si Si3 0.111130 0.318584 0.554390
Si Si4 0.744686 0.183301 0.753363
Si Si5 0.585823 0.317273 0.294489
Si Si6 0.618368 0.316559 0.916136
Si Si7 0.706335 0.182622 0.423174
Si Si8 0.073341 0.183015 0.373742
O O1 0.684589 0.773750 0.679053
O O2 0.518928 0.713686 0.660141
O O3 0.644148 0.766590 0.518895
O O4 0.580100 0.000000 0.631463
O O5 0.392850 0.264836 0.810055
O O6 0.537080 0.222382 0.883405
O O7 0.416039 0.000000 0.889986
O O8 0.371031 0.256699 0.984953
O O9 0.111147 0.500000 0.527133
O O10 0.199127 0.278784 0.596529
O O11 0.112130 0.215169 0.464839
O O12 0.018931 0.280470 0.628231
O O13 0.711819 0.282717 0.845029
O O14 0.849337 0.231298 0.712880
O O15 0.736079 0.000000 0.777716
O O16 0.607644 0.500000 0.301995
O O17 0.652309 0.217688 0.343975
O O18 0.594254 0.500000 0.920152
O O19 0.730849 0.000000 0.424624
O O20 0.050500 0.000000 0.370711
#
# Coordination Sequence:
#
# PCOD8061190 Si02
#       8
#     4   4   4   4   4   4   4   4
#     4  10  20  35  52  72 102 141 182 215 247 301
#     4  11  21  36  54  72  99 138 176 212 253 309
#     4  11  21  33  50  76 105 133 170 220 267 305
#     4  10  19  33  53  77 104 139 176 210 253 310
#     4  12  24  36  51  76 105 136 175 221 263 303
#     4  11  21  33  52  78 105 132 166 216 266 307
#     4  11  22  38  55  72  99 142 184 216 253 307
#     4  10  19  34  54  74 101 138 176 212 255 312
#
# _framework density 17.172204000000001
#
# number of rings (size 3 to 8) (size 9 to 14) (size 15 to 20)
#    0.000    1.250    2.500    7.125    0.000    3.500 
#    0.000    0.000    0.000    0.000    0.000    0.875 
#    0.000    7.000    0.000    0.000    0.000    0.000 
#
# Total GULP energy -396953.396756 kJ/mol
# GULP energy per Si atom -12404.793649 kJ/mol
# Density = 1.713312 g / cm^3
# Si number density = 17.172204 Si / 1000 Ang^3
#
#
#
# Elastic Constant Matrix: (Units=GPa)
#
#
# Indices 1 2 3 4 5 6 
#
# 1 60.0132 18.2040 40.5021 0.0000 -9.3869 0.0000
# 2 18.2040 61.8332 19.8927 0.0000 -7.3265 0.0000
# 3 40.5021 19.8927 111.4763 0.0000 -7.8782 0.0000
# 4 0.0000 0.0000 0.0000 20.3979 0.0000 2.0829
# 5 -9.3869 -7.3265 -7.8782 0.0000 23.9591 0.0000
# 6 0.0000 0.0000 0.0000 2.0829 0.0000 17.7822
#
#
#
# Elastic Compliance Matrix: (Units=1/GPa)
#
#
# Indices 1 2 3 4 5 6 
#
# 1 0.023840 -0.003915 -0.007563 0.000000 0.005656 0.000000
# 2 -0.003915 0.018253 -0.001586 0.000000 0.003526 0.000000
# 3 -0.007563 -0.001586 0.012037 0.000000 0.000510 0.000000
# 4 0.000000 0.000000 0.000000 0.049618 0.000000 -0.005812
# 5 0.005656 0.003526 0.000510 0.000000 0.045200 0.000000
# 6 0.000000 0.000000 0.000000 -0.005812 0.000000 0.056917
#
#
# Mechanical properties :
#
#
# Convention : Reuss Voigt Hill
#
# Bulk Modulus (GPa) = 35.71124 43.39113 39.55119
# Shear Modulus (GPa) = 20.71885 22.74279 21.73082
#
# Velocity S-wave (km/s) = 3.47729 3.64317 3.56120
# Velocity P-wave (km/s) = 6.07973 6.55897 6.32389
#
# Compressibility (1/GPa) = 0.02800239
#
# Stress axis : x y z
#
# Youngs Moduli (GPa) = 41.94718 54.78523 83.07460
#
# Poissons Ratio (x) = 0.21449 0.62830
# Poissons Ratio (y) = 0.16423 0.13172
# Poissons Ratio (z) = 0.31725 0.08686
#
# Static dielectric constant tensor:
#      x y z
#    x 3.145590 0.000000 -0.146140 
#    y 0.000000 3.211130 0.000000 
#    z -0.146140 0.000000 3.232150 
# 
# 
# High freq. dielectric constant tensor:
#      x y z
#    x 1.642200 0.000000 -0.013370 
#    y 0.000000 1.675220 0.000000 
#    z -0.013370 0.000000 1.650680 
# 
# From -- ./inp_files/66087.got.cif
#   From: 2010.06.25/outbox.cif.g09.slc.cpg/sg10_34_cif.got.tgz:66087.got - 2010.06.27 22:07:45.
