data_PCOD8061485
_publ_section_title
;
Structure prediction by ZEFSAII (Michael W. Deem and Ramdas Pophale) SiO2 
 PCOD8061485
Probable space group: P 2/M
;
_chemical_formula_sum "Si O2"
_cell_formula_units_Z 22
_cell_length_a 24.938986
_cell_length_b 11.525884
_cell_length_c 12.869661
_cell_angle_alpha 90.000000
_cell_angle_beta 20.463964
_cell_angle_gamma 90.000000
_cell_volume 1293.344348
_symmetry_space_group_name_H-M "P 2/M"
_symmetry_group_IT_number 10
_symmetry_cell_setting 'monoclinic'
loop_
_space_group_symop_operation_xyz
x,y,z
-x,y,-z
-x,-y,-z
x,-y,z
loop_
_atom_site_type_symbol
_atom_site_label
_atom_site_fract_x
_atom_site_fract_y
_atom_site_fract_z
Si Si1 0.924401 0.190093 0.529561
Si Si2 0.166891 0.631258 0.672536
Si Si3 0.593365 0.000000 0.579285
Si Si4 0.454786 0.227891 0.200876
Si Si5 0.746664 0.631835 0.722035
Si Si6 0.148357 0.000000 0.047927
Si Si7 0.701656 0.000000 0.007708
O O1 0.873354 0.304890 0.562200
O O2 0.775596 0.113124 0.821732
O O3 0.000000 0.229925 0.500000
O O4 0.044100 0.115238 0.243987
O O5 0.177807 0.500000 0.695148
O O6 0.294578 0.704937 0.499973
O O7 0.191388 0.634879 0.506105
O O8 0.000000 0.684637 0.000000
O O9 0.565270 0.109096 0.702849
O O10 0.763868 0.000000 0.221299
O O11 0.477709 0.000000 0.691754
O O12 0.500000 0.201808 0.000000
O O13 0.582445 0.305633 0.025982
O O14 0.727376 0.500000 0.796708
O O15 0.270902 0.000000 0.919070
#
# Coordination Sequence:
#
# PCOD8061485 Si02
#       7
#     4   4   2   4   4   2   2
#     4   9  18  35  54  77 106 133 167 216 255 303
#     4   9  19  35  54  74 102 136 171 212 255 301
#     4  12  20  32  54  79 102 139 164 218 260 298
#     4  10  21  35  51  76 108 135 176 207 250 306
#     4  10  19  33  56  77  99 138 176 208 251 303
#     4   9  21  32  53  79 102 131 179 206 257 307
#     4   9  17  36  54  73 100 140 170 210 254 311
#
# _framework density 17.010165000000001
#
# number of rings (size 3 to 8) (size 9 to 14) (size 15 to 20)
#    0.000    2.364    1.818    2.182    2.545    2.545 
#    0.000    0.455    0.000    0.000    0.000    2.545 
#    0.000    0.000    0.000    0.000    0.000    0.000 
#
# Total GULP energy -272797.990483 kJ/mol
# GULP energy per Si atom -12399.908658 kJ/mol
# Density = 1.697145 g / cm^3
# Si number density = 17.010165 Si / 1000 Ang^3
#
#
#
# Elastic Constant Matrix: (Units=GPa)
#
#
# Indices 1 2 3 4 5 6 
#
# 1 71.7022 61.7931 34.9429 0.0000 -22.3064 0.0000
# 2 61.7931 137.1313 55.8967 0.0000 -12.2894 0.0000
# 3 34.9429 55.8967 114.9311 0.0000 -15.7099 0.0000
# 4 0.0000 0.0000 0.0000 19.3805 0.0000 -1.6207
# 5 -22.3064 -12.2894 -15.7099 0.0000 23.7307 0.0000
# 6 0.0000 0.0000 0.0000 -1.6207 0.0000 17.7369
#
#
#
# Elastic Compliance Matrix: (Units=1/GPa)
#
#
# Indices 1 2 3 4 5 6 
#
# 1 0.031854 -0.011995 -0.000668 0.000000 0.023288 0.000000
# 2 -0.011995 0.013695 -0.003942 0.000000 -0.006792 0.000000
# 3 -0.000668 -0.003942 0.011497 0.000000 0.004942 0.000000
# 4 0.000000 0.000000 0.000000 0.051996 0.000000 0.004751
# 5 0.023288 -0.006792 0.004942 0.000000 0.063784 0.000000
# 6 0.000000 0.000000 0.000000 0.004751 0.000000 0.056814
#
#
# Mechanical properties :
#
#
# Convention : Reuss Voigt Hill
#
# Bulk Modulus (GPa) = 41.95243 69.89222 55.92232
# Shear Modulus (GPa) = 18.46416 23.57841 21.02129
#
# Velocity S-wave (km/s) = 3.29823 3.72712 3.51922
# Velocity P-wave (km/s) = 6.26268 7.72655 7.03281
#
# Compressibility (1/GPa) = 0.02383652
#
# Stress axis : x y z
#
# Youngs Moduli (GPa) = 31.39330 73.01682 86.98086
#
# Poissons Ratio (x) = 0.87580 0.05809
# Poissons Ratio (y) = 0.37655 0.34292
# Poissons Ratio (z) = 0.02097 0.28787
#
# Static dielectric constant tensor:
#      x y z
#    x 3.055530 0.000000 -0.138290 
#    y 0.000000 3.187270 0.000000 
#    z -0.138290 0.000000 3.192110 
# 
# 
# High freq. dielectric constant tensor:
#      x y z
#    x 1.648340 0.000000 -0.012300 
#    y 0.000000 1.653670 0.000000 
#    z -0.012300 0.000000 1.659170 
# 
# From -- ./inp_files/23629.got.cif
#   From: 2010.06.25/outbox.cif.g09.slc.cpg/sg10_12_cif.got.tgz:23629.got - 2010.06.27 22:07:45.
