data_PCOD8061938
_publ_section_title
;
Structure prediction by ZEFSAII (Michael W. Deem and Ramdas Pophale) SiO2 
 PCOD8061938
Probable space group: P 2/M
;
_chemical_formula_sum "Si O2"
_cell_formula_units_Z 16
_cell_length_a 8.232461
_cell_length_b 19.208079
_cell_length_c 9.404227
_cell_angle_alpha 90.000000
_cell_angle_beta 147.838563
_cell_angle_gamma 90.000000
_cell_volume 791.586883
_symmetry_space_group_name_H-M "P 2/M"
_symmetry_group_IT_number 10
_symmetry_cell_setting 'monoclinic'
loop_
_space_group_symop_operation_xyz
x,y,z
-x,y,-z
-x,-y,-z
x,-y,z
loop_
_atom_site_type_symbol
_atom_site_label
_atom_site_fract_x
_atom_site_fract_y
_atom_site_fract_z
Si Si1 0.593948 0.281374 0.907791
Si Si2 0.355799 0.849912 0.239681
Si Si3 0.354521 0.000000 0.240732
Si Si4 0.776737 0.352490 0.594312
Si Si5 0.147943 0.500000 0.263431
O O1 0.950922 0.300763 0.159216
O O2 0.500000 0.275343 0.000000
O O3 0.529668 0.207833 0.785095
O O4 0.367077 0.337517 0.666843
O O5 0.500000 0.836321 0.500000
O O6 0.449935 0.925885 0.240099
O O7 0.000000 0.845499 0.000000
O O8 0.500000 0.000000 0.500000
O O9 0.000000 0.000000 0.000000
O O10 0.500000 0.343757 0.500000
O O11 0.929834 0.429722 0.707290
O O12 0.500000 0.500000 0.500000
O O13 0.000000 0.500000 0.000000
#
# Coordination Sequence:
#
# PCOD8061938 Si02
#       5
#     4   4   2   4   2
#     4  12  24  37  54  85 120 149 182 228 278 330
#     4  10  19  34  57  80 106 144 187 227 271 325
#     4   8  16  30  51  80 105 132 181 234 269 312
#     4  11  22  40  62  83 108 146 190 231 275 330
#     4  10  20  36  61  88 107 134 187 242 275 318
#
# _framework density 20.212561999999998
#
# number of rings (size 3 to 8) (size 9 to 14) (size 15 to 20)
#    0.000    1.500    0.000    8.250    0.000    0.000 
#    0.000    4.375    0.000    0.000    0.000   14.000 
#    0.000    0.000    0.000    0.000    0.000    0.000 
#
# Total GULP energy -198259.419042 kJ/mol
# GULP energy per Si atom -12391.213690 kJ/mol
# Density = 2.016656 g / cm^3
# Si number density = 20.212562 Si / 1000 Ang^3
#
#
#
# Elastic Constant Matrix: (Units=GPa)
#
#
# Indices 1 2 3 4 5 6 
#
# 1 68.7488 68.9347 41.0490 0.0000 -21.0258 0.0000
# 2 68.9347 177.8940 64.1571 0.0000 -22.9137 0.0000
# 3 41.0490 64.1571 171.1774 0.0000 -12.2295 0.0000
# 4 0.0000 0.0000 0.0000 34.1633 0.0000 -1.3772
# 5 -21.0258 -22.9137 -12.2295 0.0000 35.3657 0.0000
# 6 0.0000 0.0000 0.0000 -1.3772 0.0000 6.8822
#
#
#
# Elastic Compliance Matrix: (Units=1/GPa)
#
#
# Indices 1 2 3 4 5 6 
#
# 1 0.027763 -0.008464 -0.002766 0.000000 0.010065 0.000000
# 2 -0.008464 0.009520 -0.001494 0.000000 0.000619 0.000000
# 3 -0.002766 -0.001494 0.007053 0.000000 -0.000174 0.000000
# 4 0.000000 0.000000 0.000000 0.029509 0.000000 0.005905
# 5 0.010065 0.000619 -0.000174 0.000000 0.034601 0.000000
# 6 0.000000 0.000000 0.000000 0.005905 0.000000 0.146484
#
#
# Mechanical properties :
#
#
# Convention : Reuss Voigt Hill
#
# Bulk Modulus (GPa) = 52.94774 85.12241 69.03507
# Shear Modulus (GPa) = 17.44145 31.52754 24.48449
#
# Velocity S-wave (km/s) = 2.94071 3.95371 3.48422
# Velocity P-wave (km/s) = 6.14676 7.94025 7.10036
#
# Compressibility (1/GPa) = 0.01888655
#
# Stress axis : x y z
#
# Youngs Moduli (GPa) = 36.01979 105.04472 141.78797
#
# Poissons Ratio (x) = 0.88910 0.39221
# Poissons Ratio (y) = 0.30487 0.21184
# Poissons Ratio (z) = 0.09964 0.15694
#
# Static dielectric constant tensor:
#      x y z
#    x 3.078760 0.000000 0.025740 
#    y 0.000000 7.725570 0.000000 
#    z 0.025740 0.000000 3.984220 
# 
# 
# High freq. dielectric constant tensor:
#      x y z
#    x 1.724900 0.000000 0.004460 
#    y 0.000000 1.816510 0.000000 
#    z 0.004460 0.000000 1.824400 
# 
# From -- ./inp_files/14670.got.cif
#   From: 2010.06.25/outbox.cif.g09.slc.cpg/sg10_8_cif.got.tgz:14670.got - 2010.06.27 22:07:45.
