data_PCOD8061770
_publ_section_title
;
Structure prediction by ZEFSAII (Michael W. Deem and Ramdas Pophale) SiO2 
 PCOD8061770
Probable space group: P 2/M
;
_chemical_formula_sum "Si O2"
_cell_formula_units_Z 32
_cell_length_a 11.757361
_cell_length_b 14.634014
_cell_length_c 13.787592
_cell_angle_alpha 90.000000
_cell_angle_beta 136.442423
_cell_angle_gamma 90.000000
_cell_volume 1634.682378
_symmetry_space_group_name_H-M "P 2/M"
_symmetry_group_IT_number 10
_symmetry_cell_setting 'monoclinic'
loop_
_space_group_symop_operation_xyz
x,y,z
-x,y,-z
-x,-y,-z
x,-y,z
loop_
_atom_site_type_symbol
_atom_site_label
_atom_site_fract_x
_atom_site_fract_y
_atom_site_fract_z
Si Si1 0.641443 0.105136 0.724253
Si Si2 0.811808 0.727072 0.903546
Si Si3 0.637569 0.355509 0.300190
Si Si4 0.570791 0.397008 0.645048
Si Si5 0.109386 0.599263 0.692818
Si Si6 0.306927 0.606748 0.003717
Si Si7 0.109950 0.769883 0.480996
Si Si8 0.728961 0.104012 0.562494
O O1 0.716650 0.175110 0.850005
O O2 0.738767 0.121220 0.683430
O O3 0.450758 0.129168 0.589700
O O4 0.663230 0.000000 0.772653
O O5 0.725201 0.666781 0.766439
O O6 0.807239 0.669896 0.999665
O O7 0.000000 0.748226 0.000000
O O8 0.569970 0.397742 0.358669
O O9 0.796737 0.407434 0.353040
O O10 0.706459 0.253483 0.364642
O O11 0.493456 0.356524 0.131010
O O12 0.500000 0.358819 0.500000
O O13 0.636022 0.500000 0.670997
O O14 0.028031 0.500000 0.663538
O O15 0.249232 0.621199 0.858775
O O16 0.970984 0.676638 0.609762
O O17 0.297460 0.500000 0.029996
O O18 0.128304 0.838919 0.403191
O O19 0.000000 0.812847 0.500000
O O20 0.768564 0.000000 0.563122
#
# Coordination Sequence:
#
# PCOD8061770 Si02
#       8
#     4   4   4   4   4   4   4   4
#     4   9  20  37  60  85 104 138 187 227 272 334
#     4  11  23  34  54  80 112 147 170 230 283 332
#     4  10  19  34  55  75 105 145 189 234 260 310
#     4  10  22  36  53  80 111 152 195 228 269 324
#     4  10  21  35  53  77 109 149 187 228 271 311
#     4  10  21  36  53  75 104 148 195 223 260 320
#     4  10  22  34  53  86 116 138 177 229 281 331
#     4   9  18  36  62  83 106 139 181 228 273 331
#
# _framework density 19.575668
#
# number of rings (size 3 to 8) (size 9 to 14) (size 15 to 20)
#    0.000    2.125    0.000    4.875    5.250    5.750 
#    0.000    2.500    0.000    0.000    0.000    0.000 
#    0.000   12.000    0.000    0.000    0.000    0.000 
#
# Total GULP energy -396587.838161 kJ/mol
# GULP energy per Si atom -12393.369943 kJ/mol
# Density = 1.953111 g / cm^3
# Si number density = 19.575668 Si / 1000 Ang^3
#
#
#
# Elastic Constant Matrix: (Units=GPa)
#
#
# Indices 1 2 3 4 5 6 
#
# 1 74.3296 42.7015 26.0430 0.0000 -2.6645 0.0000
# 2 42.7015 83.0125 36.9138 0.0000 2.9924 0.0000
# 3 26.0430 36.9138 69.4341 0.0000 -6.8056 0.0000
# 4 0.0000 0.0000 0.0000 20.8164 0.0000 -2.2241
# 5 -2.6645 2.9924 -6.8056 0.0000 30.2277 0.0000
# 6 0.0000 0.0000 0.0000 -2.2241 0.0000 23.2159
#
#
#
# Elastic Compliance Matrix: (Units=1/GPa)
#
#
# Indices 1 2 3 4 5 6 
#
# 1 0.019574 -0.009131 -0.002280 0.000000 0.002116 0.000000
# 2 -0.009131 0.020413 -0.007878 0.000000 -0.004599 0.000000
# 3 -0.002280 -0.007878 0.019942 0.000000 0.005069 0.000000
# 4 0.000000 0.000000 0.000000 0.048536 0.000000 0.004650
# 5 0.002116 -0.004599 0.005069 0.000000 0.034865 0.000000
# 6 0.000000 0.000000 0.000000 0.004650 0.000000 0.043519
#
#
# Mechanical properties :
#
#
# Convention : Reuss Voigt Hill
#
# Bulk Modulus (GPa) = 46.83683 48.67699 47.75691
# Shear Modulus (GPa) = 21.50126 22.92651 22.21389
#
# Velocity S-wave (km/s) = 3.31776 3.42595 3.37229
# Velocity P-wave (km/s) = 6.21729 6.36943 6.29382
#
# Compressibility (1/GPa) = 0.02135072
#
# Stress axis : x y z
#
# Youngs Moduli (GPa) = 51.08790 48.98954 50.14488
#
# Poissons Ratio (x) = 0.44735 0.11432
# Poissons Ratio (y) = 0.46651 0.39504
# Poissons Ratio (z) = 0.11647 0.38593
#
# Static dielectric constant tensor:
#      x y z
#    x 3.494990 0.000000 -0.077840 
#    y 0.000000 3.529100 0.000000 
#    z -0.077840 0.000000 3.576870 
# 
# 
# High freq. dielectric constant tensor:
#      x y z
#    x 1.753580 0.000000 -0.000190 
#    y 0.000000 1.752960 0.000000 
#    z -0.000190 0.000000 1.756810 
# 
# From -- ./inp_files/65131.got.cif
#   From: 2010.06.25/outbox.cif.g09.slc.cpg/sg10_33_cif.got.tgz:65131.got - 2010.06.27 22:07:45.
