data_PCOD8061088
_publ_section_title
;
Structure prediction by ZEFSAII (Michael W. Deem and Ramdas Pophale) SiO2 
 PCOD8061088
Probable space group: P 2/M
;
_chemical_formula_sum "Si O2"
_cell_formula_units_Z 28
_cell_length_a 15.432151
_cell_length_b 18.444825
_cell_length_c 5.001199
_cell_angle_alpha 90.000000
_cell_angle_beta 112.555703
_cell_angle_gamma 90.000000
_cell_volume 1314.665767
_symmetry_space_group_name_H-M "P 2/M"
_symmetry_group_IT_number 10
_symmetry_cell_setting 'monoclinic'
loop_
_space_group_symop_operation_xyz
x,y,z
-x,y,-z
-x,-y,-z
x,-y,z
loop_
_atom_site_type_symbol
_atom_site_label
_atom_site_fract_x
_atom_site_fract_y
_atom_site_fract_z
Si Si1 0.694863 0.647983 0.105345
Si Si2 0.441130 0.230598 0.169338
Si Si3 0.398333 0.416943 0.482801
Si Si4 0.102570 0.796147 0.085375
Si Si5 0.105292 0.701725 0.585865
Si Si6 0.364899 0.919755 0.946278
Si Si7 0.244674 0.920397 0.305277
O O1 0.642277 0.629198 0.319097
O O2 0.808185 0.646512 0.267975
O O3 0.659004 0.727218 0.953276
O O4 0.671525 0.588909 0.851826
O O5 0.500000 0.247483 0.500000
O O6 0.500000 0.265109 0.000000
O O7 0.433770 0.143763 0.121761
O O8 0.500000 0.387717 0.500000
O O9 0.406545 0.500000 0.585754
O O10 0.116044 0.727289 0.294098
O O11 0.169346 0.859251 0.261606
O O12 0.117664 0.769919 0.800052
O O13 0.000000 0.829556 0.000000
O O14 0.000000 0.666892 0.500000
O O15 0.332172 0.903756 0.604788
O O16 0.413350 0.000000 0.021918
O O17 0.275562 0.918604 0.034825
O O18 0.203352 0.000000 0.327075
#
# Coordination Sequence:
#
# PCOD8061088 Si02
#       7
#     4   4   4   4   4   4   4
#     4  12  22  39  65  90 124 159 197 247 295 343
#     4  12  24  36  56  86 116 148 195 248 294 345
#     4  11  24  42  65  94 128 163 196 233 288 358
#     4  10  19  33  52  78 112 146 188 244 306 358
#     4  10  22  38  60  88 117 154 196 241 292 350
#     4  10  22  38  54  73 106 153 196 237 290 352
#     4  10  19  33  52  73 100 140 193 243 293 356
#
# _framework density 21.298186999999999
#
# number of rings (size 3 to 8) (size 9 to 14) (size 15 to 20)
#    0.000    1.286    0.000    7.286    0.000    2.000 
#    0.000    0.000    0.000    7.714    0.000    0.000 
#    0.000    0.000    0.000    0.000    0.000    0.000 
#
# Total GULP energy -347103.135092 kJ/mol
# GULP energy per Si atom -12396.540539 kJ/mol
# Density = 2.124971 g / cm^3
# Si number density = 21.298187 Si / 1000 Ang^3
#
#
#
# Elastic Constant Matrix: (Units=GPa)
#
#
# Indices 1 2 3 4 5 6 
#
# 1 106.7231 36.1984 49.0016 0.0000 15.0649 0.0000
# 2 36.1984 71.0454 24.9353 0.0000 12.5356 0.0000
# 3 49.0016 24.9353 116.3364 0.0000 1.7587 0.0000
# 4 0.0000 0.0000 0.0000 34.9584 0.0000 3.0050
# 5 15.0649 12.5356 1.7587 0.0000 40.7259 0.0000
# 6 0.0000 0.0000 0.0000 3.0050 0.0000 19.0371
#
#
#
# Elastic Compliance Matrix: (Units=1/GPa)
#
#
# Indices 1 2 3 4 5 6 
#
# 1 0.013577 -0.004685 -0.004664 0.000000 -0.003379 0.000000
# 2 -0.004685 0.017728 -0.001771 0.000000 -0.003647 0.000000
# 3 -0.004664 -0.001771 0.010913 0.000000 0.001799 0.000000
# 4 0.000000 0.000000 0.000000 0.028999 0.000000 -0.004577
# 5 -0.003379 -0.003647 0.001799 0.000000 0.026849 0.000000
# 6 0.000000 0.000000 0.000000 -0.004577 0.000000 0.053252
#
#
# Mechanical properties :
#
#
# Convention : Reuss Voigt Hill
#
# Bulk Modulus (GPa) = 50.05475 57.15282 53.60378
# Shear Modulus (GPa) = 27.74446 31.20891 29.47668
#
# Velocity S-wave (km/s) = 3.61316 3.83212 3.72425
# Velocity P-wave (km/s) = 6.39996 6.81711 6.61183
#
# Compressibility (1/GPa) = 0.01997812
#
# Stress axis : x y z
#
# Youngs Moduli (GPa) = 73.65240 56.40902 91.63735
#
# Poissons Ratio (x) = 0.26426 0.42736
# Poissons Ratio (y) = 0.34504 0.16232
# Poissons Ratio (z) = 0.34349 0.09992
#
# Static dielectric constant tensor:
#      x y z
#    x 3.843510 0.000000 -0.099080 
#    y 0.000000 3.626470 0.000000 
#    z -0.099080 0.000000 3.975970 
# 
# 
# High freq. dielectric constant tensor:
#      x y z
#    x 1.830090 0.000000 -0.014110 
#    y 0.000000 1.814250 0.000000 
#    z -0.014110 0.000000 1.852080 
# 
# From -- ./inp_files/9844.got.cif
#   From: 2010.06.25/outbox.cif.g09.slc.cpg/sg10_5_cif.got.tgz:9844.got - 2010.06.27 22:07:45.
