data_PCOD8061197
_publ_section_title
;
Structure prediction by ZEFSAII (Michael W. Deem and Ramdas Pophale) SiO2 
 PCOD8061197
Probable space group: P 2/M
;
_chemical_formula_sum "Si O2"
_cell_formula_units_Z 20
_cell_length_a 12.535018
_cell_length_b 8.700719
_cell_length_c 10.206731
_cell_angle_alpha 90.000000
_cell_angle_beta 77.259341
_cell_angle_gamma 90.000000
_cell_volume 1085.775050
_symmetry_space_group_name_H-M "P 2/M"
_symmetry_group_IT_number 10
_symmetry_cell_setting 'monoclinic'
loop_
_space_group_symop_operation_xyz
x,y,z
-x,y,-z
-x,-y,-z
x,-y,z
loop_
_atom_site_type_symbol
_atom_site_label
_atom_site_fract_x
_atom_site_fract_y
_atom_site_fract_z
Si Si1 0.721409 0.821544 0.581959
Si Si2 0.495704 0.330154 0.345645
Si Si3 0.264479 0.681452 0.704622
Si Si4 0.075929 0.679474 0.358407
Si Si5 0.048714 0.822180 0.845348
O O1 0.600844 0.783823 0.673412
O O2 0.745912 0.725506 0.444782
O O3 0.811087 0.774256 0.665201
O O4 0.728501 0.000000 0.546750
O O5 0.500000 0.338828 0.500000
O O6 0.471388 0.500000 0.295071
O O7 0.616287 0.272925 0.268144
O O8 0.244405 0.500000 0.720313
O O9 0.175432 0.772243 0.813457
O O10 0.102886 0.500000 0.354833
O O11 0.000000 0.729324 0.500000
O O12 0.016314 0.719653 0.240259
O O13 0.038691 0.000000 0.808813
O O14 0.000000 0.788383 0.000000
#
# Coordination Sequence:
#
# PCOD8061197 Si02
#       5
#     4   4   4   4   4
#     4  11  20  30  51  81 112 141 175 224 277 321
#     4   8  16  30  48  73 107 141 177 220 265 319
#     4  10  19  33  53  77 107 145 184 222 265 318
#     4  11  22  36  57  81 108 145 185 225 270 322
#     4  11  24  39  56  81 112 145 181 224 275 328
#
# _framework density 18.420020999999998
#
# number of rings (size 3 to 8) (size 9 to 14) (size 15 to 20)
#    0.000    1.800    2.000    4.800    0.000    6.800 
#    0.000    0.000    0.000    1.200    0.000    8.400 
#    0.000    0.000    0.000    0.000    0.000    0.000 
#
# Total GULP energy -248007.897583 kJ/mol
# GULP energy per Si atom -12400.394879 kJ/mol
# Density = 1.837810 g / cm^3
# Si number density = 18.420021 Si / 1000 Ang^3
#
#
#
# Elastic Constant Matrix: (Units=GPa)
#
#
# Indices 1 2 3 4 5 6 
#
# 1 146.3447 38.3853 38.4659 0.0000 -9.1886 0.0000
# 2 38.3853 63.2301 23.1274 0.0000 -0.4880 0.0000
# 3 38.4659 23.1274 56.1909 0.0000 -6.6186 0.0000
# 4 0.0000 0.0000 0.0000 16.9450 0.0000 0.4636
# 5 -9.1886 -0.4880 -6.6186 0.0000 20.3083 0.0000
# 6 0.0000 0.0000 0.0000 0.4636 0.0000 27.1712
#
#
#
# Elastic Compliance Matrix: (Units=1/GPa)
#
#
# Indices 1 2 3 4 5 6 
#
# 1 0.009180 -0.003965 -0.004341 0.000000 0.002644 0.000000
# 2 -0.003965 0.020420 -0.006077 0.000000 -0.003284 0.000000
# 3 -0.004341 -0.006077 0.023940 0.000000 0.005692 0.000000
# 4 0.000000 0.000000 0.000000 0.059042 0.000000 -0.001007
# 5 0.002644 -0.003284 0.005692 0.000000 0.052213 0.000000
# 6 0.000000 0.000000 0.000000 -0.001007 0.000000 0.036821
#
#
# Mechanical properties :
#
#
# Convention : Reuss Voigt Hill
#
# Bulk Modulus (GPa) = 40.36542 51.74701 46.05621
# Shear Modulus (GPa) = 20.95208 23.93736 22.44472
#
# Velocity S-wave (km/s) = 3.37629 3.60881 3.49448
# Velocity P-wave (km/s) = 6.09595 6.74674 6.42958
#
# Compressibility (1/GPa) = 0.02477368
#
# Stress axis : x y z
#
# Youngs Moduli (GPa) = 108.93087 48.97247 41.77123
#
# Poissons Ratio (x) = 0.19417 0.18133
# Poissons Ratio (y) = 0.43189 0.25385
# Poissons Ratio (z) = 0.47288 0.29761
#
# Static dielectric constant tensor:
#      x y z
#    x 4.005590 0.000000 -0.184950 
#    y 0.000000 3.393180 0.000000 
#    z -0.184950 0.000000 2.917670 
# 
# 
# High freq. dielectric constant tensor:
#      x y z
#    x 1.737900 0.000000 -0.004940 
#    y 0.000000 1.722970 0.000000 
#    z -0.004940 0.000000 1.652710 
# 
# From -- ./inp_files/22126.got.cif
#   From: 2010.06.25/outbox.cif.g09.slc.cpg/sg10_12_cif.got.tgz:22126.got - 2010.06.27 22:07:45.
