data_PCOD8061523
_publ_section_title
;
Structure prediction by ZEFSAII (Michael W. Deem and Ramdas Pophale) SiO2 
 PCOD8061523
Probable space group: P 2/M
;
_chemical_formula_sum "Si O2"
_cell_formula_units_Z 32
_cell_length_a 27.823357
_cell_length_b 8.943533
_cell_length_c 21.472591
_cell_angle_alpha 90.000000
_cell_angle_beta 18.876455
_cell_angle_gamma 90.000000
_cell_volume 1728.684683
_symmetry_space_group_name_H-M "P 2/M"
_symmetry_group_IT_number 10
_symmetry_cell_setting 'monoclinic'
loop_
_space_group_symop_operation_xyz
x,y,z
-x,y,-z
-x,-y,-z
x,-y,z
loop_
_atom_site_type_symbol
_atom_site_label
_atom_site_fract_x
_atom_site_fract_y
_atom_site_fract_z
Si Si1 0.337708 0.676078 0.087262
Si Si2 0.838350 0.173523 0.587988
Si Si3 0.180073 0.175939 0.163972
Si Si4 0.354074 0.829502 0.293602
Si Si5 0.662927 0.829064 0.546327
Si Si6 0.163704 0.174669 0.786275
Si Si7 0.605762 0.325317 0.182777
Si Si8 0.562290 0.323967 0.489061
O O1 0.326279 0.500000 0.092275
O O2 0.245945 0.723671 0.260005
O O3 0.272038 0.754990 0.107477
O O4 0.508055 0.721756 0.888422
O O5 0.775205 0.205755 0.596819
O O6 0.009263 0.222243 0.378875
O O7 0.819666 0.000000 0.629833
O O8 0.201206 0.000000 0.139364
O O9 0.243950 0.239266 0.020438
O O10 0.282997 0.803458 0.449240
O O11 0.410695 0.000000 0.217077
O O12 0.795208 0.789838 0.336097
O O13 0.524140 0.720790 0.705533
O O14 0.610305 0.000000 0.600203
O O15 0.279405 0.250154 0.691383
O O16 0.167107 0.000000 0.796596
O O17 0.000000 0.240774 0.000000
O O18 0.634635 0.500000 0.141103
O O19 0.558300 0.279081 0.310699
O O20 0.500000 0.263918 0.500000
O O21 0.588431 0.500000 0.455786
#
# Coordination Sequence:
#
# PCOD8061523 Si02
#       8
#     4   4   4   4   4   4   4   4
#     4  12  24  37  58  84 108 140 183 226 272 323
#     4  10  23  40  56  79 110 144 182 222 273 329
#     4  11  22  38  58  81 110 144 182 224 270 325
#     4  10  20  37  59  80 106 144 185 223 267 324
#     4   9  17  32  56  79 106 145 183 218 265 320
#     4   9  18  33  53  83 115 142 179 227 271 313
#     4  10  19  33  56  82 108 141 185 229 266 314
#     4   9  19  36  56  79 111 148 185 221 264 322
#
# _framework density 18.511184
#
# number of rings (size 3 to 8) (size 9 to 14) (size 15 to 20)
#    0.000    2.000    1.250    2.625    0.000    5.500 
#    2.250    0.000    0.000    0.000    0.000    0.000 
#    0.000    0.000    0.000    0.000    0.000    0.000 
#
# Total GULP energy -396867.920995 kJ/mol
# GULP energy per Si atom -12402.122531 kJ/mol
# Density = 1.846905 g / cm^3
# Si number density = 18.511184 Si / 1000 Ang^3
#
#
#
# Elastic Constant Matrix: (Units=GPa)
#
#
# Indices 1 2 3 4 5 6 
#
# 1 99.3176 28.5899 42.6464 0.0000 11.7341 0.0000
# 2 28.5899 55.1818 31.3698 0.0000 4.1745 0.0000
# 3 42.6464 31.3698 108.6083 0.0000 9.9661 0.0000
# 4 0.0000 0.0000 0.0000 15.2315 0.0000 8.5553
# 5 11.7341 4.1745 9.9661 0.0000 24.8333 0.0000
# 6 0.0000 0.0000 0.0000 8.5553 0.0000 19.8420
#
#
#
# Elastic Compliance Matrix: (Units=1/GPa)
#
#
# Indices 1 2 3 4 5 6 
#
# 1 0.013412 -0.004616 -0.003554 0.000000 -0.004135 0.000000
# 2 -0.004616 0.023304 -0.004941 0.000000 0.000247 0.000000
# 3 -0.003554 -0.004941 0.012251 0.000000 -0.002407 0.000000
# 4 0.000000 0.000000 0.000000 0.086634 0.000000 -0.037354
# 5 -0.004135 0.000247 -0.002407 0.000000 0.043147 0.000000
# 6 0.000000 0.000000 0.000000 -0.037354 0.000000 0.066504
#
#
# Mechanical properties :
#
#
# Convention : Reuss Voigt Hill
#
# Bulk Modulus (GPa) = 43.96512 52.03554 48.00033
# Shear Modulus (GPa) = 17.91764 22.68148 20.29956
#
# Velocity S-wave (km/s) = 3.11454 3.50421 3.31510
# Velocity P-wave (km/s) = 6.06102 6.67413 6.37495
#
# Compressibility (1/GPa) = 0.02274530
#
# Stress axis : x y z
#
# Youngs Moduli (GPa) = 74.56058 42.91182 81.62724
#
# Poissons Ratio (x) = 0.19807 0.29008
# Poissons Ratio (y) = 0.34415 0.40333
# Poissons Ratio (z) = 0.26497 0.21203
#
# Static dielectric constant tensor:
#      x y z
#    x 3.504780 0.000000 0.193710 
#    y 0.000000 3.398390 0.000000 
#    z 0.193710 0.000000 3.540830 
# 
# 
# High freq. dielectric constant tensor:
#      x y z
#    x 1.717600 0.000000 0.013900 
#    y 0.000000 1.715020 0.000000 
#    z 0.013900 0.000000 1.718680 
# 
# From -- ./inp_files/86842.got.cif
#   From: 2010.06.25/outbox.cif.g09.slc.cpg/sg10_44_cif.got.tgz:86842.got - 2010.06.27 22:07:45.
