data_PCOD8061974
_publ_section_title
;
Structure prediction by ZEFSAII (Michael W. Deem and Ramdas Pophale) SiO2 
 PCOD8061974
Probable space group: P 2/M
;
_chemical_formula_sum "Si O2"
_cell_formula_units_Z 26
_cell_length_a 11.572192
_cell_length_b 13.205166
_cell_length_c 18.287576
_cell_angle_alpha 90.000000
_cell_angle_beta 152.299763
_cell_angle_gamma 90.000000
_cell_volume 1299.045806
_symmetry_space_group_name_H-M "P 2/M"
_symmetry_group_IT_number 10
_symmetry_cell_setting 'monoclinic'
loop_
_space_group_symop_operation_xyz
x,y,z
-x,y,-z
-x,-y,-z
x,-y,z
loop_
_atom_site_type_symbol
_atom_site_label
_atom_site_fract_x
_atom_site_fract_y
_atom_site_fract_z
Si Si1 0.016660 0.296598 0.829315
Si Si2 0.120123 0.381759 0.734082
Si Si3 0.463954 0.385880 0.149161
Si Si4 0.500000 0.255392 0.500000
Si Si5 0.383579 0.888355 0.554640
Si Si6 0.035629 0.887921 0.102058
Si Si7 0.786280 0.274421 0.437684
O O1 0.121377 0.310388 0.806116
O O2 0.715207 0.320491 0.662602
O O3 0.074713 0.185886 0.897015
O O4 0.171712 0.373563 0.967388
O O5 0.104094 0.500000 0.747737
O O6 0.371362 0.358172 0.830053
O O7 0.877179 0.353850 0.550131
O O8 0.520855 0.500000 0.204296
O O9 0.539709 0.317249 0.260625
O O10 0.672855 0.184614 0.545562
O O11 0.675260 0.898874 0.722844
O O12 0.272471 0.836414 0.564131
O O13 0.262979 0.000000 0.476551
O O14 0.910396 0.000000 0.038841
O O15 0.000000 0.844282 0.000000
O O16 0.000000 0.256916 0.500000
#
# Coordination Sequence:
#
# PCOD8061974 Si02
#       7
#     4   4   4   2   4   4   4
#     4  11  20  35  59  86 112 144 194 241 284 330
#     4  10  20  37  59  83 113 150 193 238 287 341
#     4  10  21  37  60  85 111 152 199 237 280 342
#     4  10  21  36  55  82 116 154 185 234 283 336
#     4  10  19  34  57  82 111 148 193 229 275 344
#     4   9  19  35  57  82 110 149 190 232 284 343
#     4  10  20  36  59  88 116 150 187 240 293 337
#
# _framework density 20.014690999999999
#
# number of rings (size 3 to 8) (size 9 to 14) (size 15 to 20)
#    0.000    2.000    1.538    2.538    0.000    4.000 
#    0.000    1.538    0.000    8.308    0.000    0.000 
#    0.000    0.000    0.000    0.000    0.000    0.000 
#
# Total GULP energy -322193.900218 kJ/mol
# GULP energy per Si atom -12392.073085 kJ/mol
# Density = 1.996914 g / cm^3
# Si number density = 20.014691 Si / 1000 Ang^3
#
#
#
# Elastic Constant Matrix: (Units=GPa)
#
#
# Indices 1 2 3 4 5 6 
#
# 1 71.0731 56.3710 29.4332 0.0000 -25.9292 0.0000
# 2 56.3710 89.7155 29.8095 0.0000 -3.7121 0.0000
# 3 29.4332 29.8095 112.3609 0.0000 -3.2953 0.0000
# 4 0.0000 0.0000 0.0000 30.2506 0.0000 4.3043
# 5 -25.9292 -3.7121 -3.2953 0.0000 23.0160 0.0000
# 6 0.0000 0.0000 0.0000 4.3043 0.0000 46.5797
#
#
#
# Elastic Compliance Matrix: (Units=1/GPa)
#
#
# Indices 1 2 3 4 5 6 
#
# 1 0.094519 -0.052749 -0.007925 0.000000 0.096840 0.000000
# 2 -0.052749 0.041715 0.001210 0.000000 -0.052524 0.000000
# 3 -0.007925 0.001210 0.010442 0.000000 -0.007238 0.000000
# 4 0.000000 0.000000 0.000000 0.033498 0.000000 -0.003095
# 5 0.096840 -0.052524 -0.007238 0.000000 0.143037 0.000000
# 6 0.000000 0.000000 0.000000 -0.003095 0.000000 0.021755
#
#
# Mechanical properties :
#
#
# Convention : Reuss Voigt Hill
#
# Bulk Modulus (GPa) = 36.03756 56.04187 46.03971
# Shear Modulus (GPa) = 10.56765 30.47166 20.51965
#
# Velocity S-wave (km/s) = 2.30031 3.90611 3.20539
# Velocity P-wave (km/s) = 5.00998 6.95735 6.06237
#
# Compressibility (1/GPa) = 0.02774883
#
# Stress axis : x y z
#
# Youngs Moduli (GPa) = 10.57992 23.97241 95.76260
#
# Poissons Ratio (x) = 1.26452 0.75891
# Poissons Ratio (y) = 0.55808 -0.11590
# Poissons Ratio (z) = 0.08385 -0.02901
#
# Static dielectric constant tensor:
#      x y z
#    x 3.632370 0.000000 -0.265730 
#    y 0.000000 3.903780 0.000000 
#    z -0.265730 0.000000 3.902090 
# 
# 
# High freq. dielectric constant tensor:
#      x y z
#    x 1.763180 0.000000 -0.019530 
#    y 0.000000 1.766480 0.000000 
#    z -0.019530 0.000000 1.791160 
# 
# From -- ./inp_files/76848.got.cif
#   From: 2010.06.25/outbox.cif.g09.slc.cpg/sg10_39_cif.got.tgz:76848.got - 2010.06.27 22:07:45.
