data_PCOD8061791
_publ_section_title
;
Structure prediction by ZEFSAII (Michael W. Deem and Ramdas Pophale) SiO2 
 PCOD8061791
Probable space group: P 2/M
;
_chemical_formula_sum "Si O2"
_cell_formula_units_Z 28
_cell_length_a 9.116252
_cell_length_b 8.727508
_cell_length_c 25.519490
_cell_angle_alpha 90.000000
_cell_angle_beta 135.284881
_cell_angle_gamma 90.000000
_cell_volume 1428.543395
_symmetry_space_group_name_H-M "P 2/M"
_symmetry_group_IT_number 10
_symmetry_cell_setting 'monoclinic'
loop_
_space_group_symop_operation_xyz
x,y,z
-x,y,-z
-x,-y,-z
x,-y,z
loop_
_atom_site_type_symbol
_atom_site_label
_atom_site_fract_x
_atom_site_fract_y
_atom_site_fract_z
Si Si1 0.319036 0.817582 0.491698
Si Si2 0.860505 0.817962 0.345510
Si Si3 0.234809 0.319653 0.788273
Si Si4 0.663576 0.818589 0.920378
Si Si5 0.978215 0.818866 0.912643
Si Si6 0.429029 0.181953 0.633836
Si Si7 0.107122 0.182457 0.224447
O O1 0.500000 0.752735 0.500000
O O2 0.354355 0.751597 0.558995
O O3 0.097483 0.761800 0.413327
O O4 0.325609 0.000000 0.494798
O O5 0.761066 0.740021 0.269808
O O6 0.728989 0.759851 0.361902
O O7 0.846061 0.000000 0.335085
O O8 0.215145 0.500000 0.784386
O O9 0.446170 0.268424 0.870568
O O10 0.039339 0.248275 0.768158
O O11 0.785349 0.761250 0.899273
O O12 0.622987 0.000000 0.908501
O O13 0.801221 0.771367 0.005912
O O14 0.961191 0.752114 0.849746
O O15 0.962186 0.000000 0.907185
O O16 0.660286 0.241550 0.705058
O O17 0.427073 0.000000 0.631584
O O18 0.093839 0.000000 0.222780
#
# Coordination Sequence:
#
# PCOD8061791 Si02
#       7
#     4   4   4   4   4   4   4
#     4   9  16  27  49  84 117 138 163 207 262 315
#     4  10  19  34  57  80 105 139 177 218 263 310
#     4  12  25  37  49  73 108 143 181 221 262 309
#     4   9  17  35  60  83 106 134 171 215 264 314
#     4   8  16  32  59  88 107 129 170 219 260 311
#     4   9  17  30  54  86 110 131 170 220 263 309
#     4  10  19  34  55  78 105 138 175 215 263 314
#
# _framework density 19.600384999999999
#
# number of rings (size 3 to 8) (size 9 to 14) (size 15 to 20)
#    0.000    2.429    0.000    4.286    0.000    6.857 
#    0.000    7.857    0.000    5.571    0.000    0.000 
#    0.000    0.000    0.000    0.000    0.000    0.000 
#
# Total GULP energy -347207.674885 kJ/mol
# GULP energy per Si atom -12400.274103 kJ/mol
# Density = 1.955577 g / cm^3
# Si number density = 19.600385 Si / 1000 Ang^3
#
#
#
# Elastic Constant Matrix: (Units=GPa)
#
#
# Indices 1 2 3 4 5 6 
#
# 1 108.5777 10.1312 40.4292 0.0000 14.5299 0.0000
# 2 10.1312 24.5907 17.0094 0.0000 5.2807 0.0000
# 3 40.4292 17.0094 118.0259 0.0000 11.1649 0.0000
# 4 0.0000 0.0000 0.0000 2.9983 0.0000 -2.4491
# 5 14.5299 5.2807 11.1649 0.0000 43.1779 0.0000
# 6 0.0000 0.0000 0.0000 -2.4491 0.0000 0.5681
#
#
#
# Elastic Compliance Matrix: (Units=1/GPa)
#
#
# Indices 1 2 3 4 5 6 
#
# 1 0.010931 -0.001689 -0.003252 0.000000 -0.002631 0.000000
# 2 -0.001689 0.046092 -0.005725 0.000000 -0.003588 0.000000
# 3 -0.003252 -0.005725 0.010499 0.000000 -0.000920 0.000000
# 4 0.000000 0.000000 0.000000 -0.132277 0.000000 -0.570244
# 5 -0.002631 -0.003588 -0.000920 0.000000 0.024722 0.000000
# 6 0.000000 0.000000 0.000000 -0.570244 0.000000 -0.698100
#
#
# Mechanical properties :
#
#
# Convention : Reuss Voigt Hill
#
# Bulk Modulus (GPa) = 21.64965 42.92598 32.28782
# Shear Modulus (GPa) = -7.12854 21.59050 7.23098
#
# Velocity S-wave (km/s) = -1.90914 3.32254 1.92281
# Velocity P-wave (km/s) = 2.49193 6.05534 4.63017
#
# Compressibility (1/GPa) = 0.04619012
#
# Stress axis : x y z
#
# Youngs Moduli (GPa) = 91.48702 21.69582 95.24988
#
# Poissons Ratio (x) = 0.03664 0.30974
# Poissons Ratio (y) = 0.15452 0.54526
# Poissons Ratio (z) = 0.29751 0.12420
#
# Static dielectric constant tensor:
#      x y z
#    x 3.784450 0.000000 -0.101820 
#    y 0.000000 2.957360 0.000000 
#    z -0.101820 0.000000 3.879310 
# 
# 
# High freq. dielectric constant tensor:
#      x y z
#    x 1.774770 0.000000 0.000170 
#    y 0.000000 1.699510 0.000000 
#    z 0.000170 0.000000 1.782710 
# 
# From -- ./inp_files/92067.got.cif
#   From: 2010.06.25/outbox.cif.g09.slc.cpg/sg10_47_cif.got.tgz:92067.got - 2010.06.27 22:07:45.
