data_PCOD8061287
_publ_section_title
;
Structure prediction by ZEFSAII (Michael W. Deem and Ramdas Pophale) SiO2 
 PCOD8061287
Probable space group: P 2/M
;
_chemical_formula_sum "Si O2"
_cell_formula_units_Z 28
_cell_length_a 20.481273
_cell_length_b 8.723403
_cell_length_c 14.691496
_cell_angle_alpha 90.000000
_cell_angle_beta 32.589287
_cell_angle_gamma 90.000000
_cell_volume 1413.793374
_symmetry_space_group_name_H-M "P 2/M"
_symmetry_group_IT_number 10
_symmetry_cell_setting 'monoclinic'
loop_
_space_group_symop_operation_xyz
x,y,z
-x,y,-z
-x,-y,-z
x,-y,z
loop_
_atom_site_type_symbol
_atom_site_label
_atom_site_fract_x
_atom_site_fract_y
_atom_site_fract_z
Si Si1 0.740850 0.320045 0.345695
Si Si2 0.865154 0.818635 0.666750
Si Si3 0.060269 0.679840 0.747432
Si Si4 0.215733 0.681764 0.904147
Si Si5 0.311083 0.818762 0.971296
Si Si6 0.435799 0.318594 0.292220
Si Si7 0.238244 0.820418 0.402360
O O1 0.727185 0.500000 0.352815
O O2 0.869032 0.280305 0.242386
O O3 0.737786 0.250715 0.247395
O O4 0.630670 0.258223 0.537485
O O5 0.783189 0.772558 0.676813
O O6 0.000000 0.745573 0.500000
O O7 0.877715 0.000000 0.657110
O O8 0.798285 0.757422 0.836179
O O9 0.072809 0.500000 0.710185
O O10 0.116358 0.776831 0.599463
O O11 0.922674 0.733017 0.920167
O O12 0.227738 0.500000 0.893216
O O13 0.298676 0.751916 0.885025
O O14 0.436257 0.763392 0.867883
O O15 0.310928 0.000000 0.966923
O O16 0.453408 0.500000 0.273219
O O17 0.353689 0.273882 0.302331
O O18 0.264044 0.000000 0.383127
#
# Coordination Sequence:
#
# PCOD8061287 Si02
#       7
#     4   4   4   4   4   4   4
#     4   8  16  32  55  78 103 141 182 216 254 314
#     4   9  19  36  57  80 107 141 176 208 254 321
#     4   9  17  31  53  82 112 140 174 218 266 315
#     4  10  19  33  54  79 107 142 183 221 261 310
#     4  11  23  38  55  77 107 140 178 223 267 313
#     4  10  21  39  58  78 106 139 179 221 265 316
#     4  10  19  34  58  82 106 140 180 220 262 310
#
# _framework density 19.804874000000002
#
# number of rings (size 3 to 8) (size 9 to 14) (size 15 to 20)
#    0.000    2.429    0.000    3.429    0.000    4.571 
#    0.000   12.143    0.000    9.429    0.000    0.000 
#    0.000    0.000    0.000    0.000    0.000    0.000 
#
# Total GULP energy -347185.238249 kJ/mol
# GULP energy per Si atom -12399.472795 kJ/mol
# Density = 1.975980 g / cm^3
# Si number density = 19.804874 Si / 1000 Ang^3
#
#
#
# Elastic Constant Matrix: (Units=GPa)
#
#
# Indices 1 2 3 4 5 6 
#
# 1 98.7937 11.6626 42.6879 0.0000 9.7784 0.0000
# 2 11.6626 15.4575 8.9432 0.0000 -0.0064 0.0000
# 3 42.6879 8.9432 81.2762 0.0000 -12.0468 0.0000
# 4 0.0000 0.0000 0.0000 6.2874 0.0000 -6.6877
# 5 9.7784 -0.0064 -12.0468 0.0000 32.6346 0.0000
# 6 0.0000 0.0000 0.0000 -6.6877 0.0000 28.9190
#
#
#
# Elastic Compliance Matrix: (Units=1/GPa)
#
#
# Indices 1 2 3 4 5 6 
#
# 1 0.015330 -0.006674 -0.008461 0.000000 -0.007718 0.000000
# 2 -0.006674 0.072268 -0.004388 0.000000 0.000394 0.000000
# 3 -0.008461 -0.004388 0.018625 0.000000 0.009410 0.000000
# 4 0.000000 0.000000 0.000000 0.210933 0.000000 0.048780
# 5 -0.007718 0.000394 0.009410 0.000000 0.036429 0.000000
# 6 0.000000 0.000000 0.000000 0.048780 0.000000 0.045860
#
#
# Mechanical properties :
#
#
# Convention : Reuss Voigt Hill
#
# Bulk Modulus (GPa) = 14.88622 35.79052 25.33837
# Shear Modulus (GPa) = 10.84873 22.38380 16.61626
#
# Velocity S-wave (km/s) = 2.34301 3.36552 2.89969
# Velocity P-wave (km/s) = 3.85388 5.76308 4.90232
#
# Compressibility (1/GPa) = 0.06717623
#
# Stress axis : x y z
#
# Youngs Moduli (GPa) = 65.23211 13.83740 53.69057
#
# Poissons Ratio (x) = 0.09235 0.45428
# Poissons Ratio (y) = 0.43537 0.23560
# Poissons Ratio (z) = 0.55194 0.06072
#
# Static dielectric constant tensor:
#      x y z
#    x 3.736510 0.000000 0.152770 
#    y 0.000000 3.268740 0.000000 
#    z 0.152770 0.000000 3.818890 
# 
# 
# High freq. dielectric constant tensor:
#      x y z
#    x 1.780520 0.000000 0.001560 
#    y 0.000000 1.741510 0.000000 
#    z 0.001560 0.000000 1.774430 
# 
# From -- ./inp_files/49142.got.cif
#   From: 2010.06.25/outbox.cif.g09.slc.cpg/sg10_25_cif.got.tgz:49142.got - 2010.06.27 22:07:45.
