data_PCOD8061730
_publ_section_title
;
Structure prediction by ZEFSAII (Michael W. Deem and Ramdas Pophale) SiO2 
 PCOD8061730
Probable space group: P 2/M
;
_chemical_formula_sum "Si O2"
_cell_formula_units_Z 32
_cell_length_a 11.953176
_cell_length_b 9.090265
_cell_length_c 15.116606
_cell_angle_alpha 90.000000
_cell_angle_beta 93.566780
_cell_angle_gamma 90.000000
_cell_volume 1639.351541
_symmetry_space_group_name_H-M "P 2/M"
_symmetry_group_IT_number 10
_symmetry_cell_setting 'monoclinic'
loop_
_space_group_symop_operation_xyz
x,y,z
-x,y,-z
-x,-y,-z
x,-y,z
loop_
_atom_site_type_symbol
_atom_site_label
_atom_site_fract_x
_atom_site_fract_y
_atom_site_fract_z
Si Si1 0.740826 0.175452 0.322342
Si Si2 0.073528 0.828917 0.919449
Si Si3 0.981057 0.827379 0.279423
Si Si4 0.627505 0.824383 0.495800
Si Si5 0.411292 0.167928 0.845387
Si Si6 0.778570 0.824671 0.663293
Si Si7 0.708794 0.673516 0.018167
Si Si8 0.331290 0.168318 0.162325
O O1 0.867649 0.238813 0.317705
O O2 0.682765 0.236660 0.408311
O O3 0.668711 0.230152 0.235451
O O4 0.741207 0.000000 0.324564
O O5 0.008816 0.793587 0.825061
O O6 0.183767 0.730358 0.923339
O O7 0.107852 0.000000 0.925992
O O8 0.000000 0.782709 0.000000
O O9 0.092644 0.765509 0.333653
O O10 0.976225 0.000000 0.293913
O O11 0.500000 0.765432 0.500000
O O12 0.705363 0.761869 0.578680
O O13 0.626325 0.000000 0.496441
O O14 0.398374 0.264568 0.933559
O O15 0.536692 0.181425 0.816788
O O16 0.380944 0.000000 0.867923
O O17 0.724475 0.769484 0.751796
O O18 0.776482 0.000000 0.660328
O O19 0.704502 0.500000 0.015903
O O20 0.712506 0.732942 0.919320
O O21 0.295106 0.000000 0.141554
#
# Coordination Sequence:
#
# PCOD8061730 Si02
#       8
#     4   4   4   4   4   4   4   4
#     4   9  16  27  46  71 100 135 172 214 265 315
#     4  10  19  34  56  76 101 141 185 224 261 310
#     4   9  16  27  45  69  99 133 170 213 257 309
#     4   9  16  26  42  69 106 140 168 207 262 316
#     4  10  19  34  54  74 101 139 183 222 260 317
#     4   9  17  29  46  73 104 133 171 212 260 315
#     4  12  24  35  50  76 109 139 173 222 275 324
#     4  10  20  34  53  74 100 139 183 224 263 314
#
# _framework density 19.519912999999999
#
# number of rings (size 3 to 8) (size 9 to 14) (size 15 to 20)
#    0.000    2.250    1.250    3.000    0.000    7.750 
#    0.000    2.500    0.000    0.000    0.000    0.875 
#    0.000    4.000    0.000    0.000    0.000    0.000 
#
# Total GULP energy -396750.398639 kJ/mol
# GULP energy per Si atom -12398.449957 kJ/mol
# Density = 1.947549 g / cm^3
# Si number density = 19.519913 Si / 1000 Ang^3
#
#
#
# Elastic Constant Matrix: (Units=GPa)
#
#
# Indices 1 2 3 4 5 6 
#
# 1 124.0892 15.3707 54.6352 0.0000 2.6540 0.0000
# 2 15.3707 44.8135 21.7424 0.0000 1.6512 0.0000
# 3 54.6352 21.7424 126.9619 0.0000 -2.7938 0.0000
# 4 0.0000 0.0000 0.0000 1.9612 0.0000 1.3779
# 5 2.6540 1.6512 -2.7938 0.0000 41.1947 0.0000
# 6 0.0000 0.0000 0.0000 1.3779 0.0000 4.0472
#
#
#
# Elastic Compliance Matrix: (Units=1/GPa)
#
#
# Indices 1 2 3 4 5 6 
#
# 1 0.010061 -0.001428 -0.004104 0.000000 -0.000869 0.000000
# 2 -0.001428 0.024605 -0.003624 0.000000 -0.001140 0.000000
# 3 -0.004104 -0.003624 0.010288 0.000000 0.001107 0.000000
# 4 0.000000 0.000000 0.000000 0.670205 0.000000 -0.228175
# 5 -0.000869 -0.001140 0.001107 0.000000 0.024452 0.000000
# 6 0.000000 0.000000 0.000000 -0.228175 0.000000 0.324768
#
#
# Mechanical properties :
#
#
# Convention : Reuss Voigt Hill
#
# Bulk Modulus (GPa) = 37.53590 53.26237 45.39913
# Shear Modulus (GPa) = 4.58055 23.04838 13.81447
#
# Velocity S-wave (km/s) = 1.53353 3.43995 2.66317
# Velocity P-wave (km/s) = 4.73359 6.56682 5.72407
#
# Compressibility (1/GPa) = 0.02664116
#
# Stress axis : x y z
#
# Youngs Moduli (GPa) = 99.39165 40.64245 97.20445
#
# Poissons Ratio (x) = 0.05802 0.39895
# Poissons Ratio (y) = 0.14189 0.35230
# Poissons Ratio (z) = 0.40793 0.14730
#
# Static dielectric constant tensor:
#      x y z
#    x 3.904330 0.000000 -0.033470 
#    y 0.000000 2.845340 0.000000 
#    z -0.033470 0.000000 3.718110 
# 
# 
# High freq. dielectric constant tensor:
#      x y z
#    x 1.779590 0.000000 -0.001710 
#    y 0.000000 1.678190 0.000000 
#    z -0.001710 0.000000 1.767610 
# 
# From -- ./inp_files/49805.got.cif
#   From: 2010.06.25/outbox.cif.g09.slc.cpg/sg10_25_cif.got.tgz:49805.got - 2010.06.27 22:07:45.
