data_PCOD8061041
_publ_section_title
;
Structure prediction by ZEFSAII (Michael W. Deem and Ramdas Pophale) SiO2 
 PCOD8061041
Probable space group: P 2/M
;
_chemical_formula_sum "Si O2"
_cell_formula_units_Z 32
_cell_length_a 20.476560
_cell_length_b 9.212496
_cell_length_c 14.275238
_cell_angle_alpha 90.000000
_cell_angle_beta 43.690317
_cell_angle_gamma 90.000000
_cell_volume 1860.137239
_symmetry_space_group_name_H-M "P 2/M"
_symmetry_group_IT_number 10
_symmetry_cell_setting 'monoclinic'
loop_
_space_group_symop_operation_xyz
x,y,z
-x,y,-z
-x,-y,-z
x,-y,z
loop_
_atom_site_type_symbol
_atom_site_label
_atom_site_fract_x
_atom_site_fract_y
_atom_site_fract_z
Si Si1 0.838087 0.833720 0.864088
Si Si2 0.395258 0.326625 0.586153
Si Si3 0.777127 0.329827 0.596429
Si Si4 0.288484 0.665730 0.875366
Si Si5 0.691615 0.171143 0.856817
Si Si6 0.967938 0.168548 0.429999
Si Si7 0.366930 0.330850 0.409506
Si Si8 0.557982 0.332714 0.123964
O O1 0.779275 0.788631 0.833133
O O2 0.947857 0.802711 0.730488
O O3 0.819074 0.000000 0.906535
O O4 0.804491 0.746967 0.990352
O O5 0.500000 0.267258 0.500000
O O6 0.396118 0.500000 0.589245
O O7 0.321457 0.269293 0.741068
O O8 0.362100 0.264933 0.519399
O O9 0.780876 0.500000 0.616575
O O10 0.711003 0.249325 0.739163
O O11 0.881769 0.265793 0.485092
O O12 0.731011 0.301070 0.542429
O O13 0.258079 0.500000 0.896672
O O14 0.375490 0.685159 0.855353
O O15 0.681446 0.000000 0.851477
O O16 0.595182 0.234811 0.999824
O O17 0.000000 0.217086 0.500000
O O18 0.937005 0.000000 0.464132
O O19 0.388361 0.500000 0.398607
O O20 0.455535 0.268908 0.258429
O O21 0.554019 0.500000 0.094660
#
# Coordination Sequence:
#
# PCOD8061041 Si02
#       8
#     4   4   4   4   4   4   4   4
#     4   9  18  32  51  71  96 128 158 198 253 299
#     4   9  14  26  50  77 101 130 166 202 242 289
#     4  11  22  33  48  74 103 132 164 206 251 292
#     4   9  16  26  49  80 101 121 161 208 241 280
#     4  10  19  33  49  68  98 136 171 202 240 294
#     4  10  19  36  56  72  93 128 169 205 249 300
#     4   9  18  31  47  71 106 137 163 200 252 299
#     4   9  16  29  48  72 100 131 166 205 242 284
#
# _framework density 17.203030999999999
#
# number of rings (size 3 to 8) (size 9 to 14) (size 15 to 20)
#    0.000    2.500    2.500    0.750    0.000    1.750 
#    0.000    3.750    0.000    3.375    0.000    5.250 
#    0.000    0.000    0.000    0.000    0.000    0.000 
#
# Total GULP energy -396762.659688 kJ/mol
# GULP energy per Si atom -12398.833115 kJ/mol
# Density = 1.716388 g / cm^3
# Si number density = 17.203031 Si / 1000 Ang^3
#
#
#
# Elastic Constant Matrix: (Units=GPa)
#
#
# Indices 1 2 3 4 5 6 
#
# 1 85.3161 36.0317 55.4109 0.0000 5.1489 0.0000
# 2 36.0317 57.2328 44.2448 0.0000 3.9181 0.0000
# 3 55.4109 44.2448 120.5203 0.0000 10.0222 0.0000
# 4 0.0000 0.0000 0.0000 15.4023 0.0000 -2.7963
# 5 5.1489 3.9181 10.0222 0.0000 23.3883 0.0000
# 6 0.0000 0.0000 0.0000 -2.7963 0.0000 13.3390
#
#
#
# Elastic Compliance Matrix: (Units=1/GPa)
#
#
# Indices 1 2 3 4 5 6 
#
# 1 0.018578 -0.007109 -0.005901 0.000000 -0.000370 0.000000
# 2 -0.007109 0.027118 -0.006677 0.000000 -0.000117 0.000000
# 3 -0.005901 -0.006677 0.013751 0.000000 -0.003475 0.000000
# 4 0.000000 0.000000 0.000000 0.067494 0.000000 0.014149
# 5 -0.000370 -0.000117 -0.003475 0.000000 0.044346 0.000000
# 6 0.000000 0.000000 0.000000 0.014149 0.000000 0.077934
#
#
# Mechanical properties :
#
#
# Convention : Reuss Voigt Hill
#
# Bulk Modulus (GPa) = 49.81944 59.38266 54.60105
# Shear Modulus (GPa) = 16.93267 18.91805 17.92536
#
# Velocity S-wave (km/s) = 3.14073 3.31976 3.23149
# Velocity P-wave (km/s) = 6.49422 7.02055 6.76250
#
# Compressibility (1/GPa) = 0.02007249
#
# Stress axis : x y z
#
# Youngs Moduli (GPa) = 53.82576 36.87586 72.72345
#
# Poissons Ratio (x) = 0.26215 0.42915
# Poissons Ratio (y) = 0.38265 0.48559
# Poissons Ratio (z) = 0.31763 0.24623
#
# Static dielectric constant tensor:
#      x y z
#    x 3.048320 0.000000 0.080500 
#    y 0.000000 3.003210 0.000000 
#    z 0.080500 0.000000 3.381270 
# 
# 
# High freq. dielectric constant tensor:
#      x y z
#    x 1.639180 0.000000 0.002650 
#    y 0.000000 1.638810 0.000000 
#    z 0.002650 0.000000 1.672700 
# 
# From -- ./inp_files/69986.got.cif
#   From: 2010.06.25/outbox.cif.g09.slc.cpg/sg10_35_cif.got.tgz:69986.got - 2010.06.27 22:07:45.
