data_PCOD8061081
_publ_section_title
;
Structure prediction by ZEFSAII (Michael W. Deem and Ramdas Pophale) SiO2 
 PCOD8061081
Probable space group: P 2/M
;
_chemical_formula_sum "Si O2"
_cell_formula_units_Z 32
_cell_length_a 15.526003
_cell_length_b 8.807261
_cell_length_c 14.145119
_cell_angle_alpha 90.000000
_cell_angle_beta 91.051005
_cell_angle_gamma 90.000000
_cell_volume 1933.900240
_symmetry_space_group_name_H-M "P 2/M"
_symmetry_group_IT_number 10
_symmetry_cell_setting 'monoclinic'
loop_
_space_group_symop_operation_xyz
x,y,z
-x,y,-z
-x,-y,-z
x,-y,z
loop_
_atom_site_type_symbol
_atom_site_label
_atom_site_fract_x
_atom_site_fract_y
_atom_site_fract_z
Si Si1 0.588018 0.176666 0.906363
Si Si2 0.164489 0.177822 0.384545
Si Si3 0.820100 0.821026 0.401365
Si Si4 0.502728 0.675954 0.610495
Si Si5 0.596541 0.680259 0.098775
Si Si6 0.338477 0.175337 0.291097
Si Si7 0.346557 0.820591 0.715330
Si Si8 0.007580 0.328284 0.612120
O O1 0.499653 0.262823 0.880884
O O2 0.653013 0.201041 0.820937
O O3 0.567421 0.000000 0.922499
O O4 0.630481 0.248170 0.001122
O O5 0.187477 0.235948 0.490573
O O6 0.242112 0.224063 0.317029
O O7 0.077361 0.254285 0.343308
O O8 0.147766 0.000000 0.385432
O O9 0.735906 0.763129 0.344831
O O10 0.905191 0.754333 0.352609
O O11 0.826924 0.000000 0.396907
O O12 0.500000 0.711435 0.500000
O O13 0.484082 0.500000 0.632098
O O14 0.596510 0.719467 0.650111
O O15 0.432241 0.778060 0.660567
O O16 0.597435 0.500000 0.091335
O O17 0.657978 0.736626 0.183985
O O18 0.356183 0.000000 0.318916
O O19 0.346059 0.000000 0.731871
O O20 0.012901 0.500000 0.646688
O O21 0.000000 0.311486 0.500000
#
# Coordination Sequence:
#
# PCOD8061081 Si02
#       8
#     4   4   4   4   4   4   4   4
#     4  10  19  33  52  72  94 124 164 206 246 288
#     4   9  17  31  49  71  97 127 163 199 237 283
#     4   9  18  31  49  70  95 128 164 201 238 281
#     4  11  23  34  45  66  99 135 166 198 238 285
#     4  11  21  33  50  71  96 126 160 203 253 294
#     4  10  20  33  51  72  95 128 166 203 240 284
#     4  11  21  34  51  71  95 128 168 205 242 288
#     4   9  17  29  46  69  96 126 159 198 242 283
#
# _framework density 16.546870999999999
#
# number of rings (size 3 to 8) (size 9 to 14) (size 15 to 20)
#    0.000    2.000    1.250    4.125    0.000    5.500 
#    0.000    2.500    0.000    0.000    0.000    0.875 
#    0.000    7.000    0.000    0.000    0.000    0.000 
#
# Total GULP energy -396855.366431 kJ/mol
# GULP energy per Si atom -12401.730201 kJ/mol
# Density = 1.650921 g / cm^3
# Si number density = 16.546871 Si / 1000 Ang^3
#
#
#
# Elastic Constant Matrix: (Units=GPa)
#
#
# Indices 1 2 3 4 5 6 
#
# 1 100.3894 25.6053 43.7107 0.0000 -15.8695 0.0000
# 2 25.6053 61.0049 32.7382 0.0000 -4.0417 0.0000
# 3 43.7107 32.7382 89.1144 0.0000 -10.2305 0.0000
# 4 0.0000 0.0000 0.0000 20.0734 0.0000 5.8039
# 5 -15.8695 -4.0417 -10.2305 0.0000 13.9070 0.0000
# 6 0.0000 0.0000 0.0000 5.8039 0.0000 11.1503
#
#
#
# Elastic Compliance Matrix: (Units=1/GPa)
#
#
# Indices 1 2 3 4 5 6 
#
# 1 0.014720 -0.002797 -0.004760 0.000000 0.012484 0.000000
# 2 -0.002797 0.020952 -0.006545 0.000000 -0.001918 0.000000
# 3 -0.004760 -0.006545 0.016513 0.000000 0.004814 0.000000
# 4 0.000000 0.000000 0.000000 0.058643 0.000000 -0.030524
# 5 0.012484 -0.001918 0.004814 0.000000 0.089136 0.000000
# 6 0.000000 0.000000 0.000000 -0.030524 0.000000 0.105572
#
#
# Mechanical properties :
#
#
# Convention : Reuss Voigt Hill
#
# Bulk Modulus (GPa) = 41.69917 50.51302 46.10610
# Shear Modulus (GPa) = 14.63128 18.92310 16.77719
#
# Velocity S-wave (km/s) = 2.97683 3.38539 3.18766
# Velocity P-wave (km/s) = 6.08857 6.77309 6.43993
#
# Compressibility (1/GPa) = 0.02398129
#
# Stress axis : x y z
#
# Youngs Moduli (GPa) = 67.93263 47.72904 60.55708
#
# Poissons Ratio (x) = 0.13351 0.28823
# Poissons Ratio (y) = 0.19002 0.39636
# Poissons Ratio (z) = 0.32333 0.31239
#
# Static dielectric constant tensor:
#      x y z
#    x 3.103630 0.000000 0.011900 
#    y 0.000000 3.147320 0.000000 
#    z 0.011900 0.000000 3.145860 
# 
# 
# High freq. dielectric constant tensor:
#      x y z
#    x 1.623320 0.000000 -0.002520 
#    y 0.000000 1.646460 0.000000 
#    z -0.002520 0.000000 1.618880 
# 
# From -- ./inp_files/66143.got.cif
#   From: 2010.06.25/outbox.cif.g09.slc.cpg/sg10_34_cif.got.tgz:66143.got - 2010.06.27 22:07:45.
