data_PCOD8061629
_publ_section_title
;
Structure prediction by ZEFSAII (Michael W. Deem and Ramdas Pophale) SiO2 
 PCOD8061629
Probable space group: P 2/M
;
_chemical_formula_sum "Si O2"
_cell_formula_units_Z 32
_cell_length_a 27.333309
_cell_length_b 8.826472
_cell_length_c 19.413425
_cell_angle_alpha 90.000000
_cell_angle_beta 159.317964
_cell_angle_gamma 90.000000
_cell_volume 1654.167607
_symmetry_space_group_name_H-M "P 2/M"
_symmetry_group_IT_number 10
_symmetry_cell_setting 'monoclinic'
loop_
_space_group_symop_operation_xyz
x,y,z
-x,y,-z
-x,-y,-z
x,-y,z
loop_
_atom_site_type_symbol
_atom_site_label
_atom_site_fract_x
_atom_site_fract_y
_atom_site_fract_z
Si Si1 0.878327 0.677397 0.919442
Si Si2 0.449250 0.177980 0.724873
Si Si3 0.170130 0.677429 0.992388
Si Si4 0.831084 0.178387 0.718957
Si Si5 0.050697 0.326464 0.639701
Si Si6 0.303453 0.177498 0.044719
Si Si7 0.890419 0.327226 0.561480
Si Si8 0.585598 0.319448 0.178835
O O1 0.878885 0.500000 0.902868
O O2 0.799458 0.710269 0.887434
O O3 0.036345 0.732682 0.134742
O O4 0.799287 0.768199 0.755335
O O5 0.296504 0.222228 0.497653
O O6 0.556649 0.234158 0.808085
O O7 0.483342 0.260701 0.841547
O O8 0.464419 0.000000 0.756957
O O9 0.167546 0.500000 0.971926
O O10 0.018772 0.747162 0.772762
O O11 0.290183 0.749393 0.103355
O O12 0.860450 0.000000 0.758011
O O13 0.102730 0.500000 0.703074
O O14 0.000000 0.263876 0.500000
O O15 0.921235 0.313467 0.520878
O O16 0.175932 0.222698 0.828831
O O17 0.305969 0.000000 0.058819
O O18 0.877691 0.500000 0.568521
O O19 0.741902 0.250027 0.380687
O O20 0.585860 0.500000 0.179073
O O21 0.500000 0.259382 0.000000
#
# Coordination Sequence:
#
# PCOD8061629 Si02
#       8
#     4   4   4   4   4   4   4   4
#     4  10  19  33  57  87 115 137 172 226 275 312
#     4  10  23  40  54  73 109 149 180 217 266 319
#     4   9  18  34  55  77 105 140 175 218 271 320
#     4  10  20  35  55  81 112 148 184 213 259 325
#     4   9  18  32  54  76 100 134 171 217 271 318
#     4  10  21  36  53  75 104 139 182 225 264 312
#     4   8  15  30  48  73 104 129 164 212 259 310
#     4  10  21  34  54  81 105 135 178 223 267 320
#
# _framework density 19.345078000000001
#
# number of rings (size 3 to 8) (size 9 to 14) (size 15 to 20)
#    0.000    2.500    0.000    3.375    1.750    4.500 
#    0.000    4.375    0.000    3.750    0.000    0.000 
#    0.000    0.000    0.000    0.000    0.000    0.000 
#
# Total GULP energy -396734.316555 kJ/mol
# GULP energy per Si atom -12397.947392 kJ/mol
# Density = 1.930105 g / cm^3
# Si number density = 19.345078 Si / 1000 Ang^3
#
#
#
# Elastic Constant Matrix: (Units=GPa)
#
#
# Indices 1 2 3 4 5 6 
#
# 1 122.1897 28.2629 32.7749 0.0000 -11.5113 0.0000
# 2 28.2629 33.4120 15.0107 0.0000 -0.1594 0.0000
# 3 32.7749 15.0107 56.7651 0.0000 -1.7860 0.0000
# 4 0.0000 0.0000 0.0000 21.2483 0.0000 0.7654
# 5 -11.5113 -0.1594 -1.7860 0.0000 31.2293 0.0000
# 6 0.0000 0.0000 0.0000 0.7654 0.0000 26.7340
#
#
#
# Elastic Compliance Matrix: (Units=1/GPa)
#
#
# Indices 1 2 3 4 5 6 
#
# 1 0.011553 -0.007731 -0.004501 0.000000 0.003962 0.000000
# 2 -0.007731 0.039142 -0.005981 0.000000 -0.002992 0.000000
# 3 -0.004501 -0.005981 0.021783 0.000000 -0.000444 0.000000
# 4 0.000000 0.000000 0.000000 0.047111 0.000000 -0.001349
# 5 0.003962 -0.002992 -0.000444 0.000000 0.033441 0.000000
# 6 0.000000 0.000000 0.000000 -0.001349 0.000000 0.037444
#
#
# Mechanical properties :
#
#
# Convention : Reuss Voigt Hill
#
# Bulk Modulus (GPa) = 27.73851 40.49599 34.11725
# Shear Modulus (GPa) = 20.92771 24.93019 22.92895
#
# Velocity S-wave (km/s) = 3.29266 3.59375 3.44650
# Velocity P-wave (km/s) = 5.36893 6.18054 5.78897
#
# Compressibility (1/GPa) = 0.03605096
#
# Stress axis : x y z
#
# Youngs Moduli (GPa) = 86.55853 25.54810 45.90739
#
# Poissons Ratio (x) = 0.19752 0.20664
# Poissons Ratio (y) = 0.66921 0.27456
# Poissons Ratio (z) = 0.38963 0.15280
#
# Static dielectric constant tensor:
#      x y z
#    x 3.728000 0.000000 -0.001050 
#    y 0.000000 3.280100 0.000000 
#    z -0.001050 0.000000 3.492330 
# 
# 
# High freq. dielectric constant tensor:
#      x y z
#    x 1.767100 0.000000 -0.005440 
#    y 0.000000 1.732790 0.000000 
#    z -0.005440 0.000000 1.735140 
# 
# From -- ./inp_files/87221.got.cif
#   From: 2010.06.25/outbox.cif.g09.slc.cpg/sg10_44_cif.got.tgz:87221.got - 2010.06.27 22:07:45.
