data_PCOD8061864
_publ_section_title
;
Structure prediction by ZEFSAII (Michael W. Deem and Ramdas Pophale) SiO2 
 PCOD8061864
Probable space group: P 2/M
;
_chemical_formula_sum "Si O2"
_cell_formula_units_Z 28
_cell_length_a 31.192466
_cell_length_b 8.795625
_cell_length_c 31.192464
_cell_angle_alpha 90.000000
_cell_angle_beta 9.551414
_cell_angle_gamma 90.000000
_cell_volume 1420.030767
_symmetry_space_group_name_H-M "P 2/M"
_symmetry_group_IT_number 10
_symmetry_cell_setting 'monoclinic'
loop_
_space_group_symop_operation_xyz
x,y,z
-x,y,-z
-x,-y,-z
x,-y,z
loop_
_atom_site_type_symbol
_atom_site_label
_atom_site_fract_x
_atom_site_fract_y
_atom_site_fract_z
Si Si1 0.617042 0.319232 0.617045
Si Si2 0.236553 0.177095 0.236551
Si Si3 0.809714 0.319760 0.809706
Si Si4 0.524892 0.320904 0.524897
Si Si5 0.903828 0.823848 0.903826
Si Si6 0.954546 0.824322 0.954539
Si Si7 0.333956 0.680715 0.333948
O O1 0.615575 0.500000 0.615574
O O2 0.855605 0.256098 0.355392
O O3 0.641595 0.261503 0.641604
O O4 0.355393 0.256099 0.855603
O O5 0.214831 0.271112 0.214835
O O6 0.000000 0.224563 0.500000
O O7 0.230820 0.000000 0.230812
O O8 0.500000 0.224567 0.000000
O O9 0.810742 0.500000 0.810736
O O10 0.071771 0.253327 0.571869
O O11 0.571878 0.253328 0.071762
O O12 0.500000 0.275463 0.500000
O O13 0.528240 0.500000 0.528249
O O14 0.785954 0.253535 0.285854
O O15 0.285850 0.253533 0.785958
O O16 0.929191 0.801493 0.929183
O O17 0.897297 0.000000 0.897301
O O18 0.961087 0.000000 0.961078
O O19 0.333289 0.500000 0.333283
#
# Coordination Sequence:
#
# PCOD8061864 Si02
#       7
#     4   4   4   4   4   4   4
#     4  11  22  39  64  89 115 156 203 238 285 356
#     4  10  21  36  52  73 105 140 173 216 268 321
#     4  10  19  34  56  79 105 138 177 224 274 323
#     4  11  24  41  62  90 122 153 192 247 299 342
#     4  11  24  41  59  87 125 156 191 246 300 338
#     4  11  24  41  62  87 119 160 199 238 290 353
#     4   9  19  35  55  81 111 140 177 230 280 323
#
# _framework density 19.717883
#
# number of rings (size 3 to 8) (size 9 to 14) (size 15 to 20)
#    0.000    1.571    0.000    4.714    0.000   11.429 
#    0.000    4.286    0.000    0.000    0.000    0.000 
#    0.000    0.000    0.000    0.000    0.000    0.000 
#
# Total GULP energy -347342.839746 kJ/mol
# GULP energy per Si atom -12405.101419 kJ/mol
# Density = 1.967300 g / cm^3
# Si number density = 19.717883 Si / 1000 Ang^3
#
#
#
# Elastic Constant Matrix: (Units=GPa)
#
#
# Indices 1 2 3 4 5 6 
#
# 1 124.7652 53.9608 77.9220 0.0000 -4.1151 0.0000
# 2 53.9608 70.1451 54.1123 0.0000 -0.0134 0.0000
# 3 77.9220 54.1123 209.3033 0.0000 -3.3393 0.0000
# 4 0.0000 0.0000 0.0000 43.8759 0.0000 63.7916
# 5 -4.1151 -0.0134 -3.3393 0.0000 46.6883 0.0000
# 6 0.0000 0.0000 0.0000 63.7916 0.0000 767.6605
#
#
#
# Elastic Compliance Matrix: (Units=1/GPa)
#
#
# Indices 1 2 3 4 5 6 
#
# 1 0.013307 -0.008028 -0.002863 0.000000 0.000966 0.000000
# 2 -0.008028 0.022656 -0.002883 0.000000 -0.000907 0.000000
# 3 -0.002863 -0.002883 0.006593 0.000000 0.000218 0.000000
# 4 0.000000 0.000000 0.000000 0.025924 0.000000 -0.002154
# 5 0.000966 -0.000907 0.000218 0.000000 0.021519 0.000000
# 6 0.000000 0.000000 0.000000 -0.002154 0.000000 0.001482
#
#
# Mechanical properties :
#
#
# Convention : Reuss Voigt Hill
#
# Bulk Modulus (GPa) = 66.63518 86.24485 76.44001
# Shear Modulus (GPa) = 40.31262 186.19285 113.25274
#
# Velocity S-wave (km/s) = 4.52649 9.72797 7.58691
# Velocity P-wave (km/s) = 7.82218 13.03887 10.75171
#
# Compressibility (1/GPa) = 0.01500709
#
# Stress axis : x y z
#
# Youngs Moduli (GPa) = 75.14726 44.13899 151.68555
#
# Poissons Ratio (x) = 0.35434 0.43432
# Poissons Ratio (y) = 0.60327 0.43732
# Poissons Ratio (z) = 0.21517 0.12726
#
# Static dielectric constant tensor:
#      x y z
#    x 3.779860 0.000000 -0.002560 
#    y 0.000000 3.549420 0.000000 
#    z -0.002560 0.000000 3.808910 
# 
# 
# High freq. dielectric constant tensor:
#      x y z
#    x 1.787780 0.000000 -0.000580 
#    y 0.000000 1.760650 0.000000 
#    z -0.000580 0.000000 1.794380 
# 
# From -- ./inp_files/95983.got.cif
#   From: 2010.06.25/outbox.cif.g09.slc.cpg/sg10_48_cif.got.tgz:95983.got - 2010.06.27 22:07:45.
