data_PCOD8061328
_publ_section_title
;
Structure prediction by ZEFSAII (Michael W. Deem and Ramdas Pophale) SiO2 
 PCOD8061328
Probable space group: P 2/M
;
_chemical_formula_sum "Si O2"
_cell_formula_units_Z 32
_cell_length_a 14.656610
_cell_length_b 9.095455
_cell_length_c 12.343597
_cell_angle_alpha 90.000000
_cell_angle_beta 90.962645
_cell_angle_gamma 90.000000
_cell_volume 1645.274609
_symmetry_space_group_name_H-M "P 2/M"
_symmetry_group_IT_number 10
_symmetry_cell_setting 'monoclinic'
loop_
_space_group_symop_operation_xyz
x,y,z
-x,y,-z
-x,-y,-z
x,-y,z
loop_
_atom_site_type_symbol
_atom_site_label
_atom_site_fract_x
_atom_site_fract_y
_atom_site_fract_z
Si Si1 0.467445 0.169360 0.619467
Si Si2 0.239621 0.667555 0.457616
Si Si3 0.008084 0.328625 0.163263
Si Si4 0.196909 0.830633 0.120137
Si Si5 0.824787 0.830598 0.121755
Si Si6 0.657221 0.167433 0.704695
Si Si7 0.048626 0.329328 0.400093
Si Si8 0.288304 0.330089 0.694763
O O1 0.500000 0.221278 0.500000
O O2 0.548150 0.186994 0.711472
O O3 0.387222 0.267512 0.666928
O O4 0.435167 0.000000 0.611994
O O5 0.259662 0.500000 0.427861
O O6 0.322472 0.758983 0.410896
O O7 0.150945 0.733380 0.393927
O O8 0.226666 0.687235 0.586100
O O9 0.005496 0.500000 0.130136
O O10 0.106480 0.265006 0.136305
O O11 0.991079 0.306313 0.290850
O O12 0.924131 0.244802 0.106191
O O13 0.282847 0.768989 0.193160
O O14 0.173975 0.000000 0.147802
O O15 0.226043 0.817340 0.994822
O O16 0.761110 0.753929 0.208951
O O17 0.839794 0.000000 0.155431
O O18 0.684827 0.000000 0.694082
O O19 0.061962 0.500000 0.429058
O O20 0.000000 0.249409 0.500000
O O21 0.298312 0.500000 0.728871
#
# Coordination Sequence:
#
# PCOD8061328 Si02
#       8
#     4   4   4   4   4   4   4   4
#     4  10  20  36  60  89 119 151 186 230 288 350
#     4  10  19  33  54  81 114 149 183 226 286 341
#     4  11  21  35  59  87 115 151 195 240 286 339
#     4  10  22  40  60  83 114 155 199 241 283 333
#     4  11  24  41  59  80 114 157 198 241 288 337
#     4  10  20  36  59  85 114 146 188 234 278 338
#     4   9  17  30  48  74 112 150 182 221 275 335
#     4  11  23  38  60  88 118 151 191 239 288 345
#
# _framework density 19.449641
#
# number of rings (size 3 to 8) (size 9 to 14) (size 15 to 20)
#    0.000    1.750    2.500    2.250    0.000    5.750 
#    0.000    0.625    0.000    5.625    0.000    0.000 
#    0.000    0.000    0.000    0.000    0.000    0.000 
#
# Total GULP energy -396594.905727 kJ/mol
# GULP energy per Si atom -12393.590804 kJ/mol
# Density = 1.940537 g / cm^3
# Si number density = 19.449641 Si / 1000 Ang^3
#
#
#
# Elastic Constant Matrix: (Units=GPa)
#
#
# Indices 1 2 3 4 5 6 
#
# 1 89.1280 42.4475 35.2325 0.0000 11.2830 0.0000
# 2 42.4475 85.2566 36.8969 0.0000 0.5131 0.0000
# 3 35.2325 36.8969 86.0777 0.0000 9.9500 0.0000
# 4 0.0000 0.0000 0.0000 23.0101 0.0000 -2.3608
# 5 11.2830 0.5131 9.9500 0.0000 23.2344 0.0000
# 6 0.0000 0.0000 0.0000 -2.3608 0.0000 27.8065
#
#
#
# Elastic Compliance Matrix: (Units=1/GPa)
#
#
# Indices 1 2 3 4 5 6 
#
# 1 0.016532 -0.006865 -0.003065 0.000000 -0.006564 0.000000
# 2 -0.006865 0.017385 -0.005243 0.000000 0.005195 0.000000
# 3 -0.003065 -0.005243 0.015712 0.000000 -0.005124 0.000000
# 4 0.000000 0.000000 0.000000 0.043841 0.000000 0.003722
# 5 -0.006564 0.005195 -0.005124 0.000000 0.048307 0.000000
# 6 0.000000 0.000000 0.000000 0.003722 0.000000 0.036279
#
#
# Mechanical properties :
#
#
# Convention : Reuss Voigt Hill
#
# Bulk Modulus (GPa) = 51.85972 54.40179 53.13075
# Shear Modulus (GPa) = 23.27445 24.53590 23.90517
#
# Velocity S-wave (km/s) = 3.46302 3.55563 3.50963
# Velocity P-wave (km/s) = 6.53540 6.69985 6.61813
#
# Compressibility (1/GPa) = 0.01928279
#
# Stress axis : x y z
#
# Youngs Moduli (GPa) = 60.48921 57.52185 63.64722
#
# Poissons Ratio (x) = 0.39487 0.19510
# Poissons Ratio (y) = 0.41524 0.33367
# Poissons Ratio (z) = 0.18542 0.30156
#
# Static dielectric constant tensor:
#      x y z
#    x 3.594860 0.000000 0.217700 
#    y 0.000000 3.456570 0.000000 
#    z 0.217700 0.000000 3.691640 
# 
# 
# High freq. dielectric constant tensor:
#      x y z
#    x 1.756530 0.000000 0.011740 
#    y 0.000000 1.745790 0.000000 
#    z 0.011740 0.000000 1.758560 
# 
# From -- ./inp_files/49914.got.cif
#   From: 2010.06.25/outbox.cif.g09.slc.cpg/sg10_25_cif.got.tgz:49914.got - 2010.06.27 22:07:45.
