data_PCOD8061174
_publ_section_title
;
Structure prediction by ZEFSAII (Michael W. Deem and Ramdas Pophale) SiO2 
 PCOD8061174
Probable space group: P 2/M
;
_chemical_formula_sum "Si O2"
_cell_formula_units_Z 28
_cell_length_a 11.588953
_cell_length_b 8.929950
_cell_length_c 19.324229
_cell_angle_alpha 90.000000
_cell_angle_beta 54.088644
_cell_angle_gamma 90.000000
_cell_volume 1619.721796
_symmetry_space_group_name_H-M "P 2/M"
_symmetry_group_IT_number 10
_symmetry_cell_setting 'monoclinic'
loop_
_space_group_symop_operation_xyz
x,y,z
-x,y,-z
-x,-y,-z
x,-y,z
loop_
_atom_site_type_symbol
_atom_site_label
_atom_site_fract_x
_atom_site_fract_y
_atom_site_fract_z
Si Si1 0.117007 0.327449 0.017109
Si Si2 0.609256 0.674979 0.901435
Si Si3 0.827377 0.676774 0.321666
Si Si4 0.428660 0.322347 0.689810
Si Si5 0.406929 0.323401 0.850830
Si Si6 0.097091 0.823350 0.166851
Si Si7 0.378847 0.677270 0.493503
O O1 0.135297 0.500000 0.033335
O O2 0.066346 0.235198 0.100880
O O3 0.265046 0.259138 0.936950
O O4 0.000000 0.308829 0.000000
O O5 0.645153 0.500000 0.895296
O O6 0.542502 0.715685 0.850405
O O7 0.752618 0.767625 0.857437
O O8 0.500000 0.722674 0.000000
O O9 0.856448 0.500000 0.306134
O O10 0.710642 0.725829 0.305062
O O11 0.772626 0.722869 0.418925
O O12 0.973209 0.764674 0.260404
O O13 0.429765 0.500000 0.695666
O O14 0.425455 0.251146 0.767906
O O15 0.577069 0.268308 0.599625
O O16 0.386036 0.500000 0.851293
O O17 0.096089 0.000000 0.167161
O O18 0.500000 0.745206 0.500000
O O19 0.389056 0.500000 0.491688
#
# Coordination Sequence:
#
# PCOD8061174 Si02
#       7
#     4   4   4   4   4   4   4
#     4  10  19  33  53  75  99 128 160 193 239 296
#     4  10  19  35  54  68  89 123 171 214 243 285
#     4   9  16  29  50  74 101 131 160 191 237 296
#     4   8  13  24  47  80 105 119 149 197 248 293
#     4   9  16  27  47  73  96 121 154 200 245 285
#     4  12  24  34  47  69 100 132 166 206 244 284
#     4   7  11  21  42  73 103 125 148 189 240 290
#
# _framework density 17.286919999999999
#
# number of rings (size 3 to 8) (size 9 to 14) (size 15 to 20)
#    0.000    2.714    1.429    3.857    0.000    2.857 
#    0.000    0.000    0.000    5.571    0.000    6.000 
#    0.000    0.000    0.000    0.000    0.000    0.000 
#
# Total GULP energy -346926.459680 kJ/mol
# GULP energy per Si atom -12390.230703 kJ/mol
# Density = 1.724757 g / cm^3
# Si number density = 17.286920 Si / 1000 Ang^3
#
#
#
# Elastic Constant Matrix: (Units=GPa)
#
#
# Indices 1 2 3 4 5 6 
#
# 1 68.4419 29.6522 44.0499 0.0000 -12.9262 0.0000
# 2 29.6522 50.8362 38.7652 0.0000 -12.5725 0.0000
# 3 44.0499 38.7652 141.4845 0.0000 -19.2404 0.0000
# 4 0.0000 0.0000 0.0000 0.7622 0.0000 3.5598
# 5 -12.9262 -12.5725 -19.2404 0.0000 20.6613 0.0000
# 6 0.0000 0.0000 0.0000 3.5598 0.0000 4.3366
#
#
#
# Elastic Compliance Matrix: (Units=1/GPa)
#
#
# Indices 1 2 3 4 5 6 
#
# 1 0.021644 -0.008584 -0.003728 0.000000 0.004847 0.000000
# 2 -0.008584 0.030242 -0.004398 0.000000 0.008936 0.000000
# 3 -0.003728 -0.004398 0.010022 0.000000 0.004324 0.000000
# 4 0.000000 0.000000 0.000000 -0.463000 0.000000 0.380056
# 5 0.004847 0.008936 0.004324 0.000000 0.060896 0.000000
# 6 0.000000 0.000000 0.000000 0.380056 0.000000 -0.081378
#
#
# Mechanical properties :
#
#
# Convention : Reuss Voigt Hill
#
# Bulk Modulus (GPa) = 35.10216 53.96638 44.53427
# Shear Modulus (GPa) = -13.20448 15.03838 0.91695
#
# Velocity S-wave (km/s) = -2.76677 2.95265 0.72910
# Velocity P-wave (km/s) = 3.18481 6.55057 5.15039
#
# Compressibility (1/GPa) = 0.02848828
#
# Stress axis : x y z
#
# Youngs Moduli (GPa) = 46.20136 33.06694 99.78429
#
# Poissons Ratio (x) = 0.28383 0.37198
# Poissons Ratio (y) = 0.39657 0.43887
# Poissons Ratio (z) = 0.17223 0.14544
#
# Static dielectric constant tensor:
#      x y z
#    x 3.091800 0.000000 0.104890 
#    y 0.000000 2.731680 0.000000 
#    z 0.104890 0.000000 3.793410 
# 
# 
# High freq. dielectric constant tensor:
#      x y z
#    x 1.645110 0.000000 -0.001160 
#    y 0.000000 1.613770 0.000000 
#    z -0.001160 0.000000 1.686760 
# 
# From -- ./inp_files/83308.got.cif
#   From: 2010.06.25/outbox.cif.g09.slc.cpg/sg10_42_cif.got.tgz:83308.got - 2010.06.27 22:07:45.
