data_PCOD8061135
_publ_section_title
;
Structure prediction by ZEFSAII (Michael W. Deem and Ramdas Pophale) SiO2 
 PCOD8061135
Probable space group: P 2/M
;
_chemical_formula_sum "Si O2"
_cell_formula_units_Z 32
_cell_length_a 14.884168
_cell_length_b 8.741415
_cell_length_c 23.837510
_cell_angle_alpha 90.000000
_cell_angle_beta 29.978838
_cell_angle_gamma 90.000000
_cell_volume 1549.741441
_symmetry_space_group_name_H-M "P 2/M"
_symmetry_group_IT_number 10
_symmetry_cell_setting 'monoclinic'
loop_
_space_group_symop_operation_xyz
x,y,z
-x,y,-z
-x,-y,-z
x,-y,z
loop_
_atom_site_type_symbol
_atom_site_label
_atom_site_fract_x
_atom_site_fract_y
_atom_site_fract_z
Si Si1 0.068058 0.331124 0.823256
Si Si2 0.185622 0.674625 0.881583
Si Si3 0.232911 0.822146 0.073071
Si Si4 0.714323 0.180775 0.525585
Si Si5 0.595467 0.819485 0.819978
Si Si6 0.556334 0.676932 0.410788
Si Si7 0.915278 0.180133 0.729111
Si Si8 0.433551 0.682292 0.285614
O O1 0.979806 0.500000 0.867512
O O2 0.187475 0.312254 0.814312
O O3 0.230177 0.305397 0.693164
O O4 0.909656 0.210073 0.899612
O O5 0.179411 0.500000 0.906825
O O6 0.365745 0.748897 0.809744
O O7 0.000000 0.759059 0.000000
O O8 0.155650 0.747986 0.172945
O O9 0.258267 0.000000 0.069217
O O10 0.424777 0.756544 0.948419
O O11 0.533764 0.226037 0.590162
O O12 0.705459 0.251844 0.593071
O O13 0.890792 0.243717 0.396485
O O14 0.726860 0.000000 0.525676
O O15 0.771967 0.776887 0.759203
O O16 0.617906 0.735813 0.748550
O O17 0.576144 0.000000 0.819703
O O18 0.500000 0.746999 0.500000
O O19 0.501893 0.500000 0.430527
O O20 0.929907 0.000000 0.729711
O O21 0.428772 0.500000 0.292390
#
# Coordination Sequence:
#
# PCOD8061135 Si02
#       8
#     4   4   4   4   4   4   4   4
#     4  10  19  33  52  78 112 150 184 217 277 345
#     4   9  17  31  52  75 103 143 184 220 270 338
#     4  10  20  36  60  89 117 147 191 245 292 342
#     4  11  22  37  59  85 117 155 198 243 286 341
#     4  10  21  39  62  86 113 149 196 245 294 349
#     4  10  20  35  55  80 113 153 193 232 281 341
#     4   9  20  39  61  84 114 155 194 235 297 357
#     4  11  22  39  60  83 118 155 194 242 290 348
#
# _framework density 20.648606000000001
#
# number of rings (size 3 to 8) (size 9 to 14) (size 15 to 20)
#    0.000    2.000    1.250    2.625    0.000    4.250 
#    0.000    5.000    0.000    4.125    0.000    0.000 
#    0.000    0.000    0.000    0.000    0.000    0.000 
#
# Total GULP energy -396533.895358 kJ/mol
# GULP energy per Si atom -12391.684230 kJ/mol
# Density = 2.060161 g / cm^3
# Si number density = 20.648606 Si / 1000 Ang^3
#
#
#
# Elastic Constant Matrix: (Units=GPa)
#
#
# Indices 1 2 3 4 5 6 
#
# 1 75.8607 18.8020 33.3262 0.0000 -4.3135 0.0000
# 2 18.8020 37.9989 24.2251 0.0000 4.8810 0.0000
# 3 33.3262 24.2251 115.2771 0.0000 6.9044 0.0000
# 4 0.0000 0.0000 0.0000 20.7163 0.0000 0.8727
# 5 -4.3135 4.8810 6.9044 0.0000 34.9496 0.0000
# 6 0.0000 0.0000 0.0000 0.8727 0.0000 23.4657
#
#
#
# Elastic Compliance Matrix: (Units=1/GPa)
#
#
# Indices 1 2 3 4 5 6 
#
# 1 0.016575 -0.006324 -0.003682 0.000000 0.003656 0.000000
# 2 -0.006324 0.033118 -0.004865 0.000000 -0.004445 0.000000
# 3 -0.003682 -0.004865 0.010877 0.000000 -0.001924 0.000000
# 4 0.000000 0.000000 0.000000 0.048347 0.000000 -0.001798
# 5 0.003656 -0.004445 -0.001924 0.000000 0.030065 0.000000
# 6 0.000000 0.000000 0.000000 -0.001798 0.000000 0.042682
#
#
# Mechanical properties :
#
#
# Convention : Reuss Voigt Hill
#
# Bulk Modulus (GPa) = 32.43790 42.42704 37.43247
# Shear Modulus (GPa) = 22.55492 26.01187 24.28340
#
# Velocity S-wave (km/s) = 3.30861 3.55313 3.43305
# Velocity P-wave (km/s) = 5.50813 6.11758 5.82084
#
# Compressibility (1/GPa) = 0.03082814
#
# Stress axis : x y z
#
# Youngs Moduli (GPa) = 60.33301 30.19492 91.93894
#
# Poissons Ratio (x) = 0.19094 0.33850
# Poissons Ratio (y) = 0.38152 0.44731
# Poissons Ratio (z) = 0.22213 0.14691
#
# Static dielectric constant tensor:
#      x y z
#    x 3.693460 0.000000 0.072290 
#    y 0.000000 3.316230 0.000000 
#    z 0.072290 0.000000 4.295650 
# 
# 
# High freq. dielectric constant tensor:
#      x y z
#    x 1.808010 0.000000 0.006590 
#    y 0.000000 1.762870 0.000000 
#    z 0.006590 0.000000 1.830590 
# 
# From -- ./inp_files/66488.got.cif
#   From: 2010.06.25/outbox.cif.g09.slc.cpg/sg10_34_cif.got.tgz:66488.got - 2010.06.27 22:07:45.
