data_PCOD8061796
_publ_section_title
;
Structure prediction by ZEFSAII (Michael W. Deem and Ramdas Pophale) SiO2 
 PCOD8061796
Probable space group: P 2/M
;
_chemical_formula_sum "Si O2"
_cell_formula_units_Z 24
_cell_length_a 20.718536
_cell_length_b 8.802930
_cell_length_c 9.175083
_cell_angle_alpha 90.000000
_cell_angle_beta 48.006042
_cell_angle_gamma 90.000000
_cell_volume 1243.686741
_symmetry_space_group_name_H-M "P 2/M"
_symmetry_group_IT_number 10
_symmetry_cell_setting 'monoclinic'
loop_
_space_group_symop_operation_xyz
x,y,z
-x,y,-z
-x,-y,-z
x,-y,z
loop_
_atom_site_type_symbol
_atom_site_label
_atom_site_fract_x
_atom_site_fract_y
_atom_site_fract_z
Si Si1 0.581451 0.320110 0.964940
Si Si2 0.253127 0.319764 0.468888
Si Si3 0.095139 0.679367 0.517916
Si Si4 0.745021 0.179184 0.220265
Si Si5 0.100261 0.679889 0.182752
Si Si6 0.412331 0.679400 0.715005
O O1 0.573217 0.500000 0.980346
O O2 0.669922 0.269138 0.754434
O O3 0.500000 0.250058 0.000000
O O4 0.579987 0.259162 0.131981
O O5 0.251582 0.500000 0.495385
O O6 0.163846 0.258253 0.531662
O O7 0.269061 0.240534 0.597185
O O8 0.101981 0.500000 0.499250
O O9 0.117871 0.738060 0.320994
O O10 0.998159 0.725837 0.712233
O O11 0.668925 0.239380 0.233741
O O12 0.742935 0.000000 0.225782
O O13 0.837470 0.234458 0.021800
O O14 0.115137 0.500000 0.145773
O O15 0.500000 0.725268 0.500000
O O16 0.395696 0.500000 0.733587
#
# Coordination Sequence:
#
# PCOD8061796 Si02
#       6
#     4   4   4   4   4   4
#     4   9  17  31  56  88 112 131 167 219 269 320
#     4  10  19  34  55  78 107 143 183 225 268 316
#     4   8  16  32  59  87 105 131 179 236 281 320
#     4  12  25  37  50  76 114 151 184 218 263 319
#     4   9  17  35  60  83 106 135 178 229 280 328
#     4  10  20  37  63  88 108 136 176 222 272 322
#
# _framework density 19.297463
#
# number of rings (size 3 to 8) (size 9 to 14) (size 15 to 20)
#    0.000    2.333    0.000    4.500    0.000    6.333 
#    0.000    9.167    0.000    2.000    0.000    0.000 
#    0.000    0.000    0.000    0.000    0.000    0.000 
#
# Total GULP energy -297602.851242 kJ/mol
# GULP energy per Si atom -12400.118802 kJ/mol
# Density = 1.925354 g / cm^3
# Si number density = 19.297463 Si / 1000 Ang^3
#
#
#
# Elastic Constant Matrix: (Units=GPa)
#
#
# Indices 1 2 3 4 5 6 
#
# 1 176.2977 37.5057 87.6067 0.0000 4.9253 0.0000
# 2 37.5057 40.7229 39.6667 0.0000 -1.4799 0.0000
# 3 87.6067 39.6667 163.0030 0.0000 5.6581 0.0000
# 4 0.0000 0.0000 0.0000 -2.4011 0.0000 -2.1933
# 5 4.9253 -1.4799 5.6581 0.0000 35.2267 0.0000
# 6 0.0000 0.0000 0.0000 -2.1933 0.0000 5.1784
#
#
#
# Elastic Compliance Matrix: (Units=1/GPa)
#
#
# Indices 1 2 3 4 5 6 
#
# 1 0.008302 -0.004399 -0.003363 0.000000 -0.000805 0.000000
# 2 -0.004399 0.034760 -0.006201 0.000000 0.003071 0.000000
# 3 -0.003363 -0.006201 0.009497 0.000000 -0.001316 0.000000
# 4 0.000000 0.000000 0.000000 -0.300296 0.000000 -0.127191
# 5 -0.000805 0.003071 -0.001316 0.000000 0.028840 0.000000
# 6 0.000000 0.000000 0.000000 -0.127191 0.000000 0.139240
#
#
# Mechanical properties :
#
#
# Convention : Reuss Voigt Hill
#
# Bulk Modulus (GPa) = 40.59825 78.84241 59.72033
# Shear Modulus (GPa) = -114.89105 21.95045 -46.47030
#
# Velocity S-wave (km/s) = -7.72438 3.37631 -4.91257
# Velocity P-wave (km/s) = 7.64663 7.49295 1.07858
#
# Compressibility (1/GPa) = 0.02463160
#
# Stress axis : x y z
#
# Youngs Moduli (GPa) = 120.45319 28.76906 105.29391
#
# Poissons Ratio (x) = 0.12656 0.35415
# Poissons Ratio (y) = 0.52989 0.65293
# Poissons Ratio (z) = 0.40514 0.17840
#
# Static dielectric constant tensor:
#      x y z
#    x 3.958010 0.000000 -0.041760 
#    y 0.000000 3.042210 0.000000 
#    z -0.041760 0.000000 3.677420 
# 
# 
# High freq. dielectric constant tensor:
#      x y z
#    x 1.768500 0.000000 -0.003290 
#    y 0.000000 1.699130 0.000000 
#    z -0.003290 0.000000 1.764640 
# 
# From -- ./inp_files/27324.got.cif
#   From: 2010.06.25/outbox.cif.g09.slc.cpg/sg10_14_cif.got.tgz:27324.got - 2010.06.27 22:07:45.
