data_PCOD8061532
_publ_section_title
;
Structure prediction by ZEFSAII (Michael W. Deem and Ramdas Pophale) SiO2 
 PCOD8061532
Probable space group: P 2/M
;
_chemical_formula_sum "Si O2"
_cell_formula_units_Z 28
_cell_length_a 15.711099
_cell_length_b 9.165977
_cell_length_c 11.766985
_cell_angle_alpha 90.000000
_cell_angle_beta 123.305052
_cell_angle_gamma 90.000000
_cell_volume 1416.222740
_symmetry_space_group_name_H-M "P 2/M"
_symmetry_group_IT_number 10
_symmetry_cell_setting 'monoclinic'
loop_
_space_group_symop_operation_xyz
x,y,z
-x,y,-z
-x,-y,-z
x,-y,z
loop_
_atom_site_type_symbol
_atom_site_label
_atom_site_fract_x
_atom_site_fract_y
_atom_site_fract_z
Si Si1 0.045771 0.828398 0.653238
Si Si2 0.328056 0.669175 0.631129
Si Si3 0.693167 0.329804 0.891645
Si Si4 0.111359 0.333028 0.089948
Si Si5 0.508463 0.172559 0.637586
Si Si6 0.254516 0.666233 0.820493
Si Si7 0.125863 0.666109 0.356853
O O1 0.159709 0.773250 0.748931
O O2 0.000000 0.777030 0.500000
O O3 0.974591 0.761671 0.698357
O O4 0.045946 0.000000 0.667187
O O5 0.348829 0.500000 0.616316
O O6 0.413456 0.767537 0.637901
O O7 0.327874 0.695687 0.766720
O O8 0.219236 0.720864 0.502359
O O9 0.680594 0.500000 0.849565
O O10 0.804614 0.268871 0.935248
O O11 0.610333 0.238031 0.764304
O O12 0.680529 0.306116 0.017545
O O13 0.094687 0.500000 0.041844
O O14 0.158069 0.317007 0.249694
O O15 0.000000 0.254735 0.000000
O O16 0.500000 0.219622 0.500000
O O17 0.511312 0.000000 0.652972
O O18 0.213645 0.500000 0.787058
O O19 0.098395 0.500000 0.367344
#
# Coordination Sequence:
#
# PCOD8061532 Si02
#       7
#     4   4   4   4   4   4   4
#     4  11  22  34  52  82 121 162 197 233 285 348
#     4  10  21  37  60  88 114 147 197 248 293 344
#     4  10  21  39  64  89 117 152 192 243 296 345
#     4   9  17  31  54  85 115 145 186 235 287 339
#     4  11  25  43  62  85 116 154 194 238 292 353
#     4  10  21  38  61  89 118 152 195 244 294 345
#     4  10  19  33  56  82 112 151 195 245 294 341
#
# _framework density 19.770903000000001
#
# number of rings (size 3 to 8) (size 9 to 14) (size 15 to 20)
#    0.000    1.857    1.429    2.571    0.000    7.429 
#    0.000    3.571    0.000    1.714    0.000    0.000 
#    0.000    0.000    0.000    0.000    0.000    0.000 
#
# Total GULP energy -347248.940575 kJ/mol
# GULP energy per Si atom -12401.747878 kJ/mol
# Density = 1.972590 g / cm^3
# Si number density = 19.770903 Si / 1000 Ang^3
#
#
#
# Elastic Constant Matrix: (Units=GPa)
#
#
# Indices 1 2 3 4 5 6 
#
# 1 132.9399 48.1547 62.3146 0.0000 -5.7231 0.0000
# 2 48.1547 59.9786 42.8180 0.0000 2.2160 0.0000
# 3 62.3146 42.8180 125.5966 0.0000 -4.8464 0.0000
# 4 0.0000 0.0000 0.0000 23.8076 0.0000 1.3057
# 5 -5.7231 2.2160 -4.8464 0.0000 30.6470 0.0000
# 6 0.0000 0.0000 0.0000 1.3057 0.0000 15.9413
#
#
#
# Elastic Compliance Matrix: (Units=1/GPa)
#
#
# Indices 1 2 3 4 5 6 
#
# 1 0.011762 -0.007162 -0.003310 0.000000 0.002191 0.000000
# 2 -0.007162 0.026637 -0.005688 0.000000 -0.004163 0.000000
# 3 -0.003310 -0.005688 0.011606 0.000000 0.001629 0.000000
# 4 0.000000 0.000000 0.000000 0.042193 0.000000 -0.003456
# 5 0.002191 -0.004163 0.001629 0.000000 0.033597 0.000000
# 6 0.000000 0.000000 0.000000 -0.003456 0.000000 0.063013
#
#
# Mechanical properties :
#
#
# Convention : Reuss Voigt Hill
#
# Bulk Modulus (GPa) = 56.54202 69.45441 62.99822
# Shear Modulus (GPa) = 22.02416 25.09436 23.55926
#
# Velocity S-wave (km/s) = 3.34124 3.56653 3.45572
# Velocity P-wave (km/s) = 6.59893 7.22261 6.91780
#
# Compressibility (1/GPa) = 0.01768596
#
# Stress axis : x y z
#
# Youngs Moduli (GPa) = 85.01935 37.54166 86.16050
#
# Poissons Ratio (x) = 0.26886 0.28517
# Poissons Ratio (y) = 0.60887 0.49012
# Poissons Ratio (z) = 0.28139 0.21355
#
# Static dielectric constant tensor:
#      x y z
#    x 3.714180 0.000000 -0.110450 
#    y 0.000000 3.340280 0.000000 
#    z -0.110450 0.000000 3.732030 
# 
# 
# High freq. dielectric constant tensor:
#      x y z
#    x 1.776720 0.000000 -0.009480 
#    y 0.000000 1.742750 0.000000 
#    z -0.009480 0.000000 1.780590 
# 
# From -- ./inp_files/50086.got.cif
#   From: 2010.06.25/outbox.cif.g09.slc.cpg/sg10_26_cif.got.tgz:50086.got - 2010.06.27 22:07:45.
