data_PCOD8061872
_publ_section_title
;
Structure prediction by ZEFSAII (Michael W. Deem and Ramdas Pophale) SiO2 
 PCOD8061872
Probable space group: P 2/M
;
_chemical_formula_sum "Si O2"
_cell_formula_units_Z 28
_cell_length_a 26.387299
_cell_length_b 8.895192
_cell_length_c 9.182446
_cell_angle_alpha 90.000000
_cell_angle_beta 137.980798
_cell_angle_gamma 90.000000
_cell_volume 1442.716958
_symmetry_space_group_name_H-M "P 2/M"
_symmetry_group_IT_number 10
_symmetry_cell_setting 'monoclinic'
loop_
_space_group_symop_operation_xyz
x,y,z
-x,y,-z
-x,-y,-z
x,-y,z
loop_
_atom_site_type_symbol
_atom_site_label
_atom_site_fract_x
_atom_site_fract_y
_atom_site_fract_z
Si Si1 0.071809 0.178047 0.962769
Si Si2 0.197278 0.324959 0.051365
Si Si3 0.660598 0.326365 0.451171
Si Si4 0.904034 0.822373 0.661165
Si Si5 0.485686 0.169129 0.798570
Si Si6 0.766874 0.178681 0.174909
Si Si7 0.635426 0.323109 0.067894
O O1 0.116377 0.266465 0.933279
O O2 0.983802 0.224426 0.758754
O O3 0.083497 0.000000 0.967653
O O4 0.101159 0.234186 0.183445
O O5 0.192324 0.500000 0.001510
O O6 0.221520 0.232102 0.963450
O O7 0.257927 0.292469 0.307371
O O8 0.637776 0.500000 0.412105
O O9 0.597375 0.236827 0.408562
O O10 0.662890 0.274810 0.287822
O O11 0.835098 0.755346 0.420122
O O12 0.899985 0.000000 0.655726
O O13 0.488821 0.000000 0.744131
O O14 0.500000 0.174405 0.000000
O O15 0.549783 0.267776 0.855861
O O16 0.687938 0.242230 0.063122
O O17 0.765031 0.000000 0.175960
O O18 0.639666 0.500000 0.052499
#
# Coordination Sequence:
#
# PCOD8061872 Si02
#       7
#     4   4   4   4   4   4   4
#     4   9  17  35  60  82 103 133 174 218 264 312
#     4  11  23  37  51  75 110 144 177 214 259 310
#     4   9  19  35  55  77 105 140 175 213 261 313
#     4   8  17  34  58  83 105 132 172 220 265 310
#     4   9  17  30  52  82 109 133 169 216 260 306
#     4  11  22  36  53  76 106 141 179 217 259 309
#     4  10  19  34  56  80 106 137 172 214 265 315
#
# _framework density 19.407827000000001
#
# number of rings (size 3 to 8) (size 9 to 14) (size 15 to 20)
#    0.000    2.429    0.000    3.429    0.000    4.000 
#    0.000    7.143    0.000    4.286    0.000    0.000 
#    0.000    0.000    0.000    0.000    0.000    0.000 
#
# Total GULP energy -347234.179262 kJ/mol
# GULP energy per Si atom -12401.220688 kJ/mol
# Density = 1.936365 g / cm^3
# Si number density = 19.407827 Si / 1000 Ang^3
#
#
#
# Elastic Constant Matrix: (Units=GPa)
#
#
# Indices 1 2 3 4 5 6 
#
# 1 144.7029 46.5627 27.2532 0.0000 13.0178 0.0000
# 2 46.5627 74.1222 17.2584 0.0000 6.2692 0.0000
# 3 27.2532 17.2584 21.7955 0.0000 7.5627 0.0000
# 4 0.0000 0.0000 0.0000 22.5504 0.0000 0.1690
# 5 13.0178 6.2692 7.5627 0.0000 25.5530 0.0000
# 6 0.0000 0.0000 0.0000 0.1690 0.0000 27.5001
#
#
#
# Elastic Compliance Matrix: (Units=1/GPa)
#
#
# Indices 1 2 3 4 5 6 
#
# 1 0.010022 -0.004134 -0.008735 0.000000 -0.001506 0.000000
# 2 -0.004134 0.018247 -0.009425 0.000000 0.000419 0.000000
# 3 -0.008735 -0.009425 0.069006 0.000000 -0.013661 0.000000
# 4 0.000000 0.000000 0.000000 0.044347 0.000000 -0.000273
# 5 -0.001506 0.000419 -0.013661 0.000000 0.043842 0.000000
# 6 0.000000 0.000000 0.000000 -0.000273 0.000000 0.036365
#
#
# Mechanical properties :
#
#
# Convention : Reuss Voigt Hill
#
# Bulk Modulus (GPa) = 18.97985 46.97435 32.97710
# Shear Modulus (GPa) = 17.60692 25.09044 21.34868
#
# Velocity S-wave (km/s) = 3.01526 3.59945 3.32023
# Velocity P-wave (km/s) = 4.68221 6.44446 5.63268
#
# Compressibility (1/GPa) = 0.05268745
#
# Stress axis : x y z
#
# Youngs Moduli (GPa) = 99.78390 54.80261 14.49150
#
# Poissons Ratio (x) = 0.22657 0.12658
# Poissons Ratio (y) = 0.41254 0.13658
# Poissons Ratio (z) = 0.87161 0.51649
#
# Static dielectric constant tensor:
#      x y z
#    x 3.508010 0.000000 0.171360 
#    y 0.000000 3.399900 0.000000 
#    z 0.171360 0.000000 3.649120 
# 
# 
# High freq. dielectric constant tensor:
#      x y z
#    x 1.759130 0.000000 0.017550 
#    y 0.000000 1.745470 0.000000 
#    z 0.017550 0.000000 1.742940 
# 
# From -- ./inp_files/37291.got.cif
#   From: 2010.06.25/outbox.cif.g09.slc.cpg/sg10_19_cif.got.tgz:37291.got - 2010.06.27 22:07:45.
