data_PCOD8061792
_publ_section_title
;
Structure prediction by ZEFSAII (Michael W. Deem and Ramdas Pophale) SiO2 
 PCOD8061792
Probable space group: P 2/M
;
_chemical_formula_sum "Si O2"
_cell_formula_units_Z 28
_cell_length_a 18.549378
_cell_length_b 8.622382
_cell_length_c 23.227240
_cell_angle_alpha 90.000000
_cell_angle_beta 23.884509
_cell_angle_gamma 90.000000
_cell_volume 1504.166713
_symmetry_space_group_name_H-M "P 2/M"
_symmetry_group_IT_number 10
_symmetry_cell_setting 'monoclinic'
loop_
_space_group_symop_operation_xyz
x,y,z
-x,y,-z
-x,-y,-z
x,-y,z
loop_
_atom_site_type_symbol
_atom_site_label
_atom_site_fract_x
_atom_site_fract_y
_atom_site_fract_z
Si Si1 0.704113 0.181755 0.357225
Si Si2 0.000416 0.317971 0.065410
Si Si3 0.830695 0.173749 0.664518
Si Si4 0.608851 0.680468 0.733694
Si Si5 0.770026 0.180922 0.006697
Si Si6 0.062420 0.681748 0.585839
Si Si7 0.932591 0.317230 0.286437
O O1 0.500000 0.229676 0.500000
O O2 0.810215 0.276345 0.231409
O O3 0.774044 0.229080 0.369218
O O4 0.734249 0.000000 0.325453
O O5 0.036251 0.500000 0.045037
O O6 0.157885 0.228121 0.983133
O O7 0.000000 0.262915 0.000000
O O8 0.677283 0.279155 0.747996
O O9 0.000000 0.178388 0.500000
O O10 0.889386 0.238757 0.683669
O O11 0.756755 0.000000 0.725952
O O12 0.561691 0.500000 0.764814
O O13 0.756207 0.729188 0.579009
O O14 0.436763 0.780698 0.845343
O O15 0.876515 0.274359 0.879863
O O16 0.801570 0.000000 0.973610
O O17 0.030830 0.500000 0.604236
O O18 0.074594 0.738555 0.642473
O O19 0.901592 0.500000 0.303618
#
# Coordination Sequence:
#
# PCOD8061792 Si02
#       7
#     4   4   4   4   4   4   4
#     4  10  21  36  54  78 107 138 172 211 259 310
#     4  10  21  37  57  79 103 135 175 215 257 307
#     4   9  17  30  50  77 107 137 170 211 260 308
#     4  10  19  34  55  78 106 138 175 216 256 304
#     4  11  22  36  54  77 107 140 173 211 260 311
#     4   9  19  34  54  79 104 135 174 215 259 306
#     4  10  20  36  56  77 104 138 175 213 257 309
#
# _framework density 18.614958000000001
#
# number of rings (size 3 to 8) (size 9 to 14) (size 15 to 20)
#    0.000    2.143    0.000    5.143    0.000    6.857 
#    0.000    5.000    0.000    4.286    0.000    0.000 
#    0.000    0.000    0.000    0.000    0.000    0.000 
#
# Total GULP energy -347268.582063 kJ/mol
# GULP energy per Si atom -12402.449359 kJ/mol
# Density = 1.857259 g / cm^3
# Si number density = 18.614958 Si / 1000 Ang^3
#
#
#
# Elastic Constant Matrix: (Units=GPa)
#
#
# Indices 1 2 3 4 5 6 
#
# 1 148.2474 25.7740 65.3138 0.0000 5.2563 0.0000
# 2 25.7740 47.5534 14.4775 0.0000 -3.6497 0.0000
# 3 65.3138 14.4775 69.8156 0.0000 -11.9411 0.0000
# 4 0.0000 0.0000 0.0000 23.6075 0.0000 -11.4182
# 5 5.2563 -3.6497 -11.9411 0.0000 27.3690 0.0000
# 6 0.0000 0.0000 0.0000 -11.4182 0.0000 25.7050
#
#
#
# Elastic Compliance Matrix: (Units=1/GPa)
#
#
# Indices 1 2 3 4 5 6 
#
# 1 0.013756 -0.004016 -0.013594 0.000000 -0.009108 0.000000
# 2 -0.004016 0.023646 -0.000513 0.000000 0.003701 0.000000
# 3 -0.013594 -0.000513 0.029806 0.000000 0.015547 0.000000
# 4 0.000000 0.000000 0.000000 0.053951 0.000000 0.023965
# 5 -0.009108 0.003701 0.015547 0.000000 0.045563 0.000000
# 6 0.000000 0.000000 0.000000 0.023965 0.000000 0.049548
#
#
# Mechanical properties :
#
#
# Convention : Reuss Voigt Hill
#
# Bulk Modulus (GPa) = 32.29825 52.97188 42.63506
# Shear Modulus (GPa) = 19.02319 26.00636 22.51477
#
# Velocity S-wave (km/s) = 3.20023 3.74179 3.48156
# Velocity P-wave (km/s) = 5.57169 6.86924 6.25420
#
# Compressibility (1/GPa) = 0.03096143
#
# Stress axis : x y z
#
# Youngs Moduli (GPa) = 72.69718 42.29042 33.55010
#
# Poissons Ratio (x) = 0.16984 0.45607
# Poissons Ratio (y) = 0.29196 0.01723
# Poissons Ratio (z) = 0.98823 0.02171
#
# Static dielectric constant tensor:
#      x y z
#    x 3.618040 0.000000 -0.026130 
#    y 0.000000 3.468460 0.000000 
#    z -0.026130 0.000000 3.248760 
# 
# 
# High freq. dielectric constant tensor:
#      x y z
#    x 1.730900 0.000000 -0.008270 
#    y 0.000000 1.733780 0.000000 
#    z -0.008270 0.000000 1.702810 
# 
# From -- ./inp_files/89874.got.cif
#   From: 2010.06.25/outbox.cif.g09.slc.cpg/sg10_45_cif.got.tgz:89874.got - 2010.06.27 22:07:45.
