data_PCOD8061618
_publ_section_title
;
Structure prediction by ZEFSAII (Michael W. Deem and Ramdas Pophale) SiO2 
 PCOD8061618
Probable space group: P 2/M
;
_chemical_formula_sum "Si O2"
_cell_formula_units_Z 32
_cell_length_a 27.674595
_cell_length_b 8.887341
_cell_length_c 21.436058
_cell_angle_alpha 90.000000
_cell_angle_beta 161.207870
_cell_angle_gamma 90.000000
_cell_volume 1698.387750
_symmetry_space_group_name_H-M "P 2/M"
_symmetry_group_IT_number 10
_symmetry_cell_setting 'monoclinic'
loop_
_space_group_symop_operation_xyz
x,y,z
-x,y,-z
-x,-y,-z
x,-y,z
loop_
_atom_site_type_symbol
_atom_site_label
_atom_site_fract_x
_atom_site_fract_y
_atom_site_fract_z
Si Si1 0.590359 0.325787 0.795021
Si Si2 0.632848 0.675799 0.282412
Si Si3 0.157832 0.822387 0.214643
Si Si4 0.186440 0.823836 0.604454
Si Si5 0.676044 0.822065 0.460801
Si Si6 0.284950 0.674356 0.849377
Si Si7 0.120317 0.327957 0.775752
Si Si8 0.460545 0.177412 0.521437
O O1 0.543316 0.500000 0.741327
O O2 0.485563 0.234408 0.714135
O O3 0.575740 0.263662 0.707152
O O4 0.761749 0.302929 0.024618
O O5 0.664959 0.500000 0.323320
O O6 0.694259 0.741910 0.293470
O O7 0.717033 0.749795 0.444431
O O8 0.457708 0.714070 0.071892
O O9 0.198699 0.772286 0.335172
O O10 0.290569 0.772027 0.329934
O O11 0.142418 0.000000 0.193392
O O12 0.000000 0.747985 0.000000
O O13 0.216153 0.776350 0.711505
O O14 0.018637 0.779612 0.379750
O O15 0.208308 0.000000 0.623522
O O16 0.669903 0.000000 0.446165
O O17 0.265961 0.500000 0.807730
O O18 0.195031 0.715154 0.801550
O O19 0.064081 0.500000 0.705386
O O20 0.500000 0.227084 0.500000
O O21 0.481614 0.000000 0.557586
#
# Coordination Sequence:
#
# PCOD8061618 Si02
#       8
#     4   4   4   4   4   4   4   4
#     4  10  19  35  59  84 110 147 194 232 275 335
#     4  11  22  40  62  83 112 153 193 230 280 342
#     4   8  15  30  52  77 108 144 179 217 266 326
#     4  12  26  39  54  86 120 147 183 237 294 333
#     4  10  19  33  57  86 114 144 187 237 281 327
#     4  10  21  40  64  84 106 148 195 229 278 346
#     4  10  21  40  61  82 111 151 193 231 279 345
#     4   9  18  33  53  80 111 145 184 228 280 331
#
# _framework density 18.841398999999999
#
# number of rings (size 3 to 8) (size 9 to 14) (size 15 to 20)
#    0.000    2.000    1.250    3.750    0.000    5.750 
#    2.250    0.000    0.000    9.375    0.000    0.000 
#    0.000    0.000    0.000    0.000    0.000    0.000 
#
# Total GULP energy -396877.853034 kJ/mol
# GULP energy per Si atom -12402.432907 kJ/mol
# Density = 1.879852 g / cm^3
# Si number density = 18.841399 Si / 1000 Ang^3
#
#
#
# Elastic Constant Matrix: (Units=GPa)
#
#
# Indices 1 2 3 4 5 6 
#
# 1 75.2894 25.7006 28.4714 0.0000 -12.8986 0.0000
# 2 25.7006 70.7713 43.7224 0.0000 -2.8418 0.0000
# 3 28.4714 43.7224 89.8872 0.0000 -13.9144 0.0000
# 4 0.0000 0.0000 0.0000 26.5153 0.0000 -3.5300
# 5 -12.8986 -2.8418 -13.9144 0.0000 27.2197 0.0000
# 6 0.0000 0.0000 0.0000 -3.5300 0.0000 32.0755
#
#
#
# Elastic Compliance Matrix: (Units=1/GPa)
#
#
# Indices 1 2 3 4 5 6 
#
# 1 0.016711 -0.004506 -0.002116 0.000000 0.006367 0.000000
# 2 -0.004506 0.021669 -0.009875 0.000000 -0.004921 0.000000
# 3 -0.002116 -0.009875 0.017683 0.000000 0.007006 0.000000
# 4 0.000000 0.000000 0.000000 0.038275 0.000000 0.004212
# 5 0.006367 -0.004921 0.007006 0.000000 0.042823 0.000000
# 6 0.000000 0.000000 0.000000 0.004212 0.000000 0.031640
#
#
# Mechanical properties :
#
#
# Convention : Reuss Voigt Hill
#
# Bulk Modulus (GPa) = 43.34556 47.97075 45.65815
# Shear Modulus (GPa) = 23.86816 26.36567 25.11692
#
# Velocity S-wave (km/s) = 3.56307 3.74484 3.65509
# Velocity P-wave (km/s) = 6.32319 6.64936 6.48832
#
# Compressibility (1/GPa) = 0.02307042
#
# Stress axis : x y z
#
# Youngs Moduli (GPa) = 59.84062 46.14811 56.55149
#
# Poissons Ratio (x) = 0.20793 0.11966
# Poissons Ratio (y) = 0.26963 0.55844
# Poissons Ratio (z) = 0.12662 0.45570
#
# Static dielectric constant tensor:
#      x y z
#    x 3.490680 0.000000 -0.117390 
#    y 0.000000 3.366350 0.000000 
#    z -0.117390 0.000000 3.625360 
# 
# 
# High freq. dielectric constant tensor:
#      x y z
#    x 1.732430 0.000000 -0.009740 
#    y 0.000000 1.721810 0.000000 
#    z -0.009740 0.000000 1.733630 
# 
# From -- ./inp_files/87076.got.cif
#   From: 2010.06.25/outbox.cif.g09.slc.cpg/sg10_44_cif.got.tgz:87076.got - 2010.06.27 22:07:45.
