data_PCOD8061321
_publ_section_title
;
Structure prediction by ZEFSAII (Michael W. Deem and Ramdas Pophale) SiO2 
 PCOD8061321
Probable space group: P 2/M
;
_chemical_formula_sum "Si O2"
_cell_formula_units_Z 32
_cell_length_a 14.519877
_cell_length_b 9.012892
_cell_length_c 21.773132
_cell_angle_alpha 90.000000
_cell_angle_beta 34.774049
_cell_angle_gamma 90.000000
_cell_volume 1625.111070
_symmetry_space_group_name_H-M "P 2/M"
_symmetry_group_IT_number 10
_symmetry_cell_setting 'monoclinic'
loop_
_space_group_symop_operation_xyz
x,y,z
-x,y,-z
-x,-y,-z
x,-y,z
loop_
_atom_site_type_symbol
_atom_site_label
_atom_site_fract_x
_atom_site_fract_y
_atom_site_fract_z
Si Si1 0.816675 0.824569 0.598346
Si Si2 0.438324 0.825218 0.160678
Si Si3 0.032526 0.838333 0.678272
Si Si4 0.244428 0.671278 0.019965
Si Si5 0.269566 0.668481 0.151270
Si Si6 0.654503 0.825993 0.562370
Si Si7 0.588695 0.676001 0.388622
Si Si8 0.071449 0.164847 0.799015
O O1 0.713144 0.776098 0.714216
O O2 0.718254 0.766821 0.592880
O O3 0.000000 0.758386 0.500000
O O4 0.829831 0.000000 0.586221
O O5 0.406171 0.767922 0.108988
O O6 0.464857 0.000000 0.145952
O O7 0.602694 0.750297 0.096222
O O8 0.208712 0.787577 0.562165
O O9 0.024478 0.854881 0.754742
O O10 0.903218 0.718276 0.726451
O O11 0.991740 0.000000 0.670274
O O12 0.236513 0.500000 0.004909
O O13 0.270497 0.690335 0.078289
O O14 0.078968 0.748852 0.087236
O O15 0.304003 0.500000 0.151208
O O16 0.501388 0.733507 0.623051
O O17 0.610015 0.000000 0.588227
O O18 0.500000 0.731099 0.500000
O O19 0.598901 0.500000 0.382274
O O20 0.767469 0.739814 0.284544
O O21 0.093404 0.000000 0.816404
#
# Coordination Sequence:
#
# PCOD8061321 Si02
#       8
#     4   4   4   4   4   4   4   4
#     4   9  19  36  58  82 110 144 185 233 280 318
#     4  11  21  34  54  78 104 139 186 232 274 326
#     4   9  17  29  49  76 105 138 177 221 266 319
#     4  10  21  36  53  76 109 145 179 222 281 337
#     4  10  20  32  49  74 106 143 180 221 275 331
#     4  10  19  34  56  80 108 146 189 231 273 322
#     4  11  22  34  52  81 119 154 181 219 276 334
#     4  10  19  33  54  81 109 140 181 223 267 324
#
# _framework density 19.690961000000001
#
# number of rings (size 3 to 8) (size 9 to 14) (size 15 to 20)
#    0.000    2.000    1.250    3.000    0.000    6.500 
#    0.000    1.250    0.000    3.375    0.000    5.250 
#    0.000    0.000    0.000    0.000    0.000    0.000 
#
# Total GULP energy -396678.887741 kJ/mol
# GULP energy per Si atom -12396.215242 kJ/mol
# Density = 1.964614 g / cm^3
# Si number density = 19.690961 Si / 1000 Ang^3
#
#
#
# Elastic Constant Matrix: (Units=GPa)
#
#
# Indices 1 2 3 4 5 6 
#
# 1 75.7460 34.1731 28.4274 0.0000 -21.5811 0.0000
# 2 34.1731 94.7459 52.3973 0.0000 -16.4805 0.0000
# 3 28.4274 52.3973 111.8737 0.0000 -32.3080 0.0000
# 4 0.0000 0.0000 0.0000 26.5381 0.0000 -10.4497
# 5 -21.5811 -16.4805 -32.3080 0.0000 30.8275 0.0000
# 6 0.0000 0.0000 0.0000 -10.4497 0.0000 23.0220
#
#
#
# Elastic Compliance Matrix: (Units=1/GPa)
#
#
# Indices 1 2 3 4 5 6 
#
# 1 0.018352 -0.005240 0.000992 0.000000 0.011087 0.000000
# 2 -0.005240 0.015757 -0.006704 0.000000 -0.002271 0.000000
# 3 0.000992 -0.006704 0.015763 0.000000 0.013630 0.000000
# 4 0.000000 0.000000 0.000000 0.045882 0.000000 0.020826
# 5 0.011087 -0.002271 0.013630 0.000000 0.053271 0.000000
# 6 0.000000 0.000000 0.000000 0.020826 0.000000 0.052890
#
#
# Mechanical properties :
#
#
# Convention : Reuss Voigt Hill
#
# Bulk Modulus (GPa) = 35.75388 56.92900 46.34144
# Shear Modulus (GPa) = 21.44622 27.23538 24.34080
#
# Velocity S-wave (km/s) = 3.30379 3.72310 3.51969
# Velocity P-wave (km/s) = 5.72279 6.88883 6.33270
#
# Compressibility (1/GPa) = 0.02796899
#
# Stress axis : x y z
#
# Youngs Moduli (GPa) = 54.48947 63.46331 63.44021
#
# Poissons Ratio (x) = 0.33253 -0.06296
# Poissons Ratio (y) = 0.28551 0.42532
# Poissons Ratio (z) = -0.05408 0.42548
#
# Static dielectric constant tensor:
#      x y z
#    x 3.396760 0.000000 -0.207280 
#    y 0.000000 3.571240 0.000000 
#    z -0.207280 0.000000 3.701750 
# 
# 
# High freq. dielectric constant tensor:
#      x y z
#    x 1.738950 0.000000 -0.025620 
#    y 0.000000 1.758020 0.000000 
#    z -0.025620 0.000000 1.768210 
# 
# From -- ./inp_files/89490.got.cif
#   From: 2010.06.25/outbox.cif.g09.slc.cpg/sg10_45_cif.got.tgz:89490.got - 2010.06.27 22:07:45.
