data_PCOD8061416
_publ_section_title
;
Structure prediction by ZEFSAII (Michael W. Deem and Ramdas Pophale) SiO2 
 PCOD8061416
Probable space group: P 2/M
;
_chemical_formula_sum "Si O2"
_cell_formula_units_Z 32
_cell_length_a 30.759956
_cell_length_b 9.148544
_cell_length_c 12.960448
_cell_angle_alpha 90.000000
_cell_angle_beta 26.590112
_cell_angle_gamma 90.000000
_cell_volume 1632.497071
_symmetry_space_group_name_H-M "P 2/M"
_symmetry_group_IT_number 10
_symmetry_cell_setting 'monoclinic'
loop_
_space_group_symop_operation_xyz
x,y,z
-x,y,-z
-x,-y,-z
x,-y,z
loop_
_atom_site_type_symbol
_atom_site_label
_atom_site_fract_x
_atom_site_fract_y
_atom_site_fract_z
Si Si1 0.857315 0.332656 0.108466
Si Si2 0.767109 0.831095 0.115790
Si Si3 0.178816 0.332830 0.386218
Si Si4 0.333517 0.668765 0.374131
Si Si5 0.969529 0.827933 0.175570
Si Si6 0.572237 0.167578 0.636010
Si Si7 0.109512 0.670105 0.304751
Si Si8 0.618289 0.330418 0.960286
O O1 0.891861 0.500000 0.027370
O O2 0.809089 0.285538 0.105454
O O3 0.781636 0.308469 0.362516
O O4 0.949558 0.228926 0.918419
O O5 0.650665 0.817563 0.376647
O O6 0.798721 0.000000 0.067805
O O7 0.808761 0.774761 0.918842
O O8 0.161618 0.500000 0.454403
O O9 0.133779 0.234184 0.571689
O O10 0.125922 0.298364 0.390669
O O11 0.294030 0.298770 0.145316
O O12 0.362147 0.500000 0.330025
O O13 0.394997 0.760620 0.325705
O O14 0.354929 0.721249 0.212725
O O15 0.964589 0.000000 0.187562
O O16 0.000000 0.765842 0.000000
O O17 0.474111 0.241413 0.802910
O O18 0.551830 0.000000 0.704999
O O19 0.129713 0.500000 0.236401
O O20 0.000000 0.712592 0.500000
O O21 0.591074 0.500000 0.017438
#
# Coordination Sequence:
#
# PCOD8061416 Si02
#       8
#     4   4   4   4   4   4   4   4
#     4  10  19  33  55  80 108 144 184 228 276 325
#     4  10  21  37  57  82 111 141 178 225 277 333
#     4  10  22  39  58  82 111 144 187 234 277 328
#     4   9  18  32  52  79 109 144 186 226 268 323
#     4  11  23  36  52  79 115 151 184 220 267 326
#     4  10  21  35  53  80 111 144 183 226 272 323
#     4  10  21  38  61  87 111 138 178 228 280 333
#     4  10  20  35  54  77 108 146 186 228 274 325
#
# _framework density 19.601873000000001
#
# number of rings (size 3 to 8) (size 9 to 14) (size 15 to 20)
#    0.000    2.000    0.000    3.375    0.000    8.250 
#    0.000    0.625    0.000    3.750    0.000    0.000 
#    0.000    0.000    0.000    0.000    0.000    0.000 
#
# Total GULP energy -396730.057095 kJ/mol
# GULP energy per Si atom -12397.814284 kJ/mol
# Density = 1.955726 g / cm^3
# Si number density = 19.601873 Si / 1000 Ang^3
#
#
#
# Elastic Constant Matrix: (Units=GPa)
#
#
# Indices 1 2 3 4 5 6 
#
# 1 85.3230 38.9880 46.0219 0.0000 -12.2971 0.0000
# 2 38.9880 71.1678 54.1398 0.0000 -1.3697 0.0000
# 3 46.0219 54.1398 105.0015 0.0000 -5.8251 0.0000
# 4 0.0000 0.0000 0.0000 36.5401 0.0000 -2.3722
# 5 -12.2971 -1.3697 -5.8251 0.0000 28.2928 0.0000
# 6 0.0000 0.0000 0.0000 -2.3722 0.0000 16.3120
#
#
#
# Elastic Compliance Matrix: (Units=1/GPa)
#
#
# Indices 1 2 3 4 5 6 
#
# 1 0.017872 -0.006555 -0.004087 0.000000 0.006609 0.000000
# 2 -0.006555 0.025575 -0.010523 0.000000 -0.003777 0.000000
# 3 -0.004087 -0.010523 0.016806 0.000000 0.001174 0.000000
# 4 0.000000 0.000000 0.000000 0.027628 0.000000 0.004018
# 5 0.006609 -0.003777 0.001174 0.000000 0.038276 0.000000
# 6 0.000000 0.000000 0.000000 0.004018 0.000000 0.061889
#
#
# Mechanical properties :
#
#
# Convention : Reuss Voigt Hill
#
# Bulk Modulus (GPa) = 55.79364 59.97687 57.88525
# Shear Modulus (GPa) = 21.15499 24.38516 22.77007
#
# Velocity S-wave (km/s) = 3.28873 3.53090 3.41196
# Velocity P-wave (km/s) = 6.55334 6.87655 6.71689
#
# Compressibility (1/GPa) = 0.01792319
#
# Stress axis : x y z
#
# Youngs Moduli (GPa) = 55.95241 39.10081 59.50199
#
# Poissons Ratio (x) = 0.25629 0.24319
# Poissons Ratio (y) = 0.36675 0.62616
# Poissons Ratio (z) = 0.22868 0.41147
#
# Static dielectric constant tensor:
#      x y z
#    x 3.427860 0.000000 -0.045790 
#    y 0.000000 3.523340 0.000000 
#    z -0.045790 0.000000 3.831810 
# 
# 
# High freq. dielectric constant tensor:
#      x y z
#    x 1.745090 0.000000 -0.008090 
#    y 0.000000 1.763720 0.000000 
#    z -0.008090 0.000000 1.769310 
# 
# From -- ./inp_files/58177.got.cif
#   From: 2010.06.25/outbox.cif.g09.slc.cpg/sg10_30_cif.got.tgz:58177.got - 2010.06.27 22:07:45.
