data_PCOD8061541
_publ_section_title
;
Structure prediction by ZEFSAII (Michael W. Deem and Ramdas Pophale) SiO2 
 PCOD8061541
Probable space group: P 2/M
;
_chemical_formula_sum "Si O2"
_cell_formula_units_Z 32
_cell_length_a 12.749347
_cell_length_b 9.191385
_cell_length_c 31.644229
_cell_angle_alpha 90.000000
_cell_angle_beta 153.977841
_cell_angle_gamma 90.000000
_cell_volume 1626.857764
_symmetry_space_group_name_H-M "P 2/M"
_symmetry_group_IT_number 10
_symmetry_cell_setting 'monoclinic'
loop_
_space_group_symop_operation_xyz
x,y,z
-x,y,-z
-x,-y,-z
x,-y,z
loop_
_atom_site_type_symbol
_atom_site_label
_atom_site_fract_x
_atom_site_fract_y
_atom_site_fract_z
Si Si1 0.539118 0.159946 0.136294
Si Si2 0.560089 0.667614 0.291749
Si Si3 0.990037 0.168026 0.582497
Si Si4 0.734483 0.665619 0.895312
Si Si5 0.385355 0.668284 0.915225
Si Si6 0.168354 0.330373 0.300815
Si Si7 0.490052 0.168540 0.640149
Si Si8 0.092324 0.839139 0.353619
O O1 0.449051 0.238255 0.145308
O O2 0.473133 0.248453 0.070400
O O3 0.820420 0.148987 0.241728
O O4 0.423568 0.000000 0.091254
O O5 0.612273 0.500000 0.322681
O O6 0.333200 0.678804 0.178390
O O7 0.486528 0.757906 0.305969
O O8 0.792910 0.731791 0.353297
O O9 0.782707 0.184998 0.473172
O O10 0.890084 0.220593 0.591995
O O11 0.076555 0.000000 0.617284
O O12 0.712098 0.500000 0.903033
O O13 0.000000 0.724990 0.000000
O O14 0.442220 0.500000 0.929116
O O15 0.102583 0.698081 0.812079
O O16 0.500000 0.726177 0.000000
O O17 0.231871 0.500000 0.323794
O O18 0.335476 0.247367 0.328887
O O19 0.220738 0.269128 0.367061
O O20 0.563829 0.000000 0.670102
O O21 0.211349 0.000000 0.393654
#
# Coordination Sequence:
#
# PCOD8061541 Si02
#       8
#     4   4   4   4   4   4   4   4
#     4  10  19  33  56  83 111 142 182 238 285 328
#     4  11  23  39  61  86 115 150 193 245 289 334
#     4  10  21  39  62  86 113 153 197 233 283 352
#     4  10  22  39  58  82 113 151 190 229 284 349
#     4   9  19  36  58  81 109 150 192 230 281 347
#     4  10  21  37  57  83 116 149 190 240 288 336
#     4  11  24  40  59  82 117 160 194 232 288 351
#     4   9  18  35  59  83 111 146 186 231 282 342
#
# _framework density 19.669819
#
# number of rings (size 3 to 8) (size 9 to 14) (size 15 to 20)
#    0.000    2.000    1.250    1.875    0.000    6.500 
#    0.000    7.500    0.000    0.000    0.000    0.000 
#    0.000    0.000    0.000    0.000    0.000    0.000 
#
# Total GULP energy -396850.315214 kJ/mol
# GULP energy per Si atom -12401.572350 kJ/mol
# Density = 1.962505 g / cm^3
# Si number density = 19.669819 Si / 1000 Ang^3
#
#
#
# Elastic Constant Matrix: (Units=GPa)
#
#
# Indices 1 2 3 4 5 6 
#
# 1 133.3680 72.6938 29.9200 0.0000 -12.2155 0.0000
# 2 72.6938 121.1120 31.6655 0.0000 -1.4188 0.0000
# 3 29.9200 31.6655 50.7588 0.0000 -9.8282 0.0000
# 4 0.0000 0.0000 0.0000 20.6150 0.0000 -3.3178
# 5 -12.2155 -1.4188 -9.8282 0.0000 26.4928 0.0000
# 6 0.0000 0.0000 0.0000 -3.3178 0.0000 30.5304
#
#
#
# Elastic Compliance Matrix: (Units=1/GPa)
#
#
# Indices 1 2 3 4 5 6 
#
# 1 0.011954 -0.006576 -0.002095 0.000000 0.004382 0.000000
# 2 -0.006576 0.013572 -0.005427 0.000000 -0.004318 0.000000
# 3 -0.002095 -0.005427 0.025942 0.000000 0.008367 0.000000
# 4 0.000000 0.000000 0.000000 0.049372 0.000000 0.005365
# 5 0.004382 -0.004318 0.008367 0.000000 0.042639 0.000000
# 6 0.000000 0.000000 0.000000 0.005365 0.000000 0.033337
#
#
# Mechanical properties :
#
#
# Convention : Reuss Voigt Hill
#
# Bulk Modulus (GPa) = 42.97115 63.75527 53.36321
# Shear Modulus (GPa) = 23.49968 26.92494 25.21231
#
# Velocity S-wave (km/s) = 3.46020 3.70380 3.58407
# Velocity P-wave (km/s) = 6.15286 7.12559 6.65701
#
# Compressibility (1/GPa) = 0.02327143
#
# Stress axis : x y z
#
# Youngs Moduli (GPa) = 83.65663 73.68162 38.54787
#
# Poissons Ratio (x) = 0.48450 0.08078
# Poissons Ratio (y) = 0.55009 0.20919
# Poissons Ratio (z) = 0.17530 0.39986
#
# Static dielectric constant tensor:
#      x y z
#    x 3.637520 0.000000 -0.209740 
#    y 0.000000 3.817020 0.000000 
#    z -0.209740 0.000000 3.574200 
# 
# 
# High freq. dielectric constant tensor:
#      x y z
#    x 1.772060 0.000000 -0.012810 
#    y 0.000000 1.772140 0.000000 
#    z -0.012810 0.000000 1.758770 
# 
# From -- ./inp_files/58151.got.cif
#   From: 2010.06.25/outbox.cif.g09.slc.cpg/sg10_30_cif.got.tgz:58151.got - 2010.06.27 22:07:45.
