data_PCOD8061560
_publ_section_title
;
Structure prediction by ZEFSAII (Michael W. Deem and Ramdas Pophale) SiO2 
 PCOD8061560
Probable space group: P 2/M
;
_chemical_formula_sum "Si O2"
_cell_formula_units_Z 28
_cell_length_a 11.842347
_cell_length_b 9.057016
_cell_length_c 15.716664
_cell_angle_alpha 90.000000
_cell_angle_beta 56.691883
_cell_angle_gamma 90.000000
_cell_volume 1408.799072
_symmetry_space_group_name_H-M "P 2/M"
_symmetry_group_IT_number 10
_symmetry_cell_setting 'monoclinic'
loop_
_space_group_symop_operation_xyz
x,y,z
-x,y,-z
-x,-y,-z
x,-y,z
loop_
_atom_site_type_symbol
_atom_site_label
_atom_site_fract_x
_atom_site_fract_y
_atom_site_fract_z
Si Si1 0.132667 0.673369 0.498460
Si Si2 0.149507 0.172787 0.132479
Si Si3 0.154899 0.333854 0.959276
Si Si4 0.324975 0.674176 0.727254
Si Si5 0.139356 0.826409 0.675528
Si Si6 0.608174 0.324989 0.885498
Si Si7 0.405478 0.674578 0.299437
O O1 0.143947 0.500000 0.513645
O O2 0.124910 0.761052 0.588541
O O3 0.261473 0.732727 0.392176
O O4 0.000000 0.711139 0.500000
O O5 0.245665 0.254661 0.159207
O O6 0.995003 0.215540 0.216339
O O7 0.174651 0.000000 0.129712
O O8 0.187876 0.225241 0.022438
O O9 0.200109 0.500000 0.966358
O O10 0.237211 0.277559 0.844456
O O11 0.000000 0.329375 0.000000
O O12 0.315023 0.500000 0.714232
O O13 0.270262 0.757330 0.667005
O O14 0.477756 0.727155 0.683780
O O15 0.160058 0.000000 0.660626
O O16 0.623946 0.500000 0.884171
O O17 0.563549 0.271300 0.809718
O O18 0.500000 0.268021 0.000000
O O19 0.404122 0.500000 0.297869
#
# Coordination Sequence:
#
# PCOD8061560 Si02
#       7
#     4   4   4   4   4   4   4
#     4  10  21  39  63  86 109 144 191 240 287 338
#     4  11  23  36  54  82 119 156 190 234 287 344
#     4  10  19  33  56  84 112 149 195 236 279 334
#     4  10  20  37  60  85 115 148 188 236 285 340
#     4  11  24  39  56  83 117 152 191 234 284 340
#     4  10  20  37  62  88 116 149 190 238 285 338
#     4   9  19  36  59  87 114 144 186 239 292 335
#
# _framework density 19.875083
#
# number of rings (size 3 to 8) (size 9 to 14) (size 15 to 20)
#    0.000    1.857    1.429    2.571    0.000    7.143 
#    0.000    5.000    0.000    0.000    0.000    0.000 
#    0.000    0.000    0.000    0.000    0.000    0.000 
#
# Total GULP energy -347271.358403 kJ/mol
# GULP energy per Si atom -12402.548514 kJ/mol
# Density = 1.982985 g / cm^3
# Si number density = 19.875083 Si / 1000 Ang^3
#
#
#
# Elastic Constant Matrix: (Units=GPa)
#
#
# Indices 1 2 3 4 5 6 
#
# 1 149.8059 47.8140 59.2048 0.0000 6.1536 0.0000
# 2 47.8140 51.5598 42.6138 0.0000 7.4442 0.0000
# 3 59.2048 42.6138 105.1657 0.0000 5.5187 0.0000
# 4 0.0000 0.0000 0.0000 2.6721 0.0000 -5.3543
# 5 6.1536 7.4442 5.5187 0.0000 37.5751 0.0000
# 6 0.0000 0.0000 0.0000 -5.3543 0.0000 11.4183
#
#
#
# Elastic Compliance Matrix: (Units=1/GPa)
#
#
# Indices 1 2 3 4 5 6 
#
# 1 0.010008 -0.006977 -0.002816 0.000000 0.000157 0.000000
# 2 -0.006977 0.034657 -0.009891 0.000000 -0.004271 0.000000
# 3 -0.002816 -0.009891 0.015091 0.000000 0.000204 0.000000
# 4 0.000000 0.000000 0.000000 6.199785 0.000000 2.907225
# 5 0.000157 -0.004271 0.000204 0.000000 0.027404 0.000000
# 6 0.000000 0.000000 0.000000 2.907225 0.000000 1.450845
#
#
# Mechanical properties :
#
#
# Convention : Reuss Voigt Hill
#
# Bulk Modulus (GPa) = 49.04642 67.31073 58.17858
# Shear Modulus (GPa) = 0.64235 20.79301 10.71768
#
# Velocity S-wave (km/s) = 0.56912 3.23799 2.32470
# Velocity P-wave (km/s) = 5.01625 6.92241 6.04494
#
# Compressibility (1/GPa) = 0.02038885
#
# Stress axis : x y z
#
# Youngs Moduli (GPa) = 99.91548 28.85451 66.26414
#
# Poissons Ratio (x) = 0.20132 0.18657
# Poissons Ratio (y) = 0.69711 0.65543
# Poissons Ratio (z) = 0.28132 0.28540
#
# Static dielectric constant tensor:
#      x y z
#    x 3.877870 0.000000 -0.114100 
#    y 0.000000 3.337360 0.000000 
#    z -0.114100 0.000000 3.793670 
# 
# 
# High freq. dielectric constant tensor:
#      x y z
#    x 1.791480 0.000000 0.000880 
#    y 0.000000 1.746180 0.000000 
#    z 0.000880 0.000000 1.778370 
# 
# From -- ./inp_files/49117.got.cif
#   From: 2010.06.25/outbox.cif.g09.slc.cpg/sg10_25_cif.got.tgz:49117.got - 2010.06.27 22:07:45.
