data_PCOD8061947
_publ_section_title
;
Structure prediction by ZEFSAII (Michael W. Deem and Ramdas Pophale) SiO2 
 PCOD8061947
Probable space group: P 2/M
;
_chemical_formula_sum "Si O2"
_cell_formula_units_Z 32
_cell_length_a 25.410814
_cell_length_b 9.194873
_cell_length_c 19.772153
_cell_angle_alpha 90.000000
_cell_angle_beta 158.201796
_cell_angle_gamma 90.000000
_cell_volume 1715.491315
_symmetry_space_group_name_H-M "P 2/M"
_symmetry_group_IT_number 10
_symmetry_cell_setting 'monoclinic'
loop_
_space_group_symop_operation_xyz
x,y,z
-x,y,-z
-x,-y,-z
x,-y,z
loop_
_atom_site_type_symbol
_atom_site_label
_atom_site_fract_x
_atom_site_fract_y
_atom_site_fract_z
Si Si1 0.595763 0.329035 0.410896
Si Si2 0.871427 0.829402 0.519260
Si Si3 0.071687 0.672471 0.656422
Si Si4 0.857582 0.166942 0.658291
Si Si5 0.408140 0.336608 0.824058
Si Si6 0.090352 0.831499 0.043823
Si Si7 0.621473 0.672195 0.594204
Si Si8 0.390264 0.671221 0.051523
O O1 0.620007 0.500000 0.437761
O O2 0.730377 0.261258 0.535049
O O3 0.582345 0.273552 0.471897
O O4 0.451327 0.286731 0.198513
O O5 0.890568 0.791441 0.620770
O O6 0.722359 0.767770 0.315969
O O7 0.995310 0.750316 0.627012
O O8 0.877825 0.000000 0.512295
O O9 0.063168 0.500000 0.657177
O O10 0.000000 0.717500 0.500000
O O11 0.232821 0.732777 0.851457
O O12 0.811096 0.000000 0.610458
O O13 0.001152 0.198591 0.870091
O O14 0.355078 0.500000 0.741886
O O15 0.501152 0.266294 0.874738
O O16 0.500000 0.344518 0.000000
O O17 0.232449 0.740220 0.206892
O O18 0.130332 0.000000 0.100700
O O19 0.000000 0.776344 0.000000
O O20 0.500000 0.727066 0.500000
O O21 0.637460 0.500000 0.615995
O O22 0.382643 0.500000 0.031709
#
# Coordination Sequence:
#
# PCOD8061947 Si02
#       8
#     4   4   4   4   4   4   4   4
#     4  10  19  34  57  81 110 146 185 231 283 338
#     4  11  23  37  55  83 118 149 181 229 283 336
#     4  10  21  39  61  83 112 151 192 234 278 330
#     4  10  21  37  56  82 115 147 187 235 280 331
#     4  10  19  34  58  84 109 141 185 232 273 325
#     4  10  20  36  59  82 108 150 197 235 275 332
#     4  10  22  37  54  83 119 148 181 232 289 339
#     4   9  18  33  55  82 107 140 188 231 274 329
#
# _framework density 18.653547
#
# number of rings (size 3 to 8) (size 9 to 14) (size 15 to 20)
#    0.000    2.000    2.500    1.125    0.000    5.000 
#    0.000    2.500    0.000    0.000    0.000    0.000 
#    0.000    0.000    0.000    0.000    0.000    0.000 
#
# Total GULP energy -396853.793449 kJ/mol
# GULP energy per Si atom -12401.681045 kJ/mol
# Density = 1.861109 g / cm^3
# Si number density = 18.653547 Si / 1000 Ang^3
#
#
#
# Elastic Constant Matrix: (Units=GPa)
#
#
# Indices 1 2 3 4 5 6 
#
# 1 116.0963 33.2848 49.1793 0.0000 3.2194 0.0000
# 2 33.2848 33.1386 26.2076 0.0000 1.5438 0.0000
# 3 49.1793 26.2076 111.7588 0.0000 4.1519 0.0000
# 4 0.0000 0.0000 0.0000 6.3419 0.0000 -9.2341
# 5 3.2194 1.5438 4.1519 0.0000 38.1084 0.0000
# 6 0.0000 0.0000 0.0000 -9.2341 0.0000 6.0305
#
#
#
# Elastic Compliance Matrix: (Units=1/GPa)
#
#
# Indices 1 2 3 4 5 6 
#
# 1 0.013003 -0.010472 -0.003255 0.000000 -0.000320 0.000000
# 2 -0.010472 0.045492 -0.006049 0.000000 -0.000299 0.000000
# 3 -0.003255 -0.006049 0.011827 0.000000 -0.000769 0.000000
# 4 0.000000 0.000000 0.000000 -0.128246 0.000000 -0.196374
# 5 -0.000320 -0.000299 -0.000769 0.000000 0.026364 0.000000
# 6 0.000000 0.000000 0.000000 -0.196374 0.000000 -0.134868
#
#
# Mechanical properties :
#
#
# Convention : Reuss Voigt Hill
#
# Bulk Modulus (GPa) = 32.49713 53.14855 42.82284
# Shear Modulus (GPa) = -42.87394 20.25096 -11.31149
#
# Velocity S-wave (km/s) = -4.79940 3.29847 -2.46519
# Velocity P-wave (km/s) = 3.64048 6.56208 3.86056
#
# Compressibility (1/GPa) = 0.03077195
#
# Stress axis : x y z
#
# Youngs Moduli (GPa) = 76.90314 21.98196 84.55254
#
# Poissons Ratio (x) = 0.23019 0.27518
# Poissons Ratio (y) = 0.80533 0.51143
# Poissons Ratio (z) = 0.25029 0.13296
#
# Static dielectric constant tensor:
#      x y z
#    x 3.743680 0.000000 -0.103480 
#    y 0.000000 3.266810 0.000000 
#    z -0.103480 0.000000 3.561080 
# 
# 
# High freq. dielectric constant tensor:
#      x y z
#    x 1.733230 0.000000 -0.008130 
#    y 0.000000 1.702950 0.000000 
#    z -0.008130 0.000000 1.732600 
# 
# From -- ./inp_files/87040.got.cif
#   From: 2010.06.25/outbox.cif.g09.slc.cpg/sg10_44_cif.got.tgz:87040.got - 2010.06.27 22:07:45.
