data_PCOD8061217
_publ_section_title
;
Structure prediction by ZEFSAII (Michael W. Deem and Ramdas Pophale) SiO2 
 PCOD8061217
Probable space group: P 2/M
;
_chemical_formula_sum "Si O2"
_cell_formula_units_Z 28
_cell_length_a 26.431958
_cell_length_b 8.897058
_cell_length_c 10.134846
_cell_angle_alpha 90.000000
_cell_angle_beta 39.078998
_cell_angle_gamma 90.000000
_cell_volume 1502.460709
_symmetry_space_group_name_H-M "P 2/M"
_symmetry_group_IT_number 10
_symmetry_cell_setting 'monoclinic'
loop_
_space_group_symop_operation_xyz
x,y,z
-x,y,-z
-x,-y,-z
x,-y,z
loop_
_atom_site_type_symbol
_atom_site_label
_atom_site_fract_x
_atom_site_fract_y
_atom_site_fract_z
Si Si1 0.092568 0.172702 0.313750
Si Si2 0.816995 0.325288 0.102091
Si Si3 0.184702 0.825709 0.392758
Si Si4 0.491111 0.165959 0.673961
Si Si5 0.092826 0.675412 0.814243
Si Si6 0.666295 0.822222 0.313696
Si Si7 0.667174 0.676714 0.027617
O O1 0.137287 0.280560 0.122689
O O2 0.124821 0.205297 0.393775
O O3 0.000000 0.216277 0.500000
O O4 0.106698 0.000000 0.242786
O O5 0.797055 0.500000 0.138036
O O6 0.872042 0.283071 0.114267
O O7 0.732364 0.237451 0.282631
O O8 0.140928 0.773109 0.612638
O O9 0.207297 0.000000 0.358932
O O10 0.266228 0.731837 0.210163
O O11 0.500000 0.155791 0.500000
O O12 0.578271 0.222430 0.549559
O O13 0.419967 0.279449 0.856219
O O14 0.470753 0.000000 0.771696
O O15 0.102871 0.500000 0.760176
O O16 0.000000 0.723240 0.000000
O O17 0.683231 0.752658 0.135910
O O18 0.673080 0.000000 0.282652
O O19 0.671534 0.500000 0.036695
#
# Coordination Sequence:
#
# PCOD8061217 Si02
#       7
#     4   4   4   4   4   4   4
#     4  10  21  36  55  80 109 141 180 231 283 331
#     4  11  22  35  56  83 110 146 186 230 283 335
#     4  11  22  36  57  82 111 148 188 231 277 331
#     4   8  16  30  49  75 110 148 182 220 271 328
#     4  10  23  42  59  79 111 149 189 233 282 338
#     4  10  19  33  53  79 113 149 184 227 275 328
#     4  11  20  31  52  82 115 147 182 227 277 328
#
# _framework density 18.636094
#
# number of rings (size 3 to 8) (size 9 to 14) (size 15 to 20)
#    0.000    1.857    1.429    4.286    0.000    5.429 
#    0.000    0.000    0.000    0.857    0.000    6.000 
#    0.000    0.000    0.000    0.000    0.000    0.000 
#
# Total GULP energy -347245.512779 kJ/mol
# GULP energy per Si atom -12401.625456 kJ/mol
# Density = 1.859368 g / cm^3
# Si number density = 18.636094 Si / 1000 Ang^3
#
#
#
# Elastic Constant Matrix: (Units=GPa)
#
#
# Indices 1 2 3 4 5 6 
#
# 1 95.9457 41.7512 34.6085 0.0000 -28.4973 0.0000
# 2 41.7512 94.3140 40.1681 0.0000 -12.0779 0.0000
# 3 34.6085 40.1681 73.0697 0.0000 -22.7407 0.0000
# 4 0.0000 0.0000 0.0000 30.8520 0.0000 -1.5724
# 5 -28.4973 -12.0779 -22.7407 0.0000 36.1255 0.0000
# 6 0.0000 0.0000 0.0000 -1.5724 0.0000 23.4962
#
#
#
# Elastic Compliance Matrix: (Units=1/GPa)
#
#
# Indices 1 2 3 4 5 6 
#
# 1 0.016281 -0.005181 -0.001748 0.000000 0.010011 0.000000
# 2 -0.005181 0.015494 -0.007118 0.000000 -0.003387 0.000000
# 3 -0.001748 -0.007118 0.021461 0.000000 0.009751 0.000000
# 4 0.000000 0.000000 0.000000 0.032524 0.000000 0.002177
# 5 0.010011 -0.003387 0.009751 0.000000 0.040584 0.000000
# 6 0.000000 0.000000 0.000000 0.002177 0.000000 0.042706
#
#
# Mechanical properties :
#
#
# Convention : Reuss Voigt Hill
#
# Bulk Modulus (GPa) = 39.77234 55.15388 47.46311
# Shear Modulus (GPa) = 24.32822 27.88151 26.10486
#
# Velocity S-wave (km/s) = 3.61700 3.87214 3.74675
# Velocity P-wave (km/s) = 6.23149 7.04633 6.65140
#
# Compressibility (1/GPa) = 0.02514310
#
# Stress axis : x y z
#
# Youngs Moduli (GPa) = 61.42211 64.54086 46.59658
#
# Poissons Ratio (x) = 0.33438 0.08143
# Poissons Ratio (y) = 0.31823 0.33166
# Poissons Ratio (z) = 0.10734 0.45939
#
# Static dielectric constant tensor:
#      x y z
#    x 3.751490 0.000000 -0.483940 
#    y 0.000000 3.420990 0.000000 
#    z -0.483940 0.000000 3.382860 
# 
# 
# High freq. dielectric constant tensor:
#      x y z
#    x 1.719510 0.000000 -0.032000 
#    y 0.000000 1.727600 0.000000 
#    z -0.032000 0.000000 1.710180 
# 
# From -- ./inp_files/36953.got.cif
#   From: 2010.06.25/outbox.cif.g09.slc.cpg/sg10_19_cif.got.tgz:36953.got - 2010.06.27 22:07:45.
