data_PCOD8061379
_publ_section_title
;
Structure prediction by ZEFSAII (Michael W. Deem and Ramdas Pophale) SiO2 
 PCOD8061379
Probable space group: P 2/M
;
_chemical_formula_sum "Si O2"
_cell_formula_units_Z 28
_cell_length_a 22.771312
_cell_length_b 13.104939
_cell_length_c 9.745330
_cell_angle_alpha 90.000000
_cell_angle_beta 151.835141
_cell_angle_gamma 90.000000
_cell_volume 1372.685180
_symmetry_space_group_name_H-M "P 2/M"
_symmetry_group_IT_number 10
_symmetry_cell_setting 'monoclinic'
loop_
_space_group_symop_operation_xyz
x,y,z
-x,y,-z
-x,-y,-z
x,-y,z
loop_
_atom_site_type_symbol
_atom_site_label
_atom_site_fract_x
_atom_site_fract_y
_atom_site_fract_z
Si Si1 0.832843 0.189276 0.538328
Si Si2 0.721930 0.617612 0.627877
Si Si3 0.506061 0.308165 0.357604
Si Si4 0.863640 0.118565 0.185785
Si Si5 0.691538 0.387230 0.257703
Si Si6 0.111142 0.201590 0.044468
Si Si7 0.655266 0.115575 0.961803
O O1 0.798285 0.307135 0.442827
O O2 0.964935 0.179411 0.737074
O O3 0.835621 0.157697 0.703316
O O4 0.730776 0.115499 0.260460
O O5 0.745962 0.500000 0.719221
O O6 0.644461 0.677689 0.584603
O O7 0.651324 0.625022 0.335154
O O8 0.854033 0.677814 0.893328
O O9 0.500000 0.352699 0.500000
O O10 0.465254 0.188616 0.277152
O O11 0.422710 0.373171 0.081135
O O12 0.828088 0.139103 0.954880
O O13 0.000000 0.167873 0.500000
O O14 0.869309 0.000000 0.232195
O O15 0.750725 0.162938 0.045383
O O16 0.747311 0.500000 0.350585
O O17 0.610428 0.000000 0.837681
#
# Coordination Sequence:
#
# PCOD8061379 Si02
#       7
#     4   4   4   4   4   4   4
#     4   9  19  33  55  84 111 141 176 223 273 316
#     4  10  21  37  57  80 109 147 185 220 264 320
#     4  11  22  36  56  79 106 141 181 229 271 314
#     4  10  19  33  55  79 105 141 179 213 261 324
#     4   9  19  36  57  79 106 142 182 223 270 324
#     4  10  19  34  55  82 114 143 179 222 265 316
#     4  10  21  38  57  79 108 142 180 222 272 324
#
# _framework density 20.397977999999998
#
# number of rings (size 3 to 8) (size 9 to 14) (size 15 to 20)
#    0.000    2.143    1.429    1.714    0.000    3.714 
#    0.000    5.000    0.000   11.571    0.000    0.000 
#    0.000    0.000    0.000    0.000    0.000    0.000 
#
# Total GULP energy -347054.899378 kJ/mol
# GULP energy per Si atom -12394.817835 kJ/mol
# Density = 2.035155 g / cm^3
# Si number density = 20.397978 Si / 1000 Ang^3
#
#
#
# Elastic Constant Matrix: (Units=GPa)
#
#
# Indices 1 2 3 4 5 6 
#
# 1 92.6655 21.2473 8.8008 0.0000 -16.4759 0.0000
# 2 21.2473 60.9718 -4.5933 0.0000 1.1975 0.0000
# 3 8.8008 -4.5933 33.0020 0.0000 -10.1634 0.0000
# 4 0.0000 0.0000 0.0000 11.0464 0.0000 -3.6120
# 5 -16.4759 1.1975 -10.1634 0.0000 27.0345 0.0000
# 6 0.0000 0.0000 0.0000 -3.6120 0.0000 26.9687
#
#
#
# Elastic Compliance Matrix: (Units=1/GPa)
#
#
# Indices 1 2 3 4 5 6 
#
# 1 0.013493 -0.004998 -0.001915 0.000000 0.007725 0.000000
# 2 -0.004998 0.018427 0.003063 0.000000 -0.002711 0.000000
# 3 -0.001915 0.003063 0.034875 0.000000 0.011808 0.000000
# 4 0.000000 0.000000 0.000000 0.094674 0.000000 0.012680
# 5 0.007725 -0.002711 0.011808 0.000000 0.046257 0.000000
# 6 0.000000 0.000000 0.000000 0.012680 0.000000 0.038778
#
#
# Mechanical properties :
#
#
# Convention : Reuss Voigt Hill
#
# Bulk Modulus (GPa) = 16.92226 26.39432 21.65829
# Shear Modulus (GPa) = 18.25475 23.75553 21.00514
#
# Velocity S-wave (km/s) = 2.99478 3.41633 3.21248
# Velocity P-wave (km/s) = 4.50248 5.34130 4.93973
#
# Compressibility (1/GPa) = 0.05909375
#
# Stress axis : x y z
#
# Youngs Moduli (GPa) = 74.11383 54.26920 28.67409
#
# Poissons Ratio (x) = 0.27123 0.05491
# Poissons Ratio (y) = 0.37041 -0.08782
# Poissons Ratio (z) = 0.14192 -0.16621
#
# Static dielectric constant tensor:
#      x y z
#    x 3.802980 0.000000 -0.133750 
#    y 0.000000 3.484370 0.000000 
#    z -0.133750 0.000000 3.659830 
# 
# 
# High freq. dielectric constant tensor:
#      x y z
#    x 1.802300 0.000000 -0.015230 
#    y 0.000000 1.779820 0.000000 
#    z -0.015230 0.000000 1.789420 
# 
# From -- ./inp_files/29220.got.cif
#   From: 2010.06.25/outbox.cif.g09.slc.cpg/sg10_15_cif.got.tgz:29220.got - 2010.06.27 22:07:45.
