data_PCOD8061524
_publ_section_title
;
Structure prediction by ZEFSAII (Michael W. Deem and Ramdas Pophale) SiO2 
 PCOD8061524
Probable space group: P 2/M
;
_chemical_formula_sum "Si O2"
_cell_formula_units_Z 28
_cell_length_a 14.533215
_cell_length_b 9.140476
_cell_length_c 20.281380
_cell_angle_alpha 90.000000
_cell_angle_beta 147.727600
_cell_angle_gamma 90.000000
_cell_volume 1438.548907
_symmetry_space_group_name_H-M "P 2/M"
_symmetry_group_IT_number 10
_symmetry_cell_setting 'monoclinic'
loop_
_space_group_symop_operation_xyz
x,y,z
-x,y,-z
-x,-y,-z
x,-y,z
loop_
_atom_site_type_symbol
_atom_site_label
_atom_site_fract_x
_atom_site_fract_y
_atom_site_fract_z
Si Si1 0.307996 0.330870 0.076278
Si Si2 0.391414 0.169800 0.255776
Si Si3 0.098355 0.827568 0.720465
Si Si4 0.015158 0.330737 0.798151
Si Si5 0.318847 0.828568 0.359508
Si Si6 0.231081 0.170112 0.554266
Si Si7 0.632861 0.828316 0.226353
O O1 0.356560 0.500000 0.112621
O O2 0.295358 0.261703 0.141339
O O3 0.451520 0.254676 0.117491
O O4 0.123424 0.308173 0.930459
O O5 0.313122 0.211793 0.278819
O O6 0.595158 0.205619 0.380849
O O7 0.363151 0.000000 0.222042
O O8 0.119016 0.745541 0.801931
O O9 0.269065 0.793302 0.781712
O O10 0.932407 0.759378 0.581716
O O11 0.078755 0.000000 0.721614
O O12 0.990453 0.500000 0.766363
O O13 0.829107 0.258195 0.692720
O O14 0.500000 0.779377 0.500000
O O15 0.288665 0.000000 0.353001
O O16 0.251347 0.227193 0.641603
O O17 0.190809 0.000000 0.532725
O O18 0.594153 0.000000 0.211053
#
# Coordination Sequence:
#
# PCOD8061524 Si02
#       7
#     4   4   4   4   4   4   4
#     4  10  22  39  55  74 107 149 186 220 265 319
#     4   9  18  34  59  85 107 136 176 222 266 313
#     4  10  19  33  56  82 108 142 182 226 274 320
#     4  11  25  40  53  75 110 149 184 221 266 318
#     4  10  21  39  63  88 111 137 172 216 269 325
#     4   8  14  29  54  83 111 135 166 214 271 325
#     4   9  18  33  56  83 108 138 180 228 273 319
#
# _framework density 19.464058000000001
#
# number of rings (size 3 to 8) (size 9 to 14) (size 15 to 20)
#    0.000    2.429    0.000    3.000    0.000    8.857 
#    0.000   11.429    0.000    4.286    0.000    0.000 
#    0.000    0.000    0.000    0.000    0.000    0.000 
#
# Total GULP energy -347224.611985 kJ/mol
# GULP energy per Si atom -12400.878999 kJ/mol
# Density = 1.941976 g / cm^3
# Si number density = 19.464058 Si / 1000 Ang^3
#
#
#
# Elastic Constant Matrix: (Units=GPa)
#
#
# Indices 1 2 3 4 5 6 
#
# 1 107.8290 44.3128 24.3799 0.0000 -7.0790 0.0000
# 2 44.3128 70.2596 37.8063 0.0000 -3.5649 0.0000
# 3 24.3799 37.8063 78.0137 0.0000 -3.7661 0.0000
# 4 0.0000 0.0000 0.0000 17.2503 0.0000 3.0919
# 5 -7.0790 -3.5649 -3.7661 0.0000 20.7438 0.0000
# 6 0.0000 0.0000 0.0000 3.0919 0.0000 12.4533
#
#
#
# Elastic Compliance Matrix: (Units=1/GPa)
#
#
# Indices 1 2 3 4 5 6 
#
# 1 0.012699 -0.007846 -0.000022 0.000000 0.002981 0.000000
# 2 -0.007846 0.024156 -0.009264 0.000000 -0.000208 0.000000
# 3 -0.000022 -0.009264 0.017390 0.000000 0.001557 0.000000
# 4 0.000000 0.000000 0.000000 0.060670 0.000000 -0.015063
# 5 0.002981 -0.000208 0.001557 0.000000 0.049472 0.000000
# 6 0.000000 0.000000 0.000000 -0.015063 0.000000 0.084040
#
#
# Mechanical properties :
#
#
# Convention : Reuss Voigt Hill
#
# Bulk Modulus (GPa) = 50.05105 52.12224 51.08664
# Shear Modulus (GPa) = 17.27999 20.06303 18.67151
#
# Velocity S-wave (km/s) = 2.98281 3.21405 3.10059
# Velocity P-wave (km/s) = 6.13460 6.37262 6.25474
#
# Compressibility (1/GPa) = 0.01997960
#
# Stress axis : x y z
#
# Youngs Moduli (GPa) = 78.74589 41.39770 57.50417
#
# Poissons Ratio (x) = 0.32481 0.00129
# Poissons Ratio (y) = 0.61784 0.53274
# Poissons Ratio (z) = 0.00176 0.38352
#
# Static dielectric constant tensor:
#      x y z
#    x 3.654220 0.000000 -0.075630 
#    y 0.000000 3.308120 0.000000 
#    z -0.075630 0.000000 3.530020 
# 
# 
# High freq. dielectric constant tensor:
#      x y z
#    x 1.764800 0.000000 -0.004460 
#    y 0.000000 1.731280 0.000000 
#    z -0.004460 0.000000 1.757190 
# 
# From -- ./inp_files/49623.got.cif
#   From: 2010.06.25/outbox.cif.g09.slc.cpg/sg10_25_cif.got.tgz:49623.got - 2010.06.27 22:07:45.
