data_PCOD8061211
_publ_section_title
;
Structure prediction by ZEFSAII (Michael W. Deem and Ramdas Pophale) SiO2 
 PCOD8061211
Probable space group: P 2/M
;
_chemical_formula_sum "Si O2"
_cell_formula_units_Z 32
_cell_length_a 14.182846
_cell_length_b 9.320018
_cell_length_c 18.785897
_cell_angle_alpha 90.000000
_cell_angle_beta 136.187206
_cell_angle_gamma 90.000000
_cell_volume 1719.131584
_symmetry_space_group_name_H-M "P 2/M"
_symmetry_group_IT_number 10
_symmetry_cell_setting 'monoclinic'
loop_
_space_group_symop_operation_xyz
x,y,z
-x,y,-z
-x,-y,-z
x,-y,z
loop_
_atom_site_type_symbol
_atom_site_label
_atom_site_fract_x
_atom_site_fract_y
_atom_site_fract_z
Si Si1 0.097234 0.828780 0.208851
Si Si2 0.609524 0.166121 0.373042
Si Si3 0.197340 0.832333 0.993305
Si Si4 0.665756 0.664261 0.267884
Si Si5 0.848715 0.165894 0.604019
Si Si6 0.301021 0.829448 0.200387
Si Si7 0.968347 0.663728 0.404195
Si Si8 0.463996 0.832939 0.059250
O O1 0.142593 0.772887 0.311185
O O2 0.204036 0.767722 0.209431
O O3 0.947750 0.765709 0.108425
O O4 0.096419 0.000000 0.206990
O O5 0.683726 0.260895 0.353985
O O6 0.694543 0.188049 0.492026
O O7 0.455247 0.220715 0.300314
O O8 0.611101 0.000000 0.349640
O O9 0.177302 0.000000 0.994522
O O10 0.250820 0.766191 0.097104
O O11 0.305300 0.802788 0.989013
O O12 0.622293 0.500000 0.255760
O O13 0.549640 0.744267 0.161806
O O14 0.807046 0.674685 0.302126
O O15 0.958261 0.244917 0.615471
O O16 0.890460 0.000000 0.625258
O O17 0.294423 0.000000 0.195772
O O18 0.020514 0.500000 0.427796
O O19 0.000000 0.725173 0.500000
O O20 0.499971 0.000000 0.088680
O O21 0.500000 0.779495 0.000000
#
# Coordination Sequence:
#
# PCOD8061211 Si02
#       8
#     4   4   4   4   4   4   4   4
#     4   9  18  30  47  78 111 138 173 217 268 316
#     4  10  19  33  53  79 109 139 176 218 266 317
#     4   9  16  29  49  75 105 138 175 211 258 316
#     4  11  22  36  55  77 104 141 181 221 260 312
#     4  10  21  33  51  81 111 138 172 222 270 314
#     4   9  16  29  51  75 104 140 175 218 264 317
#     4  10  21  37  54  73 102 141 179 212 256 316
#     4  10  21  35  54  81 111 140 171 218 273 318
#
# _framework density 18.614049999999999
#
# number of rings (size 3 to 8) (size 9 to 14) (size 15 to 20)
#    0.000    2.250    2.500    0.750    1.750    3.500 
#    0.000    2.500    0.000    0.750    0.000    2.625 
#    0.000    0.000    0.000    0.000    0.000    0.000 
#
# Total GULP energy -396796.485824 kJ/mol
# GULP energy per Si atom -12399.890182 kJ/mol
# Density = 1.857168 g / cm^3
# Si number density = 18.614050 Si / 1000 Ang^3
#
#
#
# Elastic Constant Matrix: (Units=GPa)
#
#
# Indices 1 2 3 4 5 6 
#
# 1 149.0535 26.6545 68.5641 0.0000 -6.1723 0.0000
# 2 26.6545 34.4920 24.5235 0.0000 -0.5495 0.0000
# 3 68.5641 24.5235 131.3272 0.0000 0.1648 0.0000
# 4 0.0000 0.0000 0.0000 6.0175 0.0000 0.8695
# 5 -6.1723 -0.5495 0.1648 0.0000 34.4887 0.0000
# 6 0.0000 0.0000 0.0000 0.8695 0.0000 4.9218
#
#
#
# Elastic Compliance Matrix: (Units=1/GPa)
#
#
# Indices 1 2 3 4 5 6 
#
# 1 0.009452 -0.004345 -0.004125 0.000000 0.001642 0.000000
# 2 -0.004345 0.035439 -0.004349 0.000000 -0.000192 0.000000
# 3 -0.004125 -0.004349 0.010582 0.000000 -0.000858 0.000000
# 4 0.000000 0.000000 0.000000 0.170536 0.000000 -0.030127
# 5 0.001642 -0.000192 -0.000858 0.000000 0.029290 0.000000
# 6 0.000000 0.000000 0.000000 -0.030127 0.000000 0.208501
#
#
# Mechanical properties :
#
#
# Convention : Reuss Voigt Hill
#
# Bulk Modulus (GPa) = 33.51914 61.59520 47.55717
# Shear Modulus (GPa) = 10.01238 22.09430 16.05334
#
# Velocity S-wave (km/s) = 2.32177 3.44898 2.93990
# Velocity P-wave (km/s) = 5.02335 7.00165 6.09332
#
# Compressibility (1/GPa) = 0.02983370
#
# Stress axis : x y z
#
# Youngs Moduli (GPa) = 105.80278 28.21759 94.50426
#
# Poissons Ratio (x) = 0.12260 0.38986
# Poissons Ratio (y) = 0.45968 0.41101
# Poissons Ratio (z) = 0.43647 0.12272
#
# Static dielectric constant tensor:
#      x y z
#    x 3.568470 0.000000 0.011040 
#    y 0.000000 2.982330 0.000000 
#    z 0.011040 0.000000 3.618070 
# 
# 
# High freq. dielectric constant tensor:
#      x y z
#    x 1.726370 0.000000 0.005820 
#    y 0.000000 1.670780 0.000000 
#    z 0.005820 0.000000 1.734810 
# 
# From -- ./inp_files/84747.got.cif
#   From: 2010.06.25/outbox.cif.g09.slc.cpg/sg10_43_cif.got.tgz:84747.got - 2010.06.27 22:07:45.
