data_PCOD8061309
_publ_section_title
;
Structure prediction by ZEFSAII (Michael W. Deem and Ramdas Pophale) SiO2 
 PCOD8061309
Probable space group: P 2/M
;
_chemical_formula_sum "Si O2"
_cell_formula_units_Z 32
_cell_length_a 24.888198
_cell_length_b 10.025176
_cell_length_c 13.142823
_cell_angle_alpha 90.000000
_cell_angle_beta 150.017944
_cell_angle_gamma 90.000000
_cell_volume 1638.733966
_symmetry_space_group_name_H-M "P 2/M"
_symmetry_group_IT_number 10
_symmetry_cell_setting 'monoclinic'
loop_
_space_group_symop_operation_xyz
x,y,z
-x,y,-z
-x,-y,-z
x,-y,z
loop_
_atom_site_type_symbol
_atom_site_label
_atom_site_fract_x
_atom_site_fract_y
_atom_site_fract_z
Si Si1 0.085102 0.749587 0.558831
Si Si2 0.074412 0.655708 0.867113
Si Si3 0.102137 0.149516 0.097296
Si Si4 0.281256 0.151068 0.762207
Si Si5 0.466224 0.345677 0.329255
Si Si6 0.717013 0.154440 0.458263
Si Si7 0.766505 0.648675 0.036127
Si Si8 0.501514 0.844739 0.219017
O O1 0.174049 0.848462 0.656472
O O2 0.152567 0.644271 0.735833
O O3 0.000000 0.818895 0.500000
O O4 0.029579 0.673000 0.375149
O O5 0.082934 0.500000 0.912095
O O6 0.176673 0.709289 0.970481
O O7 0.068325 0.749534 0.953699
O O8 0.201943 0.214397 0.323853
O O9 0.129534 0.000000 0.099425
O O10 0.000000 0.137056 0.000000
O O11 0.262867 0.219574 0.620858
O O12 0.313431 0.000000 0.792477
O O13 0.387561 0.212115 0.989739
O O14 0.500000 0.329409 0.500000
O O15 0.476812 0.500000 0.310331
O O16 0.535579 0.248699 0.370461
O O17 0.346017 0.281803 0.123122
O O18 0.592944 0.176267 0.284170
O O19 0.749069 0.000000 0.506473
O O20 0.734171 0.500000 0.953048
O O21 0.495380 0.000000 0.242708
#
# Coordination Sequence:
#
# PCOD8061309 Si02
#       8
#     4   4   4   4   4   4   4   4
#     4  10  19  33  54  80 110 145 185 228 277 331
#     4  10  21  35  56  82 108 141 187 233 274 323
#     4  10  21  38  57  79 111 149 184 223 278 336
#     4  10  19  34  56  82 112 146 185 232 279 329
#     4  10  21  36  57  82 113 150 184 218 274 339
#     4   9  19  35  57  81 108 148 190 225 274 335
#     4   9  18  35  54  76 107 145 182 220 270 333
#     4  10  20  36  59  86 112 142 186 235 277 322
#
# _framework density 19.527270999999999
#
# number of rings (size 3 to 8) (size 9 to 14) (size 15 to 20)
#    0.000    2.250    1.250    1.500    1.750    5.250 
#    0.000    2.500    0.000    3.750    0.000    0.000 
#    0.000    0.000    0.000    0.000    0.000    0.000 
#
# Total GULP energy -396451.326567 kJ/mol
# GULP energy per Si atom -12389.103955 kJ/mol
# Density = 1.948283 g / cm^3
# Si number density = 19.527271 Si / 1000 Ang^3
#
#
#
# Elastic Constant Matrix: (Units=GPa)
#
#
# Indices 1 2 3 4 5 6 
#
# 1 117.7530 39.9667 49.5352 0.0000 -4.4912 0.0000
# 2 39.9667 62.2799 27.8249 0.0000 -14.0926 0.0000
# 3 49.5352 27.8249 105.6082 0.0000 -3.8694 0.0000
# 4 0.0000 0.0000 0.0000 21.6523 0.0000 -2.6941
# 5 -4.4912 -14.0926 -3.8694 0.0000 36.4689 0.0000
# 6 0.0000 0.0000 0.0000 -2.6941 0.0000 12.2447
#
#
#
# Elastic Compliance Matrix: (Units=1/GPa)
#
#
# Indices 1 2 3 4 5 6 
#
# 1 0.012358 -0.006383 -0.004166 0.000000 -0.001387 0.000000
# 2 -0.006383 0.023200 -0.002830 0.000000 0.007879 0.000000
# 3 -0.004166 -0.002830 0.012157 0.000000 -0.000317 0.000000
# 4 0.000000 0.000000 0.000000 0.047484 0.000000 0.010448
# 5 -0.001387 0.007879 -0.000317 0.000000 0.030261 0.000000
# 6 0.000000 0.000000 0.000000 0.010448 0.000000 0.083967
#
#
# Mechanical properties :
#
#
# Convention : Reuss Voigt Hill
#
# Bulk Modulus (GPa) = 47.71546 57.81052 52.76299
# Shear Modulus (GPa) = 20.56167 25.29412 22.92789
#
# Velocity S-wave (km/s) = 3.24847 3.60296 3.43030
# Velocity P-wave (km/s) = 6.20954 6.85403 6.53973
#
# Compressibility (1/GPa) = 0.02095757
#
# Stress axis : x y z
#
# Youngs Moduli (GPa) = 80.91636 43.10335 82.25844
#
# Poissons Ratio (x) = 0.27515 0.34266
# Poissons Ratio (y) = 0.51653 0.23277
# Poissons Ratio (z) = 0.33707 0.12197
#
# Static dielectric constant tensor:
#      x y z
#    x 3.666580 0.000000 0.045810 
#    y 0.000000 3.140380 0.000000 
#    z 0.045810 0.000000 3.764430 
# 
# 
# High freq. dielectric constant tensor:
#      x y z
#    x 1.767880 0.000000 0.003400 
#    y 0.000000 1.713090 0.000000 
#    z 0.003400 0.000000 1.774860 
# 
# From -- ./inp_files/57003.got.cif
#   From: 2010.06.25/outbox.cif.g09.slc.cpg/sg10_29_cif.got.tgz:57003.got - 2010.06.27 22:07:45.
