data_PCOD8061222
_publ_section_title
;
Structure prediction by ZEFSAII (Michael W. Deem and Ramdas Pophale) SiO2 
 PCOD8061222
Probable space group: P 2/M
;
_chemical_formula_sum "Si O2"
_cell_formula_units_Z 32
_cell_length_a 11.022532
_cell_length_b 9.304197
_cell_length_c 28.952553
_cell_angle_alpha 90.000000
_cell_angle_beta 148.652790
_cell_angle_gamma 90.000000
_cell_volume 1544.673395
_symmetry_space_group_name_H-M "P 2/M"
_symmetry_group_IT_number 10
_symmetry_cell_setting 'monoclinic'
loop_
_space_group_symop_operation_xyz
x,y,z
-x,y,-z
-x,-y,-z
x,-y,z
loop_
_atom_site_type_symbol
_atom_site_label
_atom_site_fract_x
_atom_site_fract_y
_atom_site_fract_z
Si Si1 0.753627 0.330575 0.400272
Si Si2 0.756272 0.330544 0.064148
Si Si3 0.524429 0.669297 0.234503
Si Si4 0.727075 0.658396 0.543723
Si Si5 0.975695 0.834537 0.214934
Si Si6 0.165205 0.331394 0.746156
Si Si7 0.984423 0.329629 0.942513
Si Si8 0.510098 0.835565 0.394579
O O1 0.729125 0.500000 0.399162
O O2 0.713210 0.280327 0.334219
O O3 0.546356 0.253509 0.359964
O O4 0.000000 0.274557 0.500000
O O5 0.796460 0.500000 0.083647
O O6 0.943968 0.245452 0.155940
O O7 0.809998 0.286479 0.027590
O O8 0.500000 0.286417 0.000000
O O9 0.513737 0.500000 0.234139
O O10 0.612363 0.713162 0.212236
O O11 0.263457 0.729060 0.157927
O O12 0.500000 0.641690 0.500000
O O13 0.790888 0.500000 0.543300
O O14 0.681524 0.772141 0.488959
O O15 0.935684 0.713981 0.643333
O O16 0.811980 0.758137 0.199511
O O17 0.239215 0.819639 0.319138
O O18 0.901957 0.000000 0.185436
O O19 0.162329 0.500000 0.757822
O O20 0.984490 0.500000 0.946738
O O21 0.000000 0.265683 0.000000
O O22 0.580877 0.000000 0.410179
#
# Coordination Sequence:
#
# PCOD8061222 Si02
#       8
#     4   4   4   4   4   4   4   4
#     4  10  20  36  58  82 111 149 197 249 298 350
#     4  10  22  39  64  94 117 147 195 244 294 357
#     4   9  18  32  54  82 113 148 186 238 297 347
#     4  10  19  33  53  80 111 148 194 247 298 341
#     4  11  24  39  56  83 120 159 194 235 294 352
#     4  10  20  35  58  85 113 150 199 246 291 346
#     4   9  18  33  56  89 122 146 177 234 301 352
#     4  11  23  36  54  80 115 157 197 237 289 357
#
# _framework density 20.716355
#
# number of rings (size 3 to 8) (size 9 to 14) (size 15 to 20)
#    0.000    2.000    1.250    2.250    1.750    5.750 
#    0.000    0.625    0.000    1.125    0.000    0.000 
#    0.000    0.000    0.000    0.000    0.000    0.000 
#
# Total GULP energy -396625.119061 kJ/mol
# GULP energy per Si atom -12394.534971 kJ/mol
# Density = 2.066920 g / cm^3
# Si number density = 20.716355 Si / 1000 Ang^3
#
#
#
# Elastic Constant Matrix: (Units=GPa)
#
#
# Indices 1 2 3 4 5 6 
#
# 1 142.3197 31.0325 49.0234 0.0000 -10.7863 0.0000
# 2 31.0325 55.7495 23.0193 0.0000 -9.2074 0.0000
# 3 49.0234 23.0193 77.3660 0.0000 -7.7232 0.0000
# 4 0.0000 0.0000 0.0000 27.8536 0.0000 0.8575
# 5 -10.7863 -9.2074 -7.7232 0.0000 36.9942 0.0000
# 6 0.0000 0.0000 0.0000 0.8575 0.0000 6.7228
#
#
#
# Elastic Compliance Matrix: (Units=1/GPa)
#
#
# Indices 1 2 3 4 5 6 
#
# 1 0.009491 -0.003056 -0.005009 0.000000 0.000961 0.000000
# 2 -0.003056 0.022000 -0.004240 0.000000 0.003699 0.000000
# 3 -0.005009 -0.004240 0.017474 0.000000 0.001132 0.000000
# 4 0.000000 0.000000 0.000000 0.036044 0.000000 -0.004597
# 5 0.000961 0.003699 0.001132 0.000000 0.028469 0.000000
# 6 0.000000 0.000000 0.000000 -0.004597 0.000000 0.149335
#
#
# Mechanical properties :
#
#
# Convention : Reuss Voigt Hill
#
# Bulk Modulus (GPa) = 41.05888 53.50954 47.28421
# Shear Modulus (GPa) = 16.91814 25.80477 21.36145
#
# Velocity S-wave (km/s) = 2.86082 3.53317 3.21462
# Velocity P-wave (km/s) = 5.54752 6.52151 6.05413
#
# Compressibility (1/GPa) = 0.02435527
#
# Stress axis : x y z
#
# Youngs Moduli (GPa) = 105.36329 45.45391 57.22791
#
# Poissons Ratio (x) = 0.13892 0.28664
# Poissons Ratio (y) = 0.32201 0.24265
# Poissons Ratio (z) = 0.52774 0.19273
#
# Static dielectric constant tensor:
#      x y z
#    x 4.145700 0.000000 0.037360 
#    y 0.000000 3.351070 0.000000 
#    z 0.037360 0.000000 4.057260 
# 
# 
# High freq. dielectric constant tensor:
#      x y z
#    x 1.823950 0.000000 -0.001180 
#    y 0.000000 1.762560 0.000000 
#    z -0.001180 0.000000 1.811300 
# 
# From -- ./inp_files/95037.got.cif
#   From: 2010.06.25/outbox.cif.g09.slc.cpg/sg10_48_cif.got.tgz:95037.got - 2010.06.27 22:07:45.
