data_PCOD8061282
_publ_section_title
;
Structure prediction by ZEFSAII (Michael W. Deem and Ramdas Pophale) SiO2 
 PCOD8061282
Probable space group: P 2/M
;
_chemical_formula_sum "Si O2"
_cell_formula_units_Z 32
_cell_length_a 30.837623
_cell_length_b 8.699292
_cell_length_c 11.850924
_cell_angle_alpha 90.000000
_cell_angle_beta 30.333479
_cell_angle_gamma 90.000000
_cell_volume 1605.594767
_symmetry_space_group_name_H-M "P 2/M"
_symmetry_group_IT_number 10
_symmetry_cell_setting 'monoclinic'
loop_
_space_group_symop_operation_xyz
x,y,z
-x,y,-z
-x,-y,-z
x,-y,z
loop_
_atom_site_type_symbol
_atom_site_label
_atom_site_fract_x
_atom_site_fract_y
_atom_site_fract_z
Si Si1 0.401848 0.677959 0.219307
Si Si2 0.218546 0.681006 0.226643
Si Si3 0.528406 0.818755 0.556743
Si Si4 0.750758 0.823623 0.319452
Si Si5 0.623260 0.676764 0.978924
Si Si6 0.278554 0.177364 0.867769
Si Si7 0.921562 0.818788 0.310951
Si Si8 0.899606 0.680124 0.122923
O O1 0.399458 0.500000 0.261170
O O2 0.346806 0.776631 0.431463
O O3 0.358352 0.701761 0.194414
O O4 0.500000 0.737605 0.000000
O O5 0.206020 0.500000 0.270751
O O6 0.298602 0.743683 0.121579
O O7 0.133248 0.768267 0.458087
O O8 0.230847 0.720446 0.067877
O O9 0.500000 0.750634 0.500000
O O10 0.624492 0.761997 0.364506
O O11 0.522433 0.000000 0.570733
O O12 0.466116 0.758544 0.793554
O O13 0.767871 0.801897 0.147913
O O14 0.815717 0.713402 0.238494
O O15 0.765582 0.000000 0.321526
O O16 0.611163 0.500000 0.036378
O O17 0.277644 0.000000 0.909335
O O18 0.883232 0.734476 0.287345
O O19 0.917026 0.000000 0.302789
O O20 0.019772 0.769622 0.111462
O O21 0.919009 0.500000 0.078941
#
# Coordination Sequence:
#
# PCOD8061282 Si02
#       8
#     4   4   4   4   4   4   4   4
#     4  10  21  37  56  81 116 155 195 243 297 352
#     4  11  22  36  56  85 118 153 195 241 293 347
#     4  10  19  33  54  78 109 150 196 240 287 340
#     4  11  23  39  60  85 116 156 201 244 296 354
#     4  10  21  34  52  80 112 147 190 240 290 344
#     4  10  22  39  56  80 115 155 199 248 294 346
#     4  11  22  39  65  94 123 151 187 235 290 346
#     4  11  22  40  65  92 122 153 190 235 288 350
#
# _framework density 19.930308
#
# number of rings (size 3 to 8) (size 9 to 14) (size 15 to 20)
#    0.000    1.500    1.250    5.250    0.000    4.000 
#    0.000    0.625    0.000    3.750    0.000    0.000 
#    0.000    0.000    0.000    0.000    0.000    0.000 
#
# Total GULP energy -396969.736526 kJ/mol
# GULP energy per Si atom -12405.304266 kJ/mol
# Density = 1.988495 g / cm^3
# Si number density = 19.930308 Si / 1000 Ang^3
#
#
#
# Elastic Constant Matrix: (Units=GPa)
#
#
# Indices 1 2 3 4 5 6 
#
# 1 76.7018 23.4365 29.3351 0.0000 -1.3241 0.0000
# 2 23.4365 73.0260 31.6136 0.0000 4.9133 0.0000
# 3 29.3351 31.6136 111.6156 0.0000 6.7797 0.0000
# 4 0.0000 0.0000 0.0000 37.0122 0.0000 0.2022
# 5 -1.3241 4.9133 6.7797 0.0000 28.2929 0.0000
# 6 0.0000 0.0000 0.0000 0.2022 0.0000 24.8590
#
#
#
# Elastic Compliance Matrix: (Units=1/GPa)
#
#
# Indices 1 2 3 4 5 6 
#
# 1 0.015409 -0.003737 -0.003120 0.000000 0.002118 0.000000
# 2 -0.003737 0.016592 -0.003584 0.000000 -0.002198 0.000000
# 3 -0.003120 -0.003584 0.010925 0.000000 -0.002141 0.000000
# 4 0.000000 0.000000 0.000000 0.027019 0.000000 -0.000220
# 5 0.002118 -0.002198 -0.002141 0.000000 0.036338 0.000000
# 6 0.000000 0.000000 0.000000 -0.000220 0.000000 0.040229
#
#
# Mechanical properties :
#
#
# Convention : Reuss Voigt Hill
#
# Bulk Modulus (GPa) = 45.36370 47.79042 46.57706
# Shear Modulus (GPa) = 28.61349 29.83004 29.22177
#
# Velocity S-wave (km/s) = 3.79314 3.87294 3.83325
# Velocity P-wave (km/s) = 6.48032 6.63554 6.55839
#
# Compressibility (1/GPa) = 0.02204406
#
# Stress axis : x y z
#
# Youngs Moduli (GPa) = 64.89610 60.26829 91.53732
#
# Poissons Ratio (x) = 0.22523 0.28560
# Poissons Ratio (y) = 0.24253 0.32806
# Poissons Ratio (z) = 0.20248 0.21600
#
# Static dielectric constant tensor:
#      x y z
#    x 3.557980 0.000000 -0.014680 
#    y 0.000000 3.519300 0.000000 
#    z -0.014680 0.000000 3.603090 
# 
# 
# High freq. dielectric constant tensor:
#      x y z
#    x 1.772530 0.000000 0.002630 
#    y 0.000000 1.775880 0.000000 
#    z 0.002630 0.000000 1.778440 
# 
# From -- ./inp_files/58202.got.cif
#   From: 2010.06.25/outbox.cif.g09.slc.cpg/sg10_30_cif.got.tgz:58202.got - 2010.06.27 22:07:45.
