data_PCOD8061500
_publ_section_title
;
Structure prediction by ZEFSAII (Michael W. Deem and Ramdas Pophale) SiO2 
 PCOD8061500
Probable space group: P 2/M
;
_chemical_formula_sum "Si O2"
_cell_formula_units_Z 32
_cell_length_a 19.595136
_cell_length_b 9.201420
_cell_length_c 10.338909
_cell_angle_alpha 90.000000
_cell_angle_beta 105.599223
_cell_angle_gamma 90.000000
_cell_volume 1795.473870
_symmetry_space_group_name_H-M "P 2/M"
_symmetry_group_IT_number 10
_symmetry_cell_setting 'monoclinic'
loop_
_space_group_symop_operation_xyz
x,y,z
-x,y,-z
-x,-y,-z
x,-y,z
loop_
_atom_site_type_symbol
_atom_site_label
_atom_site_fract_x
_atom_site_fract_y
_atom_site_fract_z
Si Si1 0.583441 0.833763 0.530508
Si Si2 0.790799 0.333512 0.519669
Si Si3 0.793258 0.168583 0.775608
Si Si4 0.647335 0.669325 0.323616
Si Si5 0.417859 0.172108 0.952284
Si Si6 0.952304 0.828466 0.857064
Si Si7 0.049126 0.670905 0.407923
Si Si8 0.346507 0.829922 0.173231
O O1 0.500000 0.827390 0.500000
O O2 0.607745 0.731314 0.427639
O O3 0.615690 0.768801 0.679402
O O4 0.608834 0.000000 0.518441
O O5 0.791613 0.500000 0.563428
O O6 0.766673 0.244661 0.632228
O O7 0.732562 0.306078 0.378473
O O8 0.869721 0.287762 0.513742
O O9 0.872224 0.216974 0.854999
O O10 0.737852 0.205564 0.862364
O O11 0.791554 0.000000 0.741992
O O12 0.628997 0.500000 0.301629
O O13 0.620553 0.752962 0.185698
O O14 0.408291 0.000000 0.932315
O O15 0.500000 0.215360 0.000000
O O16 0.380235 0.237389 0.061255
O O17 0.974981 0.750418 0.735939
O O18 0.960950 0.000000 0.840424
O O19 0.000000 0.772756 0.000000
O O20 0.039180 0.500000 0.380797
O O21 0.000000 0.726694 0.500000
O O22 0.361722 0.000000 0.175368
#
# Coordination Sequence:
#
# PCOD8061500 Si02
#       8
#     4   4   4   4   4   4   4   4
#     4  10  19  33  56  81 101 127 169 216 253 295
#     4   9  18  33  52  75 105 136 169 210 256 302
#     4   9  16  30  53  75  99 131 169 211 254 300
#     4  11  22  35  52  77 109 139 167 206 260 316
#     4  10  21  38  56  73 100 138 176 214 256 302
#     4   9  18  32  50  75 107 136 162 204 260 309
#     4   9  18  34  55  76 101 137 178 215 249 294
#     4   9  17  31  52  76  97 125 170 214 249 293
#
# _framework density 17.822592
#
# number of rings (size 3 to 8) (size 9 to 14) (size 15 to 20)
#    0.000    2.500    1.250    1.125    0.000    3.500 
#    2.250    1.250    0.000    0.000    0.000    0.000 
#    0.000    0.000    0.000    0.000    0.000    0.000 
#
# Total GULP energy -396722.445022 kJ/mol
# GULP energy per Si atom -12397.576407 kJ/mol
# Density = 1.778203 g / cm^3
# Si number density = 17.822592 Si / 1000 Ang^3
#
#
#
# Elastic Constant Matrix: (Units=GPa)
#
#
# Indices 1 2 3 4 5 6 
#
# 1 120.3330 35.7625 83.6447 0.0000 -8.9780 0.0000
# 2 35.7625 36.5613 41.0167 0.0000 0.1261 0.0000
# 3 83.6447 41.0167 155.6018 0.0000 -3.1827 0.0000
# 4 0.0000 0.0000 0.0000 -7.9582 0.0000 -1.9839
# 5 -8.9780 0.1261 -3.1827 0.0000 34.4524 0.0000
# 6 0.0000 0.0000 0.0000 -1.9839 0.0000 7.6182
#
#
#
# Elastic Compliance Matrix: (Units=1/GPa)
#
#
# Indices 1 2 3 4 5 6 
#
# 1 0.015082 -0.008161 -0.005887 0.000000 0.003416 0.000000
# 2 -0.008161 0.043292 -0.007085 0.000000 -0.002940 0.000000
# 3 -0.005887 -0.007085 0.011449 0.000000 -0.000450 0.000000
# 4 0.000000 0.000000 0.000000 -0.117997 0.000000 -0.030728
# 5 0.003416 -0.002940 -0.000450 0.000000 0.029885 0.000000
# 6 0.000000 0.000000 0.000000 -0.030728 0.000000 0.123263
#
#
# Mechanical properties :
#
#
# Convention : Reuss Voigt Hill
#
# Bulk Modulus (GPa) = 36.28531 70.37153 53.32842
# Shear Modulus (GPa) = 31.96384 16.96063 24.46224
#
# Velocity S-wave (km/s) = 4.23950 3.08821 3.70880
# Velocity P-wave (km/s) = 6.66092 7.23092 6.95177
#
# Compressibility (1/GPa) = 0.02755936
#
# Stress axis : x y z
#
# Youngs Moduli (GPa) = 66.30302 23.09870 87.34044
#
# Poissons Ratio (x) = 0.18850 0.51413
# Poissons Ratio (y) = 0.54108 0.61883
# Poissons Ratio (z) = 0.39029 0.16366
#
# Static dielectric constant tensor:
#      x y z
#    x 4.113000 0.000000 -0.170880 
#    y 0.000000 3.166240 0.000000 
#    z -0.170880 0.000000 3.405130 
# 
# 
# High freq. dielectric constant tensor:
#      x y z
#    x 1.703260 0.000000 0.004540 
#    y 0.000000 1.671620 0.000000 
#    z 0.004540 0.000000 1.680080 
# 
# From -- ./inp_files/33937.got.cif
#   From: 2010.06.25/outbox.cif.g09.slc.cpg/sg10_17_cif.got.tgz:33937.got - 2010.06.27 22:07:45.
