data_PCOD8061378
_publ_section_title
;
Structure prediction by ZEFSAII (Michael W. Deem and Ramdas Pophale) SiO2 
 PCOD8061378
Probable space group: P 2/M
;
_chemical_formula_sum "Si O2"
_cell_formula_units_Z 28
_cell_length_a 15.974991
_cell_length_b 8.701209
_cell_length_c 10.266748
_cell_angle_alpha 90.000000
_cell_angle_beta 111.551763
_cell_angle_gamma 90.000000
_cell_volume 1327.321926
_symmetry_space_group_name_H-M "P 2/M"
_symmetry_group_IT_number 10
_symmetry_cell_setting 'monoclinic'
loop_
_space_group_symop_operation_xyz
x,y,z
-x,y,-z
-x,-y,-z
x,-y,z
loop_
_atom_site_type_symbol
_atom_site_label
_atom_site_fract_x
_atom_site_fract_y
_atom_site_fract_z
Si Si1 0.100120 0.678224 0.542730
Si Si2 0.380524 0.677526 0.508742
Si Si3 0.207563 0.182185 0.835961
Si Si4 0.459009 0.827244 0.308857
Si Si5 0.594064 0.175088 0.007204
Si Si6 0.813920 0.322485 0.674555
Si Si7 0.100472 0.181262 0.029013
O O1 0.111083 0.500000 0.586943
O O2 0.165185 0.773437 0.673874
O O3 0.114932 0.706271 0.398422
O O4 0.000000 0.740363 0.500000
O O5 0.387330 0.500000 0.551504
O O6 0.419907 0.704781 0.387258
O O7 0.435329 0.778532 0.647240
O O8 0.278298 0.733652 0.444727
O O9 0.213907 0.000000 0.854321
O O10 0.310461 0.250609 0.895019
O O11 0.146066 0.246532 0.921415
O O12 0.402959 0.815370 0.146216
O O13 0.453254 0.000000 0.361160
O O14 0.590391 0.000000 0.056541
O O15 0.500000 0.257107 0.000000
O O16 0.808555 0.500000 0.714697
O O17 0.836042 0.223027 0.813654
O O18 0.093063 0.000000 0.013281
O O19 0.000000 0.250454 0.000000
#
# Coordination Sequence:
#
# PCOD8061378 Si02
#       7
#     4   4   4   4   4   4   4
#     4  10  22  40  59  82 115 151 189 235 284 339
#     4  10  20  34  52  76 110 142 174 226 279 321
#     4  10  21  37  59  85 114 149 188 233 286 341
#     4  10  19  33  55  79 105 140 185 223 266 327
#     4   9  19  34  52  77 110 143 180 226 271 320
#     4  10  22  37  56  82 111 147 190 230 278 340
#     4  10  21  37  58  86 116 144 183 238 292 341
#
# _framework density 21.095106999999999
#
# number of rings (size 3 to 8) (size 9 to 14) (size 15 to 20)
#    0.000    2.143    0.000    3.429    2.000    4.000 
#    0.000    1.429    0.000    2.143    0.000    0.000 
#    0.000    0.000    0.000    0.000    0.000    0.000 
#
# Total GULP energy -347017.685584 kJ/mol
# GULP energy per Si atom -12393.488771 kJ/mol
# Density = 2.104709 g / cm^3
# Si number density = 21.095107 Si / 1000 Ang^3
#
#
#
# Elastic Constant Matrix: (Units=GPa)
#
#
# Indices 1 2 3 4 5 6 
#
# 1 104.7058 10.6696 13.2373 0.0000 15.7786 0.0000
# 2 10.6696 18.6089 11.3254 0.0000 6.8440 0.0000
# 3 13.2373 11.3254 82.1535 0.0000 12.4866 0.0000
# 4 0.0000 0.0000 0.0000 14.7321 0.0000 0.0383
# 5 15.7786 6.8440 12.4866 0.0000 33.5329 0.0000
# 6 0.0000 0.0000 0.0000 0.0383 0.0000 10.7423
#
#
#
# Elastic Compliance Matrix: (Units=1/GPa)
#
#
# Indices 1 2 3 4 5 6 
#
# 1 0.010652 -0.004345 -0.000520 0.000000 -0.003932 0.000000
# 2 -0.004345 0.063432 -0.006771 0.000000 -0.008381 0.000000
# 3 -0.000520 -0.006771 0.013719 0.000000 -0.003482 0.000000
# 4 0.000000 0.000000 0.000000 0.067880 0.000000 -0.000242
# 5 -0.003932 -0.008381 -0.003482 0.000000 0.034679 0.000000
# 6 0.000000 0.000000 0.000000 -0.000242 0.000000 0.093091
#
#
# Mechanical properties :
#
#
# Convention : Reuss Voigt Hill
#
# Bulk Modulus (GPa) = 15.49633 30.65923 23.07778
# Shear Modulus (GPa) = 15.23312 23.15050 19.19181
#
# Velocity S-wave (km/s) = 2.69014 3.31635 3.01952
# Velocity P-wave (km/s) = 4.12444 5.40644 4.80836
#
# Compressibility (1/GPa) = 0.06453140
#
# Stress axis : x y z
#
# Youngs Moduli (GPa) = 93.88346 15.76500 72.89326
#
# Poissons Ratio (x) = 0.06850 0.03788
# Poissons Ratio (y) = 0.40791 0.49353
# Poissons Ratio (z) = 0.04879 0.10674
#
# Static dielectric constant tensor:
#      x y z
#    x 4.424870 0.000000 0.255950 
#    y 0.000000 3.421600 0.000000 
#    z 0.255950 0.000000 3.694140 
# 
# 
# High freq. dielectric constant tensor:
#      x y z
#    x 1.842440 0.000000 0.011840 
#    y 0.000000 1.789330 0.000000 
#    z 0.011840 0.000000 1.830660 
# 
# From -- ./inp_files/49310.got.cif
#   From: 2010.06.25/outbox.cif.g09.slc.cpg/sg10_25_cif.got.tgz:49310.got - 2010.06.27 22:07:45.
