data_PCOD8061854
_publ_section_title
;
Structure prediction by ZEFSAII (Michael W. Deem and Ramdas Pophale) SiO2 
 PCOD8061854
Probable space group: P 2/M
;
_chemical_formula_sum "Si O2"
_cell_formula_units_Z 28
_cell_length_a 28.906004
_cell_length_b 8.677859
_cell_length_c 9.018695
_cell_angle_alpha 90.000000
_cell_angle_beta 141.184856
_cell_angle_gamma 90.000000
_cell_volume 1418.012668
_symmetry_space_group_name_H-M "P 2/M"
_symmetry_group_IT_number 10
_symmetry_cell_setting 'monoclinic'
loop_
_space_group_symop_operation_xyz
x,y,z
-x,y,-z
-x,-y,-z
x,-y,z
loop_
_atom_site_type_symbol
_atom_site_label
_atom_site_fract_x
_atom_site_fract_y
_atom_site_fract_z
Si Si1 0.141190 0.816629 0.186164
Si Si2 0.571473 0.816914 0.094440
Si Si3 0.287166 0.319513 0.053263
Si Si4 0.002966 0.816330 0.340211
Si Si5 0.577718 0.178052 0.772974
Si Si6 0.714907 0.183234 0.626656
Si Si7 0.851193 0.816739 0.459718
O O1 0.212058 0.756072 0.273601
O O2 0.144627 0.754261 0.362137
O O3 0.139901 0.000000 0.183187
O O4 0.067534 0.751326 0.924666
O O5 0.644646 0.756266 0.358961
O O6 0.568423 0.000000 0.090713
O O7 0.500000 0.748263 0.000000
O O8 0.571572 0.759843 0.925370
O O9 0.275563 0.500000 0.032981
O O10 0.363916 0.281566 0.166703
O O11 0.287576 0.251356 0.217328
O O12 0.221733 0.246366 0.796633
O O13 0.077229 0.754720 0.448711
O O14 0.000000 0.752525 0.500000
O O15 0.001789 0.000000 0.336592
O O16 0.500000 0.199130 0.500000
O O17 0.603464 0.000000 0.833489
O O18 0.714576 0.000000 0.638202
O O19 0.848165 0.000000 0.448490
#
# Coordination Sequence:
#
# PCOD8061854 Si02
#       7
#     4   4   4   4   4   4   4
#     4   9  17  30  53  85 111 135 177 232 281 323
#     4   9  17  31  55  87 114 136 171 219 265 313
#     4  12  25  38  53  77 112 148 184 224 267 318
#     4   9  16  27  49  83 115 139 170 221 279 327
#     4  10  20  37  63  89 111 139 177 220 268 322
#     4  10  19  34  56  78 105 142 184 227 270 319
#     4  10  19  34  57  81 108 142 181 224 272 327
#
# _framework density 19.745944999999999
#
# number of rings (size 3 to 8) (size 9 to 14) (size 15 to 20)
#    0.000    2.143    0.000    4.286    0.000    8.857 
#    0.000    2.857    0.000    7.286    0.000    0.000 
#    0.000    0.000    0.000    0.000    0.000    0.000 
#
# Total GULP energy -347261.844171 kJ/mol
# GULP energy per Si atom -12402.208720 kJ/mol
# Density = 1.970100 g / cm^3
# Si number density = 19.745945 Si / 1000 Ang^3
#
#
#
# Elastic Constant Matrix: (Units=GPa)
#
#
# Indices 1 2 3 4 5 6 
#
# 1 182.7328 15.5186 78.6757 0.0000 -12.3716 0.0000
# 2 15.5186 16.4917 18.1388 0.0000 -1.3280 0.0000
# 3 78.6757 18.1388 166.1455 0.0000 -14.3611 0.0000
# 4 0.0000 0.0000 0.0000 -18.5136 0.0000 4.3887
# 5 -12.3716 -1.3280 -14.3611 0.0000 47.6882 0.0000
# 6 0.0000 0.0000 0.0000 4.3887 0.0000 4.1194
#
#
#
# Elastic Compliance Matrix: (Units=1/GPa)
#
#
# Indices 1 2 3 4 5 6 
#
# 1 0.007069 -0.003390 -0.002902 0.000000 0.000865 0.000000
# 2 -0.003390 0.070542 -0.006163 0.000000 -0.000771 0.000000
# 3 -0.002902 -0.006163 0.008200 0.000000 0.001545 0.000000
# 4 0.000000 0.000000 0.000000 -0.043123 0.000000 0.045943
# 5 0.000865 -0.000771 0.001545 0.000000 0.021638 0.000000
# 6 0.000000 0.000000 0.000000 0.045943 0.000000 0.193809
#
#
# Mechanical properties :
#
#
# Convention : Reuss Voigt Hill
#
# Bulk Modulus (GPa) = 16.42016 65.55959 40.98987
# Shear Modulus (GPa) = 16.48296 23.52791 20.00544
#
# Velocity S-wave (km/s) = 2.89234 3.45560 3.18644
# Velocity P-wave (km/s) = 4.41452 7.01393 5.86017
#
# Compressibility (1/GPa) = 0.06090075
#
# Stress axis : x y z
#
# Youngs Moduli (GPa) = 141.47226 14.17586 121.95796
#
# Poissons Ratio (x) = 0.04805 0.35396
# Poissons Ratio (y) = 0.47953 0.75163
# Poissons Ratio (z) = 0.41060 0.08737
#
# Static dielectric constant tensor:
#      x y z
#    x 3.889880 0.000000 -0.002890 
#    y 0.000000 3.010890 0.000000 
#    z -0.002890 0.000000 3.873280 
# 
# 
# High freq. dielectric constant tensor:
#      x y z
#    x 1.791790 0.000000 -0.001080 
#    y 0.000000 1.706710 0.000000 
#    z -0.001080 0.000000 1.792200 
# 
# From -- ./inp_files/37112.got.cif
#   From: 2010.06.25/outbox.cif.g09.slc.cpg/sg10_19_cif.got.tgz:37112.got - 2010.06.27 22:07:45.
