data_PCOD8061259
_publ_section_title
;
Structure prediction by ZEFSAII (Michael W. Deem and Ramdas Pophale) SiO2 
 PCOD8061259
Probable space group: P 2/M
;
_chemical_formula_sum "Si O2"
_cell_formula_units_Z 30
_cell_length_a 25.990082
_cell_length_b 12.426512
_cell_length_c 25.925247
_cell_angle_alpha 90.000000
_cell_angle_beta 11.373734
_cell_angle_gamma 90.000000
_cell_volume 1651.217121
_symmetry_space_group_name_H-M "P 2/M"
_symmetry_group_IT_number 10
_symmetry_cell_setting 'monoclinic'
loop_
_space_group_symop_operation_xyz
x,y,z
-x,y,-z
-x,-y,-z
x,-y,z
loop_
_atom_site_type_symbol
_atom_site_label
_atom_site_fract_x
_atom_site_fract_y
_atom_site_fract_z
Si Si1 0.396988 0.627148 0.944627
Si Si2 0.265679 0.267779 0.770245
Si Si3 0.115008 0.251199 0.577586
Si Si4 0.734842 0.500000 0.230420
Si Si5 0.837154 0.126284 0.363585
Si Si6 0.087969 0.125738 0.502124
Si Si7 0.575961 0.243980 0.980998
Si Si8 0.308895 0.874458 0.826712
O O1 0.405564 0.500000 0.931515
O O2 0.417702 0.658593 0.984563
O O3 0.132561 0.670571 0.179450
O O4 0.633029 0.676786 0.680471
O O5 0.500000 0.251949 0.500000
O O6 0.278411 0.385723 0.786726
O O7 0.284974 0.179430 0.794945
O O8 0.000000 0.251924 0.000000
O O9 0.139573 0.194225 0.607776
O O10 0.082949 0.157182 0.567085
O O11 0.500000 0.500000 0.500000
O O12 0.000000 0.500000 0.000000
O O13 0.573230 0.160879 0.594748
O O14 0.842763 0.000000 0.371734
O O15 0.071724 0.160593 0.096008
O O16 0.857008 0.187758 0.699692
O O17 0.039432 0.000000 0.544210
O O18 0.365736 0.154784 0.204551
O O19 0.500000 0.292577 0.000000
O O20 0.304603 0.000000 0.819580
#
# Coordination Sequence:
#
# PCOD8061259 Si02
#       8
#     4   4   4   2   4   4   4   4
#     4  10  21  37  57  77 102 136 175 221 265 309
#     4  10  19  33  54  77 105 143 182 222 259 307
#     4  10  20  36  58  79 100 135 178 220 260 316
#     4   8  16  30  50  72  92 130 178 214 252 290
#     4  10  20  36  57  79 107 141 173 214 264 317
#     4  10  20  33  51  77 106 135 173 216 260 316
#     4  10  21  34  50  76 105 138 176 210 258 317
#     4  10  21  34  52  81 113 143 175 215 268 321
#
# _framework density 18.168416000000001
#
# number of rings (size 3 to 8) (size 9 to 14) (size 15 to 20)
#    0.000    2.133    0.000    3.200    0.000    2.400 
#    0.000    4.000    8.800    4.800    0.000    0.000 
#    0.000    0.000    0.000    0.000    0.000    0.000 
#
# Total GULP energy -371987.439822 kJ/mol
# GULP energy per Si atom -12399.581327 kJ/mol
# Density = 1.812706 g / cm^3
# Si number density = 18.168416 Si / 1000 Ang^3
#
#
#
# Elastic Constant Matrix: (Units=GPa)
#
#
# Indices 1 2 3 4 5 6 
#
# 1 128.3470 55.8159 48.8130 0.0000 -8.6923 0.0000
# 2 55.8159 76.0106 34.4561 0.0000 -3.1769 0.0000
# 3 48.8130 34.4561 143.7931 0.0000 -13.4358 0.0000
# 4 0.0000 0.0000 0.0000 32.4405 0.0000 -1.2101
# 5 -8.6923 -3.1769 -13.4358 0.0000 22.6153 0.0000
# 6 0.0000 0.0000 0.0000 -1.2101 0.0000 19.7899
#
#
#
# Elastic Compliance Matrix: (Units=1/GPa)
#
#
# Indices 1 2 3 4 5 6 
#
# 1 0.012160 -0.007920 -0.002009 0.000000 0.002368 0.000000
# 2 -0.007920 0.019917 -0.002231 0.000000 -0.001572 0.000000
# 3 -0.002009 -0.002231 0.008544 0.000000 0.003990 0.000000
# 4 0.000000 0.000000 0.000000 0.030896 0.000000 0.001889
# 5 0.002368 -0.001572 0.003990 0.000000 0.047278 0.000000
# 6 0.000000 0.000000 0.000000 0.001889 0.000000 0.050646
#
#
# Mechanical properties :
#
#
# Convention : Reuss Voigt Hill
#
# Bulk Modulus (GPa) = 61.34266 69.59116 65.46691
# Shear Modulus (GPa) = 25.10116 28.90687 27.00402
#
# Velocity S-wave (km/s) = 3.72100 3.99313 3.85946
# Velocity P-wave (km/s) = 7.23172 7.72312 7.48145
#
# Compressibility (1/GPa) = 0.01630187
#
# Stress axis : x y z
#
# Youngs Moduli (GPa) = 82.23792 50.20797 117.04320
#
# Poissons Ratio (x) = 0.39762 0.23513
# Poissons Ratio (y) = 0.65129 0.26113
# Poissons Ratio (z) = 0.16521 0.11201
#
# Static dielectric constant tensor:
#      x y z
#    x 3.192820 0.000000 -0.064850 
#    y 0.000000 3.387350 0.000000 
#    z -0.064850 0.000000 3.620120 
# 
# 
# High freq. dielectric constant tensor:
#      x y z
#    x 1.692850 0.000000 -0.004990 
#    y 0.000000 1.699100 0.000000 
#    z -0.004990 0.000000 1.731390 
# 
# From -- ./inp_files/12451.got.cif
#   From: 2010.06.25/outbox.cif.g09.slc.cpg/sg10_7_cif.got.tgz:12451.got - 2010.06.27 22:07:45.
