data_PCOD8061568
_publ_section_title
;
Structure prediction by ZEFSAII (Michael W. Deem and Ramdas Pophale) SiO2 
 PCOD8061568
Probable space group: P 2/M
;
_chemical_formula_sum "Si O2"
_cell_formula_units_Z 28
_cell_length_a 11.678371
_cell_length_b 8.632801
_cell_length_c 15.437716
_cell_angle_alpha 90.000000
_cell_angle_beta 63.823280
_cell_angle_gamma 90.000000
_cell_volume 1396.758578
_symmetry_space_group_name_H-M "P 2/M"
_symmetry_group_IT_number 10
_symmetry_cell_setting 'monoclinic'
loop_
_space_group_symop_operation_xyz
x,y,z
-x,y,-z
-x,-y,-z
x,-y,z
loop_
_atom_site_type_symbol
_atom_site_label
_atom_site_fract_x
_atom_site_fract_y
_atom_site_fract_z
Si Si1 0.938886 0.180587 0.704761
Si Si2 0.975997 0.318530 0.877642
Si Si3 0.169857 0.319425 0.542276
Si Si4 0.551889 0.178648 0.239824
Si Si5 0.814237 0.180111 0.074488
Si Si6 0.627087 0.820195 0.406992
Si Si7 0.717109 0.680822 0.678344
O O1 0.978550 0.272119 0.777156
O O2 0.796792 0.225617 0.723124
O O3 0.036394 0.228804 0.595824
O O4 0.946721 0.000000 0.721450
O O5 0.954932 0.500000 0.893912
O O6 0.109397 0.272807 0.877308
O O7 0.858350 0.233086 0.964686
O O8 0.138448 0.500000 0.549669
O O9 0.257981 0.282090 0.595069
O O10 0.241048 0.263962 0.431420
O O11 0.663000 0.211692 0.132993
O O12 0.608887 0.224561 0.313648
O O13 0.431283 0.283569 0.256931
O O14 0.508193 0.000000 0.254549
O O15 0.844590 0.000000 0.078403
O O16 0.500000 0.774902 0.500000
O O17 0.662295 0.000000 0.407808
O O18 0.742036 0.500000 0.683159
#
# Coordination Sequence:
#
# PCOD8061568 Si02
#       7
#     4   4   4   4   4   4   4
#     4  12  25  41  62  84 112 153 200 246 293 349
#     4  11  22  39  63  91 121 151 191 244 298 349
#     4  11  23  38  58  86 119 155 196 243 296 348
#     4  10  21  37  58  86 119 158 198 238 285 340
#     4  10  20  37  63  93 124 156 193 237 289 349
#     4  10  19  33  56  84 118 156 196 236 279 338
#     4  11  24  40  58  83 119 157 195 242 291 346
#
# _framework density 20.046416000000001
#
# number of rings (size 3 to 8) (size 9 to 14) (size 15 to 20)
#    0.000    1.286    1.429    6.000    0.000    6.571 
#    0.000    0.714    0.000    4.286    0.000    0.000 
#    0.000    0.000    0.000    0.000    0.000    0.000 
#
# Total GULP energy -347385.805247 kJ/mol
# GULP energy per Si atom -12406.635902 kJ/mol
# Density = 2.000079 g / cm^3
# Si number density = 20.046416 Si / 1000 Ang^3
#
#
#
# Elastic Constant Matrix: (Units=GPa)
#
#
# Indices 1 2 3 4 5 6 
#
# 1 86.8735 27.8396 30.2734 0.0000 -12.6933 0.0000
# 2 27.8396 73.8663 26.3681 0.0000 -7.0598 0.0000
# 3 30.2734 26.3681 81.3534 0.0000 -18.3617 0.0000
# 4 0.0000 0.0000 0.0000 30.0713 0.0000 -3.3982
# 5 -12.6933 -7.0598 -18.3617 0.0000 28.7592 0.0000
# 6 0.0000 0.0000 0.0000 -3.3982 0.0000 26.8612
#
#
#
# Elastic Compliance Matrix: (Units=1/GPa)
#
#
# Indices 1 2 3 4 5 6 
#
# 1 0.014414 -0.003923 -0.003358 0.000000 0.003255 0.000000
# 2 -0.003923 0.016389 -0.003896 0.000000 -0.000196 0.000000
# 3 -0.003358 -0.003896 0.016654 0.000000 0.008194 0.000000
# 4 0.000000 0.000000 0.000000 0.033737 0.000000 0.004268
# 5 0.003255 -0.000196 0.008194 0.000000 0.041392 0.000000
# 6 0.000000 0.000000 0.000000 0.004268 0.000000 0.037768
#
#
# Mechanical properties :
#
#
# Convention : Reuss Voigt Hill
#
# Bulk Modulus (GPa) = 39.83604 45.67281 42.75442
# Shear Modulus (GPa) = 26.16791 27.64585 26.90688
#
# Velocity S-wave (km/s) = 3.61690 3.71764 3.66762
# Velocity P-wave (km/s) = 6.11210 6.42346 6.26971
#
# Compressibility (1/GPa) = 0.02510290
#
# Stress axis : x y z
#
# Youngs Moduli (GPa) = 69.37843 61.01814 60.04614
#
# Poissons Ratio (x) = 0.23936 0.20161
# Poissons Ratio (y) = 0.27215 0.23396
# Poissons Ratio (z) = 0.23294 0.23775
#
# Static dielectric constant tensor:
#      x y z
#    x 3.536500 0.000000 -0.103180 
#    y 0.000000 3.586500 0.000000 
#    z -0.103180 0.000000 3.716830 
# 
# 
# High freq. dielectric constant tensor:
#      x y z
#    x 1.778200 0.000000 -0.010380 
#    y 0.000000 1.785860 0.000000 
#    z -0.010380 0.000000 1.781330 
# 
# From -- ./inp_files/63674.got.cif
#   From: 2010.06.25/outbox.cif.g09.slc.cpg/sg10_32_cif.got.tgz:63674.got - 2010.06.27 22:07:45.
