data_PCOD8061973
_publ_section_title
;
Structure prediction by ZEFSAII (Michael W. Deem and Ramdas Pophale) SiO2 
 PCOD8061973
Probable space group: P 2/M
;
_chemical_formula_sum "Si O2"
_cell_formula_units_Z 24
_cell_length_a 13.927009
_cell_length_b 9.020508
_cell_length_c 15.005469
_cell_angle_alpha 90.000000
_cell_angle_beta 139.230126
_cell_angle_gamma 90.000000
_cell_volume 1231.024122
_symmetry_space_group_name_H-M "P 2/M"
_symmetry_group_IT_number 10
_symmetry_cell_setting 'monoclinic'
loop_
_space_group_symop_operation_xyz
x,y,z
-x,y,-z
-x,-y,-z
x,-y,z
loop_
_atom_site_type_symbol
_atom_site_label
_atom_site_fract_x
_atom_site_fract_y
_atom_site_fract_z
Si Si1 0.134504 0.827760 0.032926
Si Si2 0.006005 0.173020 0.752341
Si Si3 0.565953 0.674542 0.752080
Si Si4 0.687555 0.163382 0.497368
Si Si5 0.365645 0.835025 0.734279
Si Si6 0.118781 0.325245 0.657225
O O1 0.273588 0.731783 0.160897
O O2 0.171757 0.000000 0.073626
O O3 0.097141 0.792500 0.904671
O O4 0.000000 0.778067 0.000000
O O5 0.071013 0.273953 0.720846
O O6 0.834835 0.217241 0.651291
O O7 0.014410 0.000000 0.731595
O O8 0.564879 0.500000 0.760445
O O9 0.451652 0.724551 0.592663
O O10 0.515209 0.747200 0.811209
O O11 0.733698 0.154378 0.424997
O O12 0.638707 0.000000 0.497218
O O13 0.276028 0.748936 0.746899
O O14 0.407121 0.000000 0.798176
O O15 0.140761 0.500000 0.672490
O O16 0.000000 0.276339 0.500000
#
# Coordination Sequence:
#
# PCOD8061973 Si02
#       6
#     4   4   4   4   4   4
#     4  10  22  41  62  82 107 143 188 235 281 329
#     4  10  20  35  57  84 112 146 189 233 274 322
#     4  10  19  34  57  82 111 147 182 224 280 334
#     4   8  16  31  54  80 108 143 183 224 268 318
#     4   9  17  30  52  77 108 146 182 218 262 317
#     4  11  20  29  48  82 120 152 180 219 273 329
#
# _framework density 19.495961000000001
#
# number of rings (size 3 to 8) (size 9 to 14) (size 15 to 20)
#    1.000    1.333    1.667    2.000    0.000    2.333 
#    0.000    1.667    0.000   10.000    0.000    0.000 
#    0.000    0.000    0.000    0.000    0.000    0.000 
#
# Total GULP energy -297420.315267 kJ/mol
# GULP energy per Si atom -12392.513136 kJ/mol
# Density = 1.945159 g / cm^3
# Si number density = 19.495961 Si / 1000 Ang^3
#
#
#
# Elastic Constant Matrix: (Units=GPa)
#
#
# Indices 1 2 3 4 5 6 
#
# 1 76.2483 46.1051 7.2181 0.0000 23.7525 0.0000
# 2 46.1051 109.6118 15.2712 0.0000 21.4609 0.0000
# 3 7.2181 15.2712 26.1999 0.0000 20.3037 0.0000
# 4 0.0000 0.0000 0.0000 14.9964 0.0000 6.8772
# 5 23.7525 21.4609 20.3037 0.0000 32.3046 0.0000
# 6 0.0000 0.0000 0.0000 6.8772 0.0000 21.2984
#
#
#
# Elastic Compliance Matrix: (Units=1/GPa)
#
#
# Indices 1 2 3 4 5 6 
#
# 1 0.022713 -0.007485 0.014024 0.000000 -0.020541 0.000000
# 2 -0.007485 0.012980 -0.006017 0.000000 0.000662 0.000000
# 3 0.014024 -0.006017 0.083256 0.000000 -0.058642 0.000000
# 4 0.000000 0.000000 0.000000 0.078273 0.000000 -0.025274
# 5 -0.020541 0.000662 -0.058642 0.000000 0.082476 0.000000
# 6 0.000000 0.000000 0.000000 -0.025274 0.000000 0.055113
#
#
# Mechanical properties :
#
#
# Convention : Reuss Voigt Hill
#
# Bulk Modulus (GPa) = 8.33379 38.80541 23.56960
# Shear Modulus (GPa) = 13.37740 23.28424 18.33082
#
# Velocity S-wave (km/s) = 2.62231 3.45963 3.06965
# Velocity P-wave (km/s) = 3.66778 5.99218 4.96784
#
# Compressibility (1/GPa) = 0.11999348
#
# Stress axis : x y z
#
# Youngs Moduli (GPa) = 44.02835 77.04000 12.01111
#
# Poissons Ratio (x) = 0.57668 -0.16845
# Poissons Ratio (y) = 0.32957 0.07227
# Poissons Ratio (z) = -0.61748 0.46354
#
# Static dielectric constant tensor:
#      x y z
#    x 3.305440 0.000000 0.138320 
#    y 0.000000 3.402510 0.000000 
#    z 0.138320 0.000000 3.320800 
# 
# 
# High freq. dielectric constant tensor:
#      x y z
#    x 1.744590 0.000000 0.017910 
#    y 0.000000 1.753690 0.000000 
#    z 0.017910 0.000000 1.735120 
# 
# From -- ./inp_files/66700.got.cif
#   From: 2010.06.25/outbox.cif.g09.slc.cpg/sg10_34_cif.got.tgz:66700.got - 2010.06.27 22:07:45.
