data_PCOD8061122
_publ_section_title
;
Structure prediction by ZEFSAII (Michael W. Deem and Ramdas Pophale) SiO2 
 PCOD8061122
Probable space group: P 2/M
;
_chemical_formula_sum "Si O2"
_cell_formula_units_Z 24
_cell_length_a 20.426290
_cell_length_b 8.753755
_cell_length_c 9.673388
_cell_angle_alpha 90.000000
_cell_angle_beta 48.889816
_cell_angle_gamma 90.000000
_cell_volume 1303.211576
_symmetry_space_group_name_H-M "P 2/M"
_symmetry_group_IT_number 10
_symmetry_cell_setting 'monoclinic'
loop_
_space_group_symop_operation_xyz
x,y,z
-x,y,-z
-x,-y,-z
x,-y,z
loop_
_atom_site_type_symbol
_atom_site_label
_atom_site_fract_x
_atom_site_fract_y
_atom_site_fract_z
Si Si1 0.855717 0.677828 0.984905
Si Si2 0.401307 0.319655 0.656060
Si Si3 0.212593 0.822601 0.416772
Si Si4 0.732884 0.179895 0.361671
Si Si5 0.275776 0.179168 0.035195
Si Si6 0.968960 0.322568 0.397069
O O1 0.835402 0.500000 0.037235
O O2 0.823059 0.773229 0.162250
O O3 0.805306 0.732302 0.918133
O O4 0.957751 0.707347 0.820952
O O5 0.500000 0.266436 0.500000
O O6 0.393347 0.500000 0.684550
O O7 0.347109 0.267232 0.597735
O O8 0.365256 0.240046 0.845160
O O9 0.262173 0.767074 0.485786
O O10 0.119414 0.746404 0.535022
O O11 0.192973 0.000000 0.455149
O O12 0.274561 0.785202 0.200435
O O13 0.717898 0.000000 0.366812
O O14 0.266265 0.000000 0.017309
O O15 0.952408 0.500000 0.444141
O O16 0.000000 0.249204 0.500000
#
# Coordination Sequence:
#
# PCOD8061122 Si02
#       6
#     4   4   4   4   4   4
#     4  10  19  33  52  76 105 140 184 225 261 306
#     4  10  21  38  60  84 106 132 170 213 260 319
#     4  10  22  36  52  78 110 143 178 219 263 309
#     4  10  21  37  55  78 109 141 175 215 265 316
#     4  10  19  33  55  80 105 138 177 214 261 312
#     4  10  20  33  51  76 106 143 186 225 261 305
#
# _framework density 18.416042999999998
#
# number of rings (size 3 to 8) (size 9 to 14) (size 15 to 20)
#    0.000    2.000    1.667    4.000    0.000    5.667 
#    0.000    4.167    0.000    5.000    0.000    0.000 
#    0.000    0.000    0.000    0.000    0.000    0.000 
#
# Total GULP energy -297597.640849 kJ/mol
# GULP energy per Si atom -12399.901702 kJ/mol
# Density = 1.837413 g / cm^3
# Si number density = 18.416043 Si / 1000 Ang^3
#
#
#
# Elastic Constant Matrix: (Units=GPa)
#
#
# Indices 1 2 3 4 5 6 
#
# 1 90.9417 19.9862 76.6973 0.0000 -3.4226 0.0000
# 2 19.9862 31.8722 26.1309 0.0000 -5.8949 0.0000
# 3 76.6973 26.1309 127.0401 0.0000 2.8893 0.0000
# 4 0.0000 0.0000 0.0000 154.0391 0.0000 -81.5067
# 5 -3.4226 -5.8949 2.8893 0.0000 35.5684 0.0000
# 6 0.0000 0.0000 0.0000 -81.5067 0.0000 68.4299
#
#
#
# Elastic Compliance Matrix: (Units=1/GPa)
#
#
# Indices 1 2 3 4 5 6 
#
# 1 0.023007 -0.002969 -0.013343 0.000000 0.002806 0.000000
# 2 -0.002969 0.039891 -0.006569 0.000000 0.006859 0.000000
# 3 -0.013343 -0.006569 0.017364 0.000000 -0.003783 0.000000
# 4 0.000000 0.000000 0.000000 0.017557 0.000000 0.020912
# 5 0.002806 0.006859 -0.003783 0.000000 0.029829 0.000000
# 6 0.000000 0.000000 0.000000 0.020912 0.000000 0.039522
#
#
# Mechanical properties :
#
#
# Convention : Reuss Voigt Hill
#
# Bulk Modulus (GPa) = 28.98459 55.05366 42.01912
# Shear Modulus (GPa) = 22.27832 60.07679 41.17755
#
# Velocity S-wave (km/s) = 3.48188 5.71776 4.73372
# Velocity P-wave (km/s) = 5.65134 8.57611 7.26248
#
# Compressibility (1/GPa) = 0.03450109
#
# Stress axis : x y z
#
# Youngs Moduli (GPa) = 43.46429 25.06823 57.58893
#
# Poissons Ratio (x) = 0.07442 0.76843
# Poissons Ratio (y) = 0.12903 0.37830
# Poissons Ratio (z) = 0.57996 0.16467
#
# Static dielectric constant tensor:
#      x y z
#    x 3.271330 0.000000 0.136100 
#    y 0.000000 3.423370 0.000000 
#    z 0.136100 0.000000 3.657620 
# 
# 
# High freq. dielectric constant tensor:
#      x y z
#    x 1.693230 0.000000 0.004200 
#    y 0.000000 1.721630 0.000000 
#    z 0.004200 0.000000 1.722550 
# 
# From -- ./inp_files/33731.got.cif
#   From: 2010.06.25/outbox.cif.g09.slc.cpg/sg10_17_cif.got.tgz:33731.got - 2010.06.27 22:07:45.
