data_PCOD8061708
_publ_section_title
;
Structure prediction by ZEFSAII (Michael W. Deem and Ramdas Pophale) SiO2 
 PCOD8061708
Probable space group: P 2/M
;
_chemical_formula_sum "Si O2"
_cell_formula_units_Z 24
_cell_length_a 26.895041
_cell_length_b 11.685259
_cell_length_c 9.456233
_cell_angle_alpha 90.000000
_cell_angle_beta 151.902601
_cell_angle_gamma 90.000000
_cell_volume 1399.663557
_symmetry_space_group_name_H-M "P 2/M"
_symmetry_group_IT_number 10
_symmetry_cell_setting 'monoclinic'
loop_
_space_group_symop_operation_xyz
x,y,z
-x,y,-z
-x,-y,-z
x,-y,z
loop_
_atom_site_type_symbol
_atom_site_label
_atom_site_fract_x
_atom_site_fract_y
_atom_site_fract_z
Si Si1 0.905325 0.131482 0.675443
Si Si2 0.097918 0.868122 0.658597
Si Si3 0.328458 0.863986 0.925213
Si Si4 0.691289 0.743512 0.835639
Si Si5 0.662820 0.500000 0.853367
Si Si6 0.446619 0.500000 0.142219
Si Si7 0.509897 0.260814 0.861426
O O1 0.931590 0.147889 0.577926
O O2 0.788318 0.180477 0.414802
O O3 0.903152 0.000000 0.715699
O O4 0.000000 0.193879 0.000000
O O5 0.000000 0.816522 0.500000
O O6 0.116924 0.000000 0.746227
O O7 0.204781 0.802494 0.966137
O O8 0.329186 0.000000 0.949836
O O9 0.356561 0.806924 0.146576
O O10 0.412120 0.829221 0.016914
O O11 0.723960 0.613757 0.958076
O O12 0.604616 0.747563 0.495913
O O13 0.549414 0.500000 0.496187
O O14 0.651915 0.500000 0.996624
O O15 0.442065 0.388214 0.032147
O O16 0.500000 0.227241 0.000000
#
# Coordination Sequence:
#
# PCOD8061708 Si02
#       7
#     4   4   4   4   2   2   4
#     4   8  15  29  48  68  91 123 164 203 235 279
#     4   9  18  32  51  74  99 131 167 200 243 297
#     4  10  20  33  50  73 101 135 170 202 245 300
#     4  10  19  34  53  74  99 130 173 209 243 294
#     4   9  16  30  57  76  88 125 177 213 237 287
#     4   9  17  34  52  72  96 127 171 210 244 293
#     4  11  22  33  49  75 105 132 163 208 257 298
#
# _framework density 17.146978000000001
#
# number of rings (size 3 to 8) (size 9 to 14) (size 15 to 20)
#    0.000    2.500    1.667    2.250    0.000    3.667 
#    0.000    2.083    0.000    0.000    0.000   14.583 
#    0.000    0.000    0.000    0.000    0.000    0.000 
#
# Total GULP energy -297537.239536 kJ/mol
# GULP energy per Si atom -12397.384981 kJ/mol
# Density = 1.710795 g / cm^3
# Si number density = 17.146978 Si / 1000 Ang^3
#
#
#
# Elastic Constant Matrix: (Units=GPa)
#
#
# Indices 1 2 3 4 5 6 
#
# 1 119.3032 37.7824 49.2513 0.0000 11.2600 0.0000
# 2 37.7824 83.2984 34.2726 0.0000 4.3894 0.0000
# 3 49.2513 34.2726 97.2841 0.0000 0.1137 0.0000
# 4 0.0000 0.0000 0.0000 16.0902 0.0000 0.2321
# 5 11.2600 4.3894 0.1137 0.0000 24.3792 0.0000
# 6 0.0000 0.0000 0.0000 0.2321 0.0000 18.4258
#
#
#
# Elastic Compliance Matrix: (Units=1/GPa)
#
#
# Indices 1 2 3 4 5 6 
#
# 1 0.011849 -0.003100 -0.004901 0.000000 -0.004891 0.000000
# 2 -0.003100 0.015006 -0.003716 0.000000 -0.001253 0.000000
# 3 -0.004901 -0.003716 0.014066 0.000000 0.002867 0.000000
# 4 0.000000 0.000000 0.000000 0.062161 0.000000 -0.000783
# 5 -0.004891 -0.001253 0.002867 0.000000 0.043490 0.000000
# 6 0.000000 0.000000 0.000000 -0.000783 0.000000 0.054282
#
#
# Mechanical properties :
#
#
# Convention : Reuss Voigt Hill
#
# Bulk Modulus (GPa) = 57.18320 60.27761 58.73041
# Shear Modulus (GPa) = 21.72829 23.68431 22.70630
#
# Velocity S-wave (km/s) = 3.56361 3.72055 3.64293
# Velocity P-wave (km/s) = 7.09603 7.32711 7.21249
#
# Compressibility (1/GPa) = 0.01748765
#
# Stress axis : x y z
#
# Youngs Moduli (GPa) = 84.39846 66.64019 71.09458
#
# Poissons Ratio (x) = 0.20660 0.34841
# Poissons Ratio (y) = 0.26165 0.26415
# Poissons Ratio (z) = 0.41360 0.24760
#
# Static dielectric constant tensor:
#      x y z
#    x 3.161020 0.000000 0.093580 
#    y 0.000000 3.219630 0.000000 
#    z 0.093580 0.000000 3.235480 
# 
# 
# High freq. dielectric constant tensor:
#      x y z
#    x 1.656750 0.000000 0.003240 
#    y 0.000000 1.647570 0.000000 
#    z 0.003240 0.000000 1.650640 
# 
# From -- ./inp_files/34505.got.cif
#   From: 2010.06.25/outbox.cif.g09.slc.cpg/sg10_18_cif.got.tgz:34505.got - 2010.06.27 22:07:45.
