data_PCOD8061456
_publ_section_title
;
Structure prediction by ZEFSAII (Michael W. Deem and Ramdas Pophale) SiO2 
 PCOD8061456
Probable space group: P 2/M
;
_chemical_formula_sum "Si O2"
_cell_formula_units_Z 32
_cell_length_a 20.618554
_cell_length_b 9.078563
_cell_length_c 25.202924
_cell_angle_alpha 90.000000
_cell_angle_beta 22.101380
_cell_angle_gamma 90.000000
_cell_volume 1775.001833
_symmetry_space_group_name_H-M "P 2/M"
_symmetry_group_IT_number 10
_symmetry_cell_setting 'monoclinic'
loop_
_space_group_symop_operation_xyz
x,y,z
-x,y,-z
-x,-y,-z
x,-y,z
loop_
_atom_site_type_symbol
_atom_site_label
_atom_site_fract_x
_atom_site_fract_y
_atom_site_fract_z
Si Si1 0.397833 0.167961 0.430556
Si Si2 0.003558 0.171668 0.837080
Si Si3 0.150108 0.826635 0.425324
Si Si4 0.493928 0.670604 0.168476
Si Si5 0.345675 0.673036 0.578551
Si Si6 0.143728 0.328310 0.152442
Si Si7 0.357434 0.831518 0.845904
Si Si8 0.927396 0.829285 0.396675
O O1 0.390901 0.277151 0.484971
O O2 0.577180 0.196918 0.263385
O O3 0.244738 0.202098 0.505900
O O4 0.387527 0.000000 0.458972
O O5 0.174469 0.247602 0.730588
O O6 0.963563 0.240199 0.810243
O O7 0.039022 0.000000 0.801548
O O8 0.847159 0.200844 0.996546
O O9 0.326972 0.751900 0.272009
O O10 0.103196 0.775902 0.520232
O O11 0.000000 0.772970 0.500000
O O12 0.178113 0.000000 0.400981
O O13 0.451668 0.500000 0.205550
O O14 0.539944 0.727953 0.191955
O O15 0.652646 0.700723 0.008263
O O16 0.500000 0.719697 0.500000
O O17 0.313412 0.500000 0.603239
O O18 0.099369 0.500000 0.180290
O O19 0.084881 0.266874 0.254013
O O20 0.396660 0.000000 0.833240
O O21 0.980338 0.000000 0.354880
#
# Coordination Sequence:
#
# PCOD8061456 Si02
#       8
#     4   4   4   4   4   4   4   4
#     4  10  19  34  57  83 108 136 177 226 266 312
#     4  10  19  33  56  82 107 140 177 220 271 315
#     4  10  21  38  58  79 108 145 181 221 270 321
#     4  10  20  33  52  80 111 143 179 218 266 319
#     4  11  24  39  54  76 110 148 181 217 264 320
#     4  10  20  33  52  80 111 142 177 220 267 316
#     4   9  18  34  56  82 110 137 174 224 271 314
#     4  10  19  33  55  83 108 136 180 225 265 313
#
# _framework density 18.02815
#
# number of rings (size 3 to 8) (size 9 to 14) (size 15 to 20)
#    0.000    2.000    2.500    1.500    0.000    4.250 
#    0.000    1.250    0.000    7.500    0.000    0.000 
#    0.000    0.000    0.000    0.000    0.000    0.000 
#
# Total GULP energy -396883.303447 kJ/mol
# GULP energy per Si atom -12402.603233 kJ/mol
# Density = 1.798712 g / cm^3
# Si number density = 18.028150 Si / 1000 Ang^3
#
#
#
# Elastic Constant Matrix: (Units=GPa)
#
#
# Indices 1 2 3 4 5 6 
#
# 1 84.6849 37.8928 52.9707 0.0000 -9.9164 0.0000
# 2 37.8928 77.5263 57.6373 0.0000 -10.8135 0.0000
# 3 52.9707 57.6373 137.5062 0.0000 -7.5468 0.0000
# 4 0.0000 0.0000 0.0000 31.7152 0.0000 -3.2300
# 5 -9.9164 -10.8135 -7.5468 0.0000 28.7182 0.0000
# 6 0.0000 0.0000 0.0000 -3.2300 0.0000 19.2171
#
#
#
# Elastic Compliance Matrix: (Units=1/GPa)
#
#
# Indices 1 2 3 4 5 6 
#
# 1 0.016997 -0.004571 -0.004469 0.000000 0.002974 0.000000
# 2 -0.004571 0.020723 -0.006680 0.000000 0.004469 0.000000
# 3 -0.004469 -0.006680 0.011740 0.000000 -0.000973 0.000000
# 4 0.000000 0.000000 0.000000 0.032080 0.000000 0.005392
# 5 0.002974 0.004469 -0.000973 0.000000 0.037275 0.000000
# 6 0.000000 0.000000 0.000000 0.005392 0.000000 0.052943
#
#
# Mechanical properties :
#
#
# Convention : Reuss Voigt Hill
#
# Bulk Modulus (GPa) = 55.48998 66.30212 60.89605
# Shear Modulus (GPa) = 23.90012 26.01121 24.95566
#
# Velocity S-wave (km/s) = 3.64498 3.80256 3.72460
# Velocity P-wave (km/s) = 6.96857 7.49240 7.23523
#
# Compressibility (1/GPa) = 0.01802127
#
# Stress axis : x y z
#
# Youngs Moduli (GPa) = 58.83398 48.25650 85.17578
#
# Poissons Ratio (x) = 0.22057 0.38061
# Poissons Ratio (y) = 0.26891 0.56898
# Poissons Ratio (z) = 0.26290 0.32236
#
# Static dielectric constant tensor:
#      x y z
#    x 3.092790 0.000000 0.078700 
#    y 0.000000 3.337620 0.000000 
#    z 0.078700 0.000000 3.628570 
# 
# 
# High freq. dielectric constant tensor:
#      x y z
#    x 1.664400 0.000000 0.008750 
#    y 0.000000 1.702060 0.000000 
#    z 0.008750 0.000000 1.714740 
# 
# From -- ./inp_files/93580.got.cif
#   From: 2010.06.25/outbox.cif.g09.slc.cpg/sg10_47_cif.got.tgz:93580.got - 2010.06.27 22:07:45.
