data_PCOD8061178
_publ_section_title
;
Structure prediction by ZEFSAII (Michael W. Deem and Ramdas Pophale) SiO2 
 PCOD8061178
Probable space group: P 2/M
;
_chemical_formula_sum "Si O2"
_cell_formula_units_Z 32
_cell_length_a 25.458060
_cell_length_b 9.037012
_cell_length_c 21.248567
_cell_angle_alpha 90.000000
_cell_angle_beta 160.873916
_cell_angle_gamma 90.000000
_cell_volume 1601.722975
_symmetry_space_group_name_H-M "P 2/M"
_symmetry_group_IT_number 10
_symmetry_cell_setting 'monoclinic'
loop_
_space_group_symop_operation_xyz
x,y,z
-x,y,-z
-x,-y,-z
x,-y,z
loop_
_atom_site_type_symbol
_atom_site_label
_atom_site_fract_x
_atom_site_fract_y
_atom_site_fract_z
Si Si1 0.479067 0.325668 0.221640
Si Si2 0.833613 0.667081 0.348779
Si Si3 0.322184 0.832622 0.934347
Si Si4 0.155850 0.670928 0.924553
Si Si5 0.989641 0.833551 0.631620
Si Si6 0.929864 0.327217 0.031300
Si Si7 0.665093 0.169673 0.655329
Si Si8 0.265435 0.170537 0.407309
O O1 0.497182 0.500000 0.234136
O O2 0.641037 0.261263 0.433849
O O3 0.453308 0.254931 0.123756
O O4 0.332202 0.281975 0.101113
O O5 0.774910 0.500000 0.293105
O O6 0.697793 0.753480 0.155666
O O7 0.000000 0.669881 0.500000
O O8 0.854337 0.744644 0.440002
O O9 0.153956 0.829620 0.779440
O O10 0.381264 0.000000 0.990533
O O11 0.124573 0.500000 0.874157
O O12 0.017853 0.760628 0.731675
O O13 0.145256 0.707859 0.985815
O O14 0.928035 0.000000 0.571633
O O15 0.967691 0.500000 0.065505
O O16 0.088461 0.233667 0.200808
O O17 0.804581 0.276904 0.836913
O O18 0.500000 0.220872 0.500000
O O19 0.645612 0.188704 0.558627
O O20 0.706742 0.000000 0.720299
O O21 0.257738 0.000000 0.419124
#
# Coordination Sequence:
#
# PCOD8061178 Si02
#       8
#     4   4   4   4   4   4   4   4
#     4  10  19  33  53  76 103 136 176 220 266 315
#     4   9  15  23  37  60  94 134 172 213 263 314
#     4   9  16  26  41  65  98 133 171 215 263 315
#     4   9  19  34  51  74 104 137 174 218 266 315
#     4   9  16  25  41  66  96 132 172 215 263 314
#     4  11  23  38  57  81 109 141 177 217 261 310
#     4  10  22  40  61  84 110 140 174 214 261 312
#     4  11  23  38  56  79 108 141 176 215 261 312
#
# _framework density 19.978487000000001
#
# number of rings (size 3 to 8) (size 9 to 14) (size 15 to 20)
#    0.000    2.250    0.000    3.375    0.000    8.750 
#    0.000    0.000    0.000    0.000    0.000    0.875 
#    0.000    7.000    0.000    0.000    0.000    0.000 
#
# Total GULP energy -396909.540519 kJ/mol
# GULP energy per Si atom -12403.423141 kJ/mol
# Density = 1.993301 g / cm^3
# Si number density = 19.978487 Si / 1000 Ang^3
#
#
#
# Elastic Constant Matrix: (Units=GPa)
#
#
# Indices 1 2 3 4 5 6 
#
# 1 13.9535 21.9309 26.5227 0.0000 -8.1745 0.0000
# 2 21.9309 129.5407 58.2421 0.0000 -17.7272 0.0000
# 3 26.5227 58.2421 115.9572 0.0000 -22.8047 0.0000
# 4 0.0000 0.0000 0.0000 40.2677 0.0000 -10.9785
# 5 -8.1745 -17.7272 -22.8047 0.0000 31.9683 0.0000
# 6 0.0000 0.0000 0.0000 -10.9785 0.0000 24.4903
#
#
#
# Elastic Compliance Matrix: (Units=1/GPa)
#
#
# Indices 1 2 3 4 5 6 
#
# 1 0.144264 -0.011578 -0.024647 0.000000 0.012887 0.000000
# 2 -0.011578 0.011045 -0.002649 0.000000 0.001275 0.000000
# 3 -0.024647 -0.002649 0.016358 0.000000 0.003898 0.000000
# 4 0.000000 0.000000 0.000000 0.028292 0.000000 0.012682
# 5 0.012887 0.001275 0.003898 0.000000 0.038064 0.000000
# 6 0.000000 0.000000 0.000000 0.012682 0.000000 0.046518
#
#
# Mechanical properties :
#
#
# Convention : Reuss Voigt Hill
#
# Bulk Modulus (GPa) = 10.64754 52.53808 31.59281
# Shear Modulus (GPa) = 12.70340 29.52898 21.11619
#
# Velocity S-wave (km/s) = 2.52435 3.84870 3.25460
# Velocity P-wave (km/s) = 3.71988 6.79002 5.47457
#
# Compressibility (1/GPa) = 0.09391838
#
# Stress axis : x y z
#
# Youngs Moduli (GPa) = 6.93174 90.53832 61.13076
#
# Poissons Ratio (x) = 1.04829 1.50672
# Poissons Ratio (y) = 0.08026 0.16191
# Poissons Ratio (z) = 0.17085 0.23980
#
# Static dielectric constant tensor:
#      x y z
#    x 3.439390 0.000000 -0.259400 
#    y 0.000000 3.737650 0.000000 
#    z -0.259400 0.000000 3.498060 
# 
# 
# High freq. dielectric constant tensor:
#      x y z
#    x 1.753760 0.000000 -0.027970 
#    y 0.000000 1.790860 0.000000 
#    z -0.027970 0.000000 1.773070 
# 
# From -- ./inp_files/87045.got.cif
#   From: 2010.06.25/outbox.cif.g09.slc.cpg/sg10_44_cif.got.tgz:87045.got - 2010.06.27 22:07:45.
