data_PCOD8061246
_publ_section_title
;
Structure prediction by ZEFSAII (Michael W. Deem and Ramdas Pophale) SiO2 
 PCOD8061246
Probable space group: P 2/M
;
_chemical_formula_sum "Si O2"
_cell_formula_units_Z 32
_cell_length_a 19.772816
_cell_length_b 8.869121
_cell_length_c 11.878912
_cell_angle_alpha 90.000000
_cell_angle_beta 58.006291
_cell_angle_gamma 90.000000
_cell_volume 1766.753851
_symmetry_space_group_name_H-M "P 2/M"
_symmetry_group_IT_number 10
_symmetry_cell_setting 'monoclinic'
loop_
_space_group_symop_operation_xyz
x,y,z
-x,y,-z
-x,-y,-z
x,-y,z
loop_
_atom_site_type_symbol
_atom_site_label
_atom_site_fract_x
_atom_site_fract_y
_atom_site_fract_z
Si Si1 0.851298 0.327352 0.585446
Si Si2 0.431671 0.178880 0.421985
Si Si3 0.591712 0.677945 0.317490
Si Si4 0.132423 0.823683 0.193660
Si Si5 0.236679 0.323613 0.923992
Si Si6 0.167472 0.321083 0.753643
Si Si7 0.970669 0.324323 0.278725
Si Si8 0.713769 0.324299 0.540280
O O1 0.859328 0.500000 0.618019
O O2 0.864028 0.220562 0.679557
O O3 0.919728 0.289536 0.435117
O O4 0.763945 0.298205 0.609992
O O5 0.401435 0.242613 0.567839
O O6 0.516960 0.252512 0.315775
O O7 0.368137 0.229111 0.382784
O O8 0.440197 0.000000 0.419298
O O9 0.580509 0.500000 0.346352
O O10 0.670576 0.713268 0.176494
O O11 0.051834 0.767322 0.206428
O O12 0.135611 0.000000 0.180793
O O13 0.208710 0.757531 0.061680
O O14 0.222368 0.500000 0.951341
O O15 0.184420 0.261881 0.864332
O O16 0.173670 0.500000 0.742647
O O17 0.080120 0.272122 0.786192
O O18 0.235156 0.259993 0.609580
O O19 0.991937 0.500000 0.252911
O O20 0.693303 0.500000 0.542797
#
# Coordination Sequence:
#
# PCOD8061246 Si02
#       8
#     4   4   4   4   4   4   4   4
#     4   9  19  36  60  81  99 130 179 230 262 297
#     4  11  20  29  48  81 117 143 165 201 258 322
#     4  10  19  33  54  76 103 140 180 221 252 293
#     4  12  25  36  49  73 109 144 174 211 264 324
#     4  10  20  36  57  75 100 138 182 221 255 303
#     4   8  15  31  55  80 100 128 172 221 263 299
#     4   9  18  35  59  80 100 128 173 226 267 304
#     4   9  16  32  56  81 105 131 173 221 261 302
#
# _framework density 18.112314999999999
#
# number of rings (size 3 to 8) (size 9 to 14) (size 15 to 20)
#    0.000    2.250    1.250    5.250    0.000    4.000 
#    0.000    5.000    0.000    0.750    0.000    5.250 
#    0.000    0.000    0.000    0.000    0.000    0.000 
#
# Total GULP energy -396765.740551 kJ/mol
# GULP energy per Si atom -12398.929392 kJ/mol
# Density = 1.807109 g / cm^3
# Si number density = 18.112315 Si / 1000 Ang^3
#
#
#
# Elastic Constant Matrix: (Units=GPa)
#
#
# Indices 1 2 3 4 5 6 
#
# 1 93.1937 36.8394 23.2282 0.0000 -23.4216 0.0000
# 2 36.8394 85.0826 30.6840 0.0000 -15.8046 0.0000
# 3 23.2282 30.6840 57.8380 0.0000 -16.1574 0.0000
# 4 0.0000 0.0000 0.0000 10.1902 0.0000 4.5349
# 5 -23.4216 -15.8046 -16.1574 0.0000 21.1899 0.0000
# 6 0.0000 0.0000 0.0000 4.5349 0.0000 4.3794
#
#
#
# Elastic Compliance Matrix: (Units=1/GPa)
#
#
# Indices 1 2 3 4 5 6 
#
# 1 0.016082 -0.004206 -0.000175 0.000000 0.014505 0.000000
# 2 -0.004206 0.016328 -0.006188 0.000000 0.002812 0.000000
# 3 -0.000175 -0.006188 0.024523 0.000000 0.013890 0.000000
# 4 0.000000 0.000000 0.000000 0.182010 0.000000 -0.188474
# 5 0.014505 0.002812 0.013890 0.000000 0.075913 0.000000
# 6 0.000000 0.000000 0.000000 -0.188474 0.000000 0.423512
#
#
# Mechanical properties :
#
#
# Convention : Reuss Voigt Hill
#
# Bulk Modulus (GPa) = 27.93645 46.40196 37.16920
# Shear Modulus (GPa) = 6.48140 16.84274 11.66207
#
# Velocity S-wave (km/s) = 1.89373 3.05274 2.54022
# Velocity P-wave (km/s) = 4.49879 6.17254 5.40090
#
# Compressibility (1/GPa) = 0.03579553
#
# Stress axis : x y z
#
# Youngs Moduli (GPa) = 62.18133 61.24420 40.77789
#
# Poissons Ratio (x) = 0.25757 0.00715
# Poissons Ratio (y) = 0.26151 0.25233
# Poissons Ratio (z) = 0.01091 0.37897
#
# Static dielectric constant tensor:
#      x y z
#    x 3.615160 0.000000 -0.052310 
#    y 0.000000 3.123030 0.000000 
#    z -0.052310 0.000000 3.125960 
# 
# 
# High freq. dielectric constant tensor:
#      x y z
#    x 1.715180 0.000000 -0.008260 
#    y 0.000000 1.683280 0.000000 
#    z -0.008260 0.000000 1.671860 
# 
# From -- ./inp_files/54809.got.cif
#   From: 2010.06.25/outbox.cif.g09.slc.cpg/sg10_28_cif.got.tgz:54809.got - 2010.06.27 22:07:45.
