data_PCOD8061653
_publ_section_title
;
Structure prediction by ZEFSAII (Michael W. Deem and Ramdas Pophale) SiO2 
 PCOD8061653
Probable space group: P 2/M
;
_chemical_formula_sum "Si O2"
_cell_formula_units_Z 32
_cell_length_a 20.553371
_cell_length_b 13.726538
_cell_length_c 9.135928
_cell_angle_alpha 90.000000
_cell_angle_beta 139.358882
_cell_angle_gamma 90.000000
_cell_volume 1678.767108
_symmetry_space_group_name_H-M "P 2/M"
_symmetry_group_IT_number 10
_symmetry_cell_setting 'monoclinic'
loop_
_space_group_symop_operation_xyz
x,y,z
-x,y,-z
-x,-y,-z
x,-y,z
loop_
_atom_site_type_symbol
_atom_site_label
_atom_site_fract_x
_atom_site_fract_y
_atom_site_fract_z
Si Si1 0.313361 0.114096 0.739762
Si Si2 0.895333 0.606676 0.404530
Si Si3 0.548709 0.284499 0.938758
Si Si4 0.678699 0.609467 0.934286
Si Si5 0.743526 0.112590 0.680302
Si Si6 0.877156 0.815665 0.427794
Si Si7 0.411570 0.243160 0.444041
Si Si8 0.084176 0.888680 0.819558
O O1 0.272021 0.149844 0.511339
O O2 0.225942 0.134541 0.705496
O O3 0.342510 0.000000 0.792007
O O4 0.410365 0.176522 0.949651
O O5 0.891855 0.500000 0.480017
O O6 0.884993 0.701527 0.491217
O O7 0.000000 0.614818 0.500000
O O8 0.799126 0.612373 0.133052
O O9 0.638750 0.346271 0.020638
O O10 0.455306 0.279568 0.671125
O O11 0.500000 0.333977 0.000000
O O12 0.638262 0.500000 0.853729
O O13 0.635810 0.666239 0.722445
O O14 0.670194 0.161606 0.670801
O O15 0.718741 0.000000 0.643923
O O16 0.854921 0.136202 0.928643
O O17 0.884572 0.820420 0.263274
O O18 0.967801 0.873201 0.659105
O O19 0.500000 0.194900 0.500000
O O20 0.102495 0.000000 0.802519
#
# Coordination Sequence:
#
# PCOD8061653 Si02
#       8
#     4   4   4   4   4   4   4   4
#     4  11  23  38  58  83 118 160 197 235 292 353
#     4  10  19  33  58  91 118 144 182 231 293 352
#     4  11  22  39  59  85 117 152 198 245 289 349
#     4  10  22  41  64  89 117 149 191 245 297 349
#     4  10  22  38  55  81 118 157 196 235 286 351
#     4  11  19  35  58  86 116 152 192 243 292 342
#     4  10  22  37  58  81 114 149 194 244 292 342
#     4  10  20  33  54  84 117 151 195 241 283 343
#
# _framework density 19.061608
#
# number of rings (size 3 to 8) (size 9 to 14) (size 15 to 20)
#    0.000    1.625    3.750    2.250    1.750    4.000 
#    0.000    1.875    0.000    0.750    0.000    0.875 
#    0.000    0.375    0.000    0.000    0.000    0.000 
#
# Total GULP energy -396631.935267 kJ/mol
# GULP energy per Si atom -12394.747977 kJ/mol
# Density = 1.901822 g / cm^3
# Si number density = 19.061608 Si / 1000 Ang^3
#
#
#
# Elastic Constant Matrix: (Units=GPa)
#
#
# Indices 1 2 3 4 5 6 
#
# 1 74.2196 24.5189 43.6895 0.0000 2.3355 0.0000
# 2 24.5189 84.5594 33.3523 0.0000 -0.8358 0.0000
# 3 43.6895 33.3523 110.3828 0.0000 1.8645 0.0000
# 4 0.0000 0.0000 0.0000 23.2251 0.0000 1.4188
# 5 2.3355 -0.8358 1.8645 0.0000 29.2095 0.0000
# 6 0.0000 0.0000 0.0000 1.4188 0.0000 16.4744
#
#
#
# Elastic Compliance Matrix: (Units=1/GPa)
#
#
# Indices 1 2 3 4 5 6 
#
# 1 0.018150 -0.002779 -0.006325 0.000000 -0.001127 0.000000
# 2 -0.002779 0.013864 -0.003103 0.000000 0.000817 0.000000
# 3 -0.006325 -0.003103 0.012507 0.000000 -0.000381 0.000000
# 4 0.000000 0.000000 0.000000 0.043285 0.000000 -0.003728
# 5 -0.001127 0.000817 -0.000381 0.000000 0.034373 0.000000
# 6 0.000000 0.000000 0.000000 -0.003728 0.000000 0.061021
#
#
# Mechanical properties :
#
#
# Convention : Reuss Voigt Hill
#
# Bulk Modulus (GPa) = 49.73455 52.47592 51.10524
# Shear Modulus (GPa) = 23.32998 24.95521 24.14259
#
# Velocity S-wave (km/s) = 3.50226 3.62219 3.56273
# Velocity P-wave (km/s) = 6.51940 6.71440 6.61762
#
# Compressibility (1/GPa) = 0.02010674
#
# Stress axis : x y z
#
# Youngs Moduli (GPa) = 55.09505 72.13059 79.95649
#
# Poissons Ratio (x) = 0.20047 0.50574
# Poissons Ratio (y) = 0.15312 0.24808
# Poissons Ratio (z) = 0.34848 0.22380
#
# Static dielectric constant tensor:
#      x y z
#    x 3.446030 0.000000 0.134190 
#    y 0.000000 3.664090 0.000000 
#    z 0.134190 0.000000 3.644840 
# 
# 
# High freq. dielectric constant tensor:
#      x y z
#    x 1.727150 0.000000 0.022840 
#    y 0.000000 1.740650 0.000000 
#    z 0.022840 0.000000 1.744730 
# 
# From -- ./inp_files/35165.got.cif
#   From: 2010.06.25/outbox.cif.g09.slc.cpg/sg10_18_cif.got.tgz:35165.got - 2010.06.27 22:07:45.
