data_PCOD8061856
_publ_section_title
;
Structure prediction by ZEFSAII (Michael W. Deem and Ramdas Pophale) SiO2 
 PCOD8061856
Probable space group: P 2/M
;
_chemical_formula_sum "Si O2"
_cell_formula_units_Z 32
_cell_length_a 23.049431
_cell_length_b 9.147610
_cell_length_c 12.042926
_cell_angle_alpha 90.000000
_cell_angle_beta 136.007279
_cell_angle_gamma 90.000000
_cell_volume 1763.656482
_symmetry_space_group_name_H-M "P 2/M"
_symmetry_group_IT_number 10
_symmetry_cell_setting 'monoclinic'
loop_
_space_group_symop_operation_xyz
x,y,z
-x,y,-z
-x,-y,-z
x,-y,z
loop_
_atom_site_type_symbol
_atom_site_label
_atom_site_fract_x
_atom_site_fract_y
_atom_site_fract_z
Si Si1 0.595253 0.331914 0.737654
Si Si2 0.226250 0.331480 0.972840
Si Si3 0.904970 0.671650 0.397023
Si Si4 0.271005 0.169144 0.441039
Si Si5 0.856530 0.828916 0.553725
Si Si6 0.162865 0.829348 0.083618
Si Si7 0.997971 0.337781 0.867107
Si Si8 0.585276 0.672330 0.475098
O O1 0.574974 0.500000 0.688402
O O2 0.510434 0.270881 0.677735
O O3 0.610984 0.270889 0.634008
O O4 0.676152 0.311679 0.929626
O O5 0.210916 0.500000 0.988501
O O6 0.158987 0.285127 0.788335
O O7 0.225027 0.218394 0.072441
O O8 0.904837 0.500000 0.420128
O O9 0.866750 0.750870 0.450589
O O10 0.000000 0.724018 0.500000
O O11 0.233921 0.200549 0.513491
O O12 0.201057 0.215970 0.254519
O O13 0.356191 0.256300 0.538434
O O14 0.291891 0.000000 0.454109
O O15 0.923218 0.766471 0.730977
O O16 0.872318 0.000000 0.559366
O O17 0.141303 0.000000 0.049267
O O18 0.081988 0.735661 0.940817
O O19 0.989507 0.500000 0.801010
O O20 0.000000 0.352270 0.000000
O O21 0.596610 0.500000 0.475525
#
# Coordination Sequence:
#
# PCOD8061856 Si02
#       8
#     4   4   4   4   4   4   4   4
#     4   8  15  28  49  79 108 139 177 218 267 316
#     4  10  19  34  56  78 107 142 179 224 272 319
#     4  10  22  39  57  79 107 138 180 231 270 311
#     4  10  21  34  49  76 112 143 171 213 267 320
#     4  11  23  39  57  76 106 144 181 221 268 323
#     4  11  21  33  50  76 111 142 174 214 262 322
#     4  11  22  34  51  75 103 136 175 217 261 315
#     4   9  16  29  51  77 108 141 177 217 261 326
#
# _framework density 18.144123
#
# number of rings (size 3 to 8) (size 9 to 14) (size 15 to 20)
#    0.000    2.000    2.500    2.625    0.000    3.750 
#    0.000    1.875    0.000    0.750    0.000    5.250 
#    0.000    0.000    0.000    0.000    0.000    0.000 
#
# Total GULP energy -396543.859941 kJ/mol
# GULP energy per Si atom -12391.995623 kJ/mol
# Density = 1.810283 g / cm^3
# Si number density = 18.144123 Si / 1000 Ang^3
#
#
#
# Elastic Constant Matrix: (Units=GPa)
#
#
# Indices 1 2 3 4 5 6 
#
# 1 127.7844 49.4846 50.0800 0.0000 11.2079 0.0000
# 2 49.4846 46.5146 26.7887 0.0000 -1.6566 0.0000
# 3 50.0800 26.7887 93.2412 0.0000 15.3517 0.0000
# 4 0.0000 0.0000 0.0000 32.8412 0.0000 12.7172
# 5 11.2079 -1.6566 15.3517 0.0000 31.6006 0.0000
# 6 0.0000 0.0000 0.0000 12.7172 0.0000 45.7296
#
#
#
# Elastic Compliance Matrix: (Units=1/GPa)
#
#
# Indices 1 2 3 4 5 6 
#
# 1 0.015011 -0.014277 -0.003218 0.000000 -0.004509 0.000000
# 2 -0.014277 0.040208 -0.005505 0.000000 0.009846 0.000000
# 3 -0.003218 -0.005505 0.015103 0.000000 -0.006484 0.000000
# 4 0.000000 0.000000 0.000000 0.034124 0.000000 -0.009490
# 5 -0.004509 0.009846 -0.006484 0.000000 0.036910 0.000000
# 6 0.000000 0.000000 0.000000 -0.009490 0.000000 0.024507
#
#
# Mechanical properties :
#
#
# Convention : Reuss Voigt Hill
#
# Bulk Modulus (GPa) = 41.11558 57.80524 49.46041
# Shear Modulus (GPa) = 22.73034 31.44674 27.08854
#
# Velocity S-wave (km/s) = 3.54328 4.16765 3.86808
# Velocity P-wave (km/s) = 6.28089 7.42207 6.87520
#
# Compressibility (1/GPa) = 0.02432168
#
# Stress axis : x y z
#
# Youngs Moduli (GPa) = 66.61730 24.87071 66.21364
#
# Poissons Ratio (x) = 0.35507 0.21310
# Poissons Ratio (y) = 0.95107 0.36451
# Poissons Ratio (z) = 0.21440 0.13691
#
# Static dielectric constant tensor:
#      x y z
#    x 3.429880 0.000000 0.193810 
#    y 0.000000 3.259880 0.000000 
#    z 0.193810 0.000000 3.264280 
# 
# 
# High freq. dielectric constant tensor:
#      x y z
#    x 1.703940 0.000000 0.019450 
#    y 0.000000 1.691810 0.000000 
#    z 0.019450 0.000000 1.680470 
# 
# From -- ./inp_files/55363.got.cif
#   From: 2010.06.25/outbox.cif.g09.slc.cpg/sg10_28_cif.got.tgz:55363.got - 2010.06.27 22:07:45.
