data_PCOD8061885
_publ_section_title
;
Structure prediction by ZEFSAII (Michael W. Deem and Ramdas Pophale) SiO2 
 PCOD8061885
Probable space group: P 2/M
;
_chemical_formula_sum "Si O2"
_cell_formula_units_Z 32
_cell_length_a 14.582706
_cell_length_b 9.047289
_cell_length_c 14.103357
_cell_angle_alpha 90.000000
_cell_angle_beta 59.427927
_cell_angle_gamma 90.000000
_cell_volume 1602.054222
_symmetry_space_group_name_H-M "P 2/M"
_symmetry_group_IT_number 10
_symmetry_cell_setting 'monoclinic'
loop_
_space_group_symop_operation_xyz
x,y,z
-x,y,-z
-x,-y,-z
x,-y,z
loop_
_atom_site_type_symbol
_atom_site_label
_atom_site_fract_x
_atom_site_fract_y
_atom_site_fract_z
Si Si1 0.181296 0.174950 0.639389
Si Si2 0.017267 0.826381 0.382221
Si Si3 0.915180 0.665667 0.976072
Si Si4 0.395060 0.173903 0.996470
Si Si5 0.821436 0.677234 0.833617
Si Si6 0.428914 0.170453 0.765603
Si Si7 0.414860 0.171510 0.470697
Si Si8 0.757361 0.664870 0.219316
O O1 0.088548 0.225566 0.617277
O O2 0.295666 0.237526 0.542229
O O3 0.161779 0.251840 0.751531
O O4 0.179805 0.000000 0.652273
O O5 0.000000 0.783031 0.500000
O O6 0.120851 0.738714 0.290283
O O7 0.039150 0.000000 0.358507
O O8 0.960014 0.500000 0.934711
O O9 0.891574 0.738296 0.886363
O O10 0.803609 0.663148 0.089189
O O11 0.000000 0.750786 0.000000
O O12 0.297553 0.259911 0.095900
O O13 0.369383 0.000000 0.011425
O O14 0.500000 0.211446 0.000000
O O15 0.418930 0.232545 0.877321
O O16 0.815764 0.500000 0.835600
O O17 0.546623 0.194537 0.658953
O O18 0.353183 0.249546 0.729435
O O19 0.396443 0.000000 0.782976
O O20 0.500000 0.243088 0.500000
O O21 0.405757 0.000000 0.500681
O O22 0.737436 0.500000 0.267524
#
# Coordination Sequence:
#
# PCOD8061885 Si02
#       8
#     4   4   4   4   4   4   4   4
#     4  10  20  36  58  84 114 152 197 242 293 351
#     4  10  23  42  63  87 116 152 198 251 297 345
#     4   9  18  32  51  78 112 151 190 229 285 348
#     4  10  22  39  61  89 120 155 199 249 296 347
#     4  11  22  39  63  88 119 158 198 242 296 358
#     4  10  19  34  56  80 111 151 194 237 286 345
#     4   9  16  29  52  79 108 146 189 230 280 347
#     4  11  20  32  53  81 117 152 188 237 291 347
#
# _framework density 19.974353000000001
#
# number of rings (size 3 to 8) (size 9 to 14) (size 15 to 20)
#    0.000    2.000    2.500    1.500    0.000    3.000 
#    0.000    5.000    0.000    3.000    0.000    0.000 
#    0.000    0.000    0.000    0.000    0.000    0.000 
#
# Total GULP energy -396655.088115 kJ/mol
# GULP energy per Si atom -12395.471504 kJ/mol
# Density = 1.992889 g / cm^3
# Si number density = 19.974353 Si / 1000 Ang^3
#
#
#
# Elastic Constant Matrix: (Units=GPa)
#
#
# Indices 1 2 3 4 5 6 
#
# 1 108.7755 34.4964 51.8326 0.0000 6.2273 0.0000
# 2 34.4964 48.1473 36.8350 0.0000 1.9563 0.0000
# 3 51.8326 36.8350 129.0104 0.0000 2.7026 0.0000
# 4 0.0000 0.0000 0.0000 21.2285 0.0000 0.0030
# 5 6.2273 1.9563 2.7026 0.0000 32.5979 0.0000
# 6 0.0000 0.0000 0.0000 0.0030 0.0000 13.8108
#
#
#
# Elastic Compliance Matrix: (Units=1/GPa)
#
#
# Indices 1 2 3 4 5 6 
#
# 1 0.012985 -0.006740 -0.003255 0.000000 -0.001806 0.000000
# 2 -0.006740 0.030103 -0.005887 0.000000 -0.000031 0.000000
# 3 -0.003255 -0.005887 0.010738 0.000000 0.000085 0.000000
# 4 0.000000 0.000000 0.000000 0.047107 0.000000 -0.000010
# 5 -0.001806 -0.000031 0.000085 0.000000 0.031017 0.000000
# 6 0.000000 0.000000 0.000000 -0.000010 0.000000 0.072407
#
#
# Mechanical properties :
#
#
# Convention : Reuss Voigt Hill
#
# Bulk Modulus (GPa) = 45.32323 59.14014 52.23169
# Shear Modulus (GPa) = 20.53608 24.37872 22.45740
#
# Velocity S-wave (km/s) = 3.20991 3.49736 3.35671
# Velocity P-wave (km/s) = 6.03970 6.78093 6.42102
#
# Compressibility (1/GPa) = 0.02206374
#
# Stress axis : x y z
#
# Youngs Moduli (GPa) = 77.01142 33.21881 93.12794
#
# Poissons Ratio (x) = 0.22390 0.30311
# Poissons Ratio (y) = 0.51906 0.54820
# Poissons Ratio (z) = 0.25065 0.19554
#
# Static dielectric constant tensor:
#      x y z
#    x 3.674650 0.000000 -0.006820 
#    y 0.000000 3.304360 0.000000 
#    z -0.006820 0.000000 3.711870 
# 
# 
# High freq. dielectric constant tensor:
#      x y z
#    x 1.775290 0.000000 -0.004870 
#    y 0.000000 1.743530 0.000000 
#    z -0.004870 0.000000 1.791380 
# 
# From -- ./inp_files/66505.got.cif
#   From: 2010.06.25/outbox.cif.g09.slc.cpg/sg10_34_cif.got.tgz:66505.got - 2010.06.27 22:07:45.
