data_PCOD8061053
_publ_section_title
;
Structure prediction by ZEFSAII (Michael W. Deem and Ramdas Pophale) SiO2 
 PCOD8061053
Probable space group: P 2/M
;
_chemical_formula_sum "Si O2"
_cell_formula_units_Z 32
_cell_length_a 15.985018
_cell_length_b 14.691312
_cell_length_c 13.036484
_cell_angle_alpha 90.000000
_cell_angle_beta 142.426863
_cell_angle_gamma 90.000000
_cell_volume 1866.821652
_symmetry_space_group_name_H-M "P 2/M"
_symmetry_group_IT_number 10
_symmetry_cell_setting 'monoclinic'
loop_
_space_group_symop_operation_xyz
x,y,z
-x,y,-z
-x,-y,-z
x,-y,z
loop_
_atom_site_type_symbol
_atom_site_label
_atom_site_fract_x
_atom_site_fract_y
_atom_site_fract_z
Si Si1 0.190310 0.900943 0.609034
Si Si2 0.269541 0.183707 0.879650
Si Si3 0.008252 0.223362 0.301054
Si Si4 0.553912 0.822028 0.246799
Si Si5 0.914134 0.601828 0.516737
Si Si6 0.369167 0.665358 0.818254
Si Si7 0.087169 0.895932 0.184116
Si Si8 0.597997 0.896100 0.504008
O O1 0.207449 0.896107 0.748564
O O2 0.337538 0.890310 0.698095
O O3 0.082273 0.826165 0.467592
O O4 0.132613 0.000000 0.523893
O O5 0.155897 0.216335 0.850714
O O6 0.309938 0.263762 0.842085
O O7 0.400893 0.146600 0.068110
O O8 0.053701 0.329293 0.357661
O O9 0.055649 0.177719 0.241431
O O10 0.581092 0.718992 0.235280
O O11 0.569340 0.826914 0.383674
O O12 0.957243 0.500000 0.592792
O O13 0.751918 0.597619 0.331429
O O14 0.000000 0.632566 0.500000
O O15 0.500000 0.615268 0.000000
O O16 0.245572 0.887779 0.306971
O O17 0.053511 0.000000 0.187653
O O18 0.000000 0.869551 0.000000
O O19 0.500000 0.864141 0.500000
O O20 0.564301 0.000000 0.438222
#
# Coordination Sequence:
#
# PCOD8061053 Si02
#       8
#     4   4   4   4   4   4   4   4
#     4  11  20  32  49  71 104 142 176 210 255 310
#     4  10  21  31  48  74 105 140 176 212 252 314
#     4  12  20  36  54  74 108 139 176 222 265 316
#     4  10  19  33  51  70  99 141 177 214 262 305
#     4  11  20  33  55  81 109 143 177 215 266 325
#     4   9  17  33  51  74 106 136 171 217 255 309
#     4  10  22  38  55  78 104 136 179 224 271 314
#     4  10  20  34  50  68  98 133 175 224 263 305
#
# _framework density 17.141432999999999
#
# number of rings (size 3 to 8) (size 9 to 14) (size 15 to 20)
#    0.000    1.625    5.000    2.250    1.750    3.250 
#    0.000    0.000    0.000    0.375    0.000    0.000 
#    0.000    2.500    0.000    0.000    0.000    0.000 
#
# Total GULP energy -396702.611629 kJ/mol
# GULP energy per Si atom -12396.956613 kJ/mol
# Density = 1.710242 g / cm^3
# Si number density = 17.141433 Si / 1000 Ang^3
#
#
#
# Elastic Constant Matrix: (Units=GPa)
#
#
# Indices 1 2 3 4 5 6 
#
# 1 98.0821 26.7057 44.5736 0.0000 4.8352 0.0000
# 2 26.7057 78.2995 25.1687 0.0000 -5.6070 0.0000
# 3 44.5736 25.1687 100.2529 0.0000 3.1250 0.0000
# 4 0.0000 0.0000 0.0000 13.3226 0.0000 -1.9336
# 5 4.8352 -5.6070 3.1250 0.0000 28.3720 0.0000
# 6 0.0000 0.0000 0.0000 -1.9336 0.0000 14.1757
#
#
#
# Elastic Compliance Matrix: (Units=1/GPa)
#
#
# Indices 1 2 3 4 5 6 
#
# 1 0.013499 -0.003118 -0.005146 0.000000 -0.002350 0.000000
# 2 -0.003118 0.014898 -0.002470 0.000000 0.003748 0.000000
# 3 -0.005146 -0.002470 0.012915 0.000000 -0.001034 0.000000
# 4 0.000000 0.000000 0.000000 0.076576 0.000000 0.010445
# 5 -0.002350 0.003748 -0.001034 0.000000 0.036501 0.000000
# 6 0.000000 0.000000 0.000000 0.010445 0.000000 0.071968
#
#
# Mechanical properties :
#
#
# Convention : Reuss Voigt Hill
#
# Bulk Modulus (GPa) = 50.39661 52.17007 51.28334
# Shear Modulus (GPa) = 19.65100 23.18650 21.41875
#
# Velocity S-wave (km/s) = 3.38953 3.68184 3.53871
# Velocity P-wave (km/s) = 6.69200 6.96963 6.83222
#
# Compressibility (1/GPa) = 0.01984261
#
# Stress axis : x y z
#
# Youngs Moduli (GPa) = 74.08009 67.12533 77.42923
#
# Poissons Ratio (x) = 0.20932 0.39842
# Poissons Ratio (y) = 0.23101 0.19128
# Poissons Ratio (z) = 0.38119 0.16583
#
# Static dielectric constant tensor:
#      x y z
#    x 3.207060 0.000000 0.253130 
#    y 0.000000 2.910090 0.000000 
#    z 0.253130 0.000000 3.392010 
# 
# 
# High freq. dielectric constant tensor:
#      x y z
#    x 1.652730 0.000000 0.025050 
#    y 0.000000 1.627500 0.000000 
#    z 0.025050 0.000000 1.665570 
# 
# From -- ./inp_files/29486.got.cif
#   From: 2010.06.25/outbox.cif.g09.slc.cpg/sg10_15_cif.got.tgz:29486.got - 2010.06.27 22:07:45.
