data_PCOD8061025
_publ_section_title
;
Structure prediction by ZEFSAII (Michael W. Deem and Ramdas Pophale) SiO2 
 PCOD8061025
Probable space group: P 2/M
;
_chemical_formula_sum "Si O2"
_cell_formula_units_Z 32
_cell_length_a 11.821590
_cell_length_b 8.948874
_cell_length_c 27.212246
_cell_angle_alpha 90.000000
_cell_angle_beta 146.457721
_cell_angle_gamma 90.000000
_cell_volume 1590.676848
_symmetry_space_group_name_H-M "P 2/M"
_symmetry_group_IT_number 10
_symmetry_cell_setting 'monoclinic'
loop_
_space_group_symop_operation_xyz
x,y,z
-x,y,-z
-x,-y,-z
x,-y,z
loop_
_atom_site_type_symbol
_atom_site_label
_atom_site_fract_x
_atom_site_fract_y
_atom_site_fract_z
Si Si1 0.873899 0.323451 0.503280
Si Si2 0.148068 0.830577 0.975090
Si Si3 0.916891 0.672508 0.723856
Si Si4 0.292831 0.822605 0.186372
Si Si5 0.074830 0.670274 0.677522
Si Si6 0.729900 0.170515 0.090661
Si Si7 0.565863 0.821831 0.657648
Si Si8 0.488541 0.823816 0.830238
O O1 0.832241 0.500000 0.487859
O O2 0.993753 0.271817 0.595669
O O3 0.661696 0.237805 0.431269
O O4 0.000000 0.274982 0.500000
O O5 0.156156 0.823196 0.919625
O O6 0.929536 0.757134 0.910239
O O7 0.150930 0.000000 0.995427
O O8 0.340680 0.751924 0.071342
O O9 0.899116 0.500000 0.733169
O O10 0.910793 0.689119 0.662237
O O11 0.720322 0.761487 0.672274
O O12 0.134297 0.734474 0.822430
O O13 0.359530 0.758414 0.262930
O O14 0.458898 0.774557 0.206287
O O15 0.273554 0.000000 0.183529
O O16 0.142425 0.500000 0.696102
O O17 0.270730 0.761542 0.765833
O O18 0.714380 0.000000 0.104861
O O19 0.500000 0.235846 0.000000
O O20 0.564699 0.000000 0.654422
O O21 0.478228 0.000000 0.832687
#
# Coordination Sequence:
#
# PCOD8061025 Si02
#       8
#     4   4   4   4   4   4   4   4
#     4  10  22  42  66  89 115 151 190 229 286 358
#     4   9  16  29  50  80 115 147 183 230 284 336
#     4  11  23  39  58  81 114 156 197 234 282 346
#     4   9  17  31  53  83 116 147 182 230 288 340
#     4  10  23  41  58  80 115 151 183 232 290 340
#     4  10  19  33  55  82 114 153 197 244 288 331
#     4  11  22  38  62  89 119 151 189 244 293 334
#     4  10  19  32  57  86 110 146 193 235 279 341
#
# _framework density 20.117222000000002
#
# number of rings (size 3 to 8) (size 9 to 14) (size 15 to 20)
#    0.000    2.000    1.250    2.625    0.000    5.000 
#    0.000    3.750    0.000    0.750    0.000    0.000 
#    0.000    0.000    0.000    0.000    0.000    0.000 
#
# Total GULP energy -396702.009053 kJ/mol
# GULP energy per Si atom -12396.937783 kJ/mol
# Density = 2.007143 g / cm^3
# Si number density = 20.117222 Si / 1000 Ang^3
#
#
#
# Elastic Constant Matrix: (Units=GPa)
#
#
# Indices 1 2 3 4 5 6 
#
# 1 103.2785 28.8207 49.2769 0.0000 -0.7088 0.0000
# 2 28.8207 50.0737 36.9957 0.0000 3.0687 0.0000
# 3 49.2769 36.9957 124.7109 0.0000 3.7712 0.0000
# 4 0.0000 0.0000 0.0000 13.3338 0.0000 -2.1066
# 5 -0.7088 3.0687 3.7712 0.0000 39.6684 0.0000
# 6 0.0000 0.0000 0.0000 -2.1066 0.0000 22.1217
#
#
#
# Elastic Compliance Matrix: (Units=1/GPa)
#
#
# Indices 1 2 3 4 5 6 
#
# 1 0.012749 -0.004678 -0.003678 0.000000 0.000939 0.000000
# 2 -0.004678 0.027356 -0.006218 0.000000 -0.001609 0.000000
# 3 -0.003678 -0.006218 0.011337 0.000000 -0.000662 0.000000
# 4 0.000000 0.000000 0.000000 0.076143 0.000000 0.007251
# 5 0.000939 -0.001609 -0.000662 0.000000 0.025413 0.000000
# 6 0.000000 0.000000 0.000000 0.007251 0.000000 0.045895
#
#
# Mechanical properties :
#
#
# Convention : Reuss Voigt Hill
#
# Bulk Modulus (GPa) = 44.85733 56.47219 50.66476
# Shear Modulus (GPa) = 21.23390 25.88945 23.56167
#
# Velocity S-wave (km/s) = 3.25238 3.59127 3.42602
# Velocity P-wave (km/s) = 6.03741 6.73267 6.39450
#
# Compressibility (1/GPa) = 0.02229290
#
# Stress axis : x y z
#
# Youngs Moduli (GPa) = 78.43452 36.55534 88.21004
#
# Poissons Ratio (x) = 0.17101 0.32447
# Poissons Ratio (y) = 0.36693 0.54849
# Poissons Ratio (z) = 0.28851 0.22730
#
# Static dielectric constant tensor:
#      x y z
#    x 3.802590 0.000000 -0.068140 
#    y 0.000000 3.309550 0.000000 
#    z -0.068140 0.000000 3.759260 
# 
# 
# High freq. dielectric constant tensor:
#      x y z
#    x 1.802230 0.000000 0.001080 
#    y 0.000000 1.745060 0.000000 
#    z 0.001080 0.000000 1.792270 
# 
# From -- ./inp_files/95054.got.cif
#   From: 2010.06.25/outbox.cif.g09.slc.cpg/sg10_48_cif.got.tgz:95054.got - 2010.06.27 22:07:45.
