data_PCOD8061477
_publ_section_title
;
Structure prediction by ZEFSAII (Michael W. Deem and Ramdas Pophale) SiO2 
 PCOD8061477
Probable space group: P 2/M
;
_chemical_formula_sum "Si O2"
_cell_formula_units_Z 32
_cell_length_a 30.158874
_cell_length_b 9.257643
_cell_length_c 12.886917
_cell_angle_alpha 90.000000
_cell_angle_beta 152.224593
_cell_angle_gamma 90.000000
_cell_volume 1676.706082
_symmetry_space_group_name_H-M "P 2/M"
_symmetry_group_IT_number 10
_symmetry_cell_setting 'monoclinic'
loop_
_space_group_symop_operation_xyz
x,y,z
-x,y,-z
-x,-y,-z
x,-y,z
loop_
_atom_site_type_symbol
_atom_site_label
_atom_site_fract_x
_atom_site_fract_y
_atom_site_fract_z
Si Si1 0.201665 0.667433 0.918450
Si Si2 0.104870 0.829156 0.905583
Si Si3 0.409893 0.330147 0.040623
Si Si4 0.784983 0.330959 0.463406
Si Si5 0.599035 0.671251 0.745649
Si Si6 0.910204 0.666521 0.524843
Si Si7 0.442808 0.831535 0.778685
Si Si8 0.773132 0.830254 0.642652
O O1 0.193834 0.500000 0.935111
O O2 0.149335 0.763754 0.894175
O O3 0.155396 0.691774 0.710541
O O4 0.311509 0.720255 0.139329
O O5 0.999959 0.769702 0.704002
O O6 0.100614 0.000000 0.883474
O O7 0.167363 0.783403 0.133858
O O8 0.427915 0.500000 0.073653
O O9 0.383258 0.277858 0.100485
O O10 0.507572 0.252650 0.212163
O O11 0.322949 0.284217 0.786563
O O12 0.791085 0.500000 0.498537
O O13 0.852702 0.288444 0.508401
O O14 0.817794 0.246995 0.634351
O O15 0.500000 0.739677 0.500000
O O16 0.593266 0.500000 0.730009
O O17 0.943245 0.500000 0.598924
O O18 0.334810 0.777271 0.564047
O O19 0.447080 0.000000 0.762363
O O20 0.500000 0.791169 0.000000
O O21 0.777713 0.000000 0.631836
#
# Coordination Sequence:
#
# PCOD8061477 Si02
#       8
#     4   4   4   4   4   4   4   4
#     4  10  20  38  63  87 115 151 188 228 280 342
#     4  11  25  41  57  82 116 150 189 240 287 331
#     4  10  19  33  55  85 114 142 183 233 276 322
#     4  10  20  36  60  87 115 144 186 240 283 329
#     4   9  18  33  55  86 119 148 179 221 278 336
#     4  10  21  40  63  86 112 145 187 237 289 340
#     4  10  20  35  55  77 107 150 189 218 263 332
#     4  10  23  41  56  78 117 156 189 230 283 338
#
# _framework density 19.085039999999999
#
# number of rings (size 3 to 8) (size 9 to 14) (size 15 to 20)
#    0.000    2.000    2.500    0.750    1.750    4.750 
#    0.000    3.125    0.000    0.750    0.000    0.000 
#    0.000    0.000    0.000    0.000    0.000    0.000 
#
# Total GULP energy -396857.132470 kJ/mol
# GULP energy per Si atom -12401.785390 kJ/mol
# Density = 1.904160 g / cm^3
# Si number density = 19.085040 Si / 1000 Ang^3
#
#
#
# Elastic Constant Matrix: (Units=GPa)
#
#
# Indices 1 2 3 4 5 6 
#
# 1 144.2199 51.4178 45.4126 0.0000 7.8177 0.0000
# 2 51.4178 47.1198 34.5357 0.0000 2.8441 0.0000
# 3 45.4126 34.5357 90.1224 0.0000 16.2862 0.0000
# 4 0.0000 0.0000 0.0000 25.6211 0.0000 -2.4001
# 5 7.8177 2.8441 16.2862 0.0000 29.2649 0.0000
# 6 0.0000 0.0000 0.0000 -2.4001 0.0000 -16.2303
#
#
#
# Elastic Compliance Matrix: (Units=1/GPa)
#
#
# Indices 1 2 3 4 5 6 
#
# 1 0.011515 -0.011694 -0.001079 0.000000 -0.001339 0.000000
# 2 -0.011694 0.041773 -0.011058 0.000000 0.005218 0.000000
# 3 -0.001079 -0.011058 0.017379 0.000000 -0.008309 0.000000
# 4 0.000000 0.000000 0.000000 0.038497 0.000000 -0.005693
# 5 -0.001339 0.005218 -0.008309 0.000000 0.038645 0.000000
# 6 0.000000 0.000000 0.000000 -0.005693 0.000000 -0.060771
#
#
# Mechanical properties :
#
#
# Convention : Reuss Voigt Hill
#
# Bulk Modulus (GPa) = 43.47002 60.46604 51.96803
# Shear Modulus (GPa) = 35.11982 17.73754 26.42868
#
# Velocity S-wave (km/s) = 4.29438 3.05191 3.72531
# Velocity P-wave (km/s) = 6.88588 6.64605 6.76703
#
# Compressibility (1/GPa) = 0.02300436
#
# Stress axis : x y z
#
# Youngs Moduli (GPa) = 86.83952 23.93887 57.54051
#
# Poissons Ratio (x) = 0.27994 0.06211
# Poissons Ratio (y) = 1.01549 0.63630
# Poissons Ratio (z) = 0.09374 0.26472
#
# Static dielectric constant tensor:
#      x y z
#    x 3.557100 0.000000 0.058490 
#    y 0.000000 3.235990 0.000000 
#    z 0.058490 0.000000 3.656710 
# 
# 
# High freq. dielectric constant tensor:
#      x y z
#    x 1.755350 0.000000 0.002410 
#    y 0.000000 1.718670 0.000000 
#    z 0.002410 0.000000 1.747480 
# 
# From -- ./inp_files/58223.got.cif
#   From: 2010.06.25/outbox.cif.g09.slc.cpg/sg10_30_cif.got.tgz:58223.got - 2010.06.27 22:07:45.
