data_PCOD8061295
_publ_section_title
;
Structure prediction by ZEFSAII (Michael W. Deem and Ramdas Pophale) SiO2 
 PCOD8061295
Probable space group: P 2/M
;
_chemical_formula_sum "Si O2"
_cell_formula_units_Z 32
_cell_length_a 12.357661
_cell_length_b 8.976342
_cell_length_c 29.620757
_cell_angle_alpha 90.000000
_cell_angle_beta 30.821650
_cell_angle_gamma 90.000000
_cell_volume 1683.500731
_symmetry_space_group_name_H-M "P 2/M"
_symmetry_group_IT_number 10
_symmetry_cell_setting 'monoclinic'
loop_
_space_group_symop_operation_xyz
x,y,z
-x,y,-z
-x,-y,-z
x,-y,z
loop_
_atom_site_type_symbol
_atom_site_label
_atom_site_fract_x
_atom_site_fract_y
_atom_site_fract_z
Si Si1 0.262785 0.324523 0.593501
Si Si2 0.689990 0.822913 0.671379
Si Si3 0.879729 0.175796 0.441244
Si Si4 0.737224 0.176291 0.928418
Si Si5 0.870830 0.823254 0.978647
Si Si6 0.516791 0.175967 0.638462
Si Si7 0.698175 0.177334 0.133538
Si Si8 0.882246 0.323687 0.255409
O O1 0.500000 0.265596 0.500000
O O2 0.251814 0.500000 0.591226
O O3 0.111567 0.249385 0.610914
O O4 0.179059 0.273878 0.672136
O O5 0.632286 0.767122 0.642183
O O6 0.519240 0.759447 0.768279
O O7 0.920594 0.762933 0.602032
O O8 0.688507 0.000000 0.672534
O O9 0.665599 0.222393 0.543483
O O10 0.894937 0.000000 0.430134
O O11 0.787080 0.239251 0.960870
O O12 0.891416 0.254987 0.837566
O O13 0.772899 0.000000 0.912679
O O14 0.500000 0.220461 0.000000
O O15 0.109079 0.767916 0.903539
O O16 0.862782 0.000000 0.979630
O O17 0.723966 0.765458 0.072696
O O18 0.293643 0.258545 0.715231
O O19 0.474584 0.000000 0.655044
O O20 0.700018 0.000000 0.132947
O O21 0.890189 0.500000 0.247474
#
# Coordination Sequence:
#
# PCOD8061295 Si02
#       8
#     4   4   4   4   4   4   4   4
#     4  10  21  39  57  73 103 145 188 231 273 321
#     4   9  17  29  47  77 114 144 170 213 275 329
#     4  10  20  32  52  81 109 139 178 226 276 326
#     4  10  21  36  55  81 111 139 171 220 277 328
#     4   8  14  26  45  71 100 131 168 207 252 304
#     4  10  19  33  54  79 110 142 176 221 273 328
#     4   8  13  23  43  69  99 135 170 203 245 309
#     4  11  23  38  58  80 104 143 190 231 273 323
#
# _framework density 19.008011
#
# number of rings (size 3 to 8) (size 9 to 14) (size 15 to 20)
#    0.000    2.500    1.250    2.250    0.000    6.000 
#    0.000    3.125    0.000    1.500    0.000    7.000 
#    0.000    0.000    0.000    0.000    0.000    0.000 
#
# Total GULP energy -396763.461679 kJ/mol
# GULP energy per Si atom -12398.858177 kJ/mol
# Density = 1.896475 g / cm^3
# Si number density = 19.008011 Si / 1000 Ang^3
#
#
#
# Elastic Constant Matrix: (Units=GPa)
#
#
# Indices 1 2 3 4 5 6 
#
# 1 142.3021 30.3345 68.5652 0.0000 1.8481 0.0000
# 2 30.3345 24.2196 33.0333 0.0000 -0.8060 0.0000
# 3 68.5652 33.0333 128.9462 0.0000 -2.1238 0.0000
# 4 0.0000 0.0000 0.0000 19.3619 0.0000 4.7980
# 5 1.8481 -0.8060 -2.1238 0.0000 32.3473 0.0000
# 6 0.0000 0.0000 0.0000 4.7980 0.0000 6.0618
#
#
#
# Elastic Compliance Matrix: (Units=1/GPa)
#
#
# Indices 1 2 3 4 5 6 
#
# 1 0.010506 -0.008532 -0.003418 0.000000 -0.001037 0.000000
# 2 -0.008532 0.070400 -0.013476 0.000000 0.001357 0.000000
# 3 -0.003418 -0.013476 0.013037 0.000000 0.000715 0.000000
# 4 0.000000 0.000000 0.000000 0.064250 0.000000 -0.050855
# 5 -0.001037 0.001357 0.000715 0.000000 0.031055 0.000000
# 6 0.000000 0.000000 0.000000 -0.050855 0.000000 0.205221
#
#
# Mechanical properties :
#
#
# Convention : Reuss Voigt Hill
#
# Bulk Modulus (GPa) = 23.20650 62.14821 42.67736
# Shear Modulus (GPa) = 10.87706 22.45653 16.66679
#
# Velocity S-wave (km/s) = 2.39474 3.44091 2.96434
# Velocity P-wave (km/s) = 4.45889 6.96802 5.84957
#
# Compressibility (1/GPa) = 0.04309137
#
# Stress axis : x y z
#
# Youngs Moduli (GPa) = 95.18035 14.20464 76.70630
#
# Poissons Ratio (x) = 0.12119 0.26219
# Poissons Ratio (y) = 0.81204 1.03369
# Poissons Ratio (z) = 0.32533 0.19142
#
# Static dielectric constant tensor:
#      x y z
#    x 3.673960 0.000000 0.069810 
#    y 0.000000 2.939120 0.000000 
#    z 0.069810 0.000000 3.692540 
# 
# 
# High freq. dielectric constant tensor:
#      x y z
#    x 1.748890 0.000000 0.005360 
#    y 0.000000 1.684890 0.000000 
#    z 0.005360 0.000000 1.747300 
# 
# From -- ./inp_files/94954.got.cif
#   From: 2010.06.25/outbox.cif.g09.slc.cpg/sg10_48_cif.got.tgz:94954.got - 2010.06.27 22:07:45.
