data_PCOD8061432
_publ_section_title
;
Structure prediction by ZEFSAII (Michael W. Deem and Ramdas Pophale) SiO2 
 PCOD8061432
Probable space group: P 2/M
;
_chemical_formula_sum "Si O2"
_cell_formula_units_Z 32
_cell_length_a 11.999924
_cell_length_b 8.704810
_cell_length_c 15.526023
_cell_angle_alpha 90.000000
_cell_angle_beta 90.138356
_cell_angle_gamma 90.000000
_cell_volume 1621.797963
_symmetry_space_group_name_H-M "P 2/M"
_symmetry_group_IT_number 10
_symmetry_cell_setting 'monoclinic'
loop_
_space_group_symop_operation_xyz
x,y,z
-x,y,-z
-x,-y,-z
x,-y,z
loop_
_atom_site_type_symbol
_atom_site_label
_atom_site_fract_x
_atom_site_fract_y
_atom_site_fract_z
Si Si1 0.726728 0.818655 0.158790
Si Si2 0.264385 0.682275 0.663729
Si Si3 0.875103 0.817570 0.000238
Si Si4 0.271563 0.818226 0.158384
Si Si5 0.736235 0.682368 0.663702
Si Si6 0.498836 0.681592 0.098464
Si Si7 0.499424 0.682044 0.404020
Si Si8 0.874695 0.682634 0.500398
O O1 0.777603 0.767071 0.250345
O O2 0.609335 0.735700 0.146275
O O3 0.709154 0.000000 0.154407
O O4 0.812291 0.761372 0.085932
O O5 0.254860 0.500000 0.675611
O O6 0.391126 0.735662 0.646608
O O7 0.188474 0.741339 0.584846
O O8 0.808458 0.754698 0.917245
O O9 0.880064 0.000000 0.997440
O O10 0.000000 0.748652 0.000000
O O11 0.221038 0.760583 0.248649
O O12 0.394720 0.752577 0.147387
O O13 0.277055 0.000000 0.156347
O O14 0.743889 0.500000 0.673081
O O15 0.609867 0.738393 0.646511
O O16 0.812804 0.742891 0.585718
O O17 0.489947 0.500000 0.104854
O O18 0.500000 0.739517 0.000000
O O19 0.500000 0.753224 0.500000
O O20 0.497973 0.500000 0.412285
O O21 0.873494 0.500000 0.500916
O O22 0.000000 0.747919 0.500000
#
# Coordination Sequence:
#
# PCOD8061432 Si02
#       8
#     4   4   4   4   4   4   4   4
#     4  11  22  37  59  85 115 150 189 233 282 339
#     4  10  19  33  55  81 110 144 185 232 280 334
#     4   9  20  39  59  78 106 151 198 231 270 331
#     4  11  22  37  59  85 115 150 189 233 282 339
#     4  10  19  33  55  81 110 144 185 232 280 334
#     4  11  22  37  60  87 117 148 182 229 285 344
#     4   9  15  28  52  77  99 134 179 216 259 322
#     4   9  18  33  54  80 111 149 191 234 283 339
#
# _framework density 19.731188
#
# number of rings (size 3 to 8) (size 9 to 14) (size 15 to 20)
#    0.000    2.000    2.500    1.875    0.000    2.500 
#    0.000    0.625    0.000    6.750    0.000    0.000 
#    0.000    0.000    0.000    0.000    0.000    0.000 
#
# Total GULP energy -396866.916175 kJ/mol
# GULP energy per Si atom -12402.091130 kJ/mol
# Density = 1.968628 g / cm^3
# Si number density = 19.731188 Si / 1000 Ang^3
#
#
#
# Elastic Constant Matrix: (Units=GPa)
#
#
# Indices 1 2 3 4 5 6 
#
# 1 149.9818 12.9189 74.5113 0.0000 -6.1851 0.0000
# 2 12.9189 29.8333 26.7908 0.0000 -3.3949 0.0000
# 3 74.5113 26.7908 188.8130 0.0000 -4.8779 0.0000
# 4 0.0000 0.0000 0.0000 26.0343 0.0000 0.3349
# 5 -6.1851 -3.3949 -4.8779 0.0000 14.3992 0.0000
# 6 0.0000 0.0000 0.0000 0.3349 0.0000 5.5604
#
#
#
# Elastic Compliance Matrix: (Units=1/GPa)
#
#
# Indices 1 2 3 4 5 6 
#
# 1 0.008388 -0.000506 -0.003176 0.000000 0.002408 0.000000
# 2 -0.000506 0.039215 -0.005177 0.000000 0.007275 0.000000
# 3 -0.003176 -0.005177 0.007281 0.000000 -0.000118 0.000000
# 4 0.000000 0.000000 0.000000 0.038441 0.000000 -0.002315
# 5 0.002408 0.007275 -0.000118 0.000000 0.072158 0.000000
# 6 0.000000 0.000000 0.000000 -0.002315 0.000000 0.179984
#
#
# Mechanical properties :
#
#
# Convention : Reuss Voigt Hill
#
# Bulk Modulus (GPa) = 26.90580 66.34113 46.62346
# Shear Modulus (GPa) = 13.31297 26.15925 19.73611
#
# Velocity S-wave (km/s) = 2.60035 3.64508 3.16610
# Velocity P-wave (km/s) = 4.76251 7.17014 6.08656
#
# Compressibility (1/GPa) = 0.03716671
#
# Stress axis : x y z
#
# Youngs Moduli (GPa) = 119.21299 25.50031 137.34085
#
# Poissons Ratio (x) = 0.01291 0.43623
# Poissons Ratio (y) = 0.06034 0.71096
# Poissons Ratio (z) = 0.37865 0.13200
#
# Static dielectric constant tensor:
#      x y z
#    x 3.748230 0.000000 0.005520 
#    y 0.000000 3.118740 0.000000 
#    z 0.005520 0.000000 3.857420 
# 
# 
# High freq. dielectric constant tensor:
#      x y z
#    x 1.767680 0.000000 -0.000250 
#    y 0.000000 1.726220 0.000000 
#    z -0.000250 0.000000 1.789580 
# 
# From -- ./inp_files/63849.got.cif
#   From: 2010.06.25/outbox.cif.g09.slc.cpg/sg10_32_cif.got.tgz:63849.got - 2010.06.27 22:07:45.
