data_PCOD8061214
_publ_section_title
;
Structure prediction by ZEFSAII (Michael W. Deem and Ramdas Pophale) SiO2 
 PCOD8061214
Probable space group: P 2/M
;
_chemical_formula_sum "Si O2"
_cell_formula_units_Z 32
_cell_length_a 14.116607
_cell_length_b 9.250747
_cell_length_c 17.671946
_cell_angle_alpha 90.000000
_cell_angle_beta 134.898401
_cell_angle_gamma 90.000000
_cell_volume 1634.727050
_symmetry_space_group_name_H-M "P 2/M"
_symmetry_group_IT_number 10
_symmetry_cell_setting 'monoclinic'
loop_
_space_group_symop_operation_xyz
x,y,z
-x,y,-z
-x,-y,-z
x,-y,z
loop_
_atom_site_type_symbol
_atom_site_label
_atom_site_fract_x
_atom_site_fract_y
_atom_site_fract_z
Si Si1 0.403868 0.658094 0.524578
Si Si2 0.920972 0.830377 0.226518
Si Si3 0.626083 0.170510 0.023675
Si Si4 0.541589 0.167002 0.812327
Si Si5 0.160280 0.672570 0.285611
Si Si6 0.352034 0.828634 0.292744
Si Si7 0.311037 0.343742 0.635379
Si Si8 0.068844 0.155588 0.459856
O O1 0.433439 0.500000 0.505394
O O2 0.264338 0.717146 0.411331
O O3 0.532243 0.763783 0.585553
O O4 0.399371 0.639904 0.611146
O O5 0.016549 0.740227 0.224273
O O6 0.962016 0.799087 0.336169
O O7 0.930696 0.000000 0.210822
O O8 0.769014 0.771651 0.133984
O O9 0.622014 0.213314 0.932546
O O10 0.621581 0.000000 0.031709
O O11 0.500000 0.237035 0.000000
O O12 0.623936 0.205567 0.782700
O O13 0.396570 0.242958 0.738859
O O14 0.505676 0.000000 0.792538
O O15 0.146811 0.500000 0.267680
O O16 0.214576 0.748129 0.239147
O O17 0.342799 0.000000 0.301735
O O18 0.286029 0.500000 0.659592
O O19 0.173081 0.281298 0.528873
O O20 0.000000 0.133236 0.500000
O O21 0.135151 0.000000 0.474329
#
# Coordination Sequence:
#
# PCOD8061214 Si02
#       8
#     4   4   4   4   4   4   4   4
#     4   9  18  32  49  73 109 150 187 221 267 329
#     4  10  21  37  58  86 114 146 190 237 282 336
#     4   9  19  37  64  89 109 141 188 238 286 337
#     4   9  19  36  58  83 114 146 186 237 285 328
#     4  11  21  35  54  77 111 155 190 227 281 338
#     4  10  20  32  51  82 113 146 187 233 280 329
#     4  10  19  33  53  79 112 150 186 223 274 334
#     4  10  21  34  53  82 115 146 182 228 283 340
#
# _framework density 19.575132
#
# number of rings (size 3 to 8) (size 9 to 14) (size 15 to 20)
#    0.000    2.250    1.250    1.500    1.750    3.750 
#    0.000    1.250    0.000    4.500    0.000    0.000 
#    0.000    0.000    0.000    0.000    0.000    0.000 
#
# Total GULP energy -396512.886391 kJ/mol
# GULP energy per Si atom -12391.027700 kJ/mol
# Density = 1.953058 g / cm^3
# Si number density = 19.575132 Si / 1000 Ang^3
#
#
#
# Elastic Constant Matrix: (Units=GPa)
#
#
# Indices 1 2 3 4 5 6 
#
# 1 105.3838 44.9135 62.2172 0.0000 14.2367 0.0000
# 2 44.9135 89.1944 48.3823 0.0000 11.0252 0.0000
# 3 62.2172 48.3823 126.7997 0.0000 12.6701 0.0000
# 4 0.0000 0.0000 0.0000 11.9450 0.0000 1.7704
# 5 14.2367 11.0252 12.6701 0.0000 30.4798 0.0000
# 6 0.0000 0.0000 0.0000 1.7704 0.0000 10.3856
#
#
#
# Elastic Compliance Matrix: (Units=1/GPa)
#
#
# Indices 1 2 3 4 5 6 
#
# 1 0.014883 -0.004175 -0.005390 0.000000 -0.003201 0.000000
# 2 -0.004175 0.015576 -0.003679 0.000000 -0.002155 0.000000
# 3 -0.005390 -0.003679 0.012051 0.000000 -0.001161 0.000000
# 4 0.000000 0.000000 0.000000 0.085887 0.000000 -0.014641
# 5 -0.003201 -0.002155 -0.001161 0.000000 0.035566 0.000000
# 6 0.000000 0.000000 0.000000 -0.014641 0.000000 0.098783
#
#
# Mechanical properties :
#
#
# Convention : Reuss Voigt Hill
#
# Bulk Modulus (GPa) = 62.41577 70.26708 66.34143
# Shear Modulus (GPa) = 16.97363 21.61974 19.29669
#
# Velocity S-wave (km/s) = 2.94785 3.32693 3.14311
# Velocity P-wave (km/s) = 6.59855 7.12264 6.86560
#
# Compressibility (1/GPa) = 0.01602159
#
# Stress axis : x y z
#
# Youngs Moduli (GPa) = 67.19101 64.20165 82.98045
#
# Poissons Ratio (x) = 0.26804 0.44725
# Poissons Ratio (y) = 0.28052 0.30532
# Poissons Ratio (z) = 0.36215 0.23622
#
# Static dielectric constant tensor:
#      x y z
#    x 3.469500 0.000000 -0.088100 
#    y 0.000000 3.912810 0.000000 
#    z -0.088100 0.000000 3.484400 
# 
# 
# High freq. dielectric constant tensor:
#      x y z
#    x 1.765830 0.000000 -0.002450 
#    y 0.000000 1.750400 0.000000 
#    z -0.002450 0.000000 1.743330 
# 
# From -- ./inp_files/84751.got.cif
#   From: 2010.06.25/outbox.cif.g09.slc.cpg/sg10_43_cif.got.tgz:84751.got - 2010.06.27 22:07:45.
