data_PCOD8061626
_publ_section_title
;
Structure prediction by ZEFSAII (Michael W. Deem and Ramdas Pophale) SiO2 
 PCOD8061626
Probable space group: P 2/M
;
_chemical_formula_sum "Si O2"
_cell_formula_units_Z 24
_cell_length_a 14.003132
_cell_length_b 18.817883
_cell_length_c 8.687676
_cell_angle_alpha 90.000000
_cell_angle_beta 150.257896
_cell_angle_gamma 90.000000
_cell_volume 1135.706296
_symmetry_space_group_name_H-M "P 2/M"
_symmetry_group_IT_number 10
_symmetry_cell_setting 'monoclinic'
loop_
_space_group_symop_operation_xyz
x,y,z
-x,y,-z
-x,-y,-z
x,-y,z
loop_
_atom_site_type_symbol
_atom_site_label
_atom_site_fract_x
_atom_site_fract_y
_atom_site_fract_z
Si Si1 0.204846 0.579528 0.204847
Si Si2 0.406897 0.177061 0.605816
Si Si3 0.640869 0.326377 0.326291
Si Si4 0.044554 0.673623 0.729977
Si Si5 0.897604 0.079381 0.692809
Si Si6 0.792022 0.822939 0.990941
O O1 0.281797 0.500000 0.281798
O O2 0.357681 0.620117 0.527150
O O3 0.000000 0.576519 0.000000
O O4 0.188211 0.620116 0.018742
O O5 0.444925 0.250510 0.746000
O O6 0.306510 0.120033 0.578063
O O7 0.266385 0.193478 0.266385
O O8 0.611532 0.145850 0.834597
O O9 0.854583 0.314827 0.563750
O O10 0.500000 0.359340 0.000000
O O11 0.000000 0.640659 0.500000
O O12 0.143852 0.749489 0.842778
O O13 0.858576 0.000000 0.575724
O O14 0.000000 0.075378 0.000000
O O15 0.034957 0.120034 0.763404
#
# Coordination Sequence:
#
# PCOD8061626 Si02
#       6
#     4   4   4   4   4   4
#     4   9  20  38  61  87 123 167 203 248 315 372
#     4  10  19  33  57  86 119 157 205 258 302 360
#     4  11  21  36  60  89 121 159 211 257 302 364
#     4  11  21  36  60  89 121 159 211 257 302 364
#     4   9  18  32  54  86 122 161 202 249 313 370
#     4  10  19  33  57  86 119 157 205 258 302 360
#
# _framework density 21.132224000000001
#
# number of rings (size 3 to 8) (size 9 to 14) (size 15 to 20)
#    0.000    2.000    3.333    1.000    0.000    1.333 
#    0.000    3.333    0.000    8.000    0.000    0.000 
#    0.000    0.000    0.000    0.000    0.000    0.000 
#
# Total GULP energy -297655.000004 kJ/mol
# GULP energy per Si atom -12402.291667 kJ/mol
# Density = 2.108413 g / cm^3
# Si number density = 21.132224 Si / 1000 Ang^3
#
#
#
# Elastic Constant Matrix: (Units=GPa)
#
#
# Indices 1 2 3 4 5 6 
#
# 1 96.4037 51.9594 42.1327 0.0000 9.0003 0.0000
# 2 51.9594 168.9117 55.5665 0.0000 -3.6695 0.0000
# 3 42.1327 55.5665 96.7606 0.0000 -9.3637 0.0000
# 4 0.0000 0.0000 0.0000 8.1459 0.0000 -0.6368
# 5 9.0003 -3.6695 -9.3637 0.0000 41.3956 0.0000
# 6 0.0000 0.0000 0.0000 -0.6368 0.0000 7.5190
#
#
#
# Elastic Compliance Matrix: (Units=1/GPa)
#
#
# Indices 1 2 3 4 5 6 
#
# 1 0.014614 -0.002904 -0.005141 0.000000 -0.004598 0.000000
# 2 -0.002904 0.007880 -0.003202 0.000000 0.000606 0.000000
# 3 -0.005141 -0.003202 0.014817 0.000000 0.004185 0.000000
# 4 0.000000 0.000000 0.000000 0.123580 0.000000 0.010466
# 5 -0.004598 0.000606 0.004185 0.000000 0.026157 0.000000
# 6 0.000000 0.000000 0.000000 0.010466 0.000000 0.133883
#
#
# Mechanical properties :
#
#
# Convention : Reuss Voigt Hill
#
# Bulk Modulus (GPa) = 67.48769 73.48812 70.48791
# Shear Modulus (GPa) = 14.35275 25.57325 19.96300
#
# Velocity S-wave (km/s) = 2.60895 3.48250 3.07688
# Velocity P-wave (km/s) = 6.40943 7.14292 6.78609
#
# Compressibility (1/GPa) = 0.01481752
#
# Stress axis : x y z
#
# Youngs Moduli (GPa) = 68.42594 126.90025 67.48973
#
# Poissons Ratio (x) = 0.36856 0.34694
# Poissons Ratio (y) = 0.19873 0.21611
# Poissons Ratio (z) = 0.35175 0.40635
#
# Static dielectric constant tensor:
#      x y z
#    x 3.726080 0.000000 0.023400 
#    y 0.000000 3.822950 0.000000 
#    z 0.023400 0.000000 3.703070 
# 
# 
# High freq. dielectric constant tensor:
#      x y z
#    x 1.823580 0.000000 0.006390 
#    y 0.000000 1.811070 0.000000 
#    z 0.006390 0.000000 1.817300 
# 
# From -- ./inp_files/30231.got.cif
#   From: 2010.06.25/outbox.cif.g09.slc.cpg/sg10_16_cif.got.tgz:30231.got - 2010.06.27 22:07:45.
