data_PCOD8061400
_publ_section_title
;
Structure prediction by ZEFSAII (Michael W. Deem and Ramdas Pophale) SiO2 
 PCOD8061400
Probable space group: P 2/M
;
_chemical_formula_sum "Si O2"
_cell_formula_units_Z 32
_cell_length_a 24.996601
_cell_length_b 9.005020
_cell_length_c 20.860394
_cell_angle_alpha 90.000000
_cell_angle_beta 160.128288
_cell_angle_gamma 90.000000
_cell_volume 1596.095314
_symmetry_space_group_name_H-M "P 2/M"
_symmetry_group_IT_number 10
_symmetry_cell_setting 'monoclinic'
loop_
_space_group_symop_operation_xyz
x,y,z
-x,y,-z
-x,-y,-z
x,-y,z
loop_
_atom_site_type_symbol
_atom_site_label
_atom_site_fract_x
_atom_site_fract_y
_atom_site_fract_z
Si Si1 0.765812 0.671384 0.667823
Si Si2 0.921839 0.673188 0.060926
Si Si3 0.682832 0.174572 0.703223
Si Si4 0.396989 0.835821 0.620891
Si Si5 0.822037 0.671020 0.296317
Si Si6 0.436511 0.174314 0.068330
Si Si7 0.085425 0.833293 0.354327
Si Si8 0.271243 0.328209 0.664921
O O1 0.743355 0.500000 0.660126
O O2 0.761314 0.766554 0.726846
O O3 0.623653 0.720015 0.460287
O O4 0.932807 0.702805 0.823058
O O5 0.891558 0.500000 0.036222
O O6 0.952992 0.744899 0.165510
O O7 0.766051 0.748394 0.857243
O O8 0.500000 0.217299 0.500000
O O9 0.710665 0.000000 0.738833
O O10 0.540754 0.790937 0.829955
O O11 0.244176 0.836818 0.492839
O O12 0.423529 0.000000 0.621025
O O13 0.815583 0.500000 0.267073
O O14 0.740831 0.693942 0.273099
O O15 0.000000 0.728115 0.500000
O O16 0.735362 0.770023 0.145322
O O17 0.562822 0.260539 0.168055
O O18 0.457050 0.000000 0.078539
O O19 0.123041 0.751220 0.463512
O O20 0.024902 0.000000 0.300074
O O21 0.267286 0.500000 0.640470
#
# Coordination Sequence:
#
# PCOD8061400 Si02
#       8
#     4   4   4   4   4   4   4   4
#     4  10  20  34  56  84 108 135 173 216 262 313
#     4  10  20  35  57  84 110 137 174 217 262 315
#     4  11  24  39  54  75 106 144 182 219 261 309
#     4   8  16  31  51  77 107 136 168 211 260 309
#     4  10  22  38  53  73 105 143 181 220 263 314
#     4  10  20  34  55  82 108 136 174 219 266 316
#     4   9  17  31  53  81 110 138 171 214 263 312
#     4  10  19  33  55  80 106 139 177 218 265 313
#
# _framework density 20.048928
#
# number of rings (size 3 to 8) (size 9 to 14) (size 15 to 20)
#    0.000    2.250    0.000    3.750    0.000   10.250 
#    0.000    1.250    0.000    3.000    0.000    0.000 
#    0.000    0.000    0.000    0.000    0.000    0.000 
#
# Total GULP energy -396859.606772 kJ/mol
# GULP energy per Si atom -12401.862712 kJ/mol
# Density = 2.000330 g / cm^3
# Si number density = 20.048928 Si / 1000 Ang^3
#
#
#
# Elastic Constant Matrix: (Units=GPa)
#
#
# Indices 1 2 3 4 5 6 
#
# 1 9.7685 15.6727 19.2018 0.0000 -5.0556 0.0000
# 2 15.6727 116.6238 66.7917 0.0000 -9.5512 0.0000
# 3 19.2018 66.7917 149.6527 0.0000 -24.5744 0.0000
# 4 0.0000 0.0000 0.0000 39.9699 0.0000 -10.1467
# 5 -5.0556 -9.5512 -24.5744 0.0000 25.9873 0.0000
# 6 0.0000 0.0000 0.0000 -10.1467 0.0000 19.0586
#
#
#
# Elastic Compliance Matrix: (Units=1/GPa)
#
#
# Indices 1 2 3 4 5 6 
#
# 1 0.152954 -0.012744 -0.011626 0.000000 0.014078 0.000000
# 2 -0.012744 0.012593 -0.004300 0.000000 -0.001917 0.000000
# 3 -0.011626 -0.004300 0.011201 0.000000 0.006750 0.000000
# 4 0.000000 0.000000 0.000000 0.028929 0.000000 0.015402
# 5 0.014078 -0.001917 0.006750 0.000000 0.046898 0.000000
# 6 0.000000 0.000000 0.000000 0.015402 0.000000 0.060669
#
#
# Mechanical properties :
#
#
# Convention : Reuss Voigt Hill
#
# Bulk Modulus (GPa) = 8.37457 53.26418 30.81938
# Shear Modulus (GPa) = 12.18362 28.62843 20.40603
#
# Velocity S-wave (km/s) = 2.46782 3.78289 3.19378
# Velocity P-wave (km/s) = 3.50804 6.76056 5.38570
#
# Compressibility (1/GPa) = 0.11940910
#
# Stress axis : x y z
#
# Youngs Moduli (GPa) = 6.53790 79.41045 89.27397
#
# Poissons Ratio (x) = 1.01198 1.03791
# Poissons Ratio (y) = 0.08332 0.38388
# Poissons Ratio (z) = 0.07601 0.34146
#
# Static dielectric constant tensor:
#      x y z
#    x 3.337470 0.000000 -0.302190 
#    y 0.000000 3.742640 0.000000 
#    z -0.302190 0.000000 3.843720 
# 
# 
# High freq. dielectric constant tensor:
#      x y z
#    x 1.752570 0.000000 -0.025010 
#    y 0.000000 1.791420 0.000000 
#    z -0.025010 0.000000 1.788800 
# 
# From -- ./inp_files/86970.got.cif
#   From: 2010.06.25/outbox.cif.g09.slc.cpg/sg10_44_cif.got.tgz:86970.got - 2010.06.27 22:07:45.
