data_PCOD8061737
_publ_section_title
;
Structure prediction by ZEFSAII (Michael W. Deem and Ramdas Pophale) SiO2 
 PCOD8061737
Probable space group: P 2/M
;
_chemical_formula_sum "Si O2"
_cell_formula_units_Z 28
_cell_length_a 8.880626
_cell_length_b 10.593679
_cell_length_c 27.696017
_cell_angle_alpha 90.000000
_cell_angle_beta 144.919942
_cell_angle_gamma 90.000000
_cell_volume 1497.491490
_symmetry_space_group_name_H-M "P 2/M"
_symmetry_group_IT_number 10
_symmetry_cell_setting 'monoclinic'
loop_
_space_group_symop_operation_xyz
x,y,z
-x,y,-z
-x,-y,-z
x,-y,z
loop_
_atom_site_type_symbol
_atom_site_label
_atom_site_fract_x
_atom_site_fract_y
_atom_site_fract_z
Si Si1 0.720978 0.642886 0.678578
Si Si2 0.798563 0.500000 0.873041
Si Si3 0.293186 0.282187 0.831973
Si Si4 0.348441 0.500000 0.054229
Si Si5 0.310704 0.726914 0.221134
Si Si6 0.771307 0.144987 0.092789
Si Si7 0.691935 0.855211 0.594505
Si Si8 0.295992 0.144272 0.738723
O O1 0.615736 0.500000 0.639059
O O2 0.640708 0.678974 0.711948
O O3 0.611335 0.752827 0.614337
O O4 0.032519 0.637365 0.754050
O O5 0.725522 0.500000 0.909355
O O6 0.671750 0.616331 0.812661
O O7 0.114658 0.500000 0.954186
O O8 0.490734 0.372462 0.912553
O O9 0.228508 0.163633 0.849430
O O10 0.408944 0.227301 0.812734
O O11 0.549715 0.820313 0.269873
O O12 0.026116 0.787770 0.137970
O O13 0.798986 0.000000 0.086569
O O14 0.500000 0.199886 0.000000
O O15 0.500000 0.831802 0.500000
O O16 0.985431 0.831597 0.651978
O O17 0.664602 0.000000 0.607175
O O18 0.354725 0.000000 0.766118
#
# Coordination Sequence:
#
# PCOD8061737 Si02
#       8
#     4   2   4   2   4   4   4   4
#     4  10  20  34  58  85 114 147 184 226 275 328
#     4  11  22  33  51  77 110 146 184 240 278 323
#     4  10  19  34  54  76 103 141 186 231 273 332
#     4  11  20  33  53  77 104 145 194 234 284 316
#     4  11  21  36  54  79 111 147 186 229 276 327
#     4  10  21  35  50  72 106 144 184 234 284 327
#     4   9  20  40  64  89 115 143 179 224 276 340
#     4  10  20  35  58  83 106 139 182 225 275 333
#
# _framework density 18.697935999999999
#
# number of rings (size 3 to 8) (size 9 to 14) (size 15 to 20)
#    0.000    1.857    2.857    1.714    0.000    4.286 
#    0.000    2.857    0.000    6.857    0.000    0.000 
#    0.000    0.000    0.000    0.000    0.000    0.000 
#
# Total GULP energy -347061.317465 kJ/mol
# GULP energy per Si atom -12395.047052 kJ/mol
# Density = 1.865538 g / cm^3
# Si number density = 18.697936 Si / 1000 Ang^3
#
#
#
# Elastic Constant Matrix: (Units=GPa)
#
#
# Indices 1 2 3 4 5 6 
#
# 1 91.6572 40.1600 17.8282 0.0000 -6.8777 0.0000
# 2 40.1600 106.8346 35.6602 0.0000 -8.3148 0.0000
# 3 17.8282 35.6602 68.5078 0.0000 -6.5949 0.0000
# 4 0.0000 0.0000 0.0000 20.3731 0.0000 5.1978
# 5 -6.8777 -8.3148 -6.5949 0.0000 21.3788 0.0000
# 6 0.0000 0.0000 0.0000 5.1978 0.0000 13.2455
#
#
#
# Elastic Compliance Matrix: (Units=1/GPa)
#
#
# Indices 1 2 3 4 5 6 
#
# 1 0.013222 -0.004502 -0.000883 0.000000 0.002230 0.000000
# 2 -0.004502 0.013011 -0.005414 0.000000 0.001942 0.000000
# 3 -0.000883 -0.005414 0.017948 0.000000 0.003147 0.000000
# 4 0.000000 0.000000 0.000000 0.054545 0.000000 -0.021405
# 5 0.002230 0.001942 0.003147 0.000000 0.049219 0.000000
# 6 0.000000 0.000000 0.000000 -0.021405 0.000000 0.083897
#
#
# Mechanical properties :
#
#
# Convention : Reuss Voigt Hill
#
# Bulk Modulus (GPa) = 44.28112 50.47738 47.37925
# Shear Modulus (GPa) = 19.15953 22.55623 20.85788
#
# Velocity S-wave (km/s) = 3.20455 3.47702 3.34356
# Velocity P-wave (km/s) = 6.11767 6.57072 6.34824
#
# Compressibility (1/GPa) = 0.02258299
#
# Stress axis : x y z
#
# Youngs Moduli (GPa) = 75.63250 76.85889 55.71760
#
# Poissons Ratio (x) = 0.34602 0.04918
# Poissons Ratio (y) = 0.34050 0.30165
# Poissons Ratio (z) = 0.06676 0.41611
#
# Static dielectric constant tensor:
#      x y z
#    x 3.346720 0.000000 0.043800 
#    y 0.000000 3.499790 0.000000 
#    z 0.043800 0.000000 3.264860 
# 
# 
# High freq. dielectric constant tensor:
#      x y z
#    x 1.722040 0.000000 -0.003460 
#    y 0.000000 1.739000 0.000000 
#    z -0.003460 0.000000 1.702590 
# 
# From -- ./inp_files/92131.got.cif
#   From: 2010.06.25/outbox.cif.g09.slc.cpg/sg10_47_cif.got.tgz:92131.got - 2010.06.27 22:07:45.
