data_PCOD8061361
_publ_section_title
;
Structure prediction by ZEFSAII (Michael W. Deem and Ramdas Pophale) SiO2 
 PCOD8061361
Probable space group: P 2/M
;
_chemical_formula_sum "Si O2"
_cell_formula_units_Z 32
_cell_length_a 14.283320
_cell_length_b 9.153307
_cell_length_c 19.689606
_cell_angle_alpha 90.000000
_cell_angle_beta 46.252844
_cell_angle_gamma 90.000000
_cell_volume 1859.605952
_symmetry_space_group_name_H-M "P 2/M"
_symmetry_group_IT_number 10
_symmetry_cell_setting 'monoclinic'
loop_
_space_group_symop_operation_xyz
x,y,z
-x,y,-z
-x,-y,-z
x,-y,z
loop_
_atom_site_type_symbol
_atom_site_label
_atom_site_fract_x
_atom_site_fract_y
_atom_site_fract_z
Si Si1 0.468059 0.328946 0.693205
Si Si2 0.478628 0.330785 0.836221
Si Si3 0.255053 0.169644 0.303824
Si Si4 0.864267 0.169376 0.778990
Si Si5 0.124944 0.672348 0.644585
Si Si6 0.239042 0.671622 0.444765
Si Si7 0.371954 0.326034 0.602322
Si Si8 0.635386 0.668436 0.966438
O O1 0.471072 0.500000 0.679694
O O2 0.414133 0.288825 0.795498
O O3 0.615417 0.272310 0.612812
O O4 0.379077 0.265773 0.676805
O O5 0.522656 0.500000 0.813390
O O6 0.606790 0.237697 0.784928
O O7 0.374943 0.302593 0.947463
O O8 0.160226 0.196563 0.288259
O O9 0.189251 0.245561 0.402362
O O10 0.275321 0.000000 0.309010
O O11 0.747734 0.230365 0.882377
O O12 0.995419 0.249813 0.734875
O O13 0.878149 0.000000 0.789058
O O14 0.108594 0.500000 0.662301
O O15 0.150165 0.712310 0.553243
O O16 0.242737 0.734673 0.631300
O O17 0.236715 0.500000 0.430682
O O18 0.500000 0.267836 0.500000
O O19 0.367741 0.500000 0.599935
O O20 0.668263 0.500000 0.933853
O O21 0.500000 0.712838 0.000000
#
# Coordination Sequence:
#
# PCOD8061361 Si02
#       8
#     4   4   4   4   4   4   4   4
#     4   8  13  24  46  76 106 127 152 197 252 300
#     4   9  17  30  51  78 103 127 158 204 255 297
#     4  10  20  32  47  69  99 136 171 202 240 294
#     4  11  24  37  49  69 102 140 172 206 250 300
#     4  10  20  33  52  76 101 133 172 211 251 295
#     4   9  17  30  49  73 100 132 167 205 247 292
#     4   9  14  25  49  80 105 126 160 207 254 295
#     4  10  19  33  55  79 100 126 165 213 256 296
#
# _framework density 17.207947000000001
#
# number of rings (size 3 to 8) (size 9 to 14) (size 15 to 20)
#    0.000    2.500    2.500    1.500    0.000    3.250 
#    0.000    2.500    0.000    4.125    0.000    5.250 
#    0.000    0.000    0.000    0.000    0.000    0.000 
#
# Total GULP energy -396674.206326 kJ/mol
# GULP energy per Si atom -12396.068948 kJ/mol
# Density = 1.716878 g / cm^3
# Si number density = 17.207947 Si / 1000 Ang^3
#
#
#
# Elastic Constant Matrix: (Units=GPa)
#
#
# Indices 1 2 3 4 5 6 
#
# 1 107.4122 39.5867 61.4827 0.0000 2.5135 0.0000
# 2 39.5867 51.7516 38.9143 0.0000 -1.0286 0.0000
# 3 61.4827 38.9143 103.2732 0.0000 2.9391 0.0000
# 4 0.0000 0.0000 0.0000 14.1903 0.0000 1.9835
# 5 2.5135 -1.0286 2.9391 0.0000 26.2628 0.0000
# 6 0.0000 0.0000 0.0000 1.9835 0.0000 8.2364
#
#
#
# Elastic Compliance Matrix: (Units=1/GPa)
#
#
# Indices 1 2 3 4 5 6 
#
# 1 0.015766 -0.007039 -0.006704 0.000000 -0.001034 0.000000
# 2 -0.007039 0.030233 -0.007277 0.000000 0.002672 0.000000
# 3 -0.006704 -0.007277 0.016459 0.000000 -0.001485 0.000000
# 4 0.000000 0.000000 0.000000 0.072926 0.000000 -0.017562
# 5 -0.001034 0.002672 -0.001485 0.000000 0.038447 0.000000
# 6 0.000000 0.000000 0.000000 -0.017562 0.000000 0.125642
#
#
# Mechanical properties :
#
#
# Convention : Reuss Voigt Hill
#
# Bulk Modulus (GPa) = 48.98116 60.26715 54.62416
# Shear Modulus (GPa) = 14.35467 17.90143 16.12805
#
# Velocity S-wave (km/s) = 2.89137 3.22887 3.06477
# Velocity P-wave (km/s) = 6.29863 6.99998 6.65854
#
# Compressibility (1/GPa) = 0.02041601
#
# Stress axis : x y z
#
# Youngs Moduli (GPa) = 63.42785 33.07644 60.75793
#
# Poissons Ratio (x) = 0.23284 0.40733
# Poissons Ratio (y) = 0.44649 0.44216
# Poissons Ratio (z) = 0.42523 0.24071
#
# Static dielectric constant tensor:
#      x y z
#    x 3.410190 0.000000 0.284800 
#    y 0.000000 2.935830 0.000000 
#    z 0.284800 0.000000 3.162920 
# 
# 
# High freq. dielectric constant tensor:
#      x y z
#    x 1.658510 0.000000 0.019500 
#    y 0.000000 1.635520 0.000000 
#    z 0.019500 0.000000 1.654100 
# 
# From -- ./inp_files/66107.got.cif
#   From: 2010.06.25/outbox.cif.g09.slc.cpg/sg10_34_cif.got.tgz:66107.got - 2010.06.27 22:07:45.
