data_PCOD8061327
_publ_section_title
;
Structure prediction by ZEFSAII (Michael W. Deem and Ramdas Pophale) SiO2 
 PCOD8061327
Probable space group: P 2/M
;
_chemical_formula_sum "Si O2"
_cell_formula_units_Z 26
_cell_length_a 24.473265
_cell_length_b 9.674319
_cell_length_c 9.199763
_cell_angle_alpha 90.000000
_cell_angle_beta 143.956571
_cell_angle_gamma 90.000000
_cell_volume 1281.623217
_symmetry_space_group_name_H-M "P 2/M"
_symmetry_group_IT_number 10
_symmetry_cell_setting 'monoclinic'
loop_
_space_group_symop_operation_xyz
x,y,z
-x,y,-z
-x,-y,-z
x,-y,z
loop_
_atom_site_type_symbol
_atom_site_label
_atom_site_fract_x
_atom_site_fract_y
_atom_site_fract_z
Si Si1 0.983270 0.844519 0.792156
Si Si2 0.174137 0.653052 0.490340
Si Si3 0.140506 0.650557 0.097517
Si Si4 0.660345 0.152133 0.146365
Si Si5 0.500000 0.754475 0.000000
Si Si6 0.345269 0.656201 0.451157
Si Si7 0.601430 0.157125 0.694932
O O1 0.890342 0.755897 0.553012
O O2 0.972608 0.000000 0.706061
O O3 0.068718 0.768971 0.891135
O O4 0.000000 0.854736 0.000000
O O5 0.188454 0.500000 0.594103
O O6 0.121019 0.630197 0.225794
O O7 0.272401 0.724185 0.663110
O O8 0.121840 0.500000 0.981862
O O9 0.246698 0.697883 0.307634
O O10 0.561374 0.158108 0.017265
O O11 0.702375 0.000000 0.272666
O O12 0.653452 0.167644 0.958829
O O13 0.427827 0.667856 0.746941
O O14 0.345458 0.500000 0.394909
O O15 0.349786 0.753930 0.322421
O O16 0.500000 0.220086 0.500000
O O17 0.595754 0.000000 0.625547
#
# Coordination Sequence:
#
# PCOD8061327 Si02
#       7
#     4   4   4   4   2   4   4
#     4   9  17  30  50  80 112 145 184 227 277 339
#     4  10  19  33  54  81 114 148 182 231 288 338
#     4   9  18  33  51  79 114 147 182 229 285 336
#     4  11  23  38  58  83 114 152 194 237 282 337
#     4  12  22  38  58  88 116 150 188 242 288 328
#     4  11  23  38  58  85 116 152 193 236 281 337
#     4  10  22  41  57  77 112 155 196 235 282 337
#
# _framework density 20.286773
#
# number of rings (size 3 to 8) (size 9 to 14) (size 15 to 20)
#    0.000    1.846    3.077    1.385    0.000    5.231 
#    0.000    0.000    0.000    0.923    0.000    6.462 
#    0.000    0.000    0.000    0.000    0.000    0.000 
#
# Total GULP energy -322145.255542 kJ/mol
# GULP energy per Si atom -12390.202136 kJ/mol
# Density = 2.024060 g / cm^3
# Si number density = 20.286773 Si / 1000 Ang^3
#
#
#
# Elastic Constant Matrix: (Units=GPa)
#
#
# Indices 1 2 3 4 5 6 
#
# 1 95.6809 65.8078 43.4558 0.0000 18.8832 0.0000
# 2 65.8078 166.0957 44.6487 0.0000 25.0087 0.0000
# 3 43.4558 44.6487 43.7429 0.0000 19.0751 0.0000
# 4 0.0000 0.0000 0.0000 27.9504 0.0000 7.5812
# 5 18.8832 25.0087 19.0751 0.0000 39.4341 0.0000
# 6 0.0000 0.0000 0.0000 7.5812 0.0000 29.9455
#
#
#
# Elastic Compliance Matrix: (Units=1/GPa)
#
#
# Indices 1 2 3 4 5 6 
#
# 1 0.020552 -0.003690 -0.016956 0.000000 0.000701 0.000000
# 2 -0.003690 0.009028 -0.004845 0.000000 -0.001615 0.000000
# 3 -0.016956 -0.004845 0.050402 0.000000 -0.013188 0.000000
# 4 0.000000 0.000000 0.000000 0.038416 0.000000 -0.009726
# 5 0.000701 -0.001615 -0.013188 0.000000 0.032427 0.000000
# 6 0.000000 0.000000 0.000000 -0.009726 0.000000 0.035856
#
#
# Mechanical properties :
#
#
# Convention : Reuss Voigt Hill
#
# Bulk Modulus (GPa) = 34.48311 68.14936 51.31624
# Shear Modulus (GPa) = 20.21579 29.57314 24.89446
#
# Velocity S-wave (km/s) = 3.16016 3.82220 3.50684
# Velocity P-wave (km/s) = 5.50911 7.29005 6.46123
#
# Compressibility (1/GPa) = 0.02899970
#
# Stress axis : x y z
#
# Youngs Moduli (GPa) = 48.65606 110.76294 19.84039
#
# Poissons Ratio (x) = 0.40876 0.33642
# Poissons Ratio (y) = 0.17956 0.09612
# Poissons Ratio (z) = 0.82503 0.53663
#
# Static dielectric constant tensor:
#      x y z
#    x 3.568150 0.000000 0.240130 
#    y 0.000000 3.930730 0.000000 
#    z 0.240130 0.000000 3.351370 
# 
# 
# High freq. dielectric constant tensor:
#      x y z
#    x 1.777790 0.000000 0.028810 
#    y 0.000000 1.803310 0.000000 
#    z 0.028810 0.000000 1.761990 
# 
# From -- ./inp_files/34282.got.cif
#   From: 2010.06.25/outbox.cif.g09.slc.cpg/sg10_18_cif.got.tgz:34282.got - 2010.06.27 22:07:45.
