data_PCOD8061262
_publ_section_title
;
Structure prediction by ZEFSAII (Michael W. Deem and Ramdas Pophale) SiO2 
 PCOD8061262
Probable space group: P 2/M
;
_chemical_formula_sum "Si O2"
_cell_formula_units_Z 32
_cell_length_a 22.502230
_cell_length_b 8.879638
_cell_length_c 27.871681
_cell_angle_alpha 90.000000
_cell_angle_beta 18.292073
_cell_angle_gamma 90.000000
_cell_volume 1747.919682
_symmetry_space_group_name_H-M "P 2/M"
_symmetry_group_IT_number 10
_symmetry_cell_setting 'monoclinic'
loop_
_space_group_symop_operation_xyz
x,y,z
-x,y,-z
-x,-y,-z
x,-y,z
loop_
_atom_site_type_symbol
_atom_site_label
_atom_site_fract_x
_atom_site_fract_y
_atom_site_fract_z
Si Si1 0.847363 0.822076 0.908269
Si Si2 0.846324 0.320368 0.655407
Si Si3 0.574691 0.677517 0.044297
Si Si4 0.152121 0.678576 0.609917
Si Si5 0.152840 0.169317 0.840977
Si Si6 0.885954 0.323100 0.731059
Si Si7 0.122279 0.325064 0.014355
Si Si8 0.421076 0.325572 0.702635
O O1 0.827304 0.772017 0.978241
O O2 0.040501 0.754163 0.739071
O O3 0.855298 0.000000 0.898589
O O4 0.663348 0.762306 0.021550
O O5 0.851302 0.500000 0.653065
O O6 0.639362 0.265709 0.797732
O O7 0.891609 0.251475 0.673460
O O8 0.000000 0.257052 0.500000
O O9 0.586900 0.500000 0.045116
O O10 0.689763 0.719541 0.907815
O O11 0.129064 0.500000 0.632815
O O12 0.368864 0.730872 0.445652
O O13 0.062762 0.733845 0.627711
O O14 0.348280 0.236512 0.711661
O O15 0.077172 0.269922 0.855008
O O16 0.188950 0.000000 0.794974
O O17 0.000000 0.173079 0.000000
O O18 0.899865 0.500000 0.714046
O O19 0.104081 0.500000 0.041609
O O20 0.291770 0.293730 0.847615
O O21 0.418787 0.500000 0.690558
#
# Coordination Sequence:
#
# PCOD8061262 Si02
#       8
#     4   4   4   4   4   4   4   4
#     4  11  22  35  51  73 102 135 172 211 253 303
#     4   9  16  25  44  76 104 123 155 207 255 292
#     4   9  17  31  50  69  94 130 167 203 248 300
#     4   9  18  34  54  75 101 132 168 211 257 302
#     4   9  17  30  49  74 105 139 171 204 246 299
#     4   8  14  26  45  68  94 126 160 195 240 294
#     4  10  19  33  54  78 103 132 169 212 256 302
#     4   9  18  32  53  79 103 131 168 210 255 303
#
# _framework density 18.307478
#
# number of rings (size 3 to 8) (size 9 to 14) (size 15 to 20)
#    0.000    2.750    0.000    3.000    0.000    5.000 
#    0.000    4.375    0.000   10.125    0.000    0.000 
#    0.000    0.000    0.000    0.000    0.000    0.000 
#
# Total GULP energy -396759.292830 kJ/mol
# GULP energy per Si atom -12398.727901 kJ/mol
# Density = 1.826581 g / cm^3
# Si number density = 18.307478 Si / 1000 Ang^3
#
#
#
# Elastic Constant Matrix: (Units=GPa)
#
#
# Indices 1 2 3 4 5 6 
#
# 1 86.2761 28.3520 53.7908 0.0000 -12.6816 0.0000
# 2 28.3520 52.3006 29.3532 0.0000 -8.1561 0.0000
# 3 53.7908 29.3532 122.3075 0.0000 -26.4428 0.0000
# 4 0.0000 0.0000 0.0000 11.3290 0.0000 2.0092
# 5 -12.6816 -8.1561 -26.4428 0.0000 26.4194 0.0000
# 6 0.0000 0.0000 0.0000 2.0092 0.0000 13.0326
#
#
#
# Elastic Compliance Matrix: (Units=1/GPa)
#
#
# Indices 1 2 3 4 5 6 
#
# 1 0.017440 -0.005936 -0.006166 0.000000 0.000367 0.000000
# 2 -0.005936 0.024195 -0.002804 0.000000 0.001814 0.000000
# 3 -0.006166 -0.002804 0.013698 0.000000 0.009885 0.000000
# 4 0.000000 0.000000 0.000000 0.090750 0.000000 -0.013991
# 5 0.000367 0.001814 0.009885 0.000000 0.048481 0.000000
# 6 0.000000 0.000000 0.000000 -0.013991 0.000000 0.078888
#
#
# Mechanical properties :
#
#
# Convention : Reuss Voigt Hill
#
# Bulk Modulus (GPa) = 39.18427 53.76403 46.47415
# Shear Modulus (GPa) = 16.03748 20.11540 18.07644
#
# Velocity S-wave (km/s) = 2.96295 3.31834 3.14567
# Velocity P-wave (km/s) = 5.75807 6.64175 6.21563
#
# Compressibility (1/GPa) = 0.02552045
#
# Stress axis : x y z
#
# Youngs Moduli (GPa) = 57.34041 41.33145 73.00425
#
# Poissons Ratio (x) = 0.24535 0.45014
# Poissons Ratio (y) = 0.34038 0.20469
# Poissons Ratio (z) = 0.35356 0.11588
#
# Static dielectric constant tensor:
#      x y z
#    x 3.592460 0.000000 -0.175900 
#    y 0.000000 3.104810 0.000000 
#    z -0.175900 0.000000 3.453010 
# 
# 
# High freq. dielectric constant tensor:
#      x y z
#    x 1.717840 0.000000 -0.013280 
#    y 0.000000 1.680220 0.000000 
#    z -0.013280 0.000000 1.699150 
# 
# From -- ./inp_files/93649.got.cif
#   From: 2010.06.25/outbox.cif.g09.slc.cpg/sg10_47_cif.got.tgz:93649.got - 2010.06.27 22:07:45.
