data_PCOD8061685
_publ_section_title
;
Structure prediction by ZEFSAII (Michael W. Deem and Ramdas Pophale) SiO2 
 PCOD8061685
Probable space group: P 2/M
;
_chemical_formula_sum "Si O2"
_cell_formula_units_Z 28
_cell_length_a 19.862387
_cell_length_b 9.236697
_cell_length_c 18.338189
_cell_angle_alpha 90.000000
_cell_angle_beta 30.132886
_cell_angle_gamma 90.000000
_cell_volume 1688.941272
_symmetry_space_group_name_H-M "P 2/M"
_symmetry_group_IT_number 10
_symmetry_cell_setting 'monoclinic'
loop_
_space_group_symop_operation_xyz
x,y,z
-x,y,-z
-x,-y,-z
x,-y,z
loop_
_atom_site_type_symbol
_atom_site_label
_atom_site_fract_x
_atom_site_fract_y
_atom_site_fract_z
Si Si1 0.244223 0.828131 0.569806
Si Si2 0.520369 0.162829 0.754404
Si Si3 0.285593 0.332888 0.019517
Si Si4 0.027601 0.331946 0.171685
Si Si5 0.352672 0.828451 0.622927
Si Si6 0.118608 0.834699 0.946380
Si Si7 0.563485 0.163547 0.013852
O O1 0.351070 0.777515 0.408882
O O2 0.295351 0.770293 0.600041
O O3 0.105261 0.752134 0.680350
O O4 0.221050 0.000000 0.591378
O O5 0.387598 0.260504 0.864359
O O6 0.547806 0.164211 0.816477
O O7 0.488581 0.000000 0.756504
O O8 0.323021 0.500000 0.990677
O O9 0.309129 0.257741 0.076980
O O10 0.133260 0.308787 0.137929
O O11 0.994919 0.500000 0.190271
O O12 0.090918 0.270749 0.038724
O O13 0.500000 0.762418 0.500000
O O14 0.255411 0.781917 0.779735
O O15 0.360787 0.000000 0.609915
O O16 0.130303 0.000000 0.963599
O O17 0.000000 0.822624 0.000000
O O18 0.612966 0.000000 0.951305
O O19 0.500000 0.231890 0.000000
#
# Coordination Sequence:
#
# PCOD8061685 Si02
#       7
#     4   4   4   4   4   4   4
#     4  10  19  34  52  72  98 130 170 208 251 303
#     4   8  17  31  51  77 101 127 163 207 250 292
#     4   9  19  33  49  74 104 135 169 202 241 297
#     4  11  23  35  49  71 104 138 170 210 251 297
#     4   9  18  30  48  73  95 118 158 215 261 296
#     4  10  19  34  53  71  92 125 171 213 255 303
#     4   8  15  30  53  81 108 129 159 206 252 292
#
# _framework density 16.578433
#
# number of rings (size 3 to 8) (size 9 to 14) (size 15 to 20)
#    0.857    1.857    1.429    0.429    2.000    3.429 
#    0.000    0.000    0.000    1.714    0.000    6.000 
#    0.000    0.000    0.000    0.000    0.000    0.000 
#
# Total GULP energy -346986.250088 kJ/mol
# GULP energy per Si atom -12392.366075 kJ/mol
# Density = 1.654070 g / cm^3
# Si number density = 16.578433 Si / 1000 Ang^3
#
#
#
# Elastic Constant Matrix: (Units=GPa)
#
#
# Indices 1 2 3 4 5 6 
#
# 1 79.8306 37.2757 28.1551 0.0000 -13.3057 0.0000
# 2 37.2757 64.8464 30.7281 0.0000 -13.2124 0.0000
# 3 28.1551 30.7281 89.0682 0.0000 -21.6166 0.0000
# 4 0.0000 0.0000 0.0000 6.9011 0.0000 -5.2555
# 5 -13.3057 -13.2124 -21.6166 0.0000 22.7047 0.0000
# 6 0.0000 0.0000 0.0000 -5.2555 0.0000 21.3862
#
#
#
# Elastic Compliance Matrix: (Units=1/GPa)
#
#
# Indices 1 2 3 4 5 6 
#
# 1 0.017800 -0.008647 -0.001734 0.000000 0.003749 0.000000
# 2 -0.008647 0.023303 -0.004220 0.000000 0.004476 0.000000
# 3 -0.001734 -0.004220 0.016112 0.000000 0.011868 0.000000
# 4 0.000000 0.000000 0.000000 0.178265 0.000000 0.043807
# 5 0.003749 0.004476 0.011868 0.000000 0.060144 0.000000
# 6 0.000000 0.000000 0.000000 0.043807 0.000000 0.057524
#
#
# Mechanical properties :
#
#
# Convention : Reuss Voigt Hill
#
# Bulk Modulus (GPa) = 35.69655 47.34033 41.51844
# Shear Modulus (GPa) = 12.76527 19.37082 16.06804
#
# Velocity S-wave (km/s) = 2.77788 3.42195 3.11660
# Velocity P-wave (km/s) = 5.64513 6.65059 6.16838
#
# Compressibility (1/GPa) = 0.02801391
#
# Stress axis : x y z
#
# Youngs Moduli (GPa) = 56.17858 42.91286 62.06739
#
# Poissons Ratio (x) = 0.37106 0.10762
# Poissons Ratio (y) = 0.48576 0.26192
# Poissons Ratio (z) = 0.09741 0.18109
#
# Static dielectric constant tensor:
#      x y z
#    x 3.108270 0.000000 -0.015370 
#    y 0.000000 2.973160 0.000000 
#    z -0.015370 0.000000 3.128820 
# 
# 
# High freq. dielectric constant tensor:
#      x y z
#    x 1.627300 0.000000 -0.005050 
#    y 0.000000 1.623240 0.000000 
#    z -0.005050 0.000000 1.627540 
# 
# From -- ./inp_files/86044.got.cif
#   From: 2010.06.25/outbox.cif.g09.slc.cpg/sg10_44_cif.got.tgz:86044.got - 2010.06.27 22:07:45.
