data_PCOD8061313
_publ_section_title
;
Structure prediction by ZEFSAII (Michael W. Deem and Ramdas Pophale) SiO2 
 PCOD8061313
Probable space group: P 2/M
;
_chemical_formula_sum "Si O2"
_cell_formula_units_Z 32
_cell_length_a 15.245963
_cell_length_b 8.794919
_cell_length_c 22.815453
_cell_angle_alpha 90.000000
_cell_angle_beta 31.668692
_cell_angle_gamma 90.000000
_cell_volume 1606.129723
_symmetry_space_group_name_H-M "P 2/M"
_symmetry_group_IT_number 10
_symmetry_cell_setting 'monoclinic'
loop_
_space_group_symop_operation_xyz
x,y,z
-x,y,-z
-x,-y,-z
x,-y,z
loop_
_atom_site_type_symbol
_atom_site_label
_atom_site_fract_x
_atom_site_fract_y
_atom_site_fract_z
Si Si1 0.119000 0.318892 0.279009
Si Si2 0.824956 0.177794 0.128731
Si Si3 0.066463 0.821646 0.805539
Si Si4 0.550785 0.319834 0.844950
Si Si5 0.766856 0.180748 0.505189
Si Si6 0.777641 0.320364 0.908023
Si Si7 0.498144 0.680242 0.259008
Si Si8 0.338593 0.819774 0.560941
O O1 0.098451 0.500000 0.291004
O O2 0.269667 0.262841 0.234876
O O3 0.158899 0.257128 0.190738
O O4 0.954362 0.243445 0.399387
O O5 0.838974 0.223718 0.188768
O O6 0.673883 0.269769 0.186406
O O7 0.786438 0.000000 0.142506
O O8 0.000000 0.223543 0.000000
O O9 0.177747 0.765247 0.688048
O O10 0.891454 0.736515 0.897255
O O11 0.030397 0.000000 0.825502
O O12 0.548609 0.500000 0.845437
O O13 0.512681 0.259208 0.801419
O O14 0.409058 0.261777 0.971046
O O15 0.660698 0.247669 0.618463
O O16 0.676168 0.236336 0.497198
O O17 0.772347 0.000000 0.506498
O O18 0.781476 0.500000 0.904158
O O19 0.484030 0.500000 0.271095
O O20 0.500000 0.745722 0.500000
O O21 0.352419 0.000000 0.555571
#
# Coordination Sequence:
#
# PCOD8061313 Si02
#       8
#     4   4   4   4   4   4   4   4
#     4  10  20  37  61  86 114 147 190 237 286 342
#     4  10  21  37  58  85 117 154 193 232 280 340
#     4  10  19  33  54  80 113 150 185 221 280 346
#     4   9  20  38  59  83 112 153 192 230 287 349
#     4  11  22  38  59  82 116 151 190 239 287 340
#     4  10  19  34  59  88 116 144 186 239 286 336
#     4  11  23  39  59  83 115 154 198 239 281 335
#     4   9  17  31  52  75 101 141 183 218 267 332
#
# _framework density 19.923670999999999
#
# number of rings (size 3 to 8) (size 9 to 14) (size 15 to 20)
#    0.000    2.000    1.250    2.625    0.000    4.750 
#    0.000    5.000    0.000    3.375    0.000    0.000 
#    0.000    0.000    0.000    0.000    0.000    0.000 
#
# Total GULP energy -396795.154885 kJ/mol
# GULP energy per Si atom -12399.848590 kJ/mol
# Density = 1.987832 g / cm^3
# Si number density = 19.923671 Si / 1000 Ang^3
#
#
#
# Elastic Constant Matrix: (Units=GPa)
#
#
# Indices 1 2 3 4 5 6 
#
# 1 129.1089 30.3147 66.5939 0.0000 -11.2276 0.0000
# 2 30.3147 37.5212 32.1402 0.0000 -0.6697 0.0000
# 3 66.5939 32.1402 137.1637 0.0000 -7.9856 0.0000
# 4 0.0000 0.0000 0.0000 24.3839 0.0000 -0.5802
# 5 -11.2276 -0.6697 -7.9856 0.0000 40.9977 0.0000
# 6 0.0000 0.0000 0.0000 -0.5802 0.0000 20.0819
#
#
#
# Elastic Compliance Matrix: (Units=1/GPa)
#
#
# Indices 1 2 3 4 5 6 
#
# 1 0.011363 -0.005663 -0.004060 0.000000 0.002229 0.000000
# 2 -0.005663 0.036206 -0.005857 0.000000 -0.002100 0.000000
# 3 -0.004060 -0.005857 0.010685 0.000000 0.000874 0.000000
# 4 0.000000 0.000000 0.000000 0.041039 0.000000 0.001186
# 5 0.002229 -0.002100 0.000874 0.000000 0.025138 0.000000
# 6 0.000000 0.000000 0.000000 0.001186 0.000000 0.049830
#
#
# Mechanical properties :
#
#
# Convention : Reuss Voigt Hill
#
# Bulk Modulus (GPa) = 36.90770 62.43239 49.67004
# Shear Modulus (GPa) = 23.31519 28.74236 26.02878
#
# Velocity S-wave (km/s) = 3.42457 3.80231 3.61837
# Velocity P-wave (km/s) = 5.84822 7.11903 6.51468
#
# Compressibility (1/GPa) = 0.02709462
#
# Stress axis : x y z
#
# Youngs Moduli (GPa) = 88.00433 27.61957 93.58916
#
# Poissons Ratio (x) = 0.15641 0.37999
# Poissons Ratio (y) = 0.49837 0.54812
# Poissons Ratio (z) = 0.35731 0.16176
#
# Static dielectric constant tensor:
#      x y z
#    x 3.879120 0.000000 0.066360 
#    y 0.000000 3.267140 0.000000 
#    z 0.066360 0.000000 3.832340 
# 
# 
# High freq. dielectric constant tensor:
#      x y z
#    x 1.788280 0.000000 -0.002220 
#    y 0.000000 1.742890 0.000000 
#    z -0.002220 0.000000 1.792720 
# 
# From -- ./inp_files/89523.got.cif
#   From: 2010.06.25/outbox.cif.g09.slc.cpg/sg10_45_cif.got.tgz:89523.got - 2010.06.27 22:07:45.
