data_PCOD8061371
_publ_section_title
;
Structure prediction by ZEFSAII (Michael W. Deem and Ramdas Pophale) SiO2 
 PCOD8061371
Probable space group: P 2/M
;
_chemical_formula_sum "Si O2"
_cell_formula_units_Z 24
_cell_length_a 29.363329
_cell_length_b 9.102011
_cell_length_c 14.589009
_cell_angle_alpha 90.000000
_cell_angle_beta 159.892232
_cell_angle_gamma 90.000000
_cell_volume 1340.472484
_symmetry_space_group_name_H-M "P 2/M"
_symmetry_group_IT_number 10
_symmetry_cell_setting 'monoclinic'
loop_
_space_group_symop_operation_xyz
x,y,z
-x,y,-z
-x,-y,-z
x,-y,z
loop_
_atom_site_type_symbol
_atom_site_label
_atom_site_fract_x
_atom_site_fract_y
_atom_site_fract_z
Si Si1 0.828824 0.667538 0.433330
Si Si2 0.597621 0.828583 0.768484
Si Si3 0.883258 0.826859 0.715211
Si Si4 0.530801 0.329571 0.825149
Si Si5 0.866067 0.326852 0.297630
Si Si6 0.607344 0.827990 0.278574
O O1 0.865732 0.500000 0.522529
O O2 0.900143 0.763143 0.645387
O O3 0.882444 0.716425 0.435180
O O4 0.671560 0.693166 0.140519
O O5 0.500000 0.800398 0.500000
O O6 0.528465 0.753471 0.724481
O O7 0.618207 0.000000 0.827510
O O8 0.740916 0.757439 0.017542
O O9 0.747592 0.774937 0.505179
O O10 0.888999 0.000000 0.715559
O O11 0.000000 0.766683 0.000000
O O12 0.500751 0.500000 0.750402
O O13 0.418391 0.261121 0.677145
O O14 0.838013 0.500000 0.234544
O O15 0.000000 0.278243 0.500000
O O16 0.604699 0.000000 0.296994
O O17 0.500000 0.786059 0.000000
#
# Coordination Sequence:
#
# PCOD8061371 Si02
#       6
#     4   4   4   4   4   4
#     4   9  18  33  54  78 104 137 176 219 262 311
#     4  10  21  37  57  82 113 144 179 225 274 324
#     4  10  21  36  52  74 106 142 174 214 267 315
#     4  10  20  34  56  83 107 138 181 224 268 317
#     4   9  19  37  59  82 110 143 181 224 271 326
#     4  10  19  33  55  79 104 138 179 219 262 314
#
# _framework density 17.904133999999999
#
# number of rings (size 3 to 8) (size 9 to 14) (size 15 to 20)
#    0.000    2.333    1.667    2.000    0.000    5.667 
#    3.000    0.000    0.000    0.000    0.000    0.000 
#    0.000    0.000    0.000    0.000    0.000    0.000 
#
# Total GULP energy -297658.777452 kJ/mol
# GULP energy per Si atom -12402.449060 kJ/mol
# Density = 1.786338 g / cm^3
# Si number density = 17.904134 Si / 1000 Ang^3
#
#
#
# Elastic Constant Matrix: (Units=GPa)
#
#
# Indices 1 2 3 4 5 6 
#
# 1 131.8629 58.8278 75.1741 0.0000 5.7240 0.0000
# 2 58.8278 75.6354 52.2903 0.0000 -5.9707 0.0000
# 3 75.1741 52.2903 120.6716 0.0000 -2.1171 0.0000
# 4 0.0000 0.0000 0.0000 20.7350 0.0000 -2.9874
# 5 5.7240 -5.9707 -2.1171 0.0000 29.0559 0.0000
# 6 0.0000 0.0000 0.0000 -2.9874 0.0000 33.7818
#
#
#
# Elastic Compliance Matrix: (Units=1/GPa)
#
#
# Indices 1 2 3 4 5 6 
#
# 1 0.014529 -0.007664 -0.005815 0.000000 -0.004861 0.000000
# 2 -0.007664 0.023237 -0.005192 0.000000 0.005907 0.000000
# 3 -0.005815 -0.005192 0.014179 0.000000 0.001112 0.000000
# 4 0.000000 0.000000 0.000000 0.048850 0.000000 0.004320
# 5 -0.004861 0.005907 0.001112 0.000000 0.036669 0.000000
# 6 0.000000 0.000000 0.000000 0.004320 0.000000 0.029984
#
#
# Mechanical properties :
#
#
# Convention : Reuss Voigt Hill
#
# Bulk Modulus (GPa) = 68.47454 77.86160 73.16807
# Shear Modulus (GPa) = 23.84850 26.17306 25.01078
#
# Velocity S-wave (km/s) = 3.65363 3.82756 3.74160
# Velocity P-wave (km/s) = 7.49178 7.94456 7.72149
#
# Compressibility (1/GPa) = 0.01460397
#
# Stress axis : x y z
#
# Youngs Moduli (GPa) = 68.82834 43.03417 70.52700
#
# Poissons Ratio (x) = 0.32979 0.41015
# Poissons Ratio (y) = 0.52747 0.36615
# Poissons Ratio (z) = 0.40027 0.22342
#
# Static dielectric constant tensor:
#      x y z
#    x 3.349550 0.000000 0.072150 
#    y 0.000000 3.259680 0.000000 
#    z 0.072150 0.000000 3.245750 
# 
# 
# High freq. dielectric constant tensor:
#      x y z
#    x 1.700350 0.000000 0.000240 
#    y 0.000000 1.693080 0.000000 
#    z 0.000240 0.000000 1.678440 
# 
# From -- ./inp_files/37876.got.cif
#   From: 2010.06.25/outbox.cif.g09.slc.cpg/sg10_19_cif.got.tgz:37876.got - 2010.06.27 22:07:45.
