data_PCOD8061879
_publ_section_title
;
Structure prediction by ZEFSAII (Michael W. Deem and Ramdas Pophale) SiO2 
 PCOD8061879
Probable space group: P 2/M
;
_chemical_formula_sum "Si O2"
_cell_formula_units_Z 28
_cell_length_a 9.039888
_cell_length_b 8.873142
_cell_length_c 28.825490
_cell_angle_alpha 90.000000
_cell_angle_beta 141.307390
_cell_angle_gamma 90.000000
_cell_volume 1445.425965
_symmetry_space_group_name_H-M "P 2/M"
_symmetry_group_IT_number 10
_symmetry_cell_setting 'monoclinic'
loop_
_space_group_symop_operation_xyz
x,y,z
-x,y,-z
-x,-y,-z
x,-y,z
loop_
_atom_site_type_symbol
_atom_site_label
_atom_site_fract_x
_atom_site_fract_y
_atom_site_fract_z
Si Si1 0.786751 0.323974 0.850950
Si Si2 0.450395 0.322526 0.851820
Si Si3 0.114575 0.826435 0.577946
Si Si4 0.827128 0.169565 0.001159
Si Si5 0.761775 0.821385 0.571709
Si Si6 0.389905 0.323591 0.293744
Si Si7 0.948077 0.178423 0.715672
O O1 0.833937 0.500000 0.868122
O O2 0.583273 0.272423 0.837186
O O3 0.703955 0.278196 0.779795
O O4 0.035267 0.241069 0.921560
O O5 0.423556 0.500000 0.848971
O O6 0.592951 0.264419 0.931762
O O7 0.194159 0.250186 0.790484
O O8 0.336247 0.717241 0.636282
O O9 0.000000 0.807214 0.500000
O O10 0.926290 0.769667 0.569696
O O11 0.189755 0.000000 0.605129
O O12 0.751942 0.000000 0.995337
O O13 0.000000 0.175044 0.000000
O O14 0.500000 0.752183 0.500000
O O15 0.871817 0.760058 0.646511
O O16 0.742583 0.000000 0.569075
O O17 0.354475 0.500000 0.294860
O O18 0.252131 0.225806 0.297398
O O19 0.974272 0.000000 0.722116
#
# Coordination Sequence:
#
# PCOD8061879 Si02
#       7
#     4   4   4   4   4   4   4
#     4   9  19  35  55  79 108 144 182 222 272 327
#     4  10  19  34  56  80 109 143 179 221 273 329
#     4  10  20  36  60  86 111 142 181 224 271 322
#     4   9  17  30  52  82 111 139 177 224 270 320
#     4   9  18  34  57  84 111 140 177 222 270 319
#     4  11  23  38  55  78 111 147 184 225 270 322
#     4  11  22  36  55  79 109 144 184 227 270 320
#
# _framework density 19.371452999999999
#
# number of rings (size 3 to 8) (size 9 to 14) (size 15 to 20)
#    0.000    2.143    0.000    3.429    0.000    6.000 
#    0.000    1.429    0.000    7.286    0.000    0.000 
#    0.000    0.000    0.000    0.000    0.000    0.000 
#
# Total GULP energy -347289.373409 kJ/mol
# GULP energy per Si atom -12403.191907 kJ/mol
# Density = 1.932736 g / cm^3
# Si number density = 19.371453 Si / 1000 Ang^3
#
#
#
# Elastic Constant Matrix: (Units=GPa)
#
#
# Indices 1 2 3 4 5 6 
#
# 1 101.4698 23.9673 54.3431 0.0000 7.0648 0.0000
# 2 23.9673 60.1901 42.2495 0.0000 3.2476 0.0000
# 3 54.3431 42.2495 140.1204 0.0000 11.9812 0.0000
# 4 0.0000 0.0000 0.0000 31.5664 0.0000 4.2574
# 5 7.0648 3.2476 11.9812 0.0000 31.6347 0.0000
# 6 0.0000 0.0000 0.0000 4.2574 0.0000 25.9018
#
#
#
# Elastic Compliance Matrix: (Units=1/GPa)
#
#
# Indices 1 2 3 4 5 6 
#
# 1 0.012661 -0.002031 -0.004210 0.000000 -0.001024 0.000000
# 2 -0.002031 0.021402 -0.005701 0.000000 0.000416 0.000000
# 3 -0.004210 -0.005701 0.010705 0.000000 -0.002529 0.000000
# 4 0.000000 0.000000 0.000000 0.032397 0.000000 -0.005325
# 5 -0.001024 0.000416 -0.002529 0.000000 0.032755 0.000000
# 6 0.000000 0.000000 0.000000 -0.005325 0.000000 0.039483
#
#
# Mechanical properties :
#
#
# Convention : Reuss Voigt Hill
#
# Bulk Modulus (GPa) = 47.88521 60.32223 54.10372
# Shear Modulus (GPa) = 27.73942 29.90193 28.82068
#
# Velocity S-wave (km/s) = 3.78825 3.93314 3.86137
# Velocity P-wave (km/s) = 6.62628 7.19955 6.91885
#
# Compressibility (1/GPa) = 0.02088327
#
# Stress axis : x y z
#
# Youngs Moduli (GPa) = 78.98208 46.72436 93.41509
#
# Poissons Ratio (x) = 0.09489 0.39332
# Poissons Ratio (y) = 0.16040 0.53257
# Poissons Ratio (z) = 0.33255 0.26638
#
# Static dielectric constant tensor:
#      x y z
#    x 3.470670 0.000000 -0.038700 
#    y 0.000000 3.422780 0.000000 
#    z -0.038700 0.000000 3.744260 
# 
# 
# High freq. dielectric constant tensor:
#      x y z
#    x 1.743460 0.000000 0.002100 
#    y 0.000000 1.743350 0.000000 
#    z 0.002100 0.000000 1.771510 
# 
# From -- ./inp_files/36827.got.cif
#   From: 2010.06.25/outbox.cif.g09.slc.cpg/sg10_19_cif.got.tgz:36827.got - 2010.06.27 22:07:45.
