data_PCOD8061748
_publ_section_title
;
Structure prediction by ZEFSAII (Michael W. Deem and Ramdas Pophale) SiO2 
 PCOD8061748
Probable space group: P 2/M
;
_chemical_formula_sum "Si O2"
_cell_formula_units_Z 32
_cell_length_a 14.396799
_cell_length_b 9.273574
_cell_length_c 14.418991
_cell_angle_alpha 90.000000
_cell_angle_beta 58.303326
_cell_angle_gamma 90.000000
_cell_volume 1637.935046
_symmetry_space_group_name_H-M "P 2/M"
_symmetry_group_IT_number 10
_symmetry_cell_setting 'monoclinic'
loop_
_space_group_symop_operation_xyz
x,y,z
-x,y,-z
-x,-y,-z
x,-y,z
loop_
_atom_site_type_symbol
_atom_site_label
_atom_site_fract_x
_atom_site_fract_y
_atom_site_fract_z
Si Si1 0.343354 0.330169 0.828297
Si Si2 0.872737 0.671090 0.324287
Si Si3 0.473927 0.835677 0.616635
Si Si4 0.108733 0.329336 0.896509
Si Si5 0.286996 0.160264 0.479286
Si Si6 0.481453 0.671030 0.114082
Si Si7 0.970424 0.168139 0.618819
Si Si8 0.269413 0.162194 0.283674
O O1 0.355887 0.500000 0.813027
O O2 0.383981 0.263776 0.710543
O O3 0.215436 0.285498 0.902190
O O4 0.416376 0.272892 0.876534
O O5 0.880102 0.500000 0.328080
O O6 0.883199 0.726257 0.213259
O O7 0.755616 0.724151 0.424151
O O8 0.966134 0.741663 0.337480
O O9 0.500000 0.781118 0.500000
O O10 0.586376 0.817726 0.613499
O O11 0.431149 0.000000 0.638704
O O12 0.098945 0.500000 0.899664
O O13 0.000000 0.261515 0.000000
O O14 0.227901 0.177949 0.411833
O O15 0.268673 0.000000 0.530982
O O16 0.475469 0.500000 0.121592
O O17 0.364803 0.727955 0.208655
O O18 0.500000 0.726573 0.000000
O O19 0.842732 0.193693 0.712076
O O20 0.000000 0.223635 0.500000
O O21 0.002313 0.000000 0.611197
O O22 0.312385 0.000000 0.242255
#
# Coordination Sequence:
#
# PCOD8061748 Si02
#       8
#     4   4   4   4   4   4   4   4
#     4  10  20  36  59  83 110 148 187 227 278 332
#     4  11  22  34  56  88 113 143 193 244 280 324
#     4  10  20  33  53  82 113 147 184 225 278 332
#     4   9  20  39  59  80 111 152 192 229 278 338
#     4  10  19  34  54  77 113 153 182 220 282 344
#     4  10  22  38  57  85 118 149 185 235 288 329
#     4  10  20  37  57  78 113 157 189 223 283 350
#     4  10  20  36  58  80 107 151 194 225 272 339
#
# _framework density 19.536795000000001
#
# number of rings (size 3 to 8) (size 9 to 14) (size 15 to 20)
#    0.000    2.000    2.500    1.125    0.000    3.250 
#    0.000    3.125    0.000    3.375    0.000    0.000 
#    0.000    0.000    0.000    0.000    0.000    0.000 
#
# Total GULP energy -396674.948634 kJ/mol
# GULP energy per Si atom -12396.092145 kJ/mol
# Density = 1.949233 g / cm^3
# Si number density = 19.536795 Si / 1000 Ang^3
#
#
#
# Elastic Constant Matrix: (Units=GPa)
#
#
# Indices 1 2 3 4 5 6 
#
# 1 111.0788 29.7095 53.7414 0.0000 -7.3234 0.0000
# 2 29.7095 41.6188 31.2963 0.0000 -1.0687 0.0000
# 3 53.7414 31.2963 107.0771 0.0000 -6.4263 0.0000
# 4 0.0000 0.0000 0.0000 11.3758 0.0000 -2.5006
# 5 -7.3234 -1.0687 -6.4263 0.0000 31.5484 0.0000
# 6 0.0000 0.0000 0.0000 -2.5006 0.0000 24.5283
#
#
#
# Elastic Compliance Matrix: (Units=1/GPa)
#
#
# Indices 1 2 3 4 5 6 
#
# 1 0.012914 -0.005615 -0.004730 0.000000 0.001844 0.000000
# 2 -0.005615 0.033257 -0.006999 0.000000 -0.001602 0.000000
# 3 -0.004730 -0.006999 0.013848 0.000000 0.001486 0.000000
# 4 0.000000 0.000000 0.000000 0.089921 0.000000 0.009167
# 5 0.001844 -0.001602 0.001486 0.000000 0.032374 0.000000
# 6 0.000000 0.000000 0.000000 0.009167 0.000000 0.041704
#
#
# Mechanical properties :
#
#
# Convention : Reuss Voigt Hill
#
# Bulk Modulus (GPa) = 39.47438 54.36325 46.91881
# Shear Modulus (GPa) = 18.71622 23.15900 20.93761
#
# Velocity S-wave (km/s) = 3.09851 3.44671 3.27724
# Velocity P-wave (km/s) = 5.74892 6.61258 6.19581
#
# Compressibility (1/GPa) = 0.02533289
#
# Stress axis : x y z
#
# Youngs Moduli (GPa) = 77.43347 30.06867 72.21443
#
# Poissons Ratio (x) = 0.16883 0.34157
# Poissons Ratio (y) = 0.43477 0.50539
# Poissons Ratio (z) = 0.36625 0.21044
#
# Static dielectric constant tensor:
#      x y z
#    x 3.962490 0.000000 -0.015540 
#    y 0.000000 3.280450 0.000000 
#    z -0.015540 0.000000 3.512710 
# 
# 
# High freq. dielectric constant tensor:
#      x y z
#    x 1.783750 0.000000 -0.002690 
#    y 0.000000 1.734510 0.000000 
#    z -0.002690 0.000000 1.747450 
# 
# From -- ./inp_files/66503.got.cif
#   From: 2010.06.25/outbox.cif.g09.slc.cpg/sg10_34_cif.got.tgz:66503.got - 2010.06.27 22:07:45.
