data_PCOD8061196
_publ_section_title
;
Structure prediction by ZEFSAII (Michael W. Deem and Ramdas Pophale) SiO2 
 PCOD8061196
Probable space group: P 2/M
;
_chemical_formula_sum "Si O2"
_cell_formula_units_Z 32
_cell_length_a 20.057307
_cell_length_b 8.956935
_cell_length_c 12.663754
_cell_angle_alpha 90.000000
_cell_angle_beta 45.939032
_cell_angle_gamma 90.000000
_cell_volume 1634.864831
_symmetry_space_group_name_H-M "P 2/M"
_symmetry_group_IT_number 10
_symmetry_cell_setting 'monoclinic'
loop_
_space_group_symop_operation_xyz
x,y,z
-x,y,-z
-x,-y,-z
x,-y,z
loop_
_atom_site_type_symbol
_atom_site_label
_atom_site_fract_x
_atom_site_fract_y
_atom_site_fract_z
Si Si1 0.896895 0.178308 0.134442
Si Si2 0.631329 0.675697 0.606732
Si Si3 0.098282 0.176446 0.431358
Si Si4 0.597890 0.170671 0.430203
Si Si5 0.457245 0.325777 0.934393
Si Si6 0.816295 0.176376 0.444983
Si Si7 0.737591 0.178283 0.898881
Si Si8 0.765662 0.170126 0.099576
O O1 0.860784 0.237946 0.287190
O O2 0.835487 0.246789 0.106545
O O3 0.890753 0.000000 0.142439
O O4 0.000000 0.236243 0.000000
O O5 0.643828 0.500000 0.600795
O O6 0.637602 0.728262 0.479339
O O7 0.532952 0.725472 0.764205
O O8 0.716316 0.749881 0.576492
O O9 0.115051 0.220855 0.534898
O O10 0.183772 0.238353 0.267528
O O11 0.000000 0.245031 0.500000
O O12 0.094952 0.000000 0.421229
O O13 0.500000 0.234050 0.500000
O O14 0.662264 0.182784 0.257517
O O15 0.591096 0.000000 0.478486
O O16 0.434572 0.500000 0.949357
O O17 0.500000 0.285856 0.000000
O O18 0.362630 0.236765 0.024060
O O19 0.801135 0.000000 0.457163
O O20 0.731516 0.000000 0.907409
O O21 0.766083 0.243279 0.982983
O O22 0.798075 0.000000 0.051739
#
# Coordination Sequence:
#
# PCOD8061196 Si02
#       8
#     4   4   4   4   4   4   4   4
#     4   9  17  28  49  79 104 136 180 219 257 310
#     4  11  22  35  54  79 107 140 178 223 271 316
#     4   9  19  33  53  85 116 139 170 224 281 317
#     4  10  19  33  53  77 106 140 177 216 261 315
#     4  10  22  39  56  75 104 143 182 219 264 318
#     4  10  19  34  56  80 109 143 180 221 267 321
#     4  10  20  34  55  82 110 140 177 221 266 313
#     4   9  17  30  48  76 109 138 172 212 256 310
#
# _framework density 19.573485000000002
#
# number of rings (size 3 to 8) (size 9 to 14) (size 15 to 20)
#    0.000    2.250    1.250    1.875    1.750    2.500 
#    0.000    0.625    0.000    1.875    0.000    0.000 
#    0.000    0.000    0.000    0.000    0.000    0.000 
#
# Total GULP energy -396762.874402 kJ/mol
# GULP energy per Si atom -12398.839825 kJ/mol
# Density = 1.952893 g / cm^3
# Si number density = 19.573485 Si / 1000 Ang^3
#
#
#
# Elastic Constant Matrix: (Units=GPa)
#
#
# Indices 1 2 3 4 5 6 
#
# 1 166.1301 26.4113 75.9241 0.0000 -8.2156 0.0000
# 2 26.4113 26.0211 23.4518 0.0000 -2.5886 0.0000
# 3 75.9241 23.4518 129.2199 0.0000 0.3819 0.0000
# 4 0.0000 0.0000 0.0000 9.8500 0.0000 -1.6651
# 5 -8.2156 -2.5886 0.3819 0.0000 39.9827 0.0000
# 6 0.0000 0.0000 0.0000 -1.6651 0.0000 6.4293
#
#
#
# Elastic Compliance Matrix: (Units=1/GPa)
#
#
# Indices 1 2 3 4 5 6 
#
# 1 0.008850 -0.004949 -0.004307 0.000000 0.001539 0.000000
# 2 -0.004949 0.049089 -0.006008 0.000000 0.002219 0.000000
# 3 -0.004307 -0.006008 0.011364 0.000000 -0.001382 0.000000
# 4 0.000000 0.000000 0.000000 0.106171 0.000000 0.027497
# 5 0.001539 0.002219 -0.001382 0.000000 0.025484 0.000000
# 6 0.000000 0.000000 0.000000 0.027497 0.000000 0.162659
#
#
# Mechanical properties :
#
#
# Convention : Reuss Voigt Hill
#
# Bulk Modulus (GPa) = 25.78894 63.66061 44.72478
# Shear Modulus (GPa) = 12.28296 24.29133 18.28715
#
# Velocity S-wave (km/s) = 2.50777 3.52665 3.05992
# Velocity P-wave (km/s) = 4.64643 7.01267 5.94840
#
# Compressibility (1/GPa) = 0.03877631
#
# Stress axis : x y z
#
# Youngs Moduli (GPa) = 112.98929 20.37132 88.00077
#
# Poissons Ratio (x) = 0.10081 0.37898
# Poissons Ratio (y) = 0.55915 0.52870
# Poissons Ratio (z) = 0.48659 0.12239
#
# Static dielectric constant tensor:
#      x y z
#    x 3.815430 0.000000 0.037730 
#    y 0.000000 3.040910 0.000000 
#    z 0.037730 0.000000 3.772920 
# 
# 
# High freq. dielectric constant tensor:
#      x y z
#    x 1.779220 0.000000 0.001460 
#    y 0.000000 1.703580 0.000000 
#    z 0.001460 0.000000 1.774410 
# 
# From -- ./inp_files/55238.got.cif
#   From: 2010.06.25/outbox.cif.g09.slc.cpg/sg10_28_cif.got.tgz:55238.got - 2010.06.27 22:07:45.
