data_PCOD8061519
_publ_section_title
;
Structure prediction by ZEFSAII (Michael W. Deem and Ramdas Pophale) SiO2 
 PCOD8061519
Probable space group: P 2/M
;
_chemical_formula_sum "Si O2"
_cell_formula_units_Z 32
_cell_length_a 12.212452
_cell_length_b 9.012755
_cell_length_c 19.316525
_cell_angle_alpha 90.000000
_cell_angle_beta 129.252333
_cell_angle_gamma 90.000000
_cell_volume 1646.403216
_symmetry_space_group_name_H-M "P 2/M"
_symmetry_group_IT_number 10
_symmetry_cell_setting 'monoclinic'
loop_
_space_group_symop_operation_xyz
x,y,z
-x,y,-z
-x,-y,-z
x,-y,z
loop_
_atom_site_type_symbol
_atom_site_label
_atom_site_fract_x
_atom_site_fract_y
_atom_site_fract_z
Si Si1 0.144149 0.663348 0.641454
Si Si2 0.119509 0.175453 0.839621
Si Si3 0.650033 0.333781 0.146579
Si Si4 0.113375 0.824512 0.992225
Si Si5 0.594701 0.676331 0.335731
Si Si6 0.926349 0.825954 0.637189
Si Si7 0.389712 0.173533 0.515727
Si Si8 0.569429 0.176595 0.852914
O O1 0.084109 0.500000 0.601349
O O2 0.245966 0.659822 0.747455
O O3 0.241916 0.720531 0.617055
O O4 0.009315 0.766102 0.602665
O O5 0.269883 0.252063 0.883946
O O6 0.073566 0.224820 0.898183
O O7 0.998311 0.229946 0.737480
O O8 0.142950 0.000000 0.843650
O O9 0.606065 0.500000 0.106237
O O10 0.512007 0.240967 0.112825
O O11 0.106839 0.000000 0.994648
O O12 0.269064 0.771087 0.075512
O O13 0.000000 0.753194 0.000000
O O14 0.573798 0.500000 0.320829
O O15 0.560862 0.732586 0.398689
O O16 0.486923 0.756361 0.241108
O O17 0.764586 0.772315 0.571328
O O18 0.936126 0.000000 0.636695
O O19 0.500000 0.209962 0.500000
O O20 0.389316 0.000000 0.534761
O O21 0.551398 0.000000 0.844641
#
# Coordination Sequence:
#
# PCOD8061519 Si02
#       8
#     4   4   4   4   4   4   4   4
#     4   8  16  31  51  75 103 134 168 209 260 319
#     4   9  17  32  54  78 105 137 175 218 263 314
#     4   9  17  31  51  77 109 140 172 212 262 319
#     4   9  19  34  53  79 107 138 181 225 263 309
#     4  10  21  37  56  79 108 141 175 214 264 318
#     4   9  18  32  53  79 105 135 171 216 264 309
#     4  10  22  38  54  77 107 139 180 223 261 307
#     4  10  19  33  56  82 108 139 174 217 265 311
#
# _framework density 19.436309000000001
#
# number of rings (size 3 to 8) (size 9 to 14) (size 15 to 20)
#    0.000    2.750    0.000    1.875    0.000    6.250 
#    0.000   10.000    0.000    6.375    0.000    0.000 
#    0.000    0.000    0.000    0.000    0.000    0.000 
#
# Total GULP energy -396712.481661 kJ/mol
# GULP energy per Si atom -12397.265052 kJ/mol
# Density = 1.939207 g / cm^3
# Si number density = 19.436309 Si / 1000 Ang^3
#
#
#
# Elastic Constant Matrix: (Units=GPa)
#
#
# Indices 1 2 3 4 5 6 
#
# 1 99.4378 14.0848 16.4327 0.0000 6.9686 0.0000
# 2 14.0848 44.3434 11.6266 0.0000 3.5392 0.0000
# 3 16.4327 11.6266 55.2170 0.0000 7.8156 0.0000
# 4 0.0000 0.0000 0.0000 7.0424 0.0000 -5.3997
# 5 6.9686 3.5392 7.8156 0.0000 32.1809 0.0000
# 6 0.0000 0.0000 0.0000 -5.3997 0.0000 15.2035
#
#
#
# Elastic Compliance Matrix: (Units=1/GPa)
#
#
# Indices 1 2 3 4 5 6 
#
# 1 0.010954 -0.002711 -0.002481 0.000000 -0.001471 0.000000
# 2 -0.002711 0.024606 -0.004219 0.000000 -0.001094 0.000000
# 3 -0.002481 -0.004219 0.020293 0.000000 -0.003927 0.000000
# 4 0.000000 0.000000 0.000000 0.195136 0.000000 0.069305
# 5 -0.001471 -0.001094 -0.003927 0.000000 0.032467 0.000000
# 6 0.000000 0.000000 0.000000 0.069305 0.000000 0.090389
#
#
# Mechanical properties :
#
#
# Convention : Reuss Voigt Hill
#
# Bulk Modulus (GPa) = 27.00514 31.47625 29.24070
# Shear Modulus (GPa) = 12.34538 21.34230 16.84384
#
# Velocity S-wave (km/s) = 2.52299 3.31730 2.94703
# Velocity P-wave (km/s) = 4.73410 5.55899 5.16304
#
# Compressibility (1/GPa) = 0.03702998
#
# Stress axis : x y z
#
# Youngs Moduli (GPa) = 91.29382 40.64038 49.27827
#
# Poissons Ratio (x) = 0.11019 0.12224
# Poissons Ratio (y) = 0.24753 0.20792
# Poissons Ratio (z) = 0.22647 0.17147
#
# Static dielectric constant tensor:
#      x y z
#    x 3.824330 0.000000 0.017270 
#    y 0.000000 3.452410 0.000000 
#    z 0.017270 0.000000 3.515730 
# 
# 
# High freq. dielectric constant tensor:
#      x y z
#    x 1.758000 0.000000 -0.001430 
#    y 0.000000 1.739900 0.000000 
#    z -0.001430 0.000000 1.752830 
# 
# From -- ./inp_files/83633.got.cif
#   From: 2010.06.25/outbox.cif.g09.slc.cpg/sg10_42_cif.got.tgz:83633.got - 2010.06.27 22:07:45.
