data_PCOD8061717
_publ_section_title
;
Structure prediction by ZEFSAII (Michael W. Deem and Ramdas Pophale) SiO2 
 PCOD8061717
Probable space group: P 2/M
;
_chemical_formula_sum "Si O2"
_cell_formula_units_Z 32
_cell_length_a 27.767406
_cell_length_b 9.206863
_cell_length_c 11.889852
_cell_angle_alpha 90.000000
_cell_angle_beta 146.701169
_cell_angle_gamma 90.000000
_cell_volume 1668.784836
_symmetry_space_group_name_H-M "P 2/M"
_symmetry_group_IT_number 10
_symmetry_cell_setting 'monoclinic'
loop_
_space_group_symop_operation_xyz
x,y,z
-x,y,-z
-x,-y,-z
x,-y,z
loop_
_atom_site_type_symbol
_atom_site_label
_atom_site_fract_x
_atom_site_fract_y
_atom_site_fract_z
Si Si1 0.589283 0.165612 0.607128
Si Si2 0.380574 0.829662 0.945718
Si Si3 0.313918 0.329900 0.026484
Si Si4 0.920704 0.172656 0.928049
Si Si5 0.046904 0.672387 0.772840
Si Si6 0.270597 0.172068 0.522316
Si Si7 0.120258 0.669785 0.684373
Si Si8 0.573834 0.170838 0.324256
O O1 0.500000 0.179983 0.500000
O O2 0.660786 0.269288 0.802508
O O3 0.576318 0.225840 0.456744
O O4 0.623342 0.000000 0.674063
O O5 0.303099 0.781923 0.710035
O O6 0.376408 0.000000 0.965486
O O7 0.370685 0.745581 0.042121
O O8 0.477407 0.790318 0.084955
O O9 0.331090 0.500000 0.056095
O O10 0.212701 0.288335 0.811363
O O11 0.827808 0.228918 0.694378
O O12 0.920666 0.000000 0.943228
O O13 0.930417 0.244511 0.068619
O O14 0.000000 0.220991 0.000000
O O15 0.050799 0.500000 0.804820
O O16 0.111722 0.723205 0.797751
O O17 0.951911 0.728385 0.544077
O O18 0.343937 0.241293 0.581782
O O19 0.271123 0.000000 0.512852
O O20 0.104296 0.500000 0.661765
O O21 0.586298 0.000000 0.342644
#
# Coordination Sequence:
#
# PCOD8061717 Si02
#       8
#     4   4   4   4   4   4   4   4
#     4  10  19  34  53  78 109 139 176 219 258 307
#     4  10  19  35  57  79 103 139 187 227 258 305
#     4  11  22  34  52  80 112 142 172 214 273 327
#     4  10  22  37  52  80 118 144 166 215 278 326
#     4   9  18  38  62  78  99 139 185 222 258 310
#     4   9  19  34  55  79 105 142 181 219 268 316
#     4   8  18  36  57  80 106 136 176 224 266 310
#     4   9  17  32  55  80 104 135 182 229 259 299
#
# _framework density 19.175629000000001
#
# number of rings (size 3 to 8) (size 9 to 14) (size 15 to 20)
#    0.000    2.500    1.250    1.500    3.500    2.000 
#    0.000    3.125    0.000    3.000    0.000    0.000 
#    0.000    0.000    0.000    0.000    0.000    0.000 
#
# Total GULP energy -396569.333650 kJ/mol
# GULP energy per Si atom -12392.791677 kJ/mol
# Density = 1.913198 g / cm^3
# Si number density = 19.175629 Si / 1000 Ang^3
#
#
#
# Elastic Constant Matrix: (Units=GPa)
#
#
# Indices 1 2 3 4 5 6 
#
# 1 80.4507 24.2207 50.8100 0.0000 5.4410 0.0000
# 2 24.2207 35.5815 33.3226 0.0000 0.7888 0.0000
# 3 50.8100 33.3226 142.0685 0.0000 0.9429 0.0000
# 4 0.0000 0.0000 0.0000 23.0080 0.0000 -4.5130
# 5 5.4410 0.7888 0.9429 0.0000 31.4563 0.0000
# 6 0.0000 0.0000 0.0000 -4.5130 0.0000 15.8814
#
#
#
# Elastic Compliance Matrix: (Units=1/GPa)
#
#
# Indices 1 2 3 4 5 6 
#
# 1 0.017832 -0.007845 -0.004519 0.000000 -0.002752 0.000000
# 2 -0.007845 0.039481 -0.006458 0.000000 0.000561 0.000000
# 3 -0.004519 -0.006458 0.010166 0.000000 0.000639 0.000000
# 4 0.000000 0.000000 0.000000 0.046029 0.000000 0.013080
# 5 -0.002752 0.000561 0.000639 0.000000 0.032233 0.000000
# 6 0.000000 0.000000 0.000000 0.013080 0.000000 0.066684
#
#
# Mechanical properties :
#
#
# Convention : Reuss Voigt Hill
#
# Bulk Modulus (GPa) = 33.51971 52.75636 43.13804
# Shear Modulus (GPa) = 19.22975 24.05230 21.64102
#
# Velocity S-wave (km/s) = 3.17017 3.54547 3.36306
# Velocity P-wave (km/s) = 5.56042 6.65826 6.13395
#
# Compressibility (1/GPa) = 0.02983319
#
# Stress axis : x y z
#
# Youngs Moduli (GPa) = 56.07838 25.32887 98.37034
#
# Poissons Ratio (x) = 0.19871 0.44455
# Poissons Ratio (y) = 0.43995 0.63530
# Poissons Ratio (z) = 0.25343 0.16358
#
# Static dielectric constant tensor:
#      x y z
#    x 3.659630 0.000000 0.215060 
#    y 0.000000 3.046690 0.000000 
#    z 0.215060 0.000000 4.192940 
# 
# 
# High freq. dielectric constant tensor:
#      x y z
#    x 1.753240 0.000000 0.001150 
#    y 0.000000 1.695710 0.000000 
#    z 0.001150 0.000000 1.760130 
# 
# From -- ./inp_files/58303.got.cif
#   From: 2010.06.25/outbox.cif.g09.slc.cpg/sg10_30_cif.got.tgz:58303.got - 2010.06.27 22:07:45.
