data_PCOD8061466
_publ_section_title
;
Structure prediction by ZEFSAII (Michael W. Deem and Ramdas Pophale) SiO2 
 PCOD8061466
Probable space group: P 2/M
;
_chemical_formula_sum "Si O2"
_cell_formula_units_Z 28
_cell_length_a 22.336470
_cell_length_b 12.844650
_cell_length_c 5.217558
_cell_angle_alpha 90.000000
_cell_angle_beta 87.457966
_cell_angle_gamma 90.000000
_cell_volume 1495.465928
_symmetry_space_group_name_H-M "P 2/M"
_symmetry_group_IT_number 10
_symmetry_cell_setting 'monoclinic'
loop_
_space_group_symop_operation_xyz
x,y,z
-x,y,-z
-x,-y,-z
x,-y,z
loop_
_atom_site_type_symbol
_atom_site_label
_atom_site_fract_x
_atom_site_fract_y
_atom_site_fract_z
Si Si1 0.274106 0.621018 0.778464
Si Si2 0.145703 0.693208 0.870682
Si Si3 0.540823 0.774239 0.742247
Si Si4 0.913138 0.616483 0.643293
Si Si5 0.539549 0.000000 0.742550
Si Si6 0.349729 0.620507 0.266393
Si Si7 0.933471 0.881961 0.127146
Si Si8 0.000000 0.773671 0.500000
O O1 0.254015 0.500000 0.781432
O O2 0.216431 0.695812 0.805086
O O3 0.307439 0.650781 0.510953
O O4 0.316673 0.646388 0.008369
O O5 0.112761 0.648127 0.628548
O O6 0.120206 0.807623 0.958076
O O7 0.135943 0.620822 0.121732
O O8 0.500000 0.761069 0.500000
O O9 0.574460 0.888749 0.736380
O O10 0.590122 0.685736 0.730081
O O11 0.500000 0.760387 0.000000
O O12 0.937956 0.500000 0.619188
O O13 0.968007 0.694436 0.708229
O O14 0.500000 0.000000 0.500000
O O15 0.500000 0.000000 0.000000
O O16 0.368206 0.500000 0.277624
O O17 0.946246 0.848974 0.417346
O O18 0.911451 0.000000 0.100373
O O19 0.000000 0.863051 0.000000
#
# Coordination Sequence:
#
# PCOD8061466 Si02
#       8
#     4   4   4   4   2   4   4   2
#     4  10  20  36  55  75 106 145 187 222 262 321
#     4  11  22  37  57  80 104 143 184 227 270 327
#     4  10  19  33  55  83 115 146 180 225 269 320
#     4  11  21  33  52  79 109 134 168 216 275 329
#     4   8  16  30  50  76 106 142 180 210 257 310
#     4  10  21  35  55  81 111 149 183 221 269 320
#     4  10  20  37  57  78 106 140 179 225 280 338
#     4  10  20  34  50  80 106 140 166 212 270 342
#
# _framework density 18.723262999999999
#
# number of rings (size 3 to 8) (size 9 to 14) (size 15 to 20)
#    0.000    1.857    1.429    3.429    0.000    1.714 
#    0.000    2.143    3.143    0.000    0.000    0.000 
#    0.000    0.000    0.000    0.000    0.000    0.000 
#
# Total GULP energy -346886.059913 kJ/mol
# GULP energy per Si atom -12388.787854 kJ/mol
# Density = 1.868065 g / cm^3
# Si number density = 18.723263 Si / 1000 Ang^3
#
#
#
# Elastic Constant Matrix: (Units=GPa)
#
#
# Indices 1 2 3 4 5 6 
#
# 1 78.0833 57.3693 4.5342 0.0000 -8.2097 0.0000
# 2 57.3693 123.7015 22.8449 0.0000 -3.9132 0.0000
# 3 4.5342 22.8449 87.5406 0.0000 -6.7699 0.0000
# 4 0.0000 0.0000 0.0000 14.8126 0.0000 -1.6756
# 5 -8.2097 -3.9132 -6.7699 0.0000 24.5761 0.0000
# 6 0.0000 0.0000 0.0000 -1.6756 0.0000 23.4421
#
#
#
# Elastic Compliance Matrix: (Units=1/GPa)
#
#
# Indices 1 2 3 4 5 6 
#
# 1 0.020370 -0.009615 0.001902 0.000000 0.005798 0.000000
# 2 -0.009615 0.013046 -0.003059 0.000000 -0.001977 0.000000
# 3 0.001902 -0.003059 0.012399 0.000000 0.003564 0.000000
# 4 0.000000 0.000000 0.000000 0.068060 0.000000 0.004865
# 5 0.005798 -0.001977 0.003564 0.000000 0.043294 0.000000
# 6 0.000000 0.000000 0.000000 0.004865 0.000000 0.043006
#
#
# Mechanical properties :
#
#
# Convention : Reuss Voigt Hill
#
# Bulk Modulus (GPa) = 41.20189 50.98024 46.09107
# Shear Modulus (GPa) = 21.75719 26.20462 23.98091
#
# Velocity S-wave (km/s) = 3.41257 3.74515 3.58272
# Velocity P-wave (km/s) = 6.13033 6.78151 6.46413
#
# Compressibility (1/GPa) = 0.02427073
#
# Stress axis : x y z
#
# Youngs Moduli (GPa) = 49.09089 76.65395 80.65356
#
# Poissons Ratio (x) = 0.73704 -0.15344
# Poissons Ratio (y) = 0.47202 0.24675
# Poissons Ratio (z) = -0.09339 0.23451
#
# Static dielectric constant tensor:
#      x y z
#    x 3.157280 0.000000 -0.054320 
#    y 0.000000 3.658240 0.000000 
#    z -0.054320 0.000000 3.711320 
# 
# 
# High freq. dielectric constant tensor:
#      x y z
#    x 1.693020 0.000000 -0.004880 
#    y 0.000000 1.727800 0.000000 
#    z -0.004880 0.000000 1.747800 
# 
# From -- ./inp_files/12284.got.cif
#   From: 2010.06.25/outbox.cif.g09.slc.cpg/sg10_7_cif.got.tgz:12284.got - 2010.06.27 22:07:45.
