data_PCOD8061782
_publ_section_title
;
Structure prediction by ZEFSAII (Michael W. Deem and Ramdas Pophale) SiO2 
 PCOD8061782
Probable space group: P 2/M
;
_chemical_formula_sum "Si O2"
_cell_formula_units_Z 28
_cell_length_a 9.554029
_cell_length_b 8.753070
_cell_length_c 31.953705
_cell_angle_alpha 90.000000
_cell_angle_beta 31.969655
_cell_angle_gamma 90.000000
_cell_volume 1414.847313
_symmetry_space_group_name_H-M "P 2/M"
_symmetry_group_IT_number 10
_symmetry_cell_setting 'monoclinic'
loop_
_space_group_symop_operation_xyz
x,y,z
-x,y,-z
-x,-y,-z
x,-y,z
loop_
_atom_site_type_symbol
_atom_site_label
_atom_site_fract_x
_atom_site_fract_y
_atom_site_fract_z
Si Si1 0.300902 0.174867 0.924325
Si Si2 0.806341 0.675638 0.180234
Si Si3 0.203303 0.318882 0.241641
Si Si4 0.712521 0.174592 0.978545
Si Si5 0.799153 0.323586 0.275837
Si Si6 0.211743 0.318556 0.412174
Si Si7 0.251326 0.821028 0.315208
O O1 0.495671 0.270494 0.845412
O O2 0.302740 0.000000 0.907883
O O3 0.406561 0.188447 0.944938
O O4 0.000000 0.238122 0.000000
O O5 0.718912 0.500000 0.195770
O O6 0.915196 0.701252 0.199797
O O7 0.560493 0.784598 0.234642
O O8 0.028247 0.721308 0.090763
O O9 0.194313 0.500000 0.245216
O O10 0.114320 0.252825 0.309079
O O11 0.998189 0.248940 0.259279
O O12 0.787932 0.000000 0.948553
O O13 0.500000 0.239543 0.000000
O O14 0.779710 0.500000 0.292281
O O15 0.500387 0.255785 0.353289
O O16 0.219592 0.500000 0.404756
O O17 0.126657 0.248494 0.389146
O O18 0.000000 0.264765 0.500000
O O19 0.200759 0.000000 0.327480
#
# Coordination Sequence:
#
# PCOD8061782 Si02
#       7
#     4   4   4   4   4   4   4
#     4  10  21  35  49  68 100 140 180 224 271 317
#     4  10  19  34  55  77 102 136 184 232 272 319
#     4  11  21  35  55  78 107 141 181 225 267 317
#     4  10  20  32  47  71 104 140 177 220 274 329
#     4   8  17  33  54  82 110 137 173 220 269 313
#     4   9  18  37  64  89 112 139 174 215 259 313
#     4  11  22  36  55  79 109 142 176 215 263 320
#
# _framework density 19.790122
#
# number of rings (size 3 to 8) (size 9 to 14) (size 15 to 20)
#    0.000    2.143    0.000    4.714    0.000    2.571 
#    0.000    7.143    0.000    4.286    0.000    0.000 
#    0.000    0.000    0.000    0.000    0.000    0.000 
#
# Total GULP energy -347181.358886 kJ/mol
# GULP energy per Si atom -12399.334246 kJ/mol
# Density = 1.974508 g / cm^3
# Si number density = 19.790122 Si / 1000 Ang^3
#
#
#
# Elastic Constant Matrix: (Units=GPa)
#
#
# Indices 1 2 3 4 5 6 
#
# 1 91.8966 20.6547 17.4865 0.0000 17.2854 0.0000
# 2 20.6547 60.8236 28.1816 0.0000 8.1005 0.0000
# 3 17.4865 28.1816 99.7622 0.0000 13.7120 0.0000
# 4 0.0000 0.0000 0.0000 24.1613 0.0000 4.1347
# 5 17.2854 8.1005 13.7120 0.0000 26.7972 0.0000
# 6 0.0000 0.0000 0.0000 4.1347 0.0000 21.1684
#
#
#
# Elastic Compliance Matrix: (Units=1/GPa)
#
#
# Indices 1 2 3 4 5 6 
#
# 1 0.013054 -0.003302 -0.000361 0.000000 -0.007238 0.000000
# 2 -0.003302 0.020012 -0.004879 0.000000 -0.001423 0.000000
# 3 -0.000361 -0.004879 0.012080 0.000000 -0.004474 0.000000
# 4 0.000000 0.000000 0.000000 0.042820 0.000000 -0.008364
# 5 -0.007238 -0.001423 -0.004474 0.000000 0.044706 0.000000
# 6 0.000000 0.000000 0.000000 -0.008364 0.000000 0.048874
#
#
# Mechanical properties :
#
#
# Convention : Reuss Voigt Hill
#
# Bulk Modulus (GPa) = 35.63314 42.79201 39.21258
# Shear Modulus (GPa) = 24.04044 26.83603 25.43823
#
# Velocity S-wave (km/s) = 3.48914 3.68643 3.58914
# Velocity P-wave (km/s) = 5.85463 6.30789 6.08548
#
# Compressibility (1/GPa) = 0.02806376
#
# Stress axis : x y z
#
# Youngs Moduli (GPa) = 76.60527 49.96920 82.78012
#
# Poissons Ratio (x) = 0.16499 0.02985
# Poissons Ratio (y) = 0.25294 0.40387
# Poissons Ratio (z) = 0.02762 0.24379
#
# Static dielectric constant tensor:
#      x y z
#    x 3.934260 0.000000 0.143270 
#    y 0.000000 3.333120 0.000000 
#    z 0.143270 0.000000 3.495470 
# 
# 
# High freq. dielectric constant tensor:
#      x y z
#    x 1.780390 0.000000 0.016960 
#    y 0.000000 1.751230 0.000000 
#    z 0.016960 0.000000 1.755060 
# 
# From -- ./inp_files/91988.got.cif
#   From: 2010.06.25/outbox.cif.g09.slc.cpg/sg10_46_cif.got.tgz:91988.got - 2010.06.27 22:07:45.
