data_PCOD8061630
_publ_section_title
;
Structure prediction by ZEFSAII (Michael W. Deem and Ramdas Pophale) SiO2 
 PCOD8061630
Probable space group: P 2/M
;
_chemical_formula_sum "Si O2"
_cell_formula_units_Z 28
_cell_length_a 15.546996
_cell_length_b 8.608144
_cell_length_c 11.891073
_cell_angle_alpha 90.000000
_cell_angle_beta 119.985519
_cell_angle_gamma 90.000000
_cell_volume 1378.386595
_symmetry_space_group_name_H-M "P 2/M"
_symmetry_group_IT_number 10
_symmetry_cell_setting 'monoclinic'
loop_
_space_group_symop_operation_xyz
x,y,z
-x,y,-z
-x,-y,-z
x,-y,z
loop_
_atom_site_type_symbol
_atom_site_label
_atom_site_fract_x
_atom_site_fract_y
_atom_site_fract_z
Si Si1 0.855899 0.679523 0.928673
Si Si2 0.340999 0.819473 0.134122
Si Si3 0.609387 0.818273 0.081462
Si Si4 0.286524 0.814852 0.625863
Si Si5 0.528854 0.816649 0.397065
Si Si6 0.020095 0.819769 0.178819
Si Si7 0.929105 0.319351 0.557319
O O1 0.874877 0.500000 0.965893
O O2 0.740054 0.718026 0.854421
O O3 0.896872 0.721421 0.832586
O O4 0.911227 0.779538 0.060458
O O5 0.447835 0.767197 0.251136
O O6 0.321962 0.000000 0.147314
O O7 0.332588 0.784260 0.996005
O O8 0.671061 0.752058 0.227106
O O9 0.594880 0.000000 0.093987
O O10 0.500000 0.741549 0.000000
O O11 0.363099 0.762518 0.577095
O O12 0.182979 0.730959 0.539305
O O13 0.270927 0.000000 0.615924
O O14 0.500000 0.743036 0.500000
O O15 0.530855 0.000000 0.410353
O O16 0.024764 0.779490 0.311973
O O17 0.041969 0.000000 0.174130
O O18 0.931220 0.500000 0.589450
O O19 0.000000 0.280389 0.500000
#
# Coordination Sequence:
#
# PCOD8061630 Si02
#       7
#     4   4   4   4   4   4   4
#     4  11  23  40  62  91 128 161 193 244 313 371
#     4  10  19  33  57  87 118 157 205 250 295 354
#     4   9  16  31  55  84 116 150 198 256 299 339
#     4  10  20  36  60  88 116 157 209 259 304 353
#     4   9  18  32  54  87 123 156 201 255 305 355
#     4  11  23  43  68  91 115 152 209 260 301 356
#     4  11  26  45  62  86 126 168 202 247 315 378
#
# _framework density 20.313604000000002
#
# number of rings (size 3 to 8) (size 9 to 14) (size 15 to 20)
#    0.000    1.857    1.429    3.857    4.000    1.143 
#    0.000    0.714    0.000    1.714    0.000    0.000 
#    0.000    0.000    0.000    0.000    0.000    0.000 
#
# Total GULP energy -347227.820362 kJ/mol
# GULP energy per Si atom -12400.993584 kJ/mol
# Density = 2.026737 g / cm^3
# Si number density = 20.313604 Si / 1000 Ang^3
#
#
#
# Elastic Constant Matrix: (Units=GPa)
#
#
# Indices 1 2 3 4 5 6 
#
# 1 134.2458 28.6825 47.2143 0.0000 9.1838 0.0000
# 2 28.6825 55.0181 23.1838 0.0000 0.6397 0.0000
# 3 47.2143 23.1838 109.4460 0.0000 -14.7345 0.0000
# 4 0.0000 0.0000 0.0000 12.4533 0.0000 -10.1270
# 5 9.1838 0.6397 -14.7345 0.0000 27.9460 0.0000
# 6 0.0000 0.0000 0.0000 -10.1270 0.0000 8.1591
#
#
#
# Elastic Compliance Matrix: (Units=1/GPa)
#
#
# Indices 1 2 3 4 5 6 
#
# 1 0.010088 -0.003344 -0.004391 0.000000 -0.005554 0.000000
# 2 -0.003344 0.021285 -0.003212 0.000000 -0.001082 0.000000
# 3 -0.004391 -0.003212 0.012826 0.000000 0.008279 0.000000
# 4 0.000000 0.000000 0.000000 -8.586516 0.000000-10.657606
# 5 -0.005554 -0.001082 0.008279 0.000000 0.041998 0.000000
# 6 0.000000 0.000000 0.000000-10.657606 0.000000-13.105685
#
#
# Mechanical properties :
#
#
# Convention : Reuss Voigt Hill
#
# Bulk Modulus (GPa) = 44.83283 55.20788 50.02036
# Shear Modulus (GPa) = -0.23173 23.02028 11.39427
#
# Velocity S-wave (km/s) = -0.33812 3.37002 2.37094
# Velocity P-wave (km/s) = 4.68677 6.50996 5.67210
#
# Compressibility (1/GPa) = 0.02230508
#
# Stress axis : x y z
#
# Youngs Moduli (GPa) = 99.12944 46.98100 77.96541
#
# Poissons Ratio (x) = 0.15711 0.34236
# Poissons Ratio (y) = 0.33150 0.25041
# Poissons Ratio (z) = 0.43529 0.15089
#
# Static dielectric constant tensor:
#      x y z
#    x 3.746060 0.000000 -0.086410 
#    y 0.000000 3.334420 0.000000 
#    z -0.086410 0.000000 3.827310 
# 
# 
# High freq. dielectric constant tensor:
#      x y z
#    x 1.803890 0.000000 -0.002870 
#    y 0.000000 1.758160 0.000000 
#    z -0.002870 0.000000 1.801150 
# 
# From -- ./inp_files/50088.got.cif
#   From: 2010.06.25/outbox.cif.g09.slc.cpg/sg10_26_cif.got.tgz:50088.got - 2010.06.27 22:07:45.
