data_PCOD8061597
_publ_section_title
;
Structure prediction by ZEFSAII (Michael W. Deem and Ramdas Pophale) SiO2 
 PCOD8061597
Probable space group: P 2/M
;
_chemical_formula_sum "Si O2"
_cell_formula_units_Z 24
_cell_length_a 10.269671
_cell_length_b 8.870579
_cell_length_c 31.817102
_cell_angle_alpha 90.000000
_cell_angle_beta 26.886558
_cell_angle_gamma 90.000000
_cell_volume 1310.762905
_symmetry_space_group_name_H-M "P 2/M"
_symmetry_group_IT_number 10
_symmetry_cell_setting 'monoclinic'
loop_
_space_group_symop_operation_xyz
x,y,z
-x,y,-z
-x,-y,-z
x,-y,z
loop_
_atom_site_type_symbol
_atom_site_label
_atom_site_fract_x
_atom_site_fract_y
_atom_site_fract_z
Si Si1 0.876847 0.322787 0.222239
Si Si2 0.214297 0.175964 0.055748
Si Si3 0.432628 0.823208 0.565601
Si Si4 0.149302 0.822667 0.222819
Si Si5 0.294584 0.676362 0.434847
Si Si6 0.725166 0.322594 0.051781
O O1 0.932197 0.500000 0.202659
O O2 0.549166 0.284916 0.329075
O O3 0.940763 0.242680 0.159612
O O4 0.091328 0.255131 0.194979
O O5 0.167582 0.000000 0.060848
O O6 0.500000 0.208767 0.000000
O O7 0.231494 0.261749 0.007221
O O8 0.500000 0.757896 0.500000
O O9 0.652002 0.751333 0.535507
O O10 0.102537 0.782596 0.671755
O O11 0.486295 0.000000 0.551634
O O12 0.449662 0.756210 0.153291
O O13 0.175546 0.000000 0.207503
O O14 0.270917 0.500000 0.449980
O O15 0.000000 0.740833 0.500000
O O16 0.673782 0.500000 0.065386
O O17 0.000000 0.277814 0.000000
#
# Coordination Sequence:
#
# PCOD8061597 Si02
#       6
#     4   4   4   4   4   4
#     4  10  19  33  57  83 110 144 183 226 270 317
#     4  11  22  36  58  85 110 141 183 226 268 323
#     4   9  19  36  57  81 110 142 182 225 267 322
#     4  10  19  34  57  81 109 144 183 226 271 321
#     4   9  19  36  56  81 113 144 178 223 273 321
#     4  11  24  40  57  80 111 146 182 223 274 326
#
# _framework density 18.309947999999999
#
# number of rings (size 3 to 8) (size 9 to 14) (size 15 to 20)
#    0.000    2.000    1.667    2.000    0.000    4.000 
#    3.000    0.000    0.000    0.000    0.000    0.000 
#    0.000    0.000    0.000    0.000    0.000    0.000 
#
# Total GULP energy -297668.590070 kJ/mol
# GULP energy per Si atom -12402.857920 kJ/mol
# Density = 1.826827 g / cm^3
# Si number density = 18.309948 Si / 1000 Ang^3
#
#
#
# Elastic Constant Matrix: (Units=GPa)
#
#
# Indices 1 2 3 4 5 6 
#
# 1 -188.5037 -367.1924 -83.3059 -0.0001 -32.6298 0.0000
# 2 -367.1924 -501.3771 -178.5710 -0.0001 -43.8216 0.0000
# 3 -83.3059 -178.5710 38.9188 0.0000 -18.5496 0.0000
# 4 -0.0001 -0.0001 0.0000 23.0605 0.0000 6.4858
# 5 -32.6298 -43.8216 -18.5496 0.0000 32.5409 0.0000
# 6 0.0000 0.0000 0.0000 6.4858 0.0000 18.7289
#
#
#
# Elastic Compliance Matrix: (Units=1/GPa)
#
#
# Indices 1 2 3 4 5 6 
#
# 1 0.017119 -0.009676 -0.007939 0.000000 -0.000390 0.000000
# 2 -0.009676 0.004975 0.000936 0.000000 -0.002470 0.000000
# 3 -0.007939 0.000936 0.013458 0.000000 0.000972 0.000000
# 4 0.000000 0.000000 0.000000 0.048044 0.000000 -0.016637
# 5 -0.000390 -0.002470 0.000972 0.000000 0.027567 0.000000
# 6 0.000000 0.000000 0.000000 -0.016637 0.000000 0.059155
#
#
# Mechanical properties :
#
#
# Convention : Reuss Voigt Hill
#
# Bulk Modulus (GPa) = 455.74726 -212.12227 121.81249
# Shear Modulus (GPa) = 24.46095 13.40655 18.93375
#
# Velocity S-wave (km/s) = 3.65901 2.70886 3.21918
# Velocity P-wave (km/s) = 16.34926 10.31108 8.97162
#
# Compressibility (1/GPa) = 0.00219420
#
# Stress axis : x y z
#
# Youngs Moduli (GPa) = 58.41356 201.02226 74.30309
#
# Poissons Ratio (x) = 1.94511 0.58987
# Poissons Ratio (y) = 0.56522 -0.06953
# Poissons Ratio (z) = 0.46373 -0.18811
#
# Static dielectric constant tensor:
#      x y z
#    x 3.367550 0.000000 -0.017730 
#    y 0.000000 3.408600 0.000000 
#    z -0.017730 0.000000 3.667460 
# 
# 
# High freq. dielectric constant tensor:
#      x y z
#    x 1.692810 0.000000 0.003810 
#    y 0.000000 1.718200 0.000000 
#    z 0.003810 0.000000 1.721190 
# 
# From -- ./inp_files/33971.got.cif
#   From: 2010.06.25/outbox.cif.g09.slc.cpg/sg10_17_cif.got.tgz:33971.got - 2010.06.27 22:07:45.
