data_PCOD8061564
_publ_section_title
;
Structure prediction by ZEFSAII (Michael W. Deem and Ramdas Pophale) SiO2 
 PCOD8061564
Probable space group: P 2/M
;
_chemical_formula_sum "Si O2"
_cell_formula_units_Z 28
_cell_length_a 27.591713
_cell_length_b 9.022748
_cell_length_c 9.699309
_cell_angle_alpha 90.000000
_cell_angle_beta 38.560530
_cell_angle_gamma 90.000000
_cell_volume 1505.164726
_symmetry_space_group_name_H-M "P 2/M"
_symmetry_group_IT_number 10
_symmetry_cell_setting 'monoclinic'
loop_
_space_group_symop_operation_xyz
x,y,z
-x,y,-z
-x,-y,-z
x,-y,z
loop_
_atom_site_type_symbol
_atom_site_label
_atom_site_fract_x
_atom_site_fract_y
_atom_site_fract_z
Si Si1 0.998854 0.825004 0.663482
Si Si2 0.300233 0.329160 0.192843
Si Si3 0.545157 0.835656 0.757855
Si Si4 0.125126 0.669980 0.559771
Si Si5 0.289957 0.172465 0.497116
Si Si6 0.867744 0.674997 0.136441
Si Si7 0.458155 0.673098 0.722747
O O1 0.077799 0.774855 0.562698
O O2 0.000000 0.777998 0.500000
O O3 0.989574 0.000000 0.699298
O O4 0.928147 0.746687 0.897808
O O5 0.310181 0.500000 0.219737
O O6 0.215065 0.308507 0.316552
O O7 0.311912 0.222062 0.295217
O O8 0.366837 0.282738 0.935208
O O9 0.635981 0.795341 0.571745
O O10 0.505423 0.714725 0.752259
O O11 0.537501 0.000000 0.710173
O O12 0.500000 0.831036 0.000000
O O13 0.098239 0.500000 0.599141
O O14 0.112436 0.715973 0.748366
O O15 0.216915 0.264529 0.716612
O O16 0.268047 0.000000 0.543391
O O17 0.868340 0.500000 0.115179
O O18 0.500000 0.752392 0.500000
O O19 0.464649 0.500000 0.691170
#
# Coordination Sequence:
#
# PCOD8061564 Si02
#       7
#     4   4   4   4   4   4   4
#     4  11  24  40  57  82 117 149 182 223 270 327
#     4   9  18  34  55  80 112 145 184 233 278 324
#     4  10  20  35  55  81 112 147 188 230 276 329
#     4   9  19  36  59  84 109 141 186 232 276 328
#     4  10  19  33  56  84 114 143 182 233 278 324
#     4  10  21  38  61  87 113 142 183 229 274 329
#     4  10  21  36  54  79 113 150 191 235 277 325
#
# _framework density 18.602615
#
# number of rings (size 3 to 8) (size 9 to 14) (size 15 to 20)
#    0.000    2.143    1.429    2.571    0.000    7.429 
#    2.571    0.000    0.000    0.000    0.000    0.000 
#    0.000    0.000    0.000    0.000    0.000    0.000 
#
# Total GULP energy -347138.615989 kJ/mol
# GULP energy per Si atom -12397.807714 kJ/mol
# Density = 1.856027 g / cm^3
# Si number density = 18.602615 Si / 1000 Ang^3
#
#
#
# Elastic Constant Matrix: (Units=GPa)
#
#
# Indices 1 2 3 4 5 6 
#
# 1 89.1114 38.2989 74.0485 0.0000 -12.4091 0.0000
# 2 38.2989 53.9879 57.8806 0.0000 -4.9281 0.0000
# 3 74.0485 57.8806 155.0024 0.0000 -15.9187 0.0000
# 4 0.0000 0.0000 0.0000 31.3533 0.0000 -14.9928
# 5 -12.4091 -4.9281 -15.9187 0.0000 22.0970 0.0000
# 6 0.0000 0.0000 0.0000 -14.9928 0.0000 61.4804
#
#
#
# Elastic Compliance Matrix: (Units=1/GPa)
#
#
# Indices 1 2 3 4 5 6 
#
# 1 0.020432 -0.006881 -0.006664 0.000000 0.005139 0.000000
# 2 -0.006881 0.033255 -0.009466 0.000000 -0.003267 0.000000
# 3 -0.006664 -0.009466 0.013573 0.000000 0.003925 0.000000
# 4 0.000000 0.000000 0.000000 0.036105 0.000000 0.008805
# 5 0.005139 -0.003267 0.003925 0.000000 0.050240 0.000000
# 6 0.000000 0.000000 0.000000 0.008805 0.000000 0.018412
#
#
# Mechanical properties :
#
#
# Convention : Reuss Voigt Hill
#
# Bulk Modulus (GPa) = 47.08634 70.95084 59.01859
# Shear Modulus (GPa) = 22.21061 31.51106 26.86084
#
# Velocity S-wave (km/s) = 3.45911 4.12017 3.80403
# Velocity P-wave (km/s) = 6.42811 7.80112 7.14766
#
# Compressibility (1/GPa) = 0.02123758
#
# Stress axis : x y z
#
# Youngs Moduli (GPa) = 48.94207 30.07106 73.67756
#
# Poissons Ratio (x) = 0.20693 0.49096
# Poissons Ratio (y) = 0.33679 0.69743
# Poissons Ratio (z) = 0.32613 0.28465
#
# Static dielectric constant tensor:
#      x y z
#    x 3.288910 0.000000 -0.221240 
#    y 0.000000 3.442150 0.000000 
#    z -0.221240 0.000000 3.661230 
# 
# 
# High freq. dielectric constant tensor:
#      x y z
#    x 1.708980 0.000000 -0.021430 
#    y 0.000000 1.723620 0.000000 
#    z -0.021430 0.000000 1.729430 
# 
# From -- ./inp_files/36940.got.cif
#   From: 2010.06.25/outbox.cif.g09.slc.cpg/sg10_19_cif.got.tgz:36940.got - 2010.06.27 22:07:45.
