data_PCOD8061438
_publ_section_title
;
Structure prediction by ZEFSAII (Michael W. Deem and Ramdas Pophale) SiO2 
 PCOD8061438
Probable space group: P 2/M
;
_chemical_formula_sum "Si O2"
_cell_formula_units_Z 28
_cell_length_a 9.860687
_cell_length_b 8.770503
_cell_length_c 29.445768
_cell_angle_alpha 90.000000
_cell_angle_beta 33.131135
_cell_angle_gamma 90.000000
_cell_volume 1391.842534
_symmetry_space_group_name_H-M "P 2/M"
_symmetry_group_IT_number 10
_symmetry_cell_setting 'monoclinic'
loop_
_space_group_symop_operation_xyz
x,y,z
-x,y,-z
-x,-y,-z
x,-y,z
loop_
_atom_site_type_symbol
_atom_site_label
_atom_site_fract_x
_atom_site_fract_y
_atom_site_fract_z
Si Si1 0.556564 0.318410 0.878590
Si Si2 0.986341 0.318115 0.191580
Si Si3 0.800158 0.820805 0.639230
Si Si4 0.456337 0.676982 0.807364
Si Si5 0.685414 0.680010 0.487712
Si Si6 0.451451 0.680186 0.372465
Si Si7 0.909332 0.323107 0.936761
O O1 0.534885 0.500000 0.885052
O O2 0.808896 0.259474 0.830442
O O3 0.565441 0.262510 0.824213
O O4 0.320087 0.247641 0.971729
O O5 0.976535 0.500000 0.192976
O O6 0.059827 0.250210 0.121899
O O7 0.718703 0.256162 0.281827
O O8 0.566279 0.774868 0.735613
O O9 0.761277 0.754206 0.599419
O O10 0.046422 0.755463 0.593950
O O11 0.822801 0.000000 0.629185
O O12 0.519016 0.500000 0.780231
O O13 0.161485 0.701593 0.893853
O O14 0.500000 0.738315 0.500000
O O15 0.719437 0.500000 0.474216
O O16 0.580911 0.728778 0.566163
O O17 0.430050 0.500000 0.372633
O O18 0.848867 0.500000 0.947126
#
# Coordination Sequence:
#
# PCOD8061438 Si02
#       7
#     4   4   4   4   4   4   4
#     4   9  17  26  47  82 117 146 179 233 293 338
#     4   9  16  27  48  81 115 144 177 227 283 337
#     4  12  25  40  59  83 116 156 197 232 279 336
#     4  10  19  33  55  81 113 148 191 238 282 333
#     4  10  23  41  66  94 118 143 180 231 288 346
#     4  10  20  38  62  88 115 148 191 233 280 337
#     4   9  15  27  47  78 115 147 181 229 288 339
#
# _framework density 20.117218000000001
#
# number of rings (size 3 to 8) (size 9 to 14) (size 15 to 20)
#    0.000    2.143    1.429    2.571    2.000    6.000 
#    0.000    0.000    0.000    1.714    0.000    1.000 
#    0.000    0.000    0.000    0.000    0.000    0.000 
#
# Total GULP energy -347204.100202 kJ/mol
# GULP energy per Si atom -12400.146436 kJ/mol
# Density = 2.007143 g / cm^3
# Si number density = 20.117218 Si / 1000 Ang^3
#
#
#
# Elastic Constant Matrix: (Units=GPa)
#
#
# Indices 1 2 3 4 5 6 
#
# 1 154.2990 23.5177 35.8114 0.0000 4.6862 0.0000
# 2 23.5177 26.1955 18.9627 0.0000 0.0743 0.0000
# 3 35.8114 18.9627 87.4428 0.0000 0.4186 0.0000
# 4 0.0000 0.0000 0.0000 6.2560 0.0000 0.2554
# 5 4.6862 0.0743 0.4186 0.0000 36.1262 0.0000
# 6 0.0000 0.0000 0.0000 0.2554 0.0000 5.4082
#
#
#
# Elastic Compliance Matrix: (Units=1/GPa)
#
#
# Indices 1 2 3 4 5 6 
#
# 1 0.007823 -0.005581 -0.001989 0.000000 -0.000980 0.000000
# 2 -0.005581 0.049264 -0.008401 0.000000 0.000720 0.000000
# 3 -0.001989 -0.008401 0.014072 0.000000 0.000112 0.000000
# 4 0.000000 0.000000 0.000000 0.160156 0.000000 -0.007564
# 5 -0.000980 0.000720 0.000112 0.000000 0.027805 0.000000
# 6 0.000000 0.000000 0.000000 -0.007564 0.000000 0.185262
#
#
# Mechanical properties :
#
#
# Convention : Reuss Voigt Hill
#
# Bulk Modulus (GPa) = 25.49891 47.16898 36.33394
# Shear Modulus (GPa) = 10.21666 22.20109 16.20888
#
# Velocity S-wave (km/s) = 2.25601 3.32563 2.84160
# Velocity P-wave (km/s) = 4.41461 6.18421 5.37277
#
# Compressibility (1/GPa) = 0.03921736
#
# Stress axis : x y z
#
# Youngs Moduli (GPa) = 127.83016 20.29871 71.06343
#
# Poissons Ratio (x) = 0.11328 0.14134
# Poissons Ratio (y) = 0.71338 0.59702
# Poissons Ratio (z) = 0.25424 0.17054
#
# Static dielectric constant tensor:
#      x y z
#    x 3.906410 0.000000 0.033960 
#    y 0.000000 2.987850 0.000000 
#    z 0.033960 0.000000 3.797490 
# 
# 
# High freq. dielectric constant tensor:
#      x y z
#    x 1.802810 0.000000 0.000650 
#    y 0.000000 1.713010 0.000000 
#    z 0.000650 0.000000 1.797440 
# 
# From -- ./inp_files/91967.got.cif
#   From: 2010.06.25/outbox.cif.g09.slc.cpg/sg10_46_cif.got.tgz:91967.got - 2010.06.27 22:07:45.
