data_PCOD8061223
_publ_section_title
;
Structure prediction by ZEFSAII (Michael W. Deem and Ramdas Pophale) SiO2 
 PCOD8061223
Probable space group: P 2/M
;
_chemical_formula_sum "Si O2"
_cell_formula_units_Z 32
_cell_length_a 14.309990
_cell_length_b 9.267484
_cell_length_c 12.376175
_cell_angle_alpha 90.000000
_cell_angle_beta 88.039500
_cell_angle_gamma 90.000000
_cell_volume 1640.337932
_symmetry_space_group_name_H-M "P 2/M"
_symmetry_group_IT_number 10
_symmetry_cell_setting 'monoclinic'
loop_
_space_group_symop_operation_xyz
x,y,z
-x,y,-z
-x,-y,-z
x,-y,z
loop_
_atom_site_type_symbol
_atom_site_label
_atom_site_fract_x
_atom_site_fract_y
_atom_site_fract_z
Si Si1 0.701797 0.828337 0.392555
Si Si2 0.979400 0.669477 0.878337
Si Si3 0.145111 0.830527 0.788049
Si Si4 0.231002 0.331254 0.171847
Si Si5 0.518942 0.665873 0.320932
Si Si6 0.726216 0.839194 0.028504
Si Si7 0.471308 0.162370 0.883401
Si Si8 0.687198 0.666120 0.603640
O O1 0.784913 0.779800 0.309317
O O2 0.602359 0.761685 0.363552
O O3 0.729656 0.766741 0.508677
O O4 0.690309 0.000000 0.396199
O O5 0.995772 0.500000 0.868489
O O6 0.047289 0.746048 0.788387
O O7 0.875987 0.714156 0.844413
O O8 0.000000 0.722395 0.000000
O O9 0.126576 0.000000 0.778829
O O10 0.186517 0.787794 0.903621
O O11 0.246608 0.500000 0.161062
O O12 0.292450 0.260214 0.074437
O O13 0.268006 0.277113 0.286173
O O14 0.551729 0.500000 0.311583
O O15 0.489015 0.725317 0.204640
O O16 0.425635 0.679084 0.396382
O O17 0.741748 0.000000 0.983049
O O18 0.640921 0.836818 0.116699
O O19 0.509949 0.000000 0.859637
O O20 0.500000 0.216717 0.000000
O O21 0.716231 0.500000 0.582432
#
# Coordination Sequence:
#
# PCOD8061223 Si02
#       8
#     4   4   4   4   4   4   4   4
#     4  11  23  41  62  84 113 150 196 240 281 335
#     4  10  20  35  58  88 115 145 188 230 277 342
#     4  10  21  37  57  83 114 145 182 234 285 332
#     4  10  21  38  58  83 118 151 185 235 285 340
#     4  11  22  36  57  84 115 150 193 240 284 338
#     4  10  19  33  53  80 114 148 185 229 281 338
#     4  10  20  34  52  78 116 156 193 235 281 335
#     4  10  23  41  58  82 116 152 191 236 287 335
#
# _framework density 19.508175999999999
#
# number of rings (size 3 to 8) (size 9 to 14) (size 15 to 20)
#    0.000    1.750    2.500    1.875    0.000    5.500 
#    0.000    0.625    0.000    3.750    0.000    0.000 
#    0.000    0.000    0.000    0.000    0.000    0.000 
#
# Total GULP energy -396810.725650 kJ/mol
# GULP energy per Si atom -12400.335177 kJ/mol
# Density = 1.946377 g / cm^3
# Si number density = 19.508176 Si / 1000 Ang^3
#
#
#
# Elastic Constant Matrix: (Units=GPa)
#
#
# Indices 1 2 3 4 5 6 
#
# 1 63.0897 23.2778 28.3175 0.0000 -5.8553 0.0000
# 2 23.2778 64.7255 50.1421 0.0000 -9.0864 0.0000
# 3 28.3175 50.1421 105.3920 0.0000 -8.6083 0.0000
# 4 0.0000 0.0000 0.0000 37.4524 0.0000 -1.7919
# 5 -5.8553 -9.0864 -8.6083 0.0000 25.3736 0.0000
# 6 0.0000 0.0000 0.0000 -1.7919 0.0000 26.0688
#
#
#
# Elastic Compliance Matrix: (Units=1/GPa)
#
#
# Indices 1 2 3 4 5 6 
#
# 1 0.018904 -0.004310 -0.002878 0.000000 0.001842 0.000000
# 2 -0.004310 0.026071 -0.010865 0.000000 0.004655 0.000000
# 3 -0.002878 -0.010865 0.015488 0.000000 0.000699 0.000000
# 4 0.000000 0.000000 0.000000 0.026789 0.000000 0.001841
# 5 0.001842 0.004655 0.000699 0.000000 0.041741 0.000000
# 6 0.000000 0.000000 0.000000 0.001841 0.000000 0.038487
#
#
# Mechanical properties :
#
#
# Convention : Reuss Voigt Hill
#
# Bulk Modulus (GPa) = 41.05868 48.52021 44.78945
# Shear Modulus (GPa) = 23.61791 26.54361 25.08076
#
# Velocity S-wave (km/s) = 3.48324 3.69269 3.58949
# Velocity P-wave (km/s) = 6.10491 6.56559 6.33943
#
# Compressibility (1/GPa) = 0.02435539
#
# Stress axis : x y z
#
# Youngs Moduli (GPa) = 52.90014 38.35719 64.56555
#
# Poissons Ratio (x) = 0.16533 0.18582
# Poissons Ratio (y) = 0.22801 0.70152
# Poissons Ratio (z) = 0.15224 0.41676
#
# Static dielectric constant tensor:
#      x y z
#    x 3.543330 0.000000 0.026180 
#    y 0.000000 3.450800 0.000000 
#    z 0.026180 0.000000 3.590330 
# 
# 
# High freq. dielectric constant tensor:
#      x y z
#    x 1.756090 0.000000 0.000710 
#    y 0.000000 1.753590 0.000000 
#    z 0.000710 0.000000 1.757600 
# 
# From -- ./inp_files/49972.got.cif
#   From: 2010.06.25/outbox.cif.g09.slc.cpg/sg10_25_cif.got.tgz:49972.got - 2010.06.27 22:07:45.
