data_PCOD8061206
_publ_section_title
;
Structure prediction by ZEFSAII (Michael W. Deem and Ramdas Pophale) SiO2 
 PCOD8061206
Probable space group: P 2/M
;
_chemical_formula_sum "Si O2"
_cell_formula_units_Z 32
_cell_length_a 24.231419
_cell_length_b 8.872555
_cell_length_c 19.718327
_cell_angle_alpha 90.000000
_cell_angle_beta 24.072372
_cell_angle_gamma 90.000000
_cell_volume 1729.182894
_symmetry_space_group_name_H-M "P 2/M"
_symmetry_group_IT_number 10
_symmetry_cell_setting 'monoclinic'
loop_
_space_group_symop_operation_xyz
x,y,z
-x,y,-z
-x,-y,-z
x,-y,z
loop_
_atom_site_type_symbol
_atom_site_label
_atom_site_fract_x
_atom_site_fract_y
_atom_site_fract_z
Si Si1 0.657161 0.666531 0.340668
Si Si2 0.105267 0.676163 0.162532
Si Si3 0.436123 0.321430 0.414069
Si Si4 0.838342 0.173306 0.508026
Si Si5 0.285415 0.823019 0.854823
Si Si6 0.415565 0.175452 0.299154
Si Si7 0.151784 0.824987 0.346698
Si Si8 0.692338 0.676617 0.944920
O O1 0.500000 0.657651 0.500000
O O2 0.722069 0.500000 0.260060
O O3 0.664579 0.722740 0.410639
O O4 0.731522 0.779487 0.205673
O O5 0.115488 0.500000 0.135470
O O6 0.951557 0.719518 0.349723
O O7 0.153017 0.767468 0.042844
O O8 0.196195 0.722898 0.124678
O O9 0.453256 0.500000 0.390189
O O10 0.585450 0.254810 0.256077
O O11 0.371649 0.256971 0.417996
O O12 0.698363 0.209201 0.628245
O O13 0.815943 0.210448 0.611754
O O14 0.883466 0.000000 0.447854
O O15 0.302035 0.000000 0.842377
O O16 0.555108 0.237654 0.114373
O O17 0.431777 0.000000 0.296091
O O18 0.000000 0.773276 0.500000
O O19 0.172581 0.000000 0.305143
O O20 0.255549 0.726338 0.186981
O O21 0.663054 0.500000 0.978407
#
# Coordination Sequence:
#
# PCOD8061206 Si02
#       8
#     4   4   4   4   4   4   4   4
#     4   8  16  30  48  74 111 148 182 227 279 330
#     4  11  22  36  57  83 113 149 188 234 282 331
#     4  10  19  33  53  78 112 151 188 228 278 334
#     4  10  23  41  59  84 113 146 189 234 285 341
#     4  11  20  30  52  83 114 146 186 235 279 327
#     4  11  23  38  58  83 115 151 188 233 283 337
#     4  10  20  37  62  84 110 146 185 232 283 336
#     4  11  23  37  58  85 114 147 188 233 277 335
#
# _framework density 18.505851
#
# number of rings (size 3 to 8) (size 9 to 14) (size 15 to 20)
#    0.000    1.750    2.500    3.375    0.000    6.000 
#    0.000    2.500    0.000    0.750    0.000    5.250 
#    0.000    0.000    0.000    0.000    0.000    0.000 
#
# Total GULP energy -396887.174229 kJ/mol
# GULP energy per Si atom -12402.724195 kJ/mol
# Density = 1.846373 g / cm^3
# Si number density = 18.505851 Si / 1000 Ang^3
#
#
#
# Elastic Constant Matrix: (Units=GPa)
#
#
# Indices 1 2 3 4 5 6 
#
# 1 115.9249 47.4451 54.0296 0.0000 20.2503 0.0000
# 2 47.4451 94.6335 47.5430 0.0000 9.9492 0.0000
# 3 54.0296 47.5430 84.7792 0.0000 16.7446 0.0000
# 4 0.0000 0.0000 0.0000 32.3081 0.0000 7.8659
# 5 20.2503 9.9492 16.7446 0.0000 30.9260 0.0000
# 6 0.0000 0.0000 0.0000 7.8659 0.0000 25.5989
#
#
#
# Elastic Compliance Matrix: (Units=1/GPa)
#
#
# Indices 1 2 3 4 5 6 
#
# 1 0.013524 -0.003374 -0.005814 0.000000 -0.004622 0.000000
# 2 -0.003374 0.015556 -0.006742 0.000000 0.000855 0.000000
# 3 -0.005814 -0.006742 0.020269 0.000000 -0.004998 0.000000
# 4 0.000000 0.000000 0.000000 0.033455 0.000000 -0.010280
# 5 -0.004622 0.000855 -0.004998 0.000000 0.037793 0.000000
# 6 0.000000 0.000000 0.000000 -0.010280 0.000000 0.042223
#
#
# Mechanical properties :
#
#
# Convention : Reuss Voigt Hill
#
# Bulk Modulus (GPa) = 57.17968 65.93032 61.55500
# Shear Modulus (GPa) = 24.93641 27.52125 26.22883
#
# Velocity S-wave (km/s) = 3.67480 3.86056 3.76882
# Velocity P-wave (km/s) = 6.99791 7.45493 7.23003
#
# Compressibility (1/GPa) = 0.01748873
#
# Stress axis : x y z
#
# Youngs Moduli (GPa) = 73.94106 64.28442 49.33639
#
# Poissons Ratio (x) = 0.21686 0.28685
# Poissons Ratio (y) = 0.24944 0.33265
# Poissons Ratio (z) = 0.42991 0.43344
#
# Static dielectric constant tensor:
#      x y z
#    x 3.607070 0.000000 0.353200 
#    y 0.000000 3.433960 0.000000 
#    z 0.353200 0.000000 3.301250 
# 
# 
# High freq. dielectric constant tensor:
#      x y z
#    x 1.711680 0.000000 0.028130 
#    y 0.000000 1.723870 0.000000 
#    z 0.028130 0.000000 1.706640 
# 
# From -- ./inp_files/86910.got.cif
#   From: 2010.06.25/outbox.cif.g09.slc.cpg/sg10_44_cif.got.tgz:86910.got - 2010.06.27 22:07:45.
