data_PCOD8061508
_publ_section_title
;
Structure prediction by ZEFSAII (Michael W. Deem and Ramdas Pophale) SiO2 
 PCOD8061508
Probable space group: P 2/M
;
_chemical_formula_sum "Si O2"
_cell_formula_units_Z 32
_cell_length_a 12.266082
_cell_length_b 9.208153
_cell_length_c 15.014861
_cell_angle_alpha 90.000000
_cell_angle_beta 87.841998
_cell_angle_gamma 90.000000
_cell_volume 1694.695162
_symmetry_space_group_name_H-M "P 2/M"
_symmetry_group_IT_number 10
_symmetry_cell_setting 'monoclinic'
loop_
_space_group_symop_operation_xyz
x,y,z
-x,y,-z
-x,-y,-z
x,-y,z
loop_
_atom_site_type_symbol
_atom_site_label
_atom_site_fract_x
_atom_site_fract_y
_atom_site_fract_z
Si Si1 0.798689 0.171745 0.529636
Si Si2 0.413575 0.661409 0.437224
Si Si3 0.080492 0.829346 0.298088
Si Si4 0.752893 0.666324 0.826636
Si Si5 0.471763 0.657929 0.245435
Si Si6 0.164559 0.828494 0.671586
Si Si7 0.371539 0.671330 0.992079
Si Si8 0.668962 0.828668 0.181359
O O1 0.685083 0.229018 0.569929
O O2 0.886087 0.220875 0.602376
O O3 0.820341 0.236067 0.429352
O O4 0.796311 0.000000 0.523607
O O5 0.500000 0.733470 0.500000
O O6 0.373248 0.500000 0.468180
O O7 0.489086 0.647519 0.348809
O O8 0.145492 0.756989 0.214214
O O9 0.954664 0.784670 0.289427
O O10 0.098948 0.000000 0.288238
O O11 0.791440 0.500000 0.832031
O O12 0.656078 0.688962 0.759785
O O13 0.701967 0.720431 0.921678
O O14 0.500770 0.500000 0.198465
O O15 0.544045 0.787528 0.205609
O O16 0.252341 0.769422 0.741544
O O17 0.177398 0.000000 0.664909
O O18 0.365352 0.500000 0.978168
O O19 0.308545 0.750272 0.913007
O O20 0.500000 0.717890 0.000000
O O21 0.681235 0.000000 0.169185
#
# Coordination Sequence:
#
# PCOD8061508 Si02
#       8
#     4   4   4   4   4   4   4   4
#     4  10  19  33  56  81 106 143 189 227 262 315
#     4  10  20  32  48  74 110 148 180 216 268 325
#     4  10  20  36  59  82 108 146 190 228 266 316
#     4  10  20  36  58  81 108 141 178 223 274 325
#     4  10  19  34  53  74 110 150 177 212 272 334
#     4   9  20  38  55  78 114 150 181 223 278 323
#     4  10  20  38  60  80 108 147 179 214 277 340
#     4  11  22  35  56  84 112 141 181 231 272 318
#
# _framework density 18.882452000000001
#
# number of rings (size 3 to 8) (size 9 to 14) (size 15 to 20)
#    0.000    2.000    2.500    1.500    0.000    3.500 
#    0.000    3.125    0.000    5.250    0.000    0.000 
#    0.000    0.000    0.000    0.000    0.000    0.000 
#
# Total GULP energy -396493.436787 kJ/mol
# GULP energy per Si atom -12390.419900 kJ/mol
# Density = 1.883948 g / cm^3
# Si number density = 18.882452 Si / 1000 Ang^3
#
#
#
# Elastic Constant Matrix: (Units=GPa)
#
#
# Indices 1 2 3 4 5 6 
#
# 1 65.9405 25.4027 36.1581 0.0000 -7.3116 0.0000
# 2 25.4027 26.3757 33.8060 0.0000 -2.5425 0.0000
# 3 36.1581 33.8060 120.4720 0.0000 -11.6192 0.0000
# 4 0.0000 0.0000 0.0000 27.6807 0.0000 -4.0479
# 5 -7.3116 -2.5425 -11.6192 0.0000 30.9752 0.0000
# 6 0.0000 0.0000 0.0000 -4.0479 0.0000 18.3961
#
#
#
# Elastic Compliance Matrix: (Units=1/GPa)
#
#
# Indices 1 2 3 4 5 6 
#
# 1 0.024609 -0.022386 -0.000748 0.000000 0.003691 0.000000
# 2 -0.022386 0.079634 -0.016089 0.000000 -0.004783 0.000000
# 3 -0.000748 -0.016089 0.013380 0.000000 0.003522 0.000000
# 4 0.000000 0.000000 0.000000 0.037327 0.000000 0.008214
# 5 0.003691 -0.004783 0.003522 0.000000 0.034084 0.000000
# 6 0.000000 0.000000 0.000000 0.008214 0.000000 0.056167
#
#
# Mechanical properties :
#
#
# Convention : Reuss Voigt Hill
#
# Bulk Modulus (GPa) = 25.52571 44.83576 35.18073
# Shear Modulus (GPa) = 14.84981 23.23849 19.04415
#
# Velocity S-wave (km/s) = 2.80739 3.51193 3.17923
# Velocity P-wave (km/s) = 4.90470 6.34359 5.66997
#
# Compressibility (1/GPa) = 0.03917619
#
# Stress axis : x y z
#
# Youngs Moduli (GPa) = 40.63612 12.55744 74.74069
#
# Poissons Ratio (x) = 0.28111 0.05592
# Poissons Ratio (y) = 0.90969 1.20248
# Poissons Ratio (z) = 0.03040 0.20203
#
# Static dielectric constant tensor:
#      x y z
#    x 3.373290 0.000000 0.104600 
#    y 0.000000 3.214650 0.000000 
#    z 0.104600 0.000000 3.754810 
# 
# 
# High freq. dielectric constant tensor:
#      x y z
#    x 1.719660 0.000000 0.000280 
#    y 0.000000 1.708120 0.000000 
#    z 0.000280 0.000000 1.749740 
# 
# From -- ./inp_files/63767.got.cif
#   From: 2010.06.25/outbox.cif.g09.slc.cpg/sg10_32_cif.got.tgz:63767.got - 2010.06.27 22:07:45.
