data_PCOD8061977
_publ_section_title
;
Structure prediction by ZEFSAII (Michael W. Deem and Ramdas Pophale) SiO2 
 PCOD8061977
Probable space group: P 2/M
;
_chemical_formula_sum "Si O2"
_cell_formula_units_Z 32
_cell_length_a 29.700668
_cell_length_b 9.227931
_cell_length_c 12.500310
_cell_angle_alpha 90.000000
_cell_angle_beta 151.315508
_cell_angle_gamma 90.000000
_cell_volume 1644.447336
_symmetry_space_group_name_H-M "P 2/M"
_symmetry_group_IT_number 10
_symmetry_cell_setting 'monoclinic'
loop_
_space_group_symop_operation_xyz
x,y,z
-x,y,-z
-x,-y,-z
x,-y,z
loop_
_atom_site_type_symbol
_atom_site_label
_atom_site_fract_x
_atom_site_fract_y
_atom_site_fract_z
Si Si1 0.890446 0.165950 0.782014
Si Si2 0.043178 0.169516 0.474952
Si Si3 0.259792 0.668674 0.647524
Si Si4 0.668753 0.169955 0.601137
Si Si5 0.873404 0.170778 0.982971
Si Si6 0.391091 0.167675 0.759372
Si Si7 0.762777 0.331623 0.156064
Si Si8 0.598443 0.328926 0.655501
O O1 0.841437 0.263779 0.590728
O O2 0.860847 0.227698 0.836166
O O3 0.858002 0.000000 0.698771
O O4 0.000000 0.182011 0.000000
O O5 0.141833 0.246881 0.666578
O O6 0.000000 0.200189 0.500000
O O7 0.060475 0.000000 0.491787
O O8 0.966313 0.235902 0.232195
O O9 0.259046 0.500000 0.618744
O O10 0.339984 0.743669 0.745305
O O11 0.277643 0.697577 0.809832
O O12 0.778557 0.208698 0.849815
O O13 0.639674 0.221351 0.422015
O O14 0.607160 0.255321 0.558258
O O15 0.649576 0.000000 0.575311
O O16 0.888193 0.000000 0.008995
O O17 0.364088 0.000000 0.717778
O O18 0.500000 0.196369 0.000000
O O19 0.784908 0.500000 0.185435
O O20 0.682926 0.276979 0.908129
O O21 0.500000 0.278029 0.500000
O O22 0.600170 0.500000 0.642571
#
# Coordination Sequence:
#
# PCOD8061977 Si02
#       8
#     4   4   4   4   4   4   4   4
#     4  10  19  34  57  82 114 158 198 235 287 342
#     4  10  20  35  59  88 113 147 197 243 287 343
#     4  11  23  38  58  86 122 159 197 242 289 347
#     4  10  20  38  62  88 119 147 185 244 292 338
#     4   9  17  32  54  82 115 147 182 231 285 336
#     4  10  22  40  63  90 119 153 193 243 299 352
#     4  10  23  41  57  82 120 157 193 239 292 342
#     4  10  23  42  62  82 111 153 196 237 287 348
#
# _framework density 19.459423999999999
#
# number of rings (size 3 to 8) (size 9 to 14) (size 15 to 20)
#    0.000    2.000    1.250    1.875    1.750    5.000 
#    0.000    1.250    0.000    0.000    0.000    0.000 
#    0.000    0.000    0.000    0.000    0.000    0.000 
#
# Total GULP energy -396831.172170 kJ/mol
# GULP energy per Si atom -12400.974130 kJ/mol
# Density = 1.941513 g / cm^3
# Si number density = 19.459424 Si / 1000 Ang^3
#
#
#
# Elastic Constant Matrix: (Units=GPa)
#
#
# Indices 1 2 3 4 5 6 
#
# 1 128.7180 52.4846 49.7115 0.0000 8.7771 0.0000
# 2 52.4846 58.0671 36.9462 0.0000 0.7269 0.0000
# 3 49.7115 36.9462 112.9998 0.0000 5.9050 0.0000
# 4 0.0000 0.0000 0.0000 8.4174 0.0000 13.8651
# 5 8.7771 0.7269 5.9050 0.0000 29.1572 0.0000
# 6 0.0000 0.0000 0.0000 13.8651 0.0000 24.7085
#
#
#
# Elastic Compliance Matrix: (Units=1/GPa)
#
#
# Indices 1 2 3 4 5 6 
#
# 1 0.013065 -0.010378 -0.002186 0.000000 -0.003232 0.000000
# 2 -0.010378 0.030012 -0.005429 0.000000 0.003475 0.000000
# 3 -0.002186 -0.005429 0.011668 0.000000 -0.001570 0.000000
# 4 0.000000 0.000000 0.000000 1.569520 0.000000 -0.880729
# 5 -0.003232 0.003475 -0.001570 0.000000 0.035501 0.000000
# 6 0.000000 0.000000 0.000000 -0.880729 0.000000 0.534688
#
#
# Mechanical properties :
#
#
# Convention : Reuss Voigt Hill
#
# Bulk Modulus (GPa) = 53.30290 64.22994 58.76642
# Shear Modulus (GPa) = 2.23544 23.16613 12.70079
#
# Velocity S-wave (km/s) = 1.07297 3.45408 2.55753
# Velocity P-wave (km/s) = 5.38389 6.99902 6.24390
#
# Compressibility (1/GPa) = 0.01876070
#
# Stress axis : x y z
#
# Youngs Moduli (GPa) = 76.54105 33.31970 85.70344
#
# Poissons Ratio (x) = 0.34578 0.18731
# Poissons Ratio (y) = 0.79432 0.46528
# Poissons Ratio (z) = 0.16729 0.18089
#
# Static dielectric constant tensor:
#      x y z
#    x 3.599810 0.000000 -0.050530 
#    y 0.000000 3.325120 0.000000 
#    z -0.050530 0.000000 3.753320 
# 
# 
# High freq. dielectric constant tensor:
#      x y z
#    x 1.770080 0.000000 0.000450 
#    y 0.000000 1.730600 0.000000 
#    z 0.000450 0.000000 1.772640 
# 
# From -- ./inp_files/58362.got.cif
#   From: 2010.06.25/outbox.cif.g09.slc.cpg/sg10_30_cif.got.tgz:58362.got - 2010.06.27 22:07:45.
