data_PCOD8061372
_publ_section_title
;
Structure prediction by ZEFSAII (Michael W. Deem and Ramdas Pophale) SiO2 
 PCOD8061372
Probable space group: P 2/M
;
_chemical_formula_sum "Si O2"
_cell_formula_units_Z 32
_cell_length_a 28.012575
_cell_length_b 9.025794
_cell_length_c 21.606667
_cell_angle_alpha 90.000000
_cell_angle_beta 18.731910
_cell_angle_gamma 90.000000
_cell_volume 1754.370328
_symmetry_space_group_name_H-M "P 2/M"
_symmetry_group_IT_number 10
_symmetry_cell_setting 'monoclinic'
loop_
_space_group_symop_operation_xyz
x,y,z
-x,y,-z
-x,-y,-z
x,-y,z
loop_
_atom_site_type_symbol
_atom_site_label
_atom_site_fract_x
_atom_site_fract_y
_atom_site_fract_z
Si Si1 0.405024 0.826619 0.056276
Si Si2 0.540663 0.326874 0.135598
Si Si3 0.096841 0.670179 0.438767
Si Si4 0.167875 0.332845 0.148447
Si Si5 0.698159 0.827389 0.124472
Si Si6 0.667436 0.325697 0.286391
Si Si7 0.827734 0.673328 0.214039
Si Si8 0.399029 0.825117 0.422638
O O1 0.238413 0.772860 0.273392
O O2 0.403167 0.000000 0.043883
O O3 0.500000 0.788180 0.000000
O O4 0.480100 0.742819 0.906495
O O5 0.503750 0.500000 0.178022
O O6 0.424831 0.250238 0.324556
O O7 0.710109 0.295416 0.948737
O O8 0.147523 0.500000 0.365580
O O9 0.000000 0.726218 0.500000
O O10 0.996823 0.686066 0.622723
O O11 0.195204 0.500000 0.091358
O O12 0.181808 0.223079 0.073595
O O13 0.738214 0.748987 0.139367
O O14 0.533860 0.781551 0.302991
O O15 0.713135 0.000000 0.116270
O O16 0.500000 0.268160 0.500000
O O17 0.673502 0.500000 0.269008
O O18 0.759691 0.274619 0.232559
O O19 0.799487 0.500000 0.260394
O O20 0.752785 0.763314 0.361910
O O21 0.000000 0.713529 0.000000
O O22 0.387467 0.000000 0.427262
#
# Coordination Sequence:
#
# PCOD8061372 Si02
#       8
#     4   4   4   4   4   4   4   4
#     4  11  24  39  55  82 119 154 188 229 280 337
#     4  10  19  35  59  83 109 144 187 232 275 326
#     4  10  19  36  59  85 111 141 187 234 278 330
#     4   9  18  33  55  82 112 141 177 230 279 326
#     4  10  20  32  51  81 113 142 178 224 272 328
#     4  10  19  33  55  79 104 138 179 222 269 316
#     4  10  21  37  56  80 109 143 185 227 268 324
#     4  10  20  34  54  82 113 143 179 224 276 332
#
# _framework density 18.240162000000002
#
# number of rings (size 3 to 8) (size 9 to 14) (size 15 to 20)
#    0.000    2.000    2.500    1.500    0.000    4.250 
#    0.000    1.250    0.000    1.500    0.000    0.000 
#    0.000    0.000    0.000    0.000    0.000    0.000 
#
# Total GULP energy -396943.052248 kJ/mol
# GULP energy per Si atom -12404.470383 kJ/mol
# Density = 1.819865 g / cm^3
# Si number density = 18.240162 Si / 1000 Ang^3
#
#
#
# Elastic Constant Matrix: (Units=GPa)
#
#
# Indices 1 2 3 4 5 6 
#
# 1 121.3848 57.6465 64.9297 0.0000 12.0892 0.0000
# 2 57.6465 78.8054 50.6797 0.0000 10.3173 0.0000
# 3 64.9297 50.6797 106.8782 0.0000 9.8094 0.0000
# 4 0.0000 0.0000 0.0000 17.7226 0.0000 1.5899
# 5 12.0892 10.3173 9.8094 0.0000 29.3990 0.0000
# 6 0.0000 0.0000 0.0000 1.5899 0.0000 25.0642
#
#
#
# Elastic Compliance Matrix: (Units=1/GPa)
#
#
# Indices 1 2 3 4 5 6 
#
# 1 0.014627 -0.006991 -0.005410 0.000000 -0.001756 0.000000
# 2 -0.006991 0.021981 -0.005913 0.000000 -0.002866 0.000000
# 3 -0.005410 -0.005913 0.015528 0.000000 -0.000881 0.000000
# 4 0.000000 0.000000 0.000000 0.056748 0.000000 -0.003600
# 5 -0.001756 -0.002866 -0.000881 0.000000 0.036037 0.000000
# 6 0.000000 0.000000 0.000000 -0.003600 0.000000 0.040126
#
#
# Mechanical properties :
#
#
# Convention : Reuss Voigt Hill
#
# Bulk Modulus (GPa) = 64.48064 72.62002 68.55033
# Shear Modulus (GPa) = 22.04163 23.35801 22.69982
#
# Velocity S-wave (km/s) = 3.47999 3.58240 3.53157
# Velocity P-wave (km/s) = 7.18156 7.55057 7.36838
#
# Compressibility (1/GPa) = 0.01550853
#
# Stress axis : x y z
#
# Youngs Moduli (GPa) = 68.36723 45.49363 64.40027
#
# Poissons Ratio (x) = 0.31802 0.34841
# Poissons Ratio (y) = 0.47792 0.38081
# Poissons Ratio (z) = 0.36987 0.26901
#
# Static dielectric constant tensor:
#      x y z
#    x 3.284530 0.000000 0.123570 
#    y 0.000000 3.309360 0.000000 
#    z 0.123570 0.000000 3.262700 
# 
# 
# High freq. dielectric constant tensor:
#      x y z
#    x 1.698580 0.000000 0.021430 
#    y 0.000000 1.708760 0.000000 
#    z 0.021430 0.000000 1.699060 
# 
# From -- ./inp_files/54941.got.cif
#   From: 2010.06.25/outbox.cif.g09.slc.cpg/sg10_28_cif.got.tgz:54941.got - 2010.06.27 22:07:45.
