data_PCOD8061657
_publ_section_title
;
Structure prediction by ZEFSAII (Michael W. Deem and Ramdas Pophale) SiO2 
 PCOD8061657
Probable space group: P 2/M
;
_chemical_formula_sum "Si O2"
_cell_formula_units_Z 32
_cell_length_a 24.772580
_cell_length_b 14.520446
_cell_length_c 8.869748
_cell_angle_alpha 90.000000
_cell_angle_beta 150.689224
_cell_angle_gamma 90.000000
_cell_volume 1561.911384
_symmetry_space_group_name_H-M "P 2/M"
_symmetry_group_IT_number 10
_symmetry_cell_setting 'monoclinic'
loop_
_space_group_symop_operation_xyz
x,y,z
-x,y,-z
-x,-y,-z
x,-y,z
loop_
_atom_site_type_symbol
_atom_site_label
_atom_site_fract_x
_atom_site_fract_y
_atom_site_fract_z
Si Si1 0.323343 0.670373 0.869901
Si Si2 0.775587 0.899817 0.643123
Si Si3 0.444053 0.839489 0.019411
Si Si4 0.663844 0.100773 0.686147
Si Si5 0.302089 0.298581 0.157996
Si Si6 0.891108 0.394450 0.136978
Si Si7 0.890808 0.284122 0.832376
Si Si8 0.519905 0.399642 0.217395
O O1 0.207075 0.671260 0.502732
O O2 0.402150 0.755780 0.019525
O O3 0.303914 0.655789 0.999301
O O4 0.399589 0.586042 0.001223
O O5 0.742877 0.886317 0.736058
O O6 0.860411 0.819936 0.804747
O O7 0.832433 0.000000 0.757202
O O8 0.663214 0.901065 0.272973
O O9 0.534289 0.898411 0.329743
O O10 0.500000 0.804074 0.000000
O O11 0.695934 0.187976 0.868148
O O12 0.686861 0.000000 0.818129
O O13 0.406458 0.325397 0.514499
O O14 0.195936 0.332112 0.988039
O O15 0.850161 0.500000 0.016691
O O16 0.000000 0.392370 0.500000
O O17 0.913336 0.349292 0.029206
O O18 0.000000 0.280130 0.000000
O O19 0.578591 0.500000 0.360505
O O20 0.500000 0.363436 0.000000
#
# Coordination Sequence:
#
# PCOD8061657 Si02
#       8
#     4   4   4   4   4   4   4   4
#     4  11  23  37  60  89 130 165 204 250 312 366
#     4   9  18  34  59  91 125 163 209 252 301 362
#     4   9  17  32  55  87 126 170 210 248 294 356
#     4  10  19  33  59  90 126 169 209 249 298 360
#     4  12  23  40  62  93 129 164 205 255 306 369
#     4  11  25  46  70  92 118 158 206 259 316 370
#     4  11  23  42  66  94 122 160 204 258 310 370
#     4  11  24  40  62  90 123 164 206 252 312 376
#
# _framework density 20.487718000000001
#
# number of rings (size 3 to 8) (size 9 to 14) (size 15 to 20)
#    0.000    1.500    2.500    3.000    1.750    5.000 
#    0.000    3.750    0.000    3.000    0.000    0.000 
#    0.000    0.000    0.000    0.000    0.000    0.000 
#
# Total GULP energy -396596.663030 kJ/mol
# GULP energy per Si atom -12393.645720 kJ/mol
# Density = 2.044109 g / cm^3
# Si number density = 20.487718 Si / 1000 Ang^3
#
#
#
# Elastic Constant Matrix: (Units=GPa)
#
#
# Indices 1 2 3 4 5 6 
#
# 1 107.2057 25.8334 43.9575 0.0000 1.6811 0.0000
# 2 25.8334 122.1905 36.4477 0.0000 1.0315 0.0000
# 3 43.9575 36.4477 89.6738 0.0000 5.3529 0.0000
# 4 0.0000 0.0000 0.0000 21.3823 0.0000 4.4787
# 5 1.6811 1.0315 5.3529 0.0000 38.2403 0.0000
# 6 0.0000 0.0000 0.0000 4.4787 0.0000 5.8221
#
#
#
# Elastic Compliance Matrix: (Units=1/GPa)
#
#
# Indices 1 2 3 4 5 6 
#
# 1 0.011758 -0.000870 -0.005426 0.000000 0.000266 0.000000
# 2 -0.000870 0.009380 -0.003402 0.000000 0.000261 0.000000
# 3 -0.005426 -0.003402 0.015302 0.000000 -0.001812 0.000000
# 4 0.000000 0.000000 0.000000 0.055751 0.000000 -0.042887
# 5 0.000266 0.000261 -0.001812 0.000000 0.026385 0.000000
# 6 0.000000 0.000000 0.000000 -0.042887 0.000000 0.204752
#
#
# Mechanical properties :
#
#
# Convention : Reuss Voigt Hill
#
# Bulk Modulus (GPa) = 58.66728 59.06078 58.86403
# Shear Modulus (GPa) = 14.35105 27.27768 20.81437
#
# Velocity S-wave (km/s) = 2.64951 3.65282 3.19085
# Velocity P-wave (km/s) = 6.16907 6.83233 6.50915
#
# Compressibility (1/GPa) = 0.01704528
#
# Stress axis : x y z
#
# Youngs Moduli (GPa) = 85.04745 106.60602 65.34970
#
# Poissons Ratio (x) = 0.09270 0.35460
# Poissons Ratio (y) = 0.07396 0.22232
# Poissons Ratio (z) = 0.46149 0.36267
#
# Static dielectric constant tensor:
#      x y z
#    x 3.647680 0.000000 0.034070 
#    y 0.000000 4.009920 0.000000 
#    z 0.034070 0.000000 3.433800 
# 
# 
# High freq. dielectric constant tensor:
#      x y z
#    x 1.795750 0.000000 0.004710 
#    y 0.000000 1.813270 0.000000 
#    z 0.004710 0.000000 1.784030 
# 
# From -- ./inp_files/36404.got.cif
#   From: 2010.06.25/outbox.cif.g09.slc.cpg/sg10_19_cif.got.tgz:36404.got - 2010.06.27 22:07:45.
