data_PCOD8061046
_publ_section_title
;
Structure prediction by ZEFSAII (Michael W. Deem and Ramdas Pophale) SiO2 
 PCOD8061046
Probable space group: P 2/M
;
_chemical_formula_sum "Si O2"
_cell_formula_units_Z 32
_cell_length_a 16.049099
_cell_length_b 14.595388
_cell_length_c 13.071898
_cell_angle_alpha 90.000000
_cell_angle_beta 36.041752
_cell_angle_gamma 90.000000
_cell_volume 1801.602156
_symmetry_space_group_name_H-M "P 2/M"
_symmetry_group_IT_number 10
_symmetry_cell_setting 'monoclinic'
loop_
_space_group_symop_operation_xyz
x,y,z
-x,y,-z
-x,-y,-z
x,-y,z
loop_
_atom_site_type_symbol
_atom_site_label
_atom_site_fract_x
_atom_site_fract_y
_atom_site_fract_z
Si Si1 0.415555 0.395497 0.187106
Si Si2 0.621762 0.159385 0.308405
Si Si3 0.545456 0.687433 0.250398
Si Si4 0.813939 0.399451 0.070574
Si Si5 0.927580 0.102424 0.965203
Si Si6 0.704568 0.674982 0.368912
Si Si7 0.961935 0.277486 0.240532
Si Si8 0.085896 0.394362 0.517728
O O1 0.434782 0.500000 0.207306
O O2 0.483108 0.324065 0.199492
O O3 0.250593 0.373594 0.333545
O O4 0.500000 0.379386 0.000000
O O5 0.500000 0.109414 0.500000
O O6 0.556225 0.203573 0.268870
O O7 0.680578 0.244565 0.312614
O O8 0.756180 0.096895 0.147384
O O9 0.694966 0.636991 0.110449
O O10 0.439781 0.639371 0.436954
O O11 0.856753 0.500000 0.991035
O O12 0.769368 0.405253 0.234621
O O13 0.948155 0.333978 0.930684
O O14 0.980998 0.172239 0.823231
O O15 0.977323 0.000000 0.885173
O O16 0.000000 0.132597 0.000000
O O17 0.800085 0.712688 0.366719
O O18 0.977184 0.322137 0.337636
O O19 0.065644 0.500000 0.575140
O O20 0.000000 0.376543 0.500000
#
# Coordination Sequence:
#
# PCOD8061046 Si02
#       8
#     4   4   4   4   4   4   4   4
#     4  10  21  35  52  74 102 137 184 231 266 315
#     4   9  18  33  53  76 108 142 178 222 267 319
#     4  10  19  34  51  72 102 147 181 220 269 314
#     4  11  22  30  47  76 107 146 183 215 257 319
#     4  11  21  35  57  83 111 147 186 225 273 328
#     4  10  19  33  50  72 107 143 182 218 258 320
#     4  12  20  37  55  75 111 143 181 227 271 323
#     4  10  23  39  56  80 109 145 185 228 277 322
#
# _framework density 17.761968
#
# number of rings (size 3 to 8) (size 9 to 14) (size 15 to 20)
#    0.000    1.625    5.000    2.250    1.750    3.250 
#    0.000    0.000    0.000    0.375    0.000    0.000 
#    0.000    2.000    0.000    0.000    0.000    0.000 
#
# Total GULP energy -396613.198410 kJ/mol
# GULP energy per Si atom -12394.162450 kJ/mol
# Density = 1.772154 g / cm^3
# Si number density = 17.761968 Si / 1000 Ang^3
#
#
#
# Elastic Constant Matrix: (Units=GPa)
#
#
# Indices 1 2 3 4 5 6 
#
# 1 94.7372 23.9621 26.0213 0.0000 1.5389 0.0000
# 2 23.9621 81.0228 29.9035 0.0000 5.1031 0.0000
# 3 26.0213 29.9035 76.0829 0.0000 -1.5236 0.0000
# 4 0.0000 0.0000 0.0000 17.4341 0.0000 1.4408
# 5 1.5389 5.1031 -1.5236 0.0000 27.6702 0.0000
# 6 0.0000 0.0000 0.0000 1.4408 0.0000 13.1670
#
#
#
# Elastic Compliance Matrix: (Units=1/GPa)
#
#
# Indices 1 2 3 4 5 6 
#
# 1 0.012036 -0.002353 -0.003200 0.000000 -0.000412 0.000000
# 2 -0.002353 0.015146 -0.005207 0.000000 -0.002949 0.000000
# 3 -0.003200 -0.005207 0.016325 0.000000 0.002037 0.000000
# 4 0.000000 0.000000 0.000000 0.057882 0.000000 -0.006334
# 5 -0.000412 -0.002949 0.002037 0.000000 0.036819 0.000000
# 6 0.000000 0.000000 0.000000 -0.006334 0.000000 0.076641
#
#
# Mechanical properties :
#
#
# Convention : Reuss Voigt Hill
#
# Bulk Modulus (GPa) = 45.48071 45.73519 45.60795
# Shear Modulus (GPa) = 20.51718 23.11798 21.81758
#
# Velocity S-wave (km/s) = 3.40239 3.61161 3.50856
# Velocity P-wave (km/s) = 6.41064 6.57240 6.49202
#
# Compressibility (1/GPa) = 0.02198734
#
# Stress axis : x y z
#
# Youngs Moduli (GPa) = 83.08249 66.02583 61.25399
#
# Poissons Ratio (x) = 0.15534 0.19602
# Poissons Ratio (y) = 0.19546 0.31896
# Poissons Ratio (z) = 0.26587 0.34381
#
# Static dielectric constant tensor:
#      x y z
#    x 3.314010 0.000000 -0.231520 
#    y 0.000000 3.035430 0.000000 
#    z -0.231520 0.000000 3.439210 
# 
# 
# High freq. dielectric constant tensor:
#      x y z
#    x 1.680440 0.000000 -0.025000 
#    y 0.000000 1.650400 0.000000 
#    z -0.025000 0.000000 1.690840 
# 
# From -- ./inp_files/51616.got.cif
#   From: 2010.06.25/outbox.cif.g09.slc.cpg/sg10_26_cif.got.tgz:51616.got - 2010.06.27 22:07:45.
