data_PCOD8061250
_publ_section_title
;
Structure prediction by ZEFSAII (Michael W. Deem and Ramdas Pophale) SiO2 
 PCOD8061250
Probable space group: P 2/M
;
_chemical_formula_sum "Si O2"
_cell_formula_units_Z 28
_cell_length_a 9.083345
_cell_length_b 8.971246
_cell_length_c 29.186914
_cell_angle_alpha 90.000000
_cell_angle_beta 141.132076
_cell_angle_gamma 90.000000
_cell_volume 1492.517252
_symmetry_space_group_name_H-M "P 2/M"
_symmetry_group_IT_number 10
_symmetry_cell_setting 'monoclinic'
loop_
_space_group_symop_operation_xyz
x,y,z
-x,y,-z
-x,-y,-z
x,-y,z
loop_
_atom_site_type_symbol
_atom_site_label
_atom_site_fract_x
_atom_site_fract_y
_atom_site_fract_z
Si Si1 0.340061 0.832301 0.006190
Si Si2 0.578385 0.676956 0.703390
Si Si3 0.776850 0.671297 0.570062
Si Si4 0.950000 0.174923 0.847641
Si Si5 0.101637 0.328621 0.301854
Si Si6 0.083906 0.825591 0.570962
Si Si7 0.716153 0.671288 0.142032
O O1 0.444801 0.725600 0.071824
O O2 0.343919 0.000000 0.026234
O O3 0.500000 0.817251 0.000000
O O4 0.072879 0.787911 0.926758
O O5 0.578916 0.500000 0.705815
O O6 0.706251 0.737609 0.780604
O O7 0.720162 0.738161 0.693150
O O8 0.316946 0.736001 0.639233
O O9 0.500000 0.682393 0.500000
O O10 0.861296 0.500000 0.584364
O O11 0.861852 0.742389 0.639240
O O12 0.881026 0.773851 0.555823
O O13 0.131405 0.223131 0.852839
O O14 0.903042 0.000000 0.831915
O O15 0.172543 0.500000 0.324053
O O16 0.828385 0.310205 0.220063
O O17 0.000000 0.784337 0.500000
O O18 0.132357 0.000000 0.588307
O O19 0.736924 0.500000 0.131047
#
# Coordination Sequence:
#
# PCOD8061250 Si02
#       7
#     4   4   4   4   4   4   4
#     4   8  14  23  35  56  90 130 167 203 247 296
#     4  10  19  33  54  77 101 132 171 209 248 298
#     4  10  20  36  58  79 100 130 168 208 249 295
#     4   9  16  26  40  62  96 132 164 204 253 298
#     4   8  16  30  48  74 103 129 164 211 256 295
#     4  11  24  39  54  76 106 135 164 202 248 297
#     4   9  15  23  38  62  94 130 168 209 249 293
#
# _framework density 18.760249999999999
#
# number of rings (size 3 to 8) (size 9 to 14) (size 15 to 20)
#    0.000    2.714    0.000    4.286    0.000    5.714 
#    0.000    4.286    0.000    0.000    0.000    1.000 
#    0.000    8.000    0.000    0.000    0.000    0.000 
#
# Total GULP energy -346943.551419 kJ/mol
# GULP energy per Si atom -12390.841122 kJ/mol
# Density = 1.871755 g / cm^3
# Si number density = 18.760250 Si / 1000 Ang^3
#
#
#
# Elastic Constant Matrix: (Units=GPa)
#
#
# Indices 1 2 3 4 5 6 
#
# 1 51.6205 22.3778 35.7438 0.0000 -1.4662 0.0000
# 2 22.3778 67.7060 57.3303 0.0000 4.6510 0.0000
# 3 35.7438 57.3303 161.9466 0.0000 2.2445 0.0000
# 4 0.0000 0.0000 0.0000 31.1891 0.0000 5.2734
# 5 -1.4662 4.6510 2.2445 0.0000 18.8876 0.0000
# 6 0.0000 0.0000 0.0000 5.2734 0.0000 14.6872
#
#
#
# Elastic Compliance Matrix: (Units=1/GPa)
#
#
# Indices 1 2 3 4 5 6 
#
# 1 0.024196 -0.005255 -0.003530 0.000000 0.003592 0.000000
# 2 -0.005255 0.022590 -0.006766 0.000000 -0.005167 0.000000
# 3 -0.003530 -0.006766 0.009345 0.000000 0.000282 0.000000
# 4 0.000000 0.000000 0.000000 0.034135 0.000000 -0.012256
# 5 0.003592 -0.005167 0.000282 0.000000 0.054463 0.000000
# 6 0.000000 0.000000 0.000000 -0.012256 0.000000 0.072487
#
#
# Mechanical properties :
#
#
# Convention : Reuss Voigt Hill
#
# Bulk Modulus (GPa) = 39.95088 56.90853 48.42970
# Shear Modulus (GPa) = 19.48093 24.00753 21.74423
#
# Velocity S-wave (km/s) = 3.22594 3.58117 3.40819
# Velocity P-wave (km/s) = 5.93442 6.89204 6.43108
#
# Compressibility (1/GPa) = 0.02503074
#
# Stress axis : x y z
#
# Youngs Moduli (GPa) = 41.32833 44.26656 107.00693
#
# Poissons Ratio (x) = 0.23262 0.37773
# Poissons Ratio (y) = 0.21718 0.72398
# Poissons Ratio (z) = 0.14589 0.29949
#
# Static dielectric constant tensor:
#      x y z
#    x 2.951950 0.000000 -0.084700 
#    y 0.000000 3.400860 0.000000 
#    z -0.084700 0.000000 4.254890 
# 
# 
# High freq. dielectric constant tensor:
#      x y z
#    x 1.662330 0.000000 0.000440 
#    y 0.000000 1.720090 0.000000 
#    z 0.000440 0.000000 1.760570 
# 
# From -- ./inp_files/86451.got.cif
#   From: 2010.06.25/outbox.cif.g09.slc.cpg/sg10_44_cif.got.tgz:86451.got - 2010.06.27 22:07:45.
