data_PCOD8061370
_publ_section_title
;
Structure prediction by ZEFSAII (Michael W. Deem and Ramdas Pophale) SiO2 
 PCOD8061370
Probable space group: P 2/M
;
_chemical_formula_sum "Si O2"
_cell_formula_units_Z 32
_cell_length_a 13.451558
_cell_length_b 9.125050
_cell_length_c 26.191085
_cell_angle_alpha 90.000000
_cell_angle_beta 32.571723
_cell_angle_gamma 90.000000
_cell_volume 1730.732860
_symmetry_space_group_name_H-M "P 2/M"
_symmetry_group_IT_number 10
_symmetry_cell_setting 'monoclinic'
loop_
_space_group_symop_operation_xyz
x,y,z
-x,y,-z
-x,-y,-z
x,-y,z
loop_
_atom_site_type_symbol
_atom_site_label
_atom_site_fract_x
_atom_site_fract_y
_atom_site_fract_z
Si Si1 0.519727 0.171597 0.916407
Si Si2 0.070344 0.325429 0.914214
Si Si3 0.834273 0.826614 0.534406
Si Si4 0.481839 0.664687 0.727452
Si Si5 0.024477 0.333750 0.620276
Si Si6 0.112586 0.331091 0.214435
Si Si7 0.154571 0.330414 0.086139
Si Si8 0.396539 0.340707 0.212554
O O1 0.702636 0.236949 0.862003
O O2 0.515039 0.210792 0.858562
O O3 0.516453 0.000000 0.927203
O O4 0.338831 0.241342 0.019676
O O5 0.070299 0.500000 0.916764
O O6 0.275315 0.271917 0.809317
O O7 0.943250 0.267874 0.922420
O O8 0.000000 0.263843 0.000000
O O9 0.634833 0.771102 0.638306
O O10 0.000000 0.768975 0.500000
O O11 0.853563 0.771584 0.467772
O O12 0.832785 0.000000 0.535251
O O13 0.504709 0.500000 0.694664
O O14 0.499230 0.659855 0.780087
O O15 0.096980 0.500000 0.582859
O O16 0.029044 0.284532 0.678515
O O17 0.819940 0.315807 0.686288
O O18 0.165224 0.500000 0.202385
O O19 0.031089 0.312414 0.192008
O O20 0.203239 0.500000 0.056320
O O21 0.429333 0.500000 0.171859
#
# Coordination Sequence:
#
# PCOD8061370 Si02
#       8
#     4   4   4   4   4   4   4   4
#     4  11  21  30  46  74 106 137 173 215 260 311
#     4   9  18  33  56  83 106 133 175 221 260 303
#     4  11  22  33  49  77 112 142 169 208 263 320
#     4  10  19  33  55  79 104 138 179 218 258 308
#     4   9  17  31  50  73  99 131 171 209 254 312
#     4   9  19  34  52  74 100 135 174 215 264 313
#     4  10  19  34  54  73 100 135 174 219 264 310
#     4   9  17  30  49  72 101 137 172 209 256 309
#
# _framework density 18.489277000000001
#
# number of rings (size 3 to 8) (size 9 to 14) (size 15 to 20)
#    0.000    2.250    1.250    3.375    0.000    7.000 
#    0.000    0.625    0.000    2.250    0.000    5.250 
#    0.000    0.000    0.000    0.000    0.000    0.000 
#
# Total GULP energy -396472.425126 kJ/mol
# GULP energy per Si atom -12389.763285 kJ/mol
# Density = 1.844719 g / cm^3
# Si number density = 18.489277 Si / 1000 Ang^3
#
#
#
# Elastic Constant Matrix: (Units=GPa)
#
#
# Indices 1 2 3 4 5 6 
#
# 1 74.7492 24.2683 48.9762 0.0000 25.2692 0.0000
# 2 24.2683 66.0854 38.7707 0.0000 6.2005 0.0000
# 3 48.9762 38.7707 112.0111 0.0000 14.3430 0.0000
# 4 0.0000 0.0000 0.0000 5.1050 0.0000 -6.7080
# 5 25.2692 6.2005 14.3430 0.0000 27.5655 0.0000
# 6 0.0000 0.0000 0.0000 -6.7080 0.0000 3.4417
#
#
#
# Elastic Compliance Matrix: (Units=1/GPa)
#
#
# Indices 1 2 3 4 5 6 
#
# 1 0.025955 -0.003159 -0.007821 0.000000 -0.019013 0.000000
# 2 -0.003159 0.019394 -0.005511 0.000000 0.001401 0.000000
# 3 -0.007821 -0.005511 0.014119 0.000000 0.001062 0.000000
# 4 0.000000 0.000000 0.000000 -0.125488 0.000000 -0.244577
# 5 -0.019013 0.001401 0.001062 0.000000 0.052839 0.000000
# 6 0.000000 0.000000 0.000000 -0.244577 0.000000 -0.186130
#
#
# Mechanical properties :
#
#
# Convention : Reuss Voigt Hill
#
# Bulk Modulus (GPa) = 37.75566 52.98625 45.37096
# Shear Modulus (GPa) = -31.74585 16.61113 -7.56736
#
# Velocity S-wave (km/s) = -4.14815 3.00062 -2.02527
# Velocity P-wave (km/s) = 1.57424 6.38161 4.37303
#
# Compressibility (1/GPa) = 0.02648610
#
# Stress axis : x y z
#
# Youngs Moduli (GPa) = 38.52757 51.56304 70.82830
#
# Poissons Ratio (x) = 0.16291 0.55392
# Poissons Ratio (y) = 0.12172 0.39032
# Poissons Ratio (z) = 0.30131 0.28415
#
# Static dielectric constant tensor:
#      x y z
#    x 3.423690 0.000000 0.256710 
#    y 0.000000 3.181310 0.000000 
#    z 0.256710 0.000000 3.438030 
# 
# 
# High freq. dielectric constant tensor:
#      x y z
#    x 1.702410 0.000000 0.026680 
#    y 0.000000 1.689680 0.000000 
#    z 0.026680 0.000000 1.711270 
# 
# From -- ./inp_files/93117.got.cif
#   From: 2010.06.25/outbox.cif.g09.slc.cpg/sg10_47_cif.got.tgz:93117.got - 2010.06.27 22:07:45.
