data_PCOD8061167
_publ_section_title
;
Structure prediction by ZEFSAII (Michael W. Deem and Ramdas Pophale) SiO2 
 PCOD8061167
Probable space group: P 2/M
;
_chemical_formula_sum "Si O2"
_cell_formula_units_Z 28
_cell_length_a 23.152969
_cell_length_b 8.904039
_cell_length_c 18.462853
_cell_angle_alpha 90.000000
_cell_angle_beta 24.251616
_cell_angle_gamma 90.000000
_cell_volume 1563.379398
_symmetry_space_group_name_H-M "P 2/M"
_symmetry_group_IT_number 10
_symmetry_cell_setting 'monoclinic'
loop_
_space_group_symop_operation_xyz
x,y,z
-x,y,-z
-x,-y,-z
x,-y,z
loop_
_atom_site_type_symbol
_atom_site_label
_atom_site_fract_x
_atom_site_fract_y
_atom_site_fract_z
Si Si1 0.991453 0.678828 0.738266
Si Si2 0.722749 0.823632 0.554313
Si Si3 0.579672 0.174223 0.568272
Si Si4 0.264685 0.176020 0.887796
Si Si5 0.933882 0.674925 0.503967
Si Si6 0.370630 0.324810 0.195786
Si Si7 0.338402 0.668647 0.663132
O O1 0.999002 0.500000 0.733821
O O2 0.126723 0.743344 0.625500
O O3 0.996838 0.738063 0.648999
O O4 0.848680 0.737110 0.935424
O O5 0.630873 0.782159 0.589362
O O6 0.634158 0.766100 0.724134
O O7 0.748180 0.000000 0.532386
O O8 0.415902 0.217939 0.748537
O O9 0.676127 0.263068 0.400467
O O10 0.600262 0.000000 0.527265
O O11 0.252276 0.231530 0.819049
O O12 0.233795 0.000000 0.925580
O O13 0.967596 0.500000 0.468289
O O14 0.767827 0.706352 0.693384
O O15 0.000000 0.753438 0.500000
O O16 0.385252 0.500000 0.198666
O O17 0.500000 0.266513 0.000000
O O18 0.500000 0.671084 0.500000
O O19 0.277438 0.500000 0.733208
#
# Coordination Sequence:
#
# PCOD8061167 Si02
#       7
#     4   4   4   4   4   4   4
#     4  10  20  34  52  75 103 133 168 209 252 299
#     4  10  20  35  53  73 102 138 171 204 248 301
#     4   9  19  34  52  75 102 134 170 206 248 299
#     4  10  19  33  53  75 102 134 167 205 250 300
#     4   8  15  29  48  69  94 125 160 200 246 292
#     4   9  18  32  50  72  98 129 166 207 250 295
#     4   9  17  30  50  76 103 130 164 207 252 295
#
# _framework density 17.909921000000001
#
# number of rings (size 3 to 8) (size 9 to 14) (size 15 to 20)
#    0.000    2.714    0.000    2.571    0.000    4.857 
#    0.000    2.143    0.000   15.000    0.000    0.000 
#    0.000    0.000    0.000    0.000    0.000    0.000 
#
# Total GULP energy -347181.468778 kJ/mol
# GULP energy per Si atom -12399.338171 kJ/mol
# Density = 1.786916 g / cm^3
# Si number density = 17.909921 Si / 1000 Ang^3
#
#
#
# Elastic Constant Matrix: (Units=GPa)
#
#
# Indices 1 2 3 4 5 6 
#
# 1 116.4660 47.1889 60.6091 0.0000 12.6392 0.0000
# 2 47.1889 73.8051 41.8080 0.0000 5.3688 0.0000
# 3 60.6091 41.8080 119.6412 0.0000 8.7303 0.0000
# 4 0.0000 0.0000 0.0000 29.4816 0.0000 3.5971
# 5 12.6392 5.3688 8.7303 0.0000 16.3398 0.0000
# 6 0.0000 0.0000 0.0000 3.5971 0.0000 23.7480
#
#
#
# Elastic Compliance Matrix: (Units=1/GPa)
#
#
# Indices 1 2 3 4 5 6 
#
# 1 0.014081 -0.005933 -0.004587 0.000000 -0.006492 0.000000
# 2 -0.005933 0.019491 -0.003822 0.000000 0.000227 0.000000
# 3 -0.004587 -0.003822 0.012140 0.000000 -0.001683 0.000000
# 4 0.000000 0.000000 0.000000 0.034558 0.000000 -0.005235
# 5 -0.006492 0.000227 -0.001683 0.000000 0.067047 0.000000
# 6 0.000000 0.000000 0.000000 -0.005235 0.000000 0.042902
#
#
# Mechanical properties :
#
#
# Convention : Reuss Voigt Hill
#
# Bulk Modulus (GPa) = 58.72091 67.68049 63.20070
# Shear Modulus (GPa) = 22.26387 24.60096 23.43242
#
# Velocity S-wave (km/s) = 3.52959 3.71022 3.62103
# Velocity P-wave (km/s) = 7.03340 7.49838 7.26961
#
# Compressibility (1/GPa) = 0.01702971
#
# Stress axis : x y z
#
# Youngs Moduli (GPa) = 71.01524 51.30551 82.37063
#
# Poissons Ratio (x) = 0.30439 0.37780
# Poissons Ratio (y) = 0.42133 0.31483
# Poissons Ratio (z) = 0.32572 0.19609
#
# Static dielectric constant tensor:
#      x y z
#    x 3.422970 0.000000 0.164430 
#    y 0.000000 3.266270 0.000000 
#    z 0.164430 0.000000 3.339340 
# 
# 
# High freq. dielectric constant tensor:
#      x y z
#    x 1.687220 0.000000 0.012830 
#    y 0.000000 1.687520 0.000000 
#    z 0.012830 0.000000 1.691460 
# 
# From -- ./inp_files/37900.got.cif
#   From: 2010.06.25/outbox.cif.g09.slc.cpg/sg10_19_cif.got.tgz:37900.got - 2010.06.27 22:07:45.
