data_PCOD8061292
_publ_section_title
;
Structure prediction by ZEFSAII (Michael W. Deem and Ramdas Pophale) SiO2 
 PCOD8061292
Probable space group: P 2/M
;
_chemical_formula_sum "Si O2"
_cell_formula_units_Z 20
_cell_length_a 9.217883
_cell_length_b 8.407999
_cell_length_c 22.530859
_cell_angle_alpha 90.000000
_cell_angle_beta 34.803959
_cell_angle_gamma 90.000000
_cell_volume 996.696569
_symmetry_space_group_name_H-M "P 2/M"
_symmetry_group_IT_number 10
_symmetry_cell_setting 'monoclinic'
loop_
_space_group_symop_operation_xyz
x,y,z
-x,y,-z
-x,-y,-z
x,-y,z
loop_
_atom_site_type_symbol
_atom_site_label
_atom_site_fract_x
_atom_site_fract_y
_atom_site_fract_z
Si Si1 0.824687 0.689417 0.005834
Si Si2 0.047499 0.688967 0.808252
Si Si3 0.379448 0.314120 0.389418
Si Si4 0.068209 0.184102 0.389770
Si Si5 0.248121 0.688712 0.208340
O O1 0.831498 0.500000 0.002305
O O2 0.928569 0.758738 0.908794
O O3 0.538051 0.749004 0.112284
O O4 0.000000 0.755936 0.000000
O O5 0.048952 0.500000 0.811454
O O6 0.334173 0.751988 0.704230
O O7 0.877122 0.747800 0.810771
O O8 0.367766 0.500000 0.407978
O O9 0.267847 0.285753 0.361224
O O10 0.218093 0.221057 0.493057
O O11 0.092337 0.230255 0.313312
O O12 0.127307 0.000000 0.379935
O O13 0.229992 0.500000 0.221060
#
# Coordination Sequence:
#
# PCOD8061292 Si02
#       5
#     4   4   4   4   4
#     4   9  16  28  51  82 110 135 169 215 263 308
#     4   9  18  31  52  83 110 134 170 219 267 310
#     4  10  19  35  58  80 103 134 177 221 263 310
#     4  11  22  36  53  76 107 140 178 218 261 310
#     4  10  19  33  54  79 109 141 174 213 259 311
#
# _framework density 20.066289000000001
#
# number of rings (size 3 to 8) (size 9 to 14) (size 15 to 20)
#    0.000    2.200    0.000    5.400    0.000    6.400 
#    0.000    6.000    0.000    9.000    0.000    0.000 
#    0.000    0.000    0.000    0.000    0.000    0.000 
#
# Total GULP energy -248052.522199 kJ/mol
# GULP energy per Si atom -12402.626110 kJ/mol
# Density = 2.002062 g / cm^3
# Si number density = 20.066289 Si / 1000 Ang^3
#
#
#
# Elastic Constant Matrix: (Units=GPa)
#
#
# Indices 1 2 3 4 5 6 
#
# 1 143.5584 9.5555 91.0820 0.0000 10.6436 0.0000
# 2 9.5555 33.9901 17.2710 0.0000 0.9218 0.0000
# 3 91.0820 17.2710 152.7662 0.0000 14.5306 0.0000
# 4 0.0000 0.0000 0.0000 -0.6715 0.0000 1.9911
# 5 10.6436 0.9218 14.5306 0.0000 38.9497 0.0000
# 6 0.0000 0.0000 0.0000 1.9911 0.0000 4.5242
#
#
#
# Elastic Compliance Matrix: (Units=1/GPa)
#
#
# Indices 1 2 3 4 5 6 
#
# 1 0.011219 0.000247 -0.006661 0.000000 -0.000587 0.000000
# 2 0.000247 0.031232 -0.003734 0.000000 0.000586 0.000000
# 3 -0.006661 -0.003734 0.011154 0.000000 -0.002252 0.000000
# 4 0.000000 0.000000 0.000000 -0.646079 0.000000 0.284342
# 5 -0.000587 0.000586 -0.002252 0.000000 0.026661 0.000000
# 6 0.000000 0.000000 0.000000 0.284342 0.000000 0.095891
#
#
# Mechanical properties :
#
#
# Convention : Reuss Voigt Hill
#
# Bulk Modulus (GPa) = 30.02225 62.90352 46.46289
# Shear Modulus (GPa) = -11.40192 22.72090 5.65949
#
# Velocity S-wave (km/s) = -2.38631 3.36861 1.68123
# Velocity P-wave (km/s) = 2.72055 6.82246 5.19362
#
# Compressibility (1/GPa) = 0.03330863
#
# Stress axis : x y z
#
# Youngs Moduli (GPa) = 89.13388 32.01810 89.65571
#
# Poissons Ratio (x) = -0.00790 0.59721
# Poissons Ratio (y) = -0.02198 0.33475
# Poissons Ratio (z) = 0.59373 0.11955
#
# Static dielectric constant tensor:
#      x y z
#    x 3.733060 0.000000 -0.036240 
#    y 0.000000 3.126620 0.000000 
#    z -0.036240 0.000000 3.836730 
# 
# 
# High freq. dielectric constant tensor:
#      x y z
#    x 1.785850 0.000000 0.000470 
#    y 0.000000 1.738540 0.000000 
#    z 0.000470 0.000000 1.799480 
# 
# From -- ./inp_files/22123.got.cif
#   From: 2010.06.25/outbox.cif.g09.slc.cpg/sg10_12_cif.got.tgz:22123.got - 2010.06.27 22:07:45.
