data_PCOD8061787
_publ_section_title
;
Structure prediction by ZEFSAII (Michael W. Deem and Ramdas Pophale) SiO2 
 PCOD8061787
Probable space group: P 2/M
;
_chemical_formula_sum "Si O2"
_cell_formula_units_Z 28
_cell_length_a 16.989564
_cell_length_b 7.773504
_cell_length_c 20.284292
_cell_angle_alpha 90.000000
_cell_angle_beta 144.977323
_cell_angle_gamma 90.000000
_cell_volume 1537.430861
_symmetry_space_group_name_H-M "P 2/M"
_symmetry_group_IT_number 10
_symmetry_cell_setting 'monoclinic'
loop_
_space_group_symop_operation_xyz
x,y,z
-x,y,-z
-x,-y,-z
x,-y,z
loop_
_atom_site_type_symbol
_atom_site_label
_atom_site_fract_x
_atom_site_fract_y
_atom_site_fract_z
Si Si1 0.331879 0.808971 0.642256
Si Si2 0.604393 0.695865 0.767902
Si Si3 0.094617 0.698097 0.007446
Si Si4 0.221364 0.500000 0.640573
Si Si5 0.962703 0.500000 0.368910
Si Si6 0.898946 0.797675 0.763135
Si Si7 0.383759 0.796734 0.369454
Si Si8 0.083861 0.199271 0.376489
O O1 0.487437 0.804382 0.723855
O O2 0.308500 0.671281 0.684326
O O3 0.231323 0.771219 0.511645
O O4 0.302800 0.000000 0.650693
O O5 0.591688 0.500000 0.783752
O O6 0.582816 0.701382 0.675038
O O7 0.752726 0.779527 0.887726
O O8 0.114393 0.500000 0.039566
O O9 0.028602 0.718953 0.890254
O O10 0.000000 0.784791 0.000000
O O11 0.181490 0.500000 0.690591
O O12 0.085073 0.500000 0.504431
O O13 0.970922 0.325303 0.331398
O O14 0.760532 0.727802 0.701506
O O15 0.902280 0.742042 0.689504
O O16 0.905627 0.000000 0.774040
O O17 0.500000 0.741792 0.500000
O O18 0.382244 0.000000 0.356509
O O19 0.036152 0.000000 0.350591
#
# Coordination Sequence:
#
# PCOD8061787 Si02
#       8
#     4   4   4   2   2   4   4   4
#     4  10  19  34  55  77 111 145 170 217 265 307
#     4  11  21  34  50  72 102 135 181 227 260 311
#     4  10  21  36  50  68  98 136 179 229 270 305
#     4   9  18  34  52  84 113 134 182 202 249 333
#     4   9  18  32  56  80 111 148 162 210 261 313
#     4  10  20  33  50  72 101 136 180 224 258 310
#     4  10  20  33  48  69  99 137 178 217 263 313
#     4   9  19  34  52  81 111 139 177 214 259 316
#
# _framework density 18.212202000000001
#
# number of rings (size 3 to 8) (size 9 to 14) (size 15 to 20)
#    0.000    2.143    2.143    1.286    1.000    4.571 
#    0.000    2.857    0.000    0.000    0.000    2.000 
#    0.000    3.429    0.000    0.000    0.000    0.000 
#
# Total GULP energy -347198.064429 kJ/mol
# GULP energy per Si atom -12399.930872 kJ/mol
# Density = 1.817075 g / cm^3
# Si number density = 18.212202 Si / 1000 Ang^3
#
#
#
# Elastic Constant Matrix: (Units=GPa)
#
#
# Indices 1 2 3 4 5 6 
#
# 1 129.5789 47.8633 35.1437 0.0000 12.7093 0.0000
# 2 47.8633 73.4831 16.6660 0.0000 3.4897 0.0000
# 3 35.1437 16.6660 86.3173 0.0000 16.5744 0.0000
# 4 0.0000 0.0000 0.0000 19.0672 0.0000 -4.6369
# 5 12.7093 3.4897 16.5744 0.0000 12.4231 0.0000
# 6 0.0000 0.0000 0.0000 -4.6369 0.0000 18.7732
#
#
#
# Elastic Compliance Matrix: (Units=1/GPa)
#
#
# Indices 1 2 3 4 5 6 
#
# 1 0.011412 -0.006642 -0.001990 0.000000 -0.007154 0.000000
# 2 -0.006642 0.018100 -0.001504 0.000000 0.003718 0.000000
# 3 -0.001990 -0.001504 0.016420 0.000000 -0.019449 0.000000
# 4 0.000000 0.000000 0.000000 0.055798 0.000000 0.013782
# 5 -0.007154 0.003718 -0.019449 0.000000 0.112717 0.000000
# 6 0.000000 0.000000 0.000000 0.013782 0.000000 0.056671
#
#
# Mechanical properties :
#
#
# Convention : Reuss Voigt Hill
#
# Bulk Modulus (GPa) = 38.97284 54.30280 46.63782
# Shear Modulus (GPa) = 16.66975 22.69981 19.68478
#
# Velocity S-wave (km/s) = 3.02869 3.53428 3.29120
# Velocity P-wave (km/s) = 5.80313 6.82175 6.33295
#
# Compressibility (1/GPa) = 0.02565889
#
# Stress axis : x y z
#
# Youngs Moduli (GPa) = 87.62506 55.24985 60.89973
#
# Poissons Ratio (x) = 0.36698 0.12121
# Poissons Ratio (y) = 0.58203 0.09160
# Poissons Ratio (z) = 0.17440 0.08310
#
# Static dielectric constant tensor:
#      x y z
#    x 3.402200 0.000000 0.074750 
#    y 0.000000 3.350510 0.000000 
#    z 0.074750 0.000000 3.251820 
# 
# 
# High freq. dielectric constant tensor:
#      x y z
#    x 1.688240 0.000000 0.005510 
#    y 0.000000 1.710140 0.000000 
#    z 0.005510 0.000000 1.682330 
# 
# From -- ./inp_files/77763.got.cif
#   From: 2010.06.25/outbox.cif.g09.slc.cpg/sg10_39_cif.got.tgz:77763.got - 2010.06.27 22:07:45.
