data_PCOD8061101
_publ_section_title
;
Structure prediction by ZEFSAII (Michael W. Deem and Ramdas Pophale) SiO2 
 PCOD8061101
Probable space group: P 2/M
;
_chemical_formula_sum "Si O2"
_cell_formula_units_Z 32
_cell_length_a 27.759395
_cell_length_b 9.223252
_cell_length_c 21.536452
_cell_angle_alpha 90.000000
_cell_angle_beta 18.758923
_cell_angle_gamma 90.000000
_cell_volume 1773.236335
_symmetry_space_group_name_H-M "P 2/M"
_symmetry_group_IT_number 10
_symmetry_cell_setting 'monoclinic'
loop_
_space_group_symop_operation_xyz
x,y,z
-x,y,-z
-x,-y,-z
x,-y,z
loop_
_atom_site_type_symbol
_atom_site_label
_atom_site_fract_x
_atom_site_fract_y
_atom_site_fract_z
Si Si1 0.114896 0.828577 0.537134
Si Si2 0.726809 0.827498 0.194311
Si Si3 0.656907 0.172012 0.536694
Si Si4 0.417318 0.338756 0.165147
Si Si5 0.430982 0.827494 0.490127
Si Si6 0.419230 0.828670 0.928793
Si Si7 0.920552 0.828404 0.658855
Si Si8 0.955831 0.172080 0.237821
O O1 0.267704 0.749385 0.336862
O O2 0.052766 0.780849 0.679986
O O3 0.001621 0.775121 0.622304
O O4 0.143060 0.000000 0.500350
O O5 0.599678 0.773747 0.300662
O O6 0.683010 0.775026 0.316994
O O7 0.732863 0.000000 0.184777
O O8 0.889518 0.762531 0.978403
O O9 0.625295 0.237548 0.506791
O O10 0.518197 0.218707 0.749030
O O11 0.812844 0.234696 0.374303
O O12 0.668387 0.000000 0.519294
O O13 0.383208 0.500000 0.232953
O O14 0.522846 0.251450 0.081929
O O15 0.500000 0.351647 0.000000
O O16 0.431900 0.000000 0.485715
O O17 0.430462 0.000000 0.926423
O O18 0.249666 0.775459 0.126494
O O19 0.000000 0.762800 0.500000
O O20 0.926509 0.000000 0.647247
O O21 0.956122 0.000000 0.231858
#
# Coordination Sequence:
#
# PCOD8061101 Si02
#       8
#     4   4   4   4   4   4   4   4
#     4  10  19  33  52  75 101 129 164 207 250 296
#     4   8  14  23  35  55  88 129 163 190 230 286
#     4   9  16  25  39  62  90 122 160 196 235 284
#     4  11  23  37  53  73  98 131 168 204 247 299
#     4   8  14  23  35  55  88 129 163 190 230 286
#     4  10  19  33  52  75 101 129 164 207 250 296
#     4   9  18  30  47  73  98 122 158 203 251 297
#     4   9  16  25  39  62  90 122 160 196 235 284
#
# _framework density 18.046099000000002
#
# number of rings (size 3 to 8) (size 9 to 14) (size 15 to 20)
#    0.000    2.750    1.250    1.875    1.750    2.500 
#    0.000    3.125    0.000    2.250    0.000    0.000 
#    0.000    2.000    0.000    2.750    0.000    2.500 
#
# Total GULP energy -396654.285538 kJ/mol
# GULP energy per Si atom -12395.446423 kJ/mol
# Density = 1.800503 g / cm^3
# Si number density = 18.046099 Si / 1000 Ang^3
#
#
#
# Elastic Constant Matrix: (Units=GPa)
#
#
# Indices 1 2 3 4 5 6 
#
# 1 176.2123 18.7897 99.5119 0.0000 -11.4741 0.0000
# 2 18.7897 20.5499 17.7365 0.0000 -3.7218 0.0000
# 3 99.5119 17.7365 171.2111 0.0000 -11.5923 0.0000
# 4 0.0000 0.0000 0.0000 1.1984 0.0000 3.6008
# 5 -11.4741 -3.7218 -11.5923 0.0000 32.7790 0.0000
# 6 0.0000 0.0000 0.0000 3.6008 0.0000 0.4297
#
#
#
# Elastic Compliance Matrix: (Units=1/GPa)
#
#
# Indices 1 2 3 4 5 6 
#
# 1 0.008763 -0.003837 -0.004628 0.000000 0.000995 0.000000
# 2 -0.003837 0.055694 -0.003281 0.000000 0.003820 0.000000
# 3 -0.004628 -0.003281 0.008950 0.000000 0.001173 0.000000
# 4 0.000000 0.000000 0.000000 -0.034513 0.000000 0.289199
# 5 0.000995 0.003820 0.001173 0.000000 0.031704 0.000000
# 6 0.000000 0.000000 0.000000 0.289199 0.000000 -0.096245
#
#
# Mechanical properties :
#
#
# Convention : Reuss Voigt Hill
#
# Bulk Modulus (GPa) = 20.03424 71.11661 45.57543
# Shear Modulus (GPa) = 345.22739 22.34376 183.78558
#
# Velocity S-wave (km/s) = 13.84624 3.52255 10.10264
# Velocity P-wave (km/s) = 16.33249 7.48588 12.70411
#
# Compressibility (1/GPa) = 0.04991455
#
# Stress axis : x y z
#
# Youngs Moduli (GPa) = 114.12187 17.95522 111.73235
#
# Poissons Ratio (x) = 0.06890 0.51711
# Poissons Ratio (y) = 0.43792 0.36655
# Poissons Ratio (z) = 0.52817 0.05890
#
# Static dielectric constant tensor:
#      x y z
#    x 3.787230 0.000000 -0.169460 
#    y 0.000000 2.707560 0.000000 
#    z -0.169460 0.000000 3.741570 
# 
# 
# High freq. dielectric constant tensor:
#      x y z
#    x 1.713300 0.000000 -0.001890 
#    y 0.000000 1.621100 0.000000 
#    z -0.001890 0.000000 1.712900 
# 
# From -- ./inp_files/86779.got.cif
#   From: 2010.06.25/outbox.cif.g09.slc.cpg/sg10_44_cif.got.tgz:86779.got - 2010.06.27 22:07:45.
