data_PCOD8061129
_publ_section_title
;
Structure prediction by ZEFSAII (Michael W. Deem and Ramdas Pophale) SiO2 
 PCOD8061129
Probable space group: P 2/M
;
_chemical_formula_sum "Si O2"
_cell_formula_units_Z 32
_cell_length_a 20.326077
_cell_length_b 9.304160
_cell_length_c 24.960164
_cell_angle_alpha 90.000000
_cell_angle_beta 22.429882
_cell_angle_gamma 90.000000
_cell_volume 1801.077861
_symmetry_space_group_name_H-M "P 2/M"
_symmetry_group_IT_number 10
_symmetry_cell_setting 'monoclinic'
loop_
_space_group_symop_operation_xyz
x,y,z
-x,y,-z
-x,-y,-z
x,-y,z
loop_
_atom_site_type_symbol
_atom_site_label
_atom_site_fract_x
_atom_site_fract_y
_atom_site_fract_z
Si Si1 0.682162 0.833861 0.118842
Si Si2 0.166787 0.667481 0.408249
Si Si3 0.121424 0.665733 0.565315
Si Si4 0.985481 0.334878 0.850169
Si Si5 0.190595 0.663164 0.128779
Si Si6 0.506944 0.169218 0.140322
Si Si7 0.626828 0.332562 0.453051
Si Si8 0.591119 0.169205 0.587237
O O1 0.565642 0.786317 0.155969
O O2 0.579273 0.796561 0.250042
O O3 0.727334 0.000000 0.080162
O O4 0.863611 0.750983 0.982933
O O5 0.211241 0.500000 0.368860
O O6 0.132669 0.710354 0.495221
O O7 0.323915 0.758799 0.266321
O O8 0.000000 0.710194 0.500000
O O9 0.175716 0.500000 0.533955
O O10 0.243049 0.766374 0.508596
O O11 0.923684 0.689785 0.732355
O O12 0.965668 0.500000 0.880765
O O13 0.182254 0.283393 0.708535
O O14 0.931500 0.303918 0.829890
O O15 0.259855 0.500000 0.074308
O O16 0.353851 0.769419 0.006715
O O17 0.490835 0.000000 0.144594
O O18 0.500000 0.299890 0.500000
O O19 0.627605 0.500000 0.468910
O O20 0.561280 0.240312 0.552316
O O21 0.620837 0.000000 0.558577
#
# Coordination Sequence:
#
# PCOD8061129 Si02
#       8
#     4   4   4   4   4   4   4   4
#     4   9  19  33  50  77 108 137 173 219 265 312
#     4  10  21  36  55  80 109 143 181 220 268 323
#     4  10  19  34  56  80 107 138 178 224 268 312
#     4   9  17  31  52  78 103 134 176 217 261 312
#     4   9  17  31  52  78 104 132 174 223 265 311
#     4  10  19  33  52  77 108 141 176 216 267 319
#     4  10  21  38  57  79 110 144 179 220 266 319
#     4  11  21  34  54  81 110 137 177 223 265 316
#
# _framework density 17.767140000000001
#
# number of rings (size 3 to 8) (size 9 to 14) (size 15 to 20)
#    0.000    2.250    2.500    0.750    0.000    3.000 
#    0.000    1.250    0.000    7.500    0.000    0.000 
#    0.000    0.000    0.000    0.000    0.000    0.000 
#
# Total GULP energy -396891.722144 kJ/mol
# GULP energy per Si atom -12402.866317 kJ/mol
# Density = 1.772670 g / cm^3
# Si number density = 17.767140 Si / 1000 Ang^3
#
#
#
# Elastic Constant Matrix: (Units=GPa)
#
#
# Indices 1 2 3 4 5 6 
#
# 1 48.3903 19.3180 27.0565 0.0000 -1.6845 0.0000
# 2 19.3180 57.3172 45.6528 0.0000 0.0207 0.0000
# 3 27.0565 45.6528 121.6753 0.0000 -3.8355 0.0000
# 4 0.0000 0.0000 0.0000 24.8016 0.0000 5.9549
# 5 -1.6845 0.0207 -3.8355 0.0000 24.1135 0.0000
# 6 0.0000 0.0000 0.0000 5.9549 0.0000 16.4122
#
#
#
# Elastic Compliance Matrix: (Units=1/GPa)
#
#
# Indices 1 2 3 4 5 6 
#
# 1 0.024859 -0.005714 -0.003346 0.000000 0.001209 0.000000
# 2 -0.005714 0.026251 -0.008636 0.000000 -0.001795 0.000000
# 3 -0.003346 -0.008636 0.012257 0.000000 0.001723 0.000000
# 4 0.000000 0.000000 0.000000 0.044168 0.000000 -0.016025
# 5 0.001209 -0.001795 0.001723 0.000000 0.041831 0.000000
# 6 0.000000 0.000000 0.000000 -0.016025 0.000000 0.066745
#
#
# Mechanical properties :
#
#
# Convention : Reuss Voigt Hill
#
# Bulk Modulus (GPa) = 35.74378 45.71526 40.72952
# Shear Modulus (GPa) = 19.16977 22.08916 20.62947
#
# Velocity S-wave (km/s) = 3.28829 3.52981 3.41119
# Velocity P-wave (km/s) = 5.88037 6.51144 6.20393
#
# Compressibility (1/GPa) = 0.02797690
#
# Stress axis : x y z
#
# Youngs Moduli (GPa) = 40.22644 38.09313 81.58590
#
# Poissons Ratio (x) = 0.21766 0.27297
# Poissons Ratio (y) = 0.22985 0.70454
# Poissons Ratio (z) = 0.13459 0.32896
#
# Static dielectric constant tensor:
#      x y z
#    x 3.100630 0.000000 0.109640 
#    y 0.000000 3.274280 0.000000 
#    z 0.109640 0.000000 3.401090 
# 
# 
# High freq. dielectric constant tensor:
#      x y z
#    x 1.658360 0.000000 0.008670 
#    y 0.000000 1.686310 0.000000 
#    z 0.008670 0.000000 1.698840 
# 
# From -- ./inp_files/86164.got.cif
#   From: 2010.06.25/outbox.cif.g09.slc.cpg/sg10_44_cif.got.tgz:86164.got - 2010.06.27 22:07:45.
