data_PCOD8061801
_publ_section_title
;
Structure prediction by ZEFSAII (Michael W. Deem and Ramdas Pophale) SiO2 
 PCOD8061801
Probable space group: P 2/M
;
_chemical_formula_sum "Si O2"
_cell_formula_units_Z 22
_cell_length_a 10.960370
_cell_length_b 12.653508
_cell_length_c 11.508283
_cell_angle_alpha 90.000000
_cell_angle_beta 129.964793
_cell_angle_gamma 90.000000
_cell_volume 1223.275972
_symmetry_space_group_name_H-M "P 2/M"
_symmetry_group_IT_number 10
_symmetry_cell_setting 'monoclinic'
loop_
_space_group_symop_operation_xyz
x,y,z
-x,y,-z
-x,-y,-z
x,-y,z
loop_
_atom_site_type_symbol
_atom_site_label
_atom_site_fract_x
_atom_site_fract_y
_atom_site_fract_z
Si Si1 0.169565 0.336114 0.899431
Si Si2 0.290571 0.883793 0.989279
Si Si3 0.897759 0.500000 0.771103
Si Si4 0.330676 0.500000 0.581035
Si Si5 0.355855 0.114784 0.757906
Si Si6 0.682053 0.500000 0.855267
Si Si7 0.183755 0.681337 0.638671
O O1 0.218820 0.341718 0.794800
O O2 0.000032 0.393233 0.813938
O O3 0.167374 0.212702 0.940172
O O4 0.305591 0.396718 0.055324
O O5 0.458631 0.861138 0.156412
O O6 0.222442 0.000000 0.986388
O O7 0.327016 0.887619 0.876554
O O8 0.749028 0.500000 0.593544
O O9 0.833287 0.500000 0.862139
O O10 0.520893 0.500000 0.683016
O O11 0.283287 0.601870 0.623479
O O12 0.241540 0.202946 0.632637
O O13 0.310281 0.000000 0.676847
O O14 0.000000 0.666910 0.500000
#
# Coordination Sequence:
#
# PCOD8061801 Si02
#       7
#     4   4   2   2   4   2   4
#     4  10  19  34  55  79 102 134 166 209 255 298
#     4   8  14  27  48  75 104 131 162 203 246 296
#     4  11  22  39  53  69 104 136 170 217 254 293
#     4  12  22  36  52  75 104 135 168 207 264 305
#     4   8  15  27  44  71 108 140 163 190 238 306
#     4  11  24  36  55  74  93 136 184 213 241 303
#     4  11  20  31  51  76 110 137 159 207 261 309
#
# _framework density 17.984494999999999
#
# number of rings (size 3 to 8) (size 9 to 14) (size 15 to 20)
#    0.000    2.182    1.818    4.909    0.000    3.273 
#    0.000    0.000    0.000    2.182    0.000    0.000 
#    0.000    7.273    0.000    0.000    0.000    0.000 
#
# Total GULP energy -272639.387420 kJ/mol
# GULP energy per Si atom -12392.699428 kJ/mol
# Density = 1.794356 g / cm^3
# Si number density = 17.984495 Si / 1000 Ang^3
#
#
#
# Elastic Constant Matrix: (Units=GPa)
#
#
# Indices 1 2 3 4 5 6 
#
# 1 49.6769 45.3379 21.8248 0.0000 10.1594 0.0000
# 2 45.3379 152.9158 30.0188 0.0000 6.1862 0.0000
# 3 21.8248 30.0188 59.7924 0.0000 12.2020 0.0000
# 4 0.0000 0.0000 0.0000 52.7720 0.0000 2.5302
# 5 10.1594 6.1862 12.2020 0.0000 26.4289 0.0000
# 6 0.0000 0.0000 0.0000 2.5302 0.0000 12.9625
#
#
#
# Elastic Compliance Matrix: (Units=1/GPa)
#
#
# Indices 1 2 3 4 5 6 
#
# 1 0.031464 -0.007844 -0.006020 0.000000 -0.007479 0.000000
# 2 -0.007844 0.009210 -0.002138 0.000000 0.001846 0.000000
# 3 -0.006020 -0.002138 0.021441 0.000000 -0.007085 0.000000
# 4 0.000000 0.000000 0.000000 0.019128 0.000000 -0.003734
# 5 -0.007479 0.001846 -0.007085 0.000000 0.043551 0.000000
# 6 0.000000 0.000000 0.000000 -0.003734 0.000000 0.077874
#
#
# Mechanical properties :
#
#
# Convention : Reuss Voigt Hill
#
# Bulk Modulus (GPa) = 33.21049 50.74979 41.98014
# Shear Modulus (GPa) = 20.43242 29.44625 24.93933
#
# Velocity S-wave (km/s) = 3.37428 4.05076 3.72790
# Velocity P-wave (km/s) = 5.80408 7.08224 6.47478
#
# Compressibility (1/GPa) = 0.03011097
#
# Stress axis : x y z
#
# Youngs Moduli (GPa) = 31.78276 108.57510 46.63997
#
# Poissons Ratio (x) = 0.85169 0.28077
# Poissons Ratio (y) = 0.24931 0.09970
# Poissons Ratio (z) = 0.19133 0.23209
#
# Static dielectric constant tensor:
#      x y z
#    x 2.947280 0.000000 0.154710 
#    y 0.000000 6.092660 0.000000 
#    z 0.154710 0.000000 3.278960 
# 
# 
# High freq. dielectric constant tensor:
#      x y z
#    x 1.654680 0.000000 0.018100 
#    y 0.000000 1.713870 0.000000 
#    z 0.018100 0.000000 1.683760 
# 
# From -- ./inp_files/46276.got.cif
#   From: 2010.06.25/outbox.cif.g09.slc.cpg/sg10_24_cif.got.tgz:46276.got - 2010.06.27 22:07:45.
