data_PCOD8061591
_publ_section_title
;
Structure prediction by ZEFSAII (Michael W. Deem and Ramdas Pophale) SiO2 
 PCOD8061591
Probable space group: P 2/M
;
_chemical_formula_sum "Si O2"
_cell_formula_units_Z 20
_cell_length_a 9.553398
_cell_length_b 9.085016
_cell_length_c 20.434681
_cell_angle_alpha 90.000000
_cell_angle_beta 36.357484
_cell_angle_gamma 90.000000
_cell_volume 1051.417846
_symmetry_space_group_name_H-M "P 2/M"
_symmetry_group_IT_number 10
_symmetry_cell_setting 'monoclinic'
loop_
_space_group_symop_operation_xyz
x,y,z
-x,y,-z
-x,-y,-z
x,-y,z
loop_
_atom_site_type_symbol
_atom_site_label
_atom_site_fract_x
_atom_site_fract_y
_atom_site_fract_z
Si Si1 0.489157 0.325672 0.307707
Si Si2 0.792236 0.674400 0.712532
Si Si3 0.964353 0.172214 0.088535
Si Si4 0.680482 0.324703 0.486724
Si Si5 0.414335 0.666051 0.958924
O O1 0.522026 0.500000 0.293689
O O2 0.304027 0.273597 0.321928
O O3 0.739893 0.253840 0.201301
O O4 0.397289 0.270476 0.412367
O O5 0.806449 0.500000 0.709504
O O6 0.617850 0.731726 0.835023
O O7 0.055526 0.737878 0.625660
O O8 0.932055 0.000000 0.111424
O O9 0.000000 0.214979 0.000000
O O10 0.191158 0.227821 0.042054
O O11 0.500000 0.261544 0.500000
O O12 0.680897 0.500000 0.483821
O O13 0.346566 0.500000 0.961739
O O14 0.500000 0.663656 0.000000
#
# Coordination Sequence:
#
# PCOD8061591 Si02
#       5
#     4   4   4   4   4
#     4  10  19  33  57  81 108 144 183 226 272 324
#     4   9  17  31  50  79 112 140 174 220 273 327
#     4  11  23  38  56  80 113 148 187 228 275 330
#     4   9  18  30  50  82 113 139 174 225 280 327
#     4  10  21  35  57  86 114 142 181 230 278 328
#
# _framework density 19.021934000000002
#
# number of rings (size 3 to 8) (size 9 to 14) (size 15 to 20)
#    0.000    2.200    2.000    1.200    2.800    3.600 
#    0.000    0.000    0.000    4.200    0.000    0.000 
#    0.000    0.000    0.000    0.000    0.000    0.000 
#
# Total GULP energy -248003.573780 kJ/mol
# GULP energy per Si atom -12400.178689 kJ/mol
# Density = 1.897864 g / cm^3
# Si number density = 19.021934 Si / 1000 Ang^3
#
#
#
# Elastic Constant Matrix: (Units=GPa)
#
#
# Indices 1 2 3 4 5 6 
#
# 1 138.4193 17.3979 77.3616 0.0000 -8.4427 0.0000
# 2 17.3979 14.4194 22.4880 0.0000 2.3632 0.0000
# 3 77.3616 22.4880 146.1284 0.0000 -19.1734 0.0000
# 4 0.0000 0.0000 0.0000 -1.7393 0.0000 -2.4771
# 5 -8.4427 2.3632 -19.1734 0.0000 37.8731 0.0000
# 6 0.0000 0.0000 0.0000 -2.4771 0.0000 0.6340
#
#
#
# Elastic Compliance Matrix: (Units=1/GPa)
#
#
# Indices 1 2 3 4 5 6 
#
# 1 0.010562 -0.005443 -0.004713 0.000000 0.000308 0.000000
# 2 -0.005443 0.101229 -0.014659 0.000000 -0.014951 0.000000
# 3 -0.004713 -0.014659 0.012400 0.000000 0.006142 0.000000
# 4 0.000000 0.000000 0.000000 -0.087585 0.000000 -0.342205
# 5 0.000308 -0.014951 0.006142 0.000000 0.030515 0.000000
# 6 0.000000 0.000000 0.000000 -0.342205 0.000000 0.240284
#
#
# Mechanical properties :
#
#
# Convention : Reuss Voigt Hill
#
# Bulk Modulus (GPa) = 13.41177 59.27356 36.34266
# Shear Modulus (GPa) = 13.09285 19.46820 16.28053
#
# Velocity S-wave (km/s) = 2.62640 3.20263 2.92872
# Velocity P-wave (km/s) = 4.03278 6.70105 5.53025
#
# Compressibility (1/GPa) = 0.07456139
#
# Stress axis : x y z
#
# Youngs Moduli (GPa) = 94.68267 9.87860 80.64337
#
# Poissons Ratio (x) = 0.05377 0.38010
# Poissons Ratio (y) = 0.51534 1.18211
# Poissons Ratio (z) = 0.44628 0.14481
#
# Static dielectric constant tensor:
#      x y z
#    x 3.677890 0.000000 -0.023090 
#    y 0.000000 3.011190 0.000000 
#    z -0.023090 0.000000 3.709750 
# 
# 
# High freq. dielectric constant tensor:
#      x y z
#    x 1.751040 0.000000 -0.001890 
#    y 0.000000 1.683530 0.000000 
#    z -0.001890 0.000000 1.755980 
# 
# From -- ./inp_files/22140.got.cif
#   From: 2010.06.25/outbox.cif.g09.slc.cpg/sg10_12_cif.got.tgz:22140.got - 2010.06.27 22:07:45.
