data_PCOD8061100
_publ_section_title
;
Structure prediction by ZEFSAII (Michael W. Deem and Ramdas Pophale) SiO2 
 PCOD8061100
Probable space group: P 2/M
;
_chemical_formula_sum "Si O2"
_cell_formula_units_Z 24
_cell_length_a 9.477267
_cell_length_b 21.506806
_cell_length_c 9.884421
_cell_angle_alpha 90.000000
_cell_angle_beta 137.260837
_cell_angle_gamma 90.000000
_cell_volume 1367.299643
_symmetry_space_group_name_H-M "P 2/M"
_symmetry_group_IT_number 10
_symmetry_cell_setting 'monoclinic'
loop_
_space_group_symop_operation_xyz
x,y,z
-x,y,-z
-x,-y,-z
x,-y,z
loop_
_atom_site_type_symbol
_atom_site_label
_atom_site_fract_x
_atom_site_fract_y
_atom_site_fract_z
Si Si1 0.198438 0.166680 0.373464
Si Si2 0.043357 0.592088 0.872623
Si Si3 0.303668 0.500000 0.463162
Si Si4 0.386811 0.828236 0.207856
Si Si5 0.912633 0.731487 0.088685
Si Si6 0.902618 0.930920 0.079251
Si Si7 0.593949 0.500000 0.918975
O O1 0.363989 0.169116 0.611678
O O2 0.300922 0.170046 0.298758
O O3 0.051820 0.226659 0.286112
O O4 0.068321 0.102720 0.294721
O O5 0.844206 0.560634 0.659012
O O6 0.082291 0.662136 0.847567
O O7 0.000000 0.588197 0.000000
O O8 0.261999 0.559822 0.998239
O O9 0.500000 0.500000 0.500000
O O10 0.398384 0.500000 0.679531
O O11 0.314461 0.764495 0.081811
O O12 0.305431 0.889083 0.071045
O O13 0.000000 0.729948 0.000000
O O14 0.851410 0.000000 0.098411
O O15 0.000000 0.935321 0.000000
O O16 0.500000 0.500000 0.000000
#
# Coordination Sequence:
#
# PCOD8061100 Si02
#       7
#     4   4   2   4   4   4   2
#     4   8  13  21  30  45  67  97 133 177 221 276
#     4  10  19  33  52  74  98 123 161 203 239 292
#     4  11  19  35  55  74  97 127 161 198 239 289
#     4   8  13  21  31  44  70  96 131 178 229 268
#     4   8  15  25  37  57  80 104 135 183 234 271
#     4   8  13  19  26  38  60  93 134 179 223 267
#     4  11  23  37  53  75 103 131 159 199 248 294
#
# _framework density 17.552845000000001
#
# number of rings (size 3 to 8) (size 9 to 14) (size 15 to 20)
#    0.000    3.167    1.667    2.500    0.000    3.333 
#    3.000    3.333    0.000    0.000    0.000    0.000 
#    0.000    0.000    0.000    0.000    0.000   13.333 
#
# Total GULP energy -297340.936534 kJ/mol
# GULP energy per Si atom -12389.205689 kJ/mol
# Density = 1.751289 g / cm^3
# Si number density = 17.552845 Si / 1000 Ang^3
#
#
#
# Elastic Constant Matrix: (Units=GPa)
#
#
# Indices 1 2 3 4 5 6 
#
# 1 36.0982 27.9787 35.8891 0.0000 6.0953 0.0000
# 2 27.9787 188.9104 80.2685 0.0000 28.4495 0.0000
# 3 35.8891 80.2685 150.0180 0.0000 42.0209 0.0000
# 4 0.0000 0.0000 0.0000 11.5776 0.0000 8.2302
# 5 6.0953 28.4495 42.0209 0.0000 27.0432 0.0000
# 6 0.0000 0.0000 0.0000 8.2302 0.0000 -1.6260
#
#
#
# Elastic Compliance Matrix: (Units=1/GPa)
#
#
# Indices 1 2 3 4 5 6 
#
# 1 0.038842 -0.002791 -0.010923 0.000000 0.011155 0.000000
# 2 -0.002791 0.007163 -0.002178 0.000000 -0.003521 0.000000
# 3 -0.010923 -0.002178 0.016136 0.000000 -0.020319 0.000000
# 4 0.000000 0.000000 0.000000 0.018785 0.000000 0.095079
# 5 0.011155 -0.003521 -0.020319 0.000000 0.069741 0.000000
# 6 0.000000 0.000000 0.000000 0.095079 0.000000 -0.133751
#
#
# Mechanical properties :
#
#
# Convention : Reuss Voigt Hill
#
# Bulk Modulus (GPa) = 32.94335 73.69991 53.32163
# Shear Modulus (GPa) = 85.00358 22.79165 53.89762
#
# Velocity S-wave (km/s) = 6.96652 3.60732 5.54730
# Velocity P-wave (km/s) = 9.13886 7.70902 8.45422
#
# Compressibility (1/GPa) = 0.03035514
#
# Stress axis : x y z
#
# Youngs Moduli (GPa) = 25.74519 139.60945 61.97208
#
# Poissons Ratio (x) = 0.38969 0.67694
# Poissons Ratio (y) = 0.07186 0.13500
# Poissons Ratio (z) = 0.28122 0.30414
#
# Static dielectric constant tensor:
#      x y z
#    x 2.564900 0.000000 0.285810 
#    y 0.000000 3.704770 0.000000 
#    z 0.285810 0.000000 3.307590 
# 
# 
# High freq. dielectric constant tensor:
#      x y z
#    x 1.611660 0.000000 0.034690 
#    y 0.000000 1.687740 0.000000 
#    z 0.034690 0.000000 1.675820 
# 
# From -- ./inp_files/20290.got.cif
#   From: 2010.06.25/outbox.cif.g09.slc.cpg/sg10_11_cif.got.tgz:20290.got - 2010.06.27 22:07:45.
