data_PCOD8061505
_publ_section_title
;
Structure prediction by ZEFSAII (Michael W. Deem and Ramdas Pophale) SiO2 
 PCOD8061505
Probable space group: P 2/M
;
_chemical_formula_sum "Si O2"
_cell_formula_units_Z 20
_cell_length_a 13.694306
_cell_length_b 8.631803
_cell_length_c 18.603064
_cell_angle_alpha 90.000000
_cell_angle_beta 152.827930
_cell_angle_gamma 90.000000
_cell_volume 1004.206662
_symmetry_space_group_name_H-M "P 2/M"
_symmetry_group_IT_number 10
_symmetry_cell_setting 'monoclinic'
loop_
_space_group_symop_operation_xyz
x,y,z
-x,y,-z
-x,-y,-z
x,-y,z
loop_
_atom_site_type_symbol
_atom_site_label
_atom_site_fract_x
_atom_site_fract_y
_atom_site_fract_z
Si Si1 0.669011 0.815209 0.168684
Si Si2 0.469723 0.815702 0.766577
Si Si3 0.946959 0.179243 0.047974
Si Si4 0.263829 0.319339 0.366310
Si Si5 0.134437 0.183280 0.431672
O O1 0.603618 0.751547 0.204115
O O2 0.902612 0.749908 0.301607
O O3 0.668423 0.000000 0.168138
O O4 0.500000 0.751015 0.000000
O O5 0.311299 0.747720 0.602020
O O6 0.461544 0.000000 0.759938
O O7 0.708703 0.758414 0.906692
O O8 0.108494 0.282923 0.198822
O O9 0.971102 0.000000 0.086754
O O10 0.000000 0.203251 0.000000
O O11 0.500000 0.262221 0.500000
O O12 0.260822 0.500000 0.381984
O O13 0.187692 0.227388 0.385781
O O14 0.130509 0.000000 0.435318
#
# Coordination Sequence:
#
# PCOD8061505 Si02
#       5
#     4   4   4   4   4
#     4   9  16  27  48  80 113 141 171 212 263 314
#     4   9  17  30  51  82 113 138 171 217 267 314
#     4  10  20  35  57  83 108 136 175 221 263 308
#     4  11  24  39  54  75 106 142 177 215 264 320
#     4  10  19  33  56  81 106 139 178 220 261 306
#
# _framework density 19.916219999999999
#
# number of rings (size 3 to 8) (size 9 to 14) (size 15 to 20)
#    0.000    2.200    0.000    3.600    0.000    9.200 
#    0.000    1.000    0.000    7.800    0.000    0.000 
#    0.000    0.000    0.000    0.000    0.000    0.000 
#
# Total GULP energy -248054.105462 kJ/mol
# GULP energy per Si atom -12402.705273 kJ/mol
# Density = 1.987089 g / cm^3
# Si number density = 19.916220 Si / 1000 Ang^3
#
#
#
# Elastic Constant Matrix: (Units=GPa)
#
#
# Indices 1 2 3 4 5 6 
#
# 1 145.6179 6.1466 74.9070 0.0000 17.1198 0.0000
# 2 6.1466 7.0077 15.1470 0.0000 3.2189 0.0000
# 3 74.9070 15.1470 185.8287 0.0000 14.1627 0.0000
# 4 0.0000 0.0000 0.0000 12.9159 0.0000 3.4429
# 5 17.1198 3.2189 14.1627 0.0000 46.3741 0.0000
# 6 0.0000 0.0000 0.0000 3.4429 0.0000 3.8210
#
#
#
# Elastic Compliance Matrix: (Units=1/GPa)
#
#
# Indices 1 2 3 4 5 6 
#
# 1 0.008888 0.000750 -0.003471 0.000000 -0.002273 0.000000
# 2 0.000750 0.176153 -0.014034 0.000000 -0.008218 0.000000
# 3 -0.003471 -0.014034 0.007937 0.000000 -0.000169 0.000000
# 4 0.000000 0.000000 0.000000 0.101898 0.000000 -0.091815
# 5 -0.002273 -0.008218 -0.000169 0.000000 0.023025 0.000000
# 6 0.000000 0.000000 0.000000 -0.091815 0.000000 0.344439
#
#
# Mechanical properties :
#
#
# Convention : Reuss Voigt Hill
#
# Bulk Modulus (GPa) = 6.27085 58.98393 32.62739
# Shear Modulus (GPa) = 6.67551 28.77245 17.72398
#
# Velocity S-wave (km/s) = 1.83278 3.80501 2.98640
# Velocity P-wave (km/s) = 2.76301 6.99889 5.32065
#
# Compressibility (1/GPa) = 0.15946798
#
# Stress axis : x y z
#
# Youngs Moduli (GPa) = 112.50801 5.67690 125.99020
#
# Poissons Ratio (x) = -0.00426 0.43727
# Poissons Ratio (y) = -0.08438 1.76819
# Poissons Ratio (z) = 0.39048 0.07967
#
# Static dielectric constant tensor:
#      x y z
#    x 3.749630 0.000000 0.084720 
#    y 0.000000 3.036870 0.000000 
#    z 0.084720 0.000000 3.966660 
# 
# 
# High freq. dielectric constant tensor:
#      x y z
#    x 1.795850 0.000000 0.002140 
#    y 0.000000 1.718570 0.000000 
#    z 0.002140 0.000000 1.798600 
# 
# From -- ./inp_files/22141.got.cif
#   From: 2010.06.25/outbox.cif.g09.slc.cpg/sg10_12_cif.got.tgz:22141.got - 2010.06.27 22:07:45.
