data_PCOD8061281
_publ_section_title
;
Structure prediction by ZEFSAII (Michael W. Deem and Ramdas Pophale) SiO2 
 PCOD8061281
Probable space group: P 2/M
;
_chemical_formula_sum "Si O2"
_cell_formula_units_Z 32
_cell_length_a 30.075768
_cell_length_b 9.126424
_cell_length_c 12.580601
_cell_angle_alpha 90.000000
_cell_angle_beta 151.685360
_cell_angle_gamma 90.000000
_cell_volume 1637.887015
_symmetry_space_group_name_H-M "P 2/M"
_symmetry_group_IT_number 10
_symmetry_cell_setting 'monoclinic'
loop_
_space_group_symop_operation_xyz
x,y,z
-x,y,-z
-x,-y,-z
x,-y,z
loop_
_atom_site_type_symbol
_atom_site_label
_atom_site_fract_x
_atom_site_fract_y
_atom_site_fract_z
Si Si1 0.603881 0.170961 0.180883
Si Si2 0.875938 0.168706 0.480414
Si Si3 0.394048 0.672416 0.254025
Si Si4 0.268348 0.667233 0.175860
Si Si5 0.954778 0.828745 0.018427
Si Si6 0.329712 0.167216 0.909312
Si Si7 0.901579 0.332491 0.325261
Si Si8 0.241621 0.324448 0.353978
O O1 0.611796 0.207941 0.072694
O O2 0.679989 0.268667 0.400729
O O3 0.624997 0.000000 0.247194
O O4 0.500000 0.214853 0.000000
O O5 0.780944 0.191986 0.348911
O O6 0.857133 0.250008 0.330723
O O7 0.892270 0.000000 0.489027
O O8 0.967494 0.228982 0.733904
O O9 0.500000 0.713571 0.500000
O O10 0.374951 0.500000 0.207874
O O11 0.335963 0.742963 0.230607
O O12 0.364033 0.734310 0.077918
O O13 0.300478 0.500000 0.253630
O O14 0.271967 0.736539 0.301121
O O15 0.162459 0.682446 0.912819
O O16 0.860089 0.737248 0.830302
O O17 0.931739 0.000000 0.985705
O O18 0.000000 0.799567 0.000000
O O19 0.347983 0.000000 0.980805
O O20 0.914830 0.500000 0.388394
O O21 0.000000 0.260292 0.500000
O O22 0.235996 0.500000 0.344818
#
# Coordination Sequence:
#
# PCOD8061281 Si02
#       8
#     4   4   4   4   4   4   4   4
#     4  10  23  43  64  86 117 159 200 242 299 357
#     4  10  20  34  55  83 112 145 187 236 286 337
#     4  10  21  37  60  86 114 154 196 236 291 353
#     4   9  19  36  54  81 120 155 186 231 292 348
#     4  10  21  39  61  83 115 160 199 238 296 356
#     4  10  21  39  61  87 118 149 192 247 294 344
#     4  10  19  33  54  78 109 150 187 223 277 338
#     4  11  23  39  61  90 122 154 197 250 295 345
#
# _framework density 19.537365999999999
#
# number of rings (size 3 to 8) (size 9 to 14) (size 15 to 20)
#    0.000    2.000    1.250    1.875    1.750    5.000 
#    0.000    3.750    0.000    0.000    0.000    0.000 
#    0.000    0.000    0.000    0.000    0.000    0.000 
#
# Total GULP energy -396766.400736 kJ/mol
# GULP energy per Si atom -12398.950023 kJ/mol
# Density = 1.949290 g / cm^3
# Si number density = 19.537366 Si / 1000 Ang^3
#
#
#
# Elastic Constant Matrix: (Units=GPa)
#
#
# Indices 1 2 3 4 5 6 
#
# 1 135.8552 35.3082 60.4764 0.0000 10.9998 0.0000
# 2 35.3082 47.1963 44.6269 0.0000 3.7890 0.0000
# 3 60.4764 44.6269 119.0085 0.0000 6.4177 0.0000
# 4 0.0000 0.0000 0.0000 -117.3566 0.0000 -53.9767
# 5 10.9998 3.7890 6.4177 0.0000 34.7264 0.0000
# 6 0.0000 0.0000 0.0000 -53.9767 0.0000 6.3923
#
#
#
# Elastic Compliance Matrix: (Units=1/GPa)
#
#
# Indices 1 2 3 4 5 6 
#
# 1 0.010164 -0.004118 -0.003506 0.000000 -0.002122 0.000000
# 2 -0.004118 0.034557 -0.010841 0.000000 -0.000463 0.000000
# 3 -0.003506 -0.010841 0.014268 0.000000 -0.000343 0.000000
# 4 0.000000 0.000000 0.000000 -0.001745 0.000000 -0.014733
# 5 -0.002122 -0.000463 -0.000343 0.000000 0.029583 0.000000
# 6 0.000000 0.000000 0.000000 -0.014733 0.000000 0.032033
#
#
# Mechanical properties :
#
#
# Convention : Reuss Voigt Hill
#
# Bulk Modulus (GPa) = 45.33383 64.76479 55.04931
# Shear Modulus (GPa) = 30.64820 -4.47104 13.08858
#
# Velocity S-wave (km/s) = 3.96497 -1.51440 2.59110
# Velocity P-wave (km/s) = 6.64947 5.49211 6.09831
#
# Compressibility (1/GPa) = 0.02205858
#
# Stress axis : x y z
#
# Youngs Moduli (GPa) = 98.39003 28.93808 70.08559
#
# Poissons Ratio (x) = 0.11916 0.24574
# Poissons Ratio (y) = 0.40515 0.75979
# Poissons Ratio (z) = 0.34498 0.31371
#
# Static dielectric constant tensor:
#      x y z
#    x 3.839560 0.000000 0.132330 
#    y 0.000000 3.347900 0.000000 
#    z 0.132330 0.000000 3.629920 
# 
# 
# High freq. dielectric constant tensor:
#      x y z
#    x 1.777030 0.000000 0.004240 
#    y 0.000000 1.736030 0.000000 
#    z 0.004240 0.000000 1.769090 
# 
# From -- ./inp_files/58314.got.cif
#   From: 2010.06.25/outbox.cif.g09.slc.cpg/sg10_30_cif.got.tgz:58314.got - 2010.06.27 22:07:45.
