data_PCOD8061572
_publ_section_title
;
Structure prediction by ZEFSAII (Michael W. Deem and Ramdas Pophale) SiO2 
 PCOD8061572
Probable space group: P 2/M
;
_chemical_formula_sum "Si O2"
_cell_formula_units_Z 32
_cell_length_a 16.000222
_cell_length_b 9.056388
_cell_length_c 24.557862
_cell_angle_alpha 90.000000
_cell_angle_beta 152.909146
_cell_angle_gamma 90.000000
_cell_volume 1620.568074
_symmetry_space_group_name_H-M "P 2/M"
_symmetry_group_IT_number 10
_symmetry_cell_setting 'monoclinic'
loop_
_space_group_symop_operation_xyz
x,y,z
-x,y,-z
-x,-y,-z
x,-y,z
loop_
_atom_site_type_symbol
_atom_site_label
_atom_site_fract_x
_atom_site_fract_y
_atom_site_fract_z
Si Si1 0.579342 0.674390 0.673755
Si Si2 0.719485 0.826531 0.975518
Si Si3 0.468634 0.674273 0.229437
Si Si4 0.441370 0.176294 0.907106
Si Si5 0.831888 0.831417 0.442747
Si Si6 0.259674 0.170764 0.422629
Si Si7 0.965181 0.828273 0.336487
Si Si8 0.138410 0.172103 0.233615
O O1 0.579885 0.500000 0.669641
O O2 0.563144 0.726233 0.726883
O O3 0.412449 0.733486 0.540804
O O4 0.771330 0.736451 0.762832
O O5 0.685229 0.744647 0.898573
O O6 0.580181 0.766913 0.941096
O O7 0.692042 0.000000 0.950417
O O8 0.924313 0.788245 0.113783
O O9 0.460440 0.500000 0.218748
O O10 0.665957 0.733300 0.323997
O O11 0.237641 0.241984 0.778288
O O12 0.440165 0.000000 0.907460
O O13 0.500000 0.237609 0.000000
O O14 0.000000 0.820603 0.500000
O O15 0.899450 0.762084 0.539244
O O16 0.762180 0.000000 0.408066
O O17 0.241410 0.216516 0.349198
O O18 0.058959 0.198429 0.332498
O O19 0.316979 0.000000 0.461943
O O20 0.942733 0.000000 0.337126
O O21 0.165252 0.000000 0.237088
#
# Coordination Sequence:
#
# PCOD8061572 Si02
#       8
#     4   4   4   4   4   4   4   4
#     4  11  24  40  58  82 113 152 197 241 290 345
#     4  10  21  38  60  87 118 151 192 239 287 343
#     4  11  24  40  57  80 115 156 196 238 287 341
#     4   9  16  29  53  86 120 149 181 226 278 334
#     4  10  19  33  56  85 112 144 190 235 280 335
#     4  10  19  35  59  87 118 148 185 236 294 351
#     4   9  16  27  49  81 113 145 178 218 273 332
#     4  10  22  38  59  87 114 146 190 242 299 351
#
# _framework density 19.746162000000002
#
# number of rings (size 3 to 8) (size 9 to 14) (size 15 to 20)
#    0.000    2.000    1.250    2.625    0.000    9.750 
#    0.000    2.500    0.000    0.375    0.000    0.000 
#    0.000    0.000    0.000    0.000    0.000    0.000 
#
# Total GULP energy -396836.219348 kJ/mol
# GULP energy per Si atom -12401.131855 kJ/mol
# Density = 1.970122 g / cm^3
# Si number density = 19.746162 Si / 1000 Ang^3
#
#
#
# Elastic Constant Matrix: (Units=GPa)
#
#
# Indices 1 2 3 4 5 6 
#
# 1 110.7501 38.3312 45.5371 0.0000 -2.1464 0.0000
# 2 38.3312 47.0015 34.1162 0.0000 -3.5377 0.0000
# 3 45.5371 34.1162 101.1419 0.0000 -3.8945 0.0000
# 4 0.0000 0.0000 0.0000 8.9338 0.0000 -5.7025
# 5 -2.1464 -3.5377 -3.8945 0.0000 37.8244 0.0000
# 6 0.0000 0.0000 0.0000 -5.7025 0.0000 19.4436
#
#
#
# Elastic Compliance Matrix: (Units=1/GPa)
#
#
# Indices 1 2 3 4 5 6 
#
# 1 0.013271 -0.008612 -0.003084 0.000000 -0.000370 0.000000
# 2 -0.008612 0.033867 -0.007473 0.000000 0.001909 0.000000
# 3 -0.003084 -0.007473 0.013818 0.000000 0.000549 0.000000
# 4 0.000000 0.000000 0.000000 0.137716 0.000000 0.040390
# 5 -0.000370 0.001909 0.000549 0.000000 0.026652 0.000000
# 6 0.000000 0.000000 0.000000 0.040390 0.000000 0.063277
#
#
# Mechanical properties :
#
#
# Convention : Reuss Voigt Hill
#
# Bulk Modulus (GPa) = 44.21375 54.98472 49.59924
# Shear Modulus (GPa) = 14.94867 22.63429 18.79148
#
# Velocity S-wave (km/s) = 2.75442 3.38932 3.08823
# Velocity P-wave (km/s) = 5.70574 6.57441 6.15542
#
# Compressibility (1/GPa) = 0.02261740
#
# Stress axis : x y z
#
# Youngs Moduli (GPa) = 75.35220 29.52710 72.37179
#
# Poissons Ratio (x) = 0.25429 0.22322
# Poissons Ratio (y) = 0.64893 0.54082
# Poissons Ratio (z) = 0.23241 0.22065
#
# Static dielectric constant tensor:
#      x y z
#    x 3.815130 0.000000 -0.050520 
#    y 0.000000 3.200570 0.000000 
#    z -0.050520 0.000000 3.690660 
# 
# 
# High freq. dielectric constant tensor:
#      x y z
#    x 1.783600 0.000000 0.000040 
#    y 0.000000 1.725220 0.000000 
#    z 0.000040 0.000000 1.779430 
# 
# From -- ./inp_files/89620.got.cif
#   From: 2010.06.25/outbox.cif.g09.slc.cpg/sg10_45_cif.got.tgz:89620.got - 2010.06.27 22:07:45.
