data_PCOD8061771
_publ_section_title
;
Structure prediction by ZEFSAII (Michael W. Deem and Ramdas Pophale) SiO2 
 PCOD8061771
Probable space group: P 2/M
;
_chemical_formula_sum "Si O2"
_cell_formula_units_Z 28
_cell_length_a 20.011511
_cell_length_b 9.029472
_cell_length_c 25.418793
_cell_angle_alpha 90.000000
_cell_angle_beta 20.142211
_cell_angle_gamma 90.000000
_cell_volume 1581.608827
_symmetry_space_group_name_H-M "P 2/M"
_symmetry_group_IT_number 10
_symmetry_cell_setting 'monoclinic'
loop_
_space_group_symop_operation_xyz
x,y,z
-x,y,-z
-x,-y,-z
x,-y,z
loop_
_atom_site_type_symbol
_atom_site_label
_atom_site_fract_x
_atom_site_fract_y
_atom_site_fract_z
Si Si1 0.315017 0.674593 0.104335
Si Si2 0.068590 0.824405 0.790894
Si Si3 0.143895 0.324471 0.845691
Si Si4 0.473314 0.165184 0.457477
Si Si5 0.293953 0.171541 0.009856
Si Si6 0.916939 0.174970 0.642821
Si Si7 0.719638 0.170917 0.685017
O O1 0.314240 0.500000 0.104482
O O2 0.303227 0.729843 0.054123
O O3 0.124959 0.737966 0.272952
O O4 0.500000 0.736970 0.000000
O O5 0.065140 0.743572 0.849644
O O6 0.249277 0.778079 0.618745
O O7 0.873890 0.775056 0.905111
O O8 0.077458 0.000000 0.795330
O O9 0.151423 0.500000 0.834956
O O10 0.366221 0.267053 0.690420
O O11 0.000000 0.277254 0.000000
O O12 0.500000 0.162784 0.500000
O O13 0.496945 0.000000 0.416425
O O14 0.266588 0.000000 0.045757
O O15 0.500002 0.198565 0.828531
O O16 0.766081 0.232433 0.709207
O O17 0.132147 0.232179 0.467991
O O18 0.902999 0.000000 0.664044
O O19 0.771782 0.000000 0.651838
#
# Coordination Sequence:
#
# PCOD8061771 Si02
#       7
#     4   4   4   4   4   4   4
#     4  11  22  33  46  71 102 131 168 211 253 301
#     4   9  19  34  53  78 103 130 167 210 253 298
#     4  10  20  33  52  79 106 135 170 201 236 293
#     4   8  15  30  51  75 102 129 163 205 244 286
#     4  10  19  34  55  75  98 131 170 210 257 304
#     4   9  16  30  51  72  93 122 165 213 256 296
#     4   8  15  28  50  75  94 120 163 211 252 297
#
# _framework density 17.703493000000002
#
# number of rings (size 3 to 8) (size 9 to 14) (size 15 to 20)
#    0.000    2.714    1.429    2.571    0.000    4.857 
#    0.000    3.571    0.000    6.857    0.000    0.000 
#    0.000    0.000    0.000    0.000    0.000    0.000 
#
# Total GULP energy -346936.390900 kJ/mol
# GULP energy per Si atom -12390.585389 kJ/mol
# Density = 1.766320 g / cm^3
# Si number density = 17.703493 Si / 1000 Ang^3
#
#
#
# Elastic Constant Matrix: (Units=GPa)
#
#
# Indices 1 2 3 4 5 6 
#
# 1 72.9428 37.5911 61.3595 0.0000 -5.9377 0.0000
# 2 37.5911 56.5745 45.2137 0.0000 4.4411 0.0000
# 3 61.3595 45.2137 148.9931 0.0000 -6.3484 0.0000
# 4 0.0000 0.0000 0.0000 147.3374 0.0000 48.7929
# 5 -5.9377 4.4411 -6.3484 0.0000 32.8789 0.0000
# 6 0.0000 0.0000 0.0000 48.7929 0.0000 34.9832
#
#
#
# Elastic Compliance Matrix: (Units=1/GPa)
#
#
# Indices 1 2 3 4 5 6 
#
# 1 0.026258 -0.012381 -0.006840 0.000000 0.005094 0.000000
# 2 -0.012381 0.029870 -0.004268 0.000000 -0.007095 0.000000
# 3 -0.006840 -0.004268 0.010885 0.000000 0.001443 0.000000
# 4 0.000000 0.000000 0.000000 0.012613 0.000000 -0.017592
# 5 0.005094 -0.007095 0.001443 0.000000 0.032572 0.000000
# 6 0.000000 0.000000 0.000000 -0.017592 0.000000 0.053122
#
#
# Mechanical properties :
#
#
# Convention : Reuss Voigt Hill
#
# Bulk Modulus (GPa) = 49.90932 62.98211 56.44572
# Shear Modulus (GPa) = 22.83365 51.99631 37.41498
#
# Velocity S-wave (km/s) = 3.59525 5.42535 4.60219
# Velocity P-wave (km/s) = 6.74444 8.65443 7.75844
#
# Compressibility (1/GPa) = 0.02003634
#
# Stress axis : x y z
#
# Youngs Moduli (GPa) = 38.08365 33.47828 91.86873
#
# Poissons Ratio (x) = 0.41449 0.62835
# Poissons Ratio (y) = 0.47151 0.39209
# Poissons Ratio (z) = 0.26048 0.14288
#
# Static dielectric constant tensor:
#      x y z
#    x 3.015780 0.000000 -0.140200 
#    y 0.000000 3.053490 0.000000 
#    z -0.140200 0.000000 4.130630 
# 
# 
# High freq. dielectric constant tensor:
#      x y z
#    x 1.649750 0.000000 -0.000280 
#    y 0.000000 1.663730 0.000000 
#    z -0.000280 0.000000 1.704190 
# 
# From -- ./inp_files/93522.got.cif
#   From: 2010.06.25/outbox.cif.g09.slc.cpg/sg10_47_cif.got.tgz:93522.got - 2010.06.27 22:07:45.
