data_PCOD8061074
_publ_section_title
;
Structure prediction by ZEFSAII (Michael W. Deem and Ramdas Pophale) SiO2 
 PCOD8061074
Probable space group: P 2/M
;
_chemical_formula_sum "Si O2"
_cell_formula_units_Z 30
_cell_length_a 16.411958
_cell_length_b 21.726435
_cell_length_c 15.873646
_cell_angle_alpha 90.000000
_cell_angle_beta 17.891667
_cell_angle_gamma 90.000000
_cell_volume 1738.891648
_symmetry_space_group_name_H-M "P 2/M"
_symmetry_group_IT_number 10
_symmetry_cell_setting 'monoclinic'
loop_
_space_group_symop_operation_xyz
x,y,z
-x,y,-z
-x,-y,-z
x,-y,z
loop_
_atom_site_type_symbol
_atom_site_label
_atom_site_fract_x
_atom_site_fract_y
_atom_site_fract_z
Si Si1 0.432913 0.768364 0.883161
Si Si2 0.924291 0.068426 0.365782
Si Si3 0.931444 0.813627 0.470762
Si Si4 0.423564 0.113667 0.781813
Si Si5 0.238449 0.500000 0.702721
Si Si6 0.736070 0.808378 0.206810
Si Si7 0.095647 0.369562 0.809336
Si Si8 0.607151 0.692107 0.231103
O O1 0.481832 0.821910 0.768565
O O2 0.152678 0.774683 0.204462
O O3 0.664622 0.773180 0.724790
O O4 0.451429 0.705482 0.810195
O O5 0.894477 0.117678 0.470207
O O6 0.205933 0.074008 0.044018
O O7 0.902410 0.000000 0.426667
O O8 0.699921 0.076831 0.514332
O O9 0.000000 0.821941 0.500000
O O10 0.329761 0.128624 0.779187
O O11 0.500000 0.500000 0.500000
O O12 0.214034 0.437473 0.672629
O O13 0.000000 0.500000 0.000000
O O14 0.500000 0.792050 0.500000
O O15 0.763051 0.750298 0.118131
O O16 0.000000 0.819293 0.000000
O O17 0.334316 0.323257 0.549028
O O18 0.000000 0.359161 0.000000
O O19 0.829314 0.361618 0.015772
#
# Coordination Sequence:
#
# PCOD8061074 Si02
#       8
#     4   4   4   4   2   4   4   4
#     4   9  19  33  48  70  97 126 153 182 236 290
#     4  10  19  33  52  69  88 118 153 184 219 273
#     4  10  19  33  52  74  99 123 146 179 229 291
#     4   9  19  33  47  65  90 119 148 184 236 285
#     4  10  20  32  44  62  96 140 175 206 243 278
#     4  11  20  30  47  68  89 114 152 201 244 275
#     4  11  20  31  46  68  98 135 175 208 235 265
#     4  11  20  31  48  70  96 126 163 205 237 275
#
# _framework density 17.252369000000002
#
# number of rings (size 3 to 8) (size 9 to 14) (size 15 to 20)
#    0.000    1.867    0.000    6.400    0.000    4.533 
#    0.000    0.000    0.000   12.800    0.000    0.000 
#    0.000    0.000    0.000   42.000    0.000    0.000 
#
# Total GULP energy -371881.293287 kJ/mol
# GULP energy per Si atom -12396.043110 kJ/mol
# Density = 1.721310 g / cm^3
# Si number density = 17.252369 Si / 1000 Ang^3
#
#
#
# Elastic Constant Matrix: (Units=GPa)
#
#
# Indices 1 2 3 4 5 6 
#
# 1 94.6841 43.2848 29.5662 0.0000 -18.1955 0.0000
# 2 43.2848 73.4861 29.9042 0.0000 -4.0238 0.0000
# 3 29.5662 29.9042 90.6268 0.0000 -24.6783 0.0000
# 4 0.0000 0.0000 0.0000 17.9041 0.0000 -4.0874
# 5 -18.1955 -4.0238 -24.6783 0.0000 29.3726 0.0000
# 6 0.0000 0.0000 0.0000 -4.0874 0.0000 16.2991
#
#
#
# Elastic Compliance Matrix: (Units=1/GPa)
#
#
# Indices 1 2 3 4 5 6 
#
# 1 0.016504 -0.009286 0.000152 0.000000 0.009079 0.000000
# 2 -0.009286 0.021131 -0.006122 0.000000 -0.008001 0.000000
# 3 0.000152 -0.006122 0.016600 0.000000 0.013202 0.000000
# 4 0.000000 0.000000 0.000000 0.059245 0.000000 0.014857
# 5 0.009079 -0.008001 0.013202 0.000000 0.049666 0.000000
# 6 0.000000 0.000000 0.000000 0.014857 0.000000 0.065079
#
#
# Mechanical properties :
#
#
# Convention : Reuss Voigt Hill
#
# Bulk Modulus (GPa) = 42.15260 51.58971 46.87115
# Shear Modulus (GPa) = 18.75171 23.11794 20.93483
#
# Velocity S-wave (km/s) = 3.30040 3.66455 3.48724
# Velocity P-wave (km/s) = 6.24576 6.91904 6.59100
#
# Compressibility (1/GPa) = 0.02372333
#
# Stress axis : x y z
#
# Youngs Moduli (GPa) = 60.59248 47.32469 60.24196
#
# Poissons Ratio (x) = 0.43945 -0.00917
# Poissons Ratio (y) = 0.56265 0.36879
# Poissons Ratio (z) = -0.00922 0.28971
#
# Static dielectric constant tensor:
#      x y z
#    x 3.154790 0.000000 -0.228620 
#    y 0.000000 18.614480 0.000000 
#    z -0.228620 0.000000 3.274150 
# 
# 
# High freq. dielectric constant tensor:
#      x y z
#    x 1.639670 0.000000 -0.021890 
#    y 0.000000 1.639780 0.000000 
#    z -0.021890 0.000000 1.685400 
# 
# From -- ./inp_files/67850.got.cif
#   From: 2010.06.25/outbox.cif.g09.slc.cpg/sg10_34_cif.got.tgz:67850.got - 2010.06.27 22:07:45.
