data_PCOD8061866
_publ_section_title
;
Structure prediction by ZEFSAII (Michael W. Deem and Ramdas Pophale) SiO2 
 PCOD8061866
Probable space group: P 2/M
;
_chemical_formula_sum "Si O2"
_cell_formula_units_Z 28
_cell_length_a 17.614748
_cell_length_b 13.174968
_cell_length_c 10.280055
_cell_angle_alpha 90.000000
_cell_angle_beta 141.321900
_cell_angle_gamma 90.000000
_cell_volume 1490.948901
_symmetry_space_group_name_H-M "P 2/M"
_symmetry_group_IT_number 10
_symmetry_cell_setting 'monoclinic'
loop_
_space_group_symop_operation_xyz
x,y,z
-x,y,-z
-x,-y,-z
x,-y,z
loop_
_atom_site_type_symbol
_atom_site_label
_atom_site_fract_x
_atom_site_fract_y
_atom_site_fract_z
Si Si1 0.051308 0.888010 0.925583
Si Si2 0.414549 0.881913 0.769258
Si Si3 0.298736 0.615052 0.090369
Si Si4 0.872778 0.383050 0.381923
Si Si5 0.776451 0.279350 0.769971
Si Si6 0.489204 0.220846 0.624513
Si Si7 0.834632 0.757709 0.570583
O O1 0.951551 0.829665 0.704288
O O2 0.077496 0.000000 0.900635
O O3 0.177366 0.825504 0.101287
O O4 0.000000 0.902054 0.000000
O O5 0.494489 0.860650 0.746977
O O6 0.287046 0.824267 0.597709
O O7 0.384469 0.000000 0.739962
O O8 0.500000 0.843843 0.000000
O O9 0.347582 0.500000 0.162613
O O10 0.213512 0.634716 0.104304
O O11 0.409501 0.692536 0.231096
O O12 0.223869 0.632994 0.860188
O O13 0.887145 0.500000 0.440975
O O14 0.828401 0.325481 0.450553
O O15 0.000000 0.339242 0.500000
O O16 0.638459 0.277318 0.539288
O O17 0.850363 0.297969 0.733692
O O18 0.500000 0.163363 0.500000
#
# Coordination Sequence:
#
# PCOD8061866 Si02
#       7
#     4   4   4   4   4   4   4
#     4   9  17  31  52  77 104 134 170 213 261 312
#     4  10  20  34  53  77 106 140 176 217 266 314
#     4  10  20  36  55  75 106 145 179 215 263 316
#     4  10  21  36  55  78 106 142 176 213 267 318
#     4   9  19  32  52  80 103 132 174 221 264 303
#     4   9  19  34  52  77 105 137 176 215 262 311
#     4  10  19  34  56  79 106 137 178 221 260 311
#
# _framework density 18.779986999999998
#
# number of rings (size 3 to 8) (size 9 to 14) (size 15 to 20)
#    0.000    2.429    0.000    2.143    0.000    6.857 
#    0.000    4.286    0.000   24.000    0.000    0.000 
#    0.000    0.000    0.000    0.000    0.000    0.000 
#
# Total GULP energy -346993.503187 kJ/mol
# GULP energy per Si atom -12392.625114 kJ/mol
# Density = 1.873724 g / cm^3
# Si number density = 18.779987 Si / 1000 Ang^3
#
#
#
# Elastic Constant Matrix: (Units=GPa)
#
#
# Indices 1 2 3 4 5 6 
#
# 1 86.6594 44.6868 45.4173 0.0000 -13.5988 0.0000
# 2 44.6868 73.5138 48.8062 0.0000 -4.4356 0.0000
# 3 45.4173 48.8062 100.6876 0.0000 -8.5554 0.0000
# 4 0.0000 0.0000 0.0000 18.1323 0.0000 2.0016
# 5 -13.5988 -4.4356 -8.5554 0.0000 38.8873 0.0000
# 6 0.0000 0.0000 0.0000 2.0016 0.0000 29.4380
#
#
#
# Elastic Compliance Matrix: (Units=1/GPa)
#
#
# Indices 1 2 3 4 5 6 
#
# 1 0.018711 -0.008482 -0.003929 0.000000 0.004712 0.000000
# 2 -0.008482 0.023903 -0.007929 0.000000 -0.001984 0.000000
# 3 -0.003929 -0.007929 0.015646 0.000000 0.001164 0.000000
# 4 0.000000 0.000000 0.000000 0.055567 0.000000 -0.003778
# 5 0.004712 -0.001984 0.001164 0.000000 0.027393 0.000000
# 6 0.000000 0.000000 0.000000 -0.003778 0.000000 0.034227
#
#
# Mechanical properties :
#
#
# Convention : Reuss Voigt Hill
#
# Bulk Modulus (GPa) = 56.87686 59.85346 58.36516
# Shear Modulus (GPa) = 22.52387 25.42156 23.97272
#
# Velocity S-wave (km/s) = 3.46693 3.68319 3.57669
# Velocity P-wave (km/s) = 6.81012 7.07304 6.94283
#
# Compressibility (1/GPa) = 0.01758184
#
# Stress axis : x y z
#
# Youngs Moduli (GPa) = 53.44377 41.83539 63.91307
#
# Poissons Ratio (x) = 0.35483 0.25108
# Poissons Ratio (y) = 0.45329 0.50679
# Poissons Ratio (z) = 0.20996 0.33173
#
# Static dielectric constant tensor:
#      x y z
#    x 3.584220 0.000000 -0.130840 
#    y 0.000000 3.376670 0.000000 
#    z -0.130840 0.000000 3.644730 
# 
# 
# High freq. dielectric constant tensor:
#      x y z
#    x 1.721670 0.000000 0.000420 
#    y 0.000000 1.710680 0.000000 
#    z 0.000420 0.000000 1.746060 
# 
# From -- ./inp_files/25075.got.cif
#   From: 2010.06.25/outbox.cif.g09.slc.cpg/sg10_13_cif.got.tgz:25075.got - 2010.06.27 22:07:45.
