data_PCOD8061460
_publ_section_title
;
Structure prediction by ZEFSAII (Michael W. Deem and Ramdas Pophale) SiO2 
 PCOD8061460
Probable space group: P 2/M
;
_chemical_formula_sum "Si O2"
_cell_formula_units_Z 32
_cell_length_a 14.515232
_cell_length_b 9.213451
_cell_length_c 25.087789
_cell_angle_alpha 90.000000
_cell_angle_beta 150.674361
_cell_angle_gamma 90.000000
_cell_volume 1643.248414
_symmetry_space_group_name_H-M "P 2/M"
_symmetry_group_IT_number 10
_symmetry_cell_setting 'monoclinic'
loop_
_space_group_symop_operation_xyz
x,y,z
-x,y,-z
-x,-y,-z
x,-y,z
loop_
_atom_site_type_symbol
_atom_site_label
_atom_site_fract_x
_atom_site_fract_y
_atom_site_fract_z
Si Si1 0.068105 0.169193 0.885049
Si Si2 0.373803 0.669401 0.486361
Si Si3 0.838537 0.671586 0.960115
Si Si4 0.289852 0.828321 0.893508
Si Si5 0.021040 0.828342 0.343999
Si Si6 0.121733 0.172236 0.512449
Si Si7 0.350379 0.160394 0.310728
Si Si8 0.459036 0.163469 0.250749
O O1 0.180079 0.228273 0.890240
O O2 0.847973 0.193825 0.761519
O O3 0.109376 0.000000 0.917998
O O4 0.124158 0.265156 0.963236
O O5 0.500000 0.714782 0.500000
O O6 0.331783 0.500000 0.467898
O O7 0.177861 0.753963 0.386069
O O8 0.494581 0.719137 0.598037
O O9 0.826865 0.500000 0.958246
O O10 0.635109 0.732228 0.839987
O O11 0.000000 0.720285 0.000000
O O12 0.180100 0.784697 0.783578
O O13 0.302304 0.000000 0.903353
O O14 0.500000 0.760533 0.000000
O O15 0.038257 0.770627 0.413703
O O16 0.053117 0.000000 0.357433
O O17 0.335659 0.223532 0.629125
O O18 0.000000 0.236052 0.500000
O O19 0.110630 0.000000 0.505989
O O20 0.323090 0.163985 0.233436
O O21 0.424288 0.000000 0.365132
O O22 0.476015 0.000000 0.235832
#
# Coordination Sequence:
#
# PCOD8061460 Si02
#       8
#     4   4   4   4   4   4   4   4
#     4  10  20  35  57  84 113 146 186 236 283 332
#     4  11  23  35  51  80 115 150 188 229 279 336
#     4  11  23  36  53  80 114 154 191 228 280 338
#     4   9  19  35  58  88 114 142 187 238 285 327
#     4  10  19  36  60  83 112 148 187 233 278 329
#     4   9  18  33  56  87 115 144 184 227 276 330
#     4  10  19  33  55  83 111 141 183 228 280 335
#     4  10  19  34  56  82 111 144 184 231 278 329
#
# _framework density 19.473621999999999
#
# number of rings (size 3 to 8) (size 9 to 14) (size 15 to 20)
#    0.000    2.000    2.500    1.500    0.000    4.500 
#    0.000    4.375    0.000    4.500    0.000    0.000 
#    0.000    0.000    0.000    0.000    0.000    0.000 
#
# Total GULP energy -396736.664098 kJ/mol
# GULP energy per Si atom -12398.020753 kJ/mol
# Density = 1.942930 g / cm^3
# Si number density = 19.473622 Si / 1000 Ang^3
#
#
#
# Elastic Constant Matrix: (Units=GPa)
#
#
# Indices 1 2 3 4 5 6 
#
# 1 109.6029 24.7605 57.6466 0.0000 6.5603 0.0000
# 2 24.7605 40.0725 36.4223 0.0000 -2.7667 0.0000
# 3 57.6466 36.4223 141.5477 0.0000 -0.5249 0.0000
# 4 0.0000 0.0000 0.0000 8.8219 0.0000 -1.3537
# 5 6.5603 -2.7667 -0.5249 0.0000 32.5987 0.0000
# 6 0.0000 0.0000 0.0000 -1.3537 0.0000 16.9185
#
#
#
# Elastic Compliance Matrix: (Units=1/GPa)
#
#
# Indices 1 2 3 4 5 6 
#
# 1 0.012327 -0.004235 -0.003942 0.000000 -0.002904 0.000000
# 2 -0.004235 0.034255 -0.007076 0.000000 0.003646 0.000000
# 3 -0.003942 -0.007076 0.010492 0.000000 0.000362 0.000000
# 4 0.000000 0.000000 0.000000 0.114763 0.000000 0.009183
# 5 -0.002904 0.003646 0.000362 0.000000 0.031576 0.000000
# 6 0.000000 0.000000 0.000000 0.009183 0.000000 0.059842
#
#
# Mechanical properties :
#
#
# Convention : Reuss Voigt Hill
#
# Bulk Modulus (GPa) = 37.63755 58.76465 48.20110
# Shear Modulus (GPa) = 16.52261 23.16074 19.84168
#
# Velocity S-wave (km/s) = 2.91600 3.45242 3.19548
# Velocity P-wave (km/s) = 5.54137 6.79223 6.19843
#
# Compressibility (1/GPa) = 0.02656921
#
# Stress axis : x y z
#
# Youngs Moduli (GPa) = 81.11970 29.19307 95.31014
#
# Poissons Ratio (x) = 0.12363 0.37567
# Poissons Ratio (y) = 0.34355 0.67441
# Poissons Ratio (z) = 0.31973 0.20657
#
# Static dielectric constant tensor:
#      x y z
#    x 3.692230 0.000000 0.054920 
#    y 0.000000 3.164150 0.000000 
#    z 0.054920 0.000000 3.662470 
# 
# 
# High freq. dielectric constant tensor:
#      x y z
#    x 1.756790 0.000000 -0.002530 
#    y 0.000000 1.717640 0.000000 
#    z -0.002530 0.000000 1.764990 
# 
# From -- ./inp_files/93143.got.cif
#   From: 2010.06.25/outbox.cif.g09.slc.cpg/sg10_47_cif.got.tgz:93143.got - 2010.06.27 22:07:45.
