data_PCOD8061876
_publ_section_title
;
Structure prediction by ZEFSAII (Michael W. Deem and Ramdas Pophale) SiO2 
 PCOD8061876
Probable space group: P 2/M
;
_chemical_formula_sum "Si O2"
_cell_formula_units_Z 32
_cell_length_a 22.204633
_cell_length_b 9.260034
_cell_length_c 13.893137
_cell_angle_alpha 90.000000
_cell_angle_beta 36.960943
_cell_angle_gamma 90.000000
_cell_volume 1717.617189
_symmetry_space_group_name_H-M "P 2/M"
_symmetry_group_IT_number 10
_symmetry_cell_setting 'monoclinic'
loop_
_space_group_symop_operation_xyz
x,y,z
-x,y,-z
-x,-y,-z
x,-y,z
loop_
_atom_site_type_symbol
_atom_site_label
_atom_site_fract_x
_atom_site_fract_y
_atom_site_fract_z
Si Si1 0.595472 0.169561 0.314001
Si Si2 0.349008 0.166939 0.337089
Si Si3 0.183704 0.669843 0.667664
Si Si4 0.072038 0.329304 0.494480
Si Si5 0.560234 0.828926 0.141831
Si Si6 0.278822 0.833006 0.214769
Si Si7 0.008461 0.670722 0.200043
Si Si8 0.212874 0.328658 0.849739
O O1 0.500000 0.209816 0.500000
O O2 0.574872 0.223685 0.232210
O O3 0.689580 0.254258 0.233735
O O4 0.618578 0.000000 0.288290
O O5 0.262382 0.253776 0.499200
O O6 0.455282 0.231849 0.235582
O O7 0.340699 0.187847 0.233659
O O8 0.338346 0.000000 0.380369
O O9 0.198291 0.500000 0.636284
O O10 0.072865 0.717704 0.775799
O O11 0.198847 0.718957 0.757525
O O12 0.087942 0.500000 0.479390
O O13 0.178816 0.258873 0.341711
O O14 0.022999 0.268546 0.655373
O O15 0.000000 0.283523 0.500000
O O16 0.556914 0.000000 0.138854
O O17 0.651765 0.772071 0.959886
O O18 0.250318 0.000000 0.235504
O O19 0.015539 0.500000 0.195560
O O20 0.117096 0.730976 0.031174
O O21 0.224186 0.500000 0.844618
#
# Coordination Sequence:
#
# PCOD8061876 Si02
#       8
#     4   4   4   4   4   4   4   4
#     4  10  21  38  57  78 108 145 178 213 267 323
#     4  10  19  34  57  81 106 139 180 221 265 316
#     4  10  19  34  56  80 108 141 177 220 269 316
#     4  10  21  36  56  80 109 144 178 215 266 322
#     4   9  19  35  55  78 107 143 179 217 264 321
#     4  10  20  35  56  82 108 138 179 224 266 310
#     4   9  18  35  55  77 107 141 176 214 262 320
#     4  10  21  35  56  82 106 138 182 225 264 311
#
# _framework density 18.630458999999998
#
# number of rings (size 3 to 8) (size 9 to 14) (size 15 to 20)
#    0.000    2.250    1.250    1.500    1.750    5.000 
#    0.000    2.500    0.000    3.000    0.000    0.000 
#    0.000    0.000    0.000    0.000    0.000    0.000 
#
# Total GULP energy -396850.278790 kJ/mol
# GULP energy per Si atom -12401.571212 kJ/mol
# Density = 1.858806 g / cm^3
# Si number density = 18.630459 Si / 1000 Ang^3
#
#
#
# Elastic Constant Matrix: (Units=GPa)
#
#
# Indices 1 2 3 4 5 6 
#
# 1 144.4914 28.5417 63.5586 0.0000 -1.2148 0.0000
# 2 28.5417 20.4588 25.1377 0.0000 -1.2696 0.0000
# 3 63.5586 25.1377 145.0635 0.0000 4.5124 0.0000
# 4 0.0000 0.0000 0.0000 29.1580 0.0000 -6.9997
# 5 -1.2148 -1.2696 4.5124 0.0000 35.3596 0.0000
# 6 0.0000 0.0000 0.0000 -6.9997 0.0000 26.7203
#
#
#
# Elastic Compliance Matrix: (Units=1/GPa)
#
#
# Indices 1 2 3 4 5 6 
#
# 1 0.010252 -0.011124 -0.002573 0.000000 0.000281 0.000000
# 2 -0.011124 0.074635 -0.008163 0.000000 0.003339 0.000000
# 3 -0.002573 -0.008163 0.009485 0.000000 -0.001592 0.000000
# 4 0.000000 0.000000 0.000000 0.036597 0.000000 0.009587
# 5 0.000281 0.003339 -0.001592 0.000000 0.028614 0.000000
# 6 0.000000 0.000000 0.000000 0.009587 0.000000 0.039936
#
#
# Mechanical properties :
#
#
# Convention : Reuss Voigt Hill
#
# Bulk Modulus (GPa) = 19.74265 60.49886 40.12076
# Shear Modulus (GPa) = 19.22158 31.09929 25.16044
#
# Velocity S-wave (km/s) = 3.21554 4.09010 3.67890
# Velocity P-wave (km/s) = 4.94027 7.40600 6.29504
#
# Compressibility (1/GPa) = 0.05065176
#
# Stress axis : x y z
#
# Youngs Moduli (GPa) = 97.53832 13.39853 105.42896
#
# Poissons Ratio (x) = 0.14904 0.27128
# Poissons Ratio (y) = 1.08500 0.86065
# Poissons Ratio (z) = 0.25098 0.10938
#
# Static dielectric constant tensor:
#      x y z
#    x 3.679140 0.000000 0.106680 
#    y 0.000000 3.095200 0.000000 
#    z 0.106680 0.000000 3.667790 
# 
# 
# High freq. dielectric constant tensor:
#      x y z
#    x 1.739690 0.000000 0.001970 
#    y 0.000000 1.686460 0.000000 
#    z 0.001970 0.000000 1.739750 
# 
# From -- ./inp_files/57002.got.cif
#   From: 2010.06.25/outbox.cif.g09.slc.cpg/sg10_29_cif.got.tgz:57002.got - 2010.06.27 22:07:45.
