data_PCOD8061426
_publ_section_title
;
Structure prediction by ZEFSAII (Michael W. Deem and Ramdas Pophale) SiO2 
 PCOD8061426
Probable space group: P 2/M
;
_chemical_formula_sum "Si O2"
_cell_formula_units_Z 32
_cell_length_a 30.087294
_cell_length_b 9.547085
_cell_length_c 12.884645
_cell_angle_alpha 90.000000
_cell_angle_beta 27.768624
_cell_angle_gamma 90.000000
_cell_volume 1724.332847
_symmetry_space_group_name_H-M "P 2/M"
_symmetry_group_IT_number 10
_symmetry_cell_setting 'monoclinic'
loop_
_space_group_symop_operation_xyz
x,y,z
-x,y,-z
-x,-y,-z
x,-y,z
loop_
_atom_site_type_symbol
_atom_site_label
_atom_site_fract_x
_atom_site_fract_y
_atom_site_fract_z
Si Si1 0.225364 0.335369 0.155260
Si Si2 0.597018 0.658240 0.551434
Si Si3 0.206823 0.341701 0.957393
Si Si4 0.116923 0.162745 0.549750
Si Si5 0.107415 0.837875 0.990333
Si Si6 0.403727 0.837984 0.248735
Si Si7 0.560125 0.335258 0.281212
Si Si8 0.797822 0.837956 0.413688
O O1 0.220544 0.500000 0.191718
O O2 0.188434 0.305521 0.115398
O O3 0.156375 0.251054 0.372972
O O4 0.332884 0.275197 0.947180
O O5 0.593315 0.500000 0.602040
O O6 0.621150 0.760808 0.594416
O O7 0.495903 0.698885 0.709217
O O8 0.679957 0.674484 0.294876
O O9 0.174317 0.500000 0.999786
O O10 0.145097 0.240025 0.013938
O O11 0.160659 0.226755 0.566086
O O12 0.004584 0.183211 0.787200
O O13 0.144987 0.000000 0.476988
O O14 0.136151 0.000000 0.943188
O O15 0.155163 0.772188 0.787464
O O16 0.316201 0.814640 0.350653
O O17 0.417780 0.000000 0.247339
O O18 0.500000 0.775318 0.000000
O O19 0.500000 0.266863 0.500000
O O20 0.567679 0.500000 0.286140
O O21 0.826464 0.000000 0.353848
#
# Coordination Sequence:
#
# PCOD8061426 Si02
#       8
#     4   4   4   4   4   4   4   4
#     4  10  21  37  56  81 113 147 181 220 273 328
#     4  10  19  33  55  81 107 139 181 224 262 311
#     4  10  20  35  57  83 111 143 181 226 272 321
#     4  10  22  38  57  81 108 141 184 231 275 320
#     4  10  20  37  61  82 102 139 188 231 272 324
#     4  10  21  35  53  80 112 143 173 214 273 330
#     4   9  16  31  55  78 103 139 179 213 251 310
#     4   9  18  36  58  79 106 141 180 221 268 326
#
# _framework density 18.557903
#
# number of rings (size 3 to 8) (size 9 to 14) (size 15 to 20)
#    0.000    2.250    2.500    0.375    1.750    3.250 
#    0.000    3.750    0.000    2.250    0.000    0.000 
#    0.000    0.000    0.000    0.000    0.000    0.000 
#
# Total GULP energy -396806.562793 kJ/mol
# GULP energy per Si atom -12400.205087 kJ/mol
# Density = 1.851566 g / cm^3
# Si number density = 18.557903 Si / 1000 Ang^3
#
#
#
# Elastic Constant Matrix: (Units=GPa)
#
#
# Indices 1 2 3 4 5 6 
#
# 1 127.1787 48.8822 53.0389 0.0000 4.3879 0.0000
# 2 48.8822 49.6932 36.9372 0.0000 4.8167 0.0000
# 3 53.0389 36.9372 103.4924 0.0000 6.4623 0.0000
# 4 0.0000 0.0000 0.0000 26.8316 0.0000 0.8433
# 5 4.3879 4.8167 6.4623 0.0000 30.1811 0.0000
# 6 0.0000 0.0000 0.0000 0.8433 0.0000 17.2755
#
#
#
# Elastic Compliance Matrix: (Units=1/GPa)
#
#
# Indices 1 2 3 4 5 6 
#
# 1 0.013264 -0.010912 -0.002931 0.000000 0.000441 0.000000
# 2 -0.010912 0.036526 -0.007277 0.000000 -0.002685 0.000000
# 3 -0.002931 -0.007277 0.013848 0.000000 -0.001378 0.000000
# 4 0.000000 0.000000 0.000000 0.037327 0.000000 -0.001822
# 5 0.000441 -0.002685 -0.001378 0.000000 0.033793 0.000000
# 6 0.000000 0.000000 0.000000 -0.001822 0.000000 0.057974
#
#
# Mechanical properties :
#
#
# Convention : Reuss Voigt Hill
#
# Bulk Modulus (GPa) = 46.72993 62.00896 54.36945
# Shear Modulus (GPa) = 20.65234 24.29137 22.47185
#
# Velocity S-wave (km/s) = 3.33957 3.62187 3.48358
# Velocity P-wave (km/s) = 6.33290 7.13981 6.74843
#
# Compressibility (1/GPa) = 0.02139956
#
# Stress axis : x y z
#
# Youngs Moduli (GPa) = 75.39186 27.37761 72.21481
#
# Poissons Ratio (x) = 0.29874 0.21164
# Poissons Ratio (y) = 0.82267 0.52548
# Poissons Ratio (z) = 0.22095 0.19922
#
# Static dielectric constant tensor:
#      x y z
#    x 3.468590 0.000000 -0.057480 
#    y 0.000000 3.105850 0.000000 
#    z -0.057480 0.000000 3.466690 
# 
# 
# High freq. dielectric constant tensor:
#      x y z
#    x 1.730980 0.000000 -0.005210 
#    y 0.000000 1.683620 0.000000 
#    z -0.005210 0.000000 1.725270 
# 
# From -- ./inp_files/49888.got.cif
#   From: 2010.06.25/outbox.cif.g09.slc.cpg/sg10_25_cif.got.tgz:49888.got - 2010.06.27 22:07:45.
