data_PCOD8061275
_publ_section_title
;
Structure prediction by ZEFSAII (Michael W. Deem and Ramdas Pophale) SiO2 
 PCOD8061275
Probable space group: P 2/M
;
_chemical_formula_sum "Si O2"
_cell_formula_units_Z 32
_cell_length_a 31.515282
_cell_length_b 8.765000
_cell_length_c 12.068105
_cell_angle_alpha 90.000000
_cell_angle_beta 29.715265
_cell_angle_gamma 90.000000
_cell_volume 1652.427530
_symmetry_space_group_name_H-M "P 2/M"
_symmetry_group_IT_number 10
_symmetry_cell_setting 'monoclinic'
loop_
_space_group_symop_operation_xyz
x,y,z
-x,y,-z
-x,-y,-z
x,-y,z
loop_
_atom_site_type_symbol
_atom_site_label
_atom_site_fract_x
_atom_site_fract_y
_atom_site_fract_z
Si Si1 0.404026 0.820161 0.207848
Si Si2 0.222488 0.679817 0.224865
Si Si3 0.468001 0.825280 0.456943
Si Si4 0.743746 0.677575 0.325906
Si Si5 0.637681 0.175058 0.941873
Si Si6 0.290604 0.323056 0.837957
Si Si7 0.920287 0.818888 0.311039
Si Si8 0.898405 0.681974 0.128077
O O1 0.344304 0.758139 0.440596
O O2 0.360312 0.774397 0.190480
O O3 0.409871 0.000000 0.207353
O O4 0.500000 0.751024 0.000000
O O5 0.203576 0.500000 0.269625
O O6 0.301484 0.714690 0.126716
O O7 0.138394 0.770617 0.453113
O O8 0.243823 0.743472 0.053156
O O9 0.500000 0.752586 0.500000
O O10 0.384291 0.741872 0.605096
O O11 0.442958 0.000000 0.534207
O O12 0.540034 0.805963 0.201051
O O13 0.730600 0.500000 0.377390
O O14 0.763110 0.711384 0.152108
O O15 0.823909 0.738055 0.214824
O O16 0.668446 0.000000 0.887908
O O17 0.301927 0.500000 0.833756
O O18 0.878599 0.750961 0.293721
O O19 0.926630 0.000000 0.286414
O O20 0.013651 0.748893 0.119137
O O21 0.905215 0.500000 0.120878
#
# Coordination Sequence:
#
# PCOD8061275 Si02
#       8
#     4   4   4   4   4   4   4   4
#     4  10  21  36  54  78 110 147 185 225 274 326
#     4  11  22  36  55  80 110 144 183 226 276 328
#     4  10  19  33  54  78 107 145 188 230 276 326
#     4  10  22  39  58  81 110 146 187 228 272 325
#     4  10  20  34  53  79 110 142 182 232 280 330
#     4  10  22  38  55  78 110 148 189 231 274 324
#     4  11  22  37  60  88 117 142 175 224 277 330
#     4  10  20  38  63  88 114 144 181 222 272 331
#
# _framework density 19.365449000000002
#
# number of rings (size 3 to 8) (size 9 to 14) (size 15 to 20)
#    0.000    1.750    1.250    4.125    0.000    6.500 
#    0.000    0.625    0.000    3.750    0.000    0.000 
#    0.000    0.000    0.000    0.000    0.000    0.000 
#
# Total GULP energy -396869.856479 kJ/mol
# GULP energy per Si atom -12402.183015 kJ/mol
# Density = 1.932137 g / cm^3
# Si number density = 19.365449 Si / 1000 Ang^3
#
#
#
# Elastic Constant Matrix: (Units=GPa)
#
#
# Indices 1 2 3 4 5 6 
#
# 1 109.5274 35.6946 56.2391 0.0000 -2.6381 0.0000
# 2 35.6946 55.1053 28.9419 0.0000 3.2328 0.0000
# 3 56.2391 28.9419 107.5590 0.0000 7.5887 0.0000
# 4 0.0000 0.0000 0.0000 31.0742 0.0000 -2.0385
# 5 -2.6381 3.2328 7.5887 0.0000 30.9483 0.0000
# 6 0.0000 0.0000 0.0000 -2.0385 0.0000 26.1006
#
#
#
# Elastic Compliance Matrix: (Units=1/GPa)
#
#
# Indices 1 2 3 4 5 6 
#
# 1 0.014385 -0.006336 -0.006055 0.000000 0.003373 0.000000
# 2 -0.006336 0.023945 -0.002967 0.000000 -0.002314 0.000000
# 3 -0.006055 -0.002967 0.013510 0.000000 -0.003519 0.000000
# 4 0.000000 0.000000 0.000000 0.032347 0.000000 0.002526
# 5 0.003373 -0.002314 -0.003519 0.000000 0.033704 0.000000
# 6 0.000000 0.000000 0.000000 0.002526 0.000000 0.038511
#
#
# Mechanical properties :
#
#
# Convention : Reuss Voigt Hill
#
# Bulk Modulus (GPa) = 47.33769 57.10477 52.22123
# Shear Modulus (GPa) = 25.75221 27.71236 26.73229
#
# Velocity S-wave (km/s) = 3.65060 3.78699 3.71942
# Velocity P-wave (km/s) = 6.50128 6.97665 6.74316
#
# Compressibility (1/GPa) = 0.02112481
#
# Stress axis : x y z
#
# Youngs Moduli (GPa) = 69.51651 41.76190 74.02137
#
# Poissons Ratio (x) = 0.26460 0.44817
# Poissons Ratio (y) = 0.44045 0.21963
# Poissons Ratio (z) = 0.42089 0.12391
#
# Static dielectric constant tensor:
#      x y z
#    x 3.656550 0.000000 0.101850 
#    y 0.000000 3.438320 0.000000 
#    z 0.101850 0.000000 3.567760 
# 
# 
# High freq. dielectric constant tensor:
#      x y z
#    x 1.754900 0.000000 0.007090 
#    y 0.000000 1.746840 0.000000 
#    z 0.007090 0.000000 1.756420 
# 
# From -- ./inp_files/58207.got.cif
#   From: 2010.06.25/outbox.cif.g09.slc.cpg/sg10_30_cif.got.tgz:58207.got - 2010.06.27 22:07:45.
