data_PCOD8061473
_publ_section_title
;
Structure prediction by ZEFSAII (Michael W. Deem and Ramdas Pophale) SiO2 
 PCOD8061473
Probable space group: P 2/M
;
_chemical_formula_sum "Si O2"
_cell_formula_units_Z 32
_cell_length_a 25.018521
_cell_length_b 8.933529
_cell_length_c 20.983542
_cell_angle_alpha 90.000000
_cell_angle_beta 158.793656
_cell_angle_gamma 90.000000
_cell_volume 1696.466809
_symmetry_space_group_name_H-M "P 2/M"
_symmetry_group_IT_number 10
_symmetry_cell_setting 'monoclinic'
loop_
_space_group_symop_operation_xyz
x,y,z
-x,y,-z
-x,-y,-z
x,-y,z
loop_
_atom_site_type_symbol
_atom_site_label
_atom_site_fract_x
_atom_site_fract_y
_atom_site_fract_z
Si Si1 0.380628 0.174618 0.558832
Si Si2 0.843349 0.327152 0.354916
Si Si3 0.595926 0.177154 0.000511
Si Si4 0.628755 0.324101 0.908283
Si Si5 0.801597 0.674877 0.977330
Si Si6 0.555711 0.175024 0.629035
Si Si7 0.861480 0.676008 0.642717
Si Si8 0.719770 0.327612 0.351915
O O1 0.466505 0.273542 0.706402
O O2 0.432371 0.213322 0.544983
O O3 0.213763 0.229185 0.383946
O O4 0.401664 0.000000 0.597211
O O5 0.821066 0.500000 0.310293
O O6 0.837452 0.307434 0.425040
O O7 0.000000 0.269333 0.500000
O O8 0.704991 0.231190 0.176954
O O9 0.669834 0.237932 0.017982
O O10 0.430045 0.236214 0.826790
O O11 0.589507 0.000000 0.992768
O O12 0.631045 0.500000 0.924059
O O13 0.742867 0.273320 0.980938
O O14 0.777020 0.500000 0.941372
O O15 0.969764 0.723632 0.162094
O O16 0.712420 0.753827 0.821503
O O17 0.500000 0.242397 0.500000
O O18 0.582618 0.000000 0.652559
O O19 0.839455 0.500000 0.629106
O O20 0.802579 0.726627 0.507894
O O21 0.671784 0.500000 0.305053
#
# Coordination Sequence:
#
# PCOD8061473 Si02
#       8
#     4   4   4   4   4   4   4   4
#     4  10  19  33  55  84 113 142 183 226 268 322
#     4  10  23  41  62  83 106 142 189 234 280 335
#     4  12  24  37  56  82 113 146 184 229 280 334
#     4  10  19  34  57  81 107 142 184 229 275 326
#     4   9  20  35  56  85 114 144 184 231 277 322
#     4   9  19  37  59  82 113 152 189 224 267 323
#     4  10  20  35  56  83 115 147 180 226 281 331
#     4  10  21  38  60  82 107 146 189 228 275 335
#
# _framework density 18.862732999999999
#
# number of rings (size 3 to 8) (size 9 to 14) (size 15 to 20)
#    0.000    2.000    1.250    2.250    1.750    4.000 
#    0.000    0.625    0.000    3.750    0.000    0.000 
#    0.000    0.000    0.000    0.000    0.000    0.000 
#
# Total GULP energy -396824.462926 kJ/mol
# GULP energy per Si atom -12400.764466 kJ/mol
# Density = 1.881980 g / cm^3
# Si number density = 18.862733 Si / 1000 Ang^3
#
#
#
# Elastic Constant Matrix: (Units=GPa)
#
#
# Indices 1 2 3 4 5 6 
#
# 1 98.2419 32.8563 65.6805 0.0000 -0.6628 0.0000
# 2 32.8563 63.3510 41.6326 0.0000 1.8457 0.0000
# 3 65.6805 41.6326 122.6636 0.0000 7.5639 0.0000
# 4 0.0000 0.0000 0.0000 17.3925 0.0000 -4.4156
# 5 -0.6628 1.8457 7.5639 0.0000 31.0071 0.0000
# 6 0.0000 0.0000 0.0000 -4.4156 0.0000 24.7207
#
#
#
# Elastic Compliance Matrix: (Units=1/GPa)
#
#
# Indices 1 2 3 4 5 6 
#
# 1 0.016632 -0.003533 -0.007860 0.000000 0.002483 0.000000
# 2 -0.003533 0.021074 -0.005258 0.000000 -0.000047 0.000000
# 3 -0.007860 -0.005258 0.014352 0.000000 -0.003356 0.000000
# 4 0.000000 0.000000 0.000000 0.060227 0.000000 0.010758
# 5 0.002483 -0.000047 -0.003356 0.000000 0.033125 0.000000
# 6 0.000000 0.000000 0.000000 0.010758 0.000000 0.042373
#
#
# Mechanical properties :
#
#
# Convention : Reuss Voigt Hill
#
# Bulk Modulus (GPa) = 53.31297 62.73280 58.02288
# Shear Modulus (GPa) = 21.99366 24.22986 23.11176
#
# Velocity S-wave (km/s) = 3.41836 3.58793 3.50417
# Velocity P-wave (km/s) = 6.62610 7.10592 6.87020
#
# Compressibility (1/GPa) = 0.01875716
#
# Stress axis : x y z
#
# Youngs Moduli (GPa) = 60.12537 47.45116 69.67539
#
# Poissons Ratio (x) = 0.16766 0.54761
# Poissons Ratio (y) = 0.21244 0.36635
# Poissons Ratio (z) = 0.47256 0.24949
#
# Static dielectric constant tensor:
#      x y z
#    x 3.634010 0.000000 0.014750 
#    y 0.000000 3.338380 0.000000 
#    z 0.014750 0.000000 3.391400 
# 
# 
# High freq. dielectric constant tensor:
#      x y z
#    x 1.740660 0.000000 0.006190 
#    y 0.000000 1.725490 0.000000 
#    z 0.006190 0.000000 1.721710 
# 
# From -- ./inp_files/87007.got.cif
#   From: 2010.06.25/outbox.cif.g09.slc.cpg/sg10_44_cif.got.tgz:87007.got - 2010.06.27 22:07:45.
