data_PCOD8061636
_publ_section_title
;
Structure prediction by ZEFSAII (Michael W. Deem and Ramdas Pophale) SiO2 
 PCOD8061636
Probable space group: P 2/M
;
_chemical_formula_sum "Si O2"
_cell_formula_units_Z 32
_cell_length_a 31.310771
_cell_length_b 9.157993
_cell_length_c 12.781200
_cell_angle_alpha 90.000000
_cell_angle_beta 27.345398
_cell_angle_gamma 90.000000
_cell_volume 1683.498489
_symmetry_space_group_name_H-M "P 2/M"
_symmetry_group_IT_number 10
_symmetry_cell_setting 'monoclinic'
loop_
_space_group_symop_operation_xyz
x,y,z
-x,y,-z
-x,-y,-z
x,-y,z
loop_
_atom_site_type_symbol
_atom_site_label
_atom_site_fract_x
_atom_site_fract_y
_atom_site_fract_z
Si Si1 0.289081 0.329515 0.423138
Si Si2 0.347382 0.163663 0.935386
Si Si3 0.278367 0.825935 0.862753
Si Si4 0.900493 0.335036 0.268146
Si Si5 0.102067 0.668516 0.321267
Si Si6 0.424276 0.332999 0.951090
Si Si7 0.637368 0.331353 0.517528
Si Si8 0.861914 0.164865 0.553599
O O1 0.311834 0.500000 0.378102
O O2 0.180744 0.295781 0.637793
O O3 0.315382 0.266562 0.480076
O O4 0.353621 0.262117 0.190187
O O5 0.336412 0.222140 0.840177
O O6 0.418270 0.257820 0.850157
O O7 0.387017 0.000000 0.846337
O O8 0.248921 0.171103 0.207549
O O9 0.330303 0.767580 0.648610
O O10 0.268227 0.000000 0.881573
O O11 0.175183 0.758429 0.092163
O O12 0.883722 0.500000 0.346763
O O13 0.900218 0.218706 0.360439
O O14 0.000000 0.321241 0.000000
O O15 0.132547 0.500000 0.255114
O O16 0.097600 0.727956 0.448026
O O17 0.000000 0.691006 0.500000
O O18 0.396986 0.500000 0.991086
O O19 0.527325 0.315553 0.771576
O O20 0.665522 0.500000 0.435292
O O21 0.896529 0.000000 0.499277
#
# Coordination Sequence:
#
# PCOD8061636 Si02
#       8
#     4   4   4   4   4   4   4   4
#     4   9  18  35  56  79 111 147 185 236 288 334
#     4   9  19  35  55  78 107 144 183 228 279 338
#     4  10  22  39  56  80 116 153 187 227 284 341
#     4  10  20  34  55  83 111 144 188 236 285 336
#     4  10  21  37  60  86 110 143 188 234 279 330
#     4  10  19  33  58  84 105 142 193 238 285 338
#     4  10  21  36  55  81 113 149 191 237 284 341
#     4  10  20  35  55  80 112 148 183 226 281 339
#
# _framework density 19.008037000000002
#
# number of rings (size 3 to 8) (size 9 to 14) (size 15 to 20)
#    0.000    2.250    1.250    2.250    0.000    7.250 
#    0.000    6.250    0.000    1.500    0.000    0.000 
#    0.000    0.000    0.000    0.000    0.000    0.000 
#
# Total GULP energy -396801.042528 kJ/mol
# GULP energy per Si atom -12400.032579 kJ/mol
# Density = 1.896477 g / cm^3
# Si number density = 19.008037 Si / 1000 Ang^3
#
#
#
# Elastic Constant Matrix: (Units=GPa)
#
#
# Indices 1 2 3 4 5 6 
#
# 1 119.8316 40.7605 57.7030 0.0000 2.3789 0.0000
# 2 40.7605 62.2293 34.7612 0.0000 -1.7493 0.0000
# 3 57.7030 34.7612 89.7105 0.0000 5.9105 0.0000
# 4 0.0000 0.0000 0.0000 21.2143 0.0000 -3.6872
# 5 2.3789 -1.7493 5.9105 0.0000 29.8024 0.0000
# 6 0.0000 0.0000 0.0000 -3.6872 0.0000 -1.3721
#
#
#
# Elastic Compliance Matrix: (Units=1/GPa)
#
#
# Indices 1 2 3 4 5 6 
#
# 1 0.013198 -0.004985 -0.006554 0.000000 -0.000046 0.000000
# 2 -0.004985 0.022627 -0.005750 0.000000 0.002866 0.000000
# 3 -0.006554 -0.005750 0.017812 0.000000 -0.003347 0.000000
# 4 0.000000 0.000000 0.000000 0.032131 0.000000 -0.086342
# 5 -0.000046 0.002866 -0.003347 0.000000 0.034390 0.000000
# 6 0.000000 0.000000 0.000000 -0.086342 0.000000 -0.496773
#
#
# Mechanical properties :
#
#
# Convention : Reuss Voigt Hill
#
# Bulk Modulus (GPa) = 52.47219 59.80231 56.13725
# Shear Modulus (GPa) = -14.89494 19.16535 2.13520
#
# Velocity S-wave (km/s) = -2.80235 3.17878 1.06102
# Velocity P-wave (km/s) = 4.14661 6.70841 5.57661
#
# Compressibility (1/GPa) = 0.01905772
#
# Stress axis : x y z
#
# Youngs Moduli (GPa) = 75.77122 44.19455 56.14339
#
# Poissons Ratio (x) = 0.22029 0.36799
# Poissons Ratio (y) = 0.37768 0.32285
# Poissons Ratio (z) = 0.49664 0.25414
#
# Static dielectric constant tensor:
#      x y z
#    x 3.570300 0.000000 0.030430 
#    y 0.000000 3.440100 0.000000 
#    z 0.030430 0.000000 3.342150 
# 
# 
# High freq. dielectric constant tensor:
#      x y z
#    x 1.745440 0.000000 0.000780 
#    y 0.000000 1.724370 0.000000 
#    z 0.000780 0.000000 1.733580 
# 
# From -- ./inp_files/58153.got.cif
#   From: 2010.06.25/outbox.cif.g09.slc.cpg/sg10_30_cif.got.tgz:58153.got - 2010.06.27 22:07:45.
