data_PCOD8061226
_publ_section_title
;
Structure prediction by ZEFSAII (Michael W. Deem and Ramdas Pophale) SiO2 
 PCOD8061226
Probable space group: P 2/M
;
_chemical_formula_sum "Si O2"
_cell_formula_units_Z 30
_cell_length_a 14.008439
_cell_length_b 13.711202
_cell_length_c 9.289160
_cell_angle_alpha 90.000000
_cell_angle_beta 116.791863
_cell_angle_gamma 90.000000
_cell_volume 1592.659177
_symmetry_space_group_name_H-M "P 2/M"
_symmetry_group_IT_number 10
_symmetry_cell_setting 'monoclinic'
loop_
_space_group_symop_operation_xyz
x,y,z
-x,y,-z
-x,-y,-z
x,-y,z
loop_
_atom_site_type_symbol
_atom_site_label
_atom_site_fract_x
_atom_site_fract_y
_atom_site_fract_z
Si Si1 0.500000 0.836425 0.500000
Si Si2 0.043207 0.610091 0.812653
Si Si3 0.815470 0.389998 0.343663
Si Si4 0.167154 0.709056 0.344285
Si Si5 0.560507 0.270326 0.825248
Si Si6 0.294281 0.109014 0.528557
Si Si7 0.252980 0.610954 0.138532
Si Si8 0.352429 0.764720 0.827677
O O1 0.443889 0.775976 0.335231
O O2 0.597673 0.896164 0.494645
O O3 0.001883 0.500000 0.823165
O O4 0.070646 0.615651 0.661416
O O5 0.954864 0.692361 0.793862
O O6 0.150367 0.634550 0.972278
O O7 0.769403 0.500000 0.296894
O O8 0.825797 0.363730 0.516768
O O9 0.741669 0.311817 0.213724
O O10 0.200344 0.819986 0.404720
O O11 0.250028 0.675877 0.279884
O O12 0.636794 0.364535 0.869066
O O13 0.442035 0.296834 0.799142
O O14 0.609413 0.200466 0.986742
O O15 0.321475 0.141523 0.710478
O O16 0.246408 0.000000 0.500761
O O17 0.256556 0.500000 0.187995
#
# Coordination Sequence:
#
# PCOD8061226 Si02
#       8
#     2   4   4   4   4   4   4   4
#     4  10  19  38  61  84 110 142 181 230 285 340
#     4  10  20  34  55  82 112 153 197 227 263 321
#     4  10  19  33  53  81 110 148 194 226 265 326
#     4  11  21  35  54  81 114 146 179 238 282 320
#     4  10  19  36  54  83 114 149 183 220 282 332
#     4  10  21  38  61  85 107 141 184 233 286 338
#     4  11  21  34  54  83 118 152 190 224 267 331
#     4   9  20  35  57  78 116 147 182 231 277 335
#
# _framework density 18.836421999999999
#
# number of rings (size 3 to 8) (size 9 to 14) (size 15 to 20)
#    0.000    1.867    2.667    2.200    0.000    2.667 
#    0.000    7.667    0.000    8.000    0.000    0.000 
#    0.000    0.000    0.000    0.000    0.000    0.000 
#
# Total GULP energy -371662.727264 kJ/mol
# GULP energy per Si atom -12388.757575 kJ/mol
# Density = 1.879355 g / cm^3
# Si number density = 18.836422 Si / 1000 Ang^3
#
#
#
# Elastic Constant Matrix: (Units=GPa)
#
#
# Indices 1 2 3 4 5 6 
#
# 1 80.4662 47.8344 16.8508 0.0000 2.6023 0.0000
# 2 47.8344 110.6100 37.4726 0.0000 5.2579 0.0000
# 3 16.8508 37.4726 85.6583 0.0000 -13.0385 0.0000
# 4 0.0000 0.0000 0.0000 15.9599 0.0000 3.4718
# 5 2.6023 5.2579 -13.0385 0.0000 30.5112 0.0000
# 6 0.0000 0.0000 0.0000 3.4718 0.0000 19.7577
#
#
#
# Elastic Compliance Matrix: (Units=1/GPa)
#
#
# Indices 1 2 3 4 5 6 
#
# 1 0.016732 -0.007153 -0.000205 0.000000 -0.000282 0.000000
# 2 -0.007153 0.014168 -0.005423 0.000000 -0.004149 0.000000
# 3 -0.000205 -0.005423 0.015222 0.000000 0.007457 0.000000
# 4 0.000000 0.000000 0.000000 0.065147 0.000000 -0.011448
# 5 -0.000282 -0.004149 0.007457 0.000000 0.036700 0.000000
# 6 0.000000 0.000000 0.000000 -0.011448 0.000000 0.052625
#
#
# Mechanical properties :
#
#
# Convention : Reuss Voigt Hill
#
# Bulk Modulus (GPa) = 48.63668 53.45001 51.04335
# Shear Modulus (GPa) = 21.45836 24.88423 23.17129
#
# Velocity S-wave (km/s) = 3.37886 3.63860 3.51113
# Velocity P-wave (km/s) = 6.41084 6.78896 6.60261
#
# Compressibility (1/GPa) = 0.02056061
#
# Stress axis : x y z
#
# Youngs Moduli (GPa) = 59.76632 70.57969 65.69469
#
# Poissons Ratio (x) = 0.50485 0.01349
# Poissons Ratio (y) = 0.42750 0.35623
# Poissons Ratio (z) = 0.01227 0.38272
#
# Static dielectric constant tensor:
#      x y z
#    x 3.668690 0.000000 -0.075520 
#    y 0.000000 3.014690 0.000000 
#    z -0.075520 0.000000 3.689490 
# 
# 
# High freq. dielectric constant tensor:
#      x y z
#    x 1.740260 0.000000 -0.010880 
#    y 0.000000 1.682190 0.000000 
#    z -0.010880 0.000000 1.750420 
# 
# From -- ./inp_files/25373.got.cif
#   From: 2010.06.25/outbox.cif.g09.slc.cpg/sg10_13_cif.got.tgz:25373.got - 2010.06.27 22:07:45.
