data_PCOD8061271
_publ_section_title
;
Structure prediction by ZEFSAII (Michael W. Deem and Ramdas Pophale) SiO2 
 PCOD8061271
Probable space group: P 2/M
;
_chemical_formula_sum "Si O2"
_cell_formula_units_Z 28
_cell_length_a 28.664968
_cell_length_b 8.407262
_cell_length_c 8.969737
_cell_angle_alpha 90.000000
_cell_angle_beta 140.755377
_cell_angle_gamma 90.000000
_cell_volume 1367.531553
_symmetry_space_group_name_H-M "P 2/M"
_symmetry_group_IT_number 10
_symmetry_cell_setting 'monoclinic'
loop_
_space_group_symop_operation_xyz
x,y,z
-x,y,-z
-x,-y,-z
x,-y,z
loop_
_atom_site_type_symbol
_atom_site_label
_atom_site_fract_x
_atom_site_fract_y
_atom_site_fract_z
Si Si1 0.859135 0.184873 0.492178
Si Si2 0.572750 0.810382 0.761942
Si Si3 0.855766 0.316022 0.807346
Si Si4 0.715873 0.186175 0.620380
Si Si5 0.573049 0.189841 0.099159
Si Si6 0.718836 0.810552 0.960805
Si Si7 0.995477 0.684736 0.662748
O O1 0.867159 0.285716 0.661548
O O2 0.788709 0.250746 0.227475
O O3 0.931008 0.208251 0.569961
O O4 0.849827 0.000000 0.509654
O O5 0.500000 0.744423 0.500000
O O6 0.572491 0.000000 0.760927
O O7 0.574049 0.744361 0.933297
O O8 0.644515 0.745580 0.853451
O O9 0.839952 0.500000 0.798202
O O10 0.787471 0.216518 0.699060
O O11 0.928565 0.260016 0.074123
O O12 0.644230 0.259329 0.361389
O O13 0.703569 0.000000 0.605685
O O14 0.723897 0.260130 0.805804
O O15 0.574187 0.000000 0.100633
O O16 0.500000 0.253692 0.000000
O O17 0.719244 0.000000 0.957723
O O18 0.979060 0.500000 0.655154
O O19 0.000000 0.720664 0.500000
#
# Coordination Sequence:
#
# PCOD8061271 Si02
#       7
#     4   4   4   4   4   4   4
#     4  11  22  36  56  81 109 139 174 218 265 313
#     4   9  15  24  40  65 102 142 174 207 253 309
#     4  11  23  38  56  78 106 139 175 215 262 316
#     4  10  19  33  54  78 106 138 176 221 264 310
#     4   9  16  26  44  73 106 139 175 216 262 309
#     4   9  18  31  48  75 107 137 171 215 264 308
#     4  10  22  40  59  79 106 140 177 217 262 314
#
# _framework density 20.474844999999998
#
# number of rings (size 3 to 8) (size 9 to 14) (size 15 to 20)
#    0.000    2.143    0.000    3.857    0.000    8.857 
#    0.000    0.714    0.000    0.429    0.000    0.000 
#    0.000    6.857    0.000    0.000    0.000    0.000 
#
# Total GULP energy -347292.047421 kJ/mol
# GULP energy per Si atom -12403.287408 kJ/mol
# Density = 2.042824 g / cm^3
# Si number density = 20.474845 Si / 1000 Ang^3
#
#
#
# Elastic Constant Matrix: (Units=GPa)
#
#
# Indices 1 2 3 4 5 6 
#
# 1 149.0129 3.6290 82.2068 0.0000 -0.9450 0.0000
# 2 3.6290 12.1672 14.0349 0.0000 -0.4020 0.0000
# 3 82.2068 14.0349 209.1257 0.0000 -1.8009 0.0000
# 4 0.0000 0.0000 0.0000 11.1735 0.0000 -5.5700
# 5 -0.9450 -0.4020 -1.8009 0.0000 46.6980 0.0000
# 6 0.0000 0.0000 0.0000 -5.5700 0.0000 4.9516
#
#
#
# Elastic Compliance Matrix: (Units=1/GPa)
#
#
# Indices 1 2 3 4 5 6 
#
# 1 0.008593 0.001447 -0.003474 0.000000 0.000052 0.000000
# 2 0.001447 0.089341 -0.006560 0.000000 0.000545 0.000000
# 3 -0.003474 -0.006560 0.006589 0.000000 0.000127 0.000000
# 4 0.000000 0.000000 0.000000 0.203759 0.000000 0.229207
# 5 0.000052 0.000545 0.000127 0.000000 0.021425 0.000000
# 6 0.000000 0.000000 0.000000 0.229207 0.000000 0.459788
#
#
# Mechanical properties :
#
#
# Convention : Reuss Voigt Hill
#
# Bulk Modulus (GPa) = 11.44850 63.33858 37.39354
# Shear Modulus (GPa) = 5.98239 30.59363 18.28801
#
# Velocity S-wave (km/s) = 1.71119 3.86969 2.99188
# Velocity P-wave (km/s) = 3.08348 7.13919 5.49890
#
# Compressibility (1/GPa) = 0.08734771
#
# Stress axis : x y z
#
# Youngs Moduli (GPa) = 116.37831 11.19302 151.76975
#
# Poissons Ratio (x) = -0.01619 0.52731
# Poissons Ratio (y) = -0.16835 0.99559
# Poissons Ratio (z) = 0.40434 0.07342
#
# Static dielectric constant tensor:
#      x y z
#    x 3.766520 0.000000 -0.075360 
#    y 0.000000 3.100890 0.000000 
#    z -0.075360 0.000000 4.048850 
# 
# 
# High freq. dielectric constant tensor:
#      x y z
#    x 1.815790 0.000000 -0.002170 
#    y 0.000000 1.745050 0.000000 
#    z -0.002170 0.000000 1.822670 
# 
# From -- ./inp_files/37229.got.cif
#   From: 2010.06.25/outbox.cif.g09.slc.cpg/sg10_19_cif.got.tgz:37229.got - 2010.06.27 22:07:45.
