data_PCOD8061298
_publ_section_title
;
Structure prediction by ZEFSAII (Michael W. Deem and Ramdas Pophale) SiO2 
 PCOD8061298
Probable space group: P 2/M
;
_chemical_formula_sum "Si O2"
_cell_formula_units_Z 32
_cell_length_a 14.182647
_cell_length_b 9.275447
_cell_length_c 12.528195
_cell_angle_alpha 90.000000
_cell_angle_beta 85.683993
_cell_angle_gamma 90.000000
_cell_volume 1643.415208
_symmetry_space_group_name_H-M "P 2/M"
_symmetry_group_IT_number 10
_symmetry_cell_setting 'monoclinic'
loop_
_space_group_symop_operation_xyz
x,y,z
-x,y,-z
-x,-y,-z
x,-y,z
loop_
_atom_site_type_symbol
_atom_site_label
_atom_site_fract_x
_atom_site_fract_y
_atom_site_fract_z
Si Si1 0.663018 0.830029 0.244392
Si Si2 0.607534 0.333331 0.461597
Si Si3 0.871425 0.830272 0.265890
Si Si4 0.762922 0.331553 0.873046
Si Si5 0.957444 0.833739 0.887411
Si Si6 0.889300 0.161521 0.497585
Si Si7 0.748667 0.666793 0.634355
Si Si8 0.598531 0.669244 0.046769
O O1 0.634588 0.767120 0.360975
O O2 0.773985 0.796796 0.212196
O O3 0.602645 0.754794 0.157276
O O4 0.642573 0.000000 0.246333
O O5 0.500000 0.306850 0.500000
O O6 0.626896 0.500000 0.429919
O O7 0.665660 0.284739 0.561541
O O8 0.862962 0.765906 0.386006
O O9 0.962720 0.765679 0.197760
O O10 0.888154 0.000000 0.274039
O O11 0.783051 0.500000 0.884327
O O12 0.860395 0.251138 0.886096
O O13 0.722208 0.295878 0.758637
O O14 0.683649 0.279567 0.963059
O O15 0.936237 0.000000 0.862049
O O16 0.000000 0.816835 0.000000
O O17 0.845044 0.251552 0.597381
O O18 0.000000 0.161578 0.500000
O O19 0.848280 0.000000 0.507943
O O20 0.770524 0.500000 0.619553
O O21 0.604388 0.500000 0.071345
O O22 0.500000 0.709189 0.000000
#
# Coordination Sequence:
#
# PCOD8061298 Si02
#       8
#     4   4   4   4   4   4   4   4
#     4  11  22  39  63  90 123 152 190 249 298 345
#     4  10  22  39  63  89 117 159 203 240 288 354
#     4   9  18  33  53  81 115 151 188 231 285 344
#     4  10  22  39  58  86 120 152 193 246 296 342
#     4  10  20  36  59  84 112 153 199 238 287 350
#     4  10  19  33  54  79 112 155 196 230 278 344
#     4  10  21  37  57  85 119 152 193 244 289 337
#     4  10  23  42  65  86 113 156 200 242 294 356
#
# _framework density 19.471647000000001
#
# number of rings (size 3 to 8) (size 9 to 14) (size 15 to 20)
#    0.000    2.000    1.250    1.875    1.750    4.000 
#    0.000    1.875    0.000    0.000    0.000    0.000 
#    0.000    0.000    0.000    0.000    0.000    0.000 
#
# Total GULP energy -396817.628031 kJ/mol
# GULP energy per Si atom -12400.550876 kJ/mol
# Density = 1.942733 g / cm^3
# Si number density = 19.471647 Si / 1000 Ang^3
#
#
#
# Elastic Constant Matrix: (Units=GPa)
#
#
# Indices 1 2 3 4 5 6 
#
# 1 114.6679 44.5987 44.9697 0.0000 3.5730 0.0000
# 2 44.5987 54.1763 43.2643 0.0000 3.5121 0.0000
# 3 44.9697 43.2643 99.6229 0.0000 5.8092 0.0000
# 4 0.0000 0.0000 0.0000 28.0744 0.0000 -3.6040
# 5 3.5730 3.5121 5.8092 0.0000 32.4941 0.0000
# 6 0.0000 0.0000 0.0000 -3.6040 0.0000 31.9936
#
#
#
# Elastic Compliance Matrix: (Units=1/GPa)
#
#
# Indices 1 2 3 4 5 6 
#
# 1 0.013054 -0.009245 -0.001872 0.000000 -0.000102 0.000000
# 2 -0.009245 0.034830 -0.010906 0.000000 -0.000798 0.000000
# 3 -0.001872 -0.010906 0.015702 0.000000 -0.001423 0.000000
# 4 0.000000 0.000000 0.000000 0.036142 0.000000 0.004071
# 5 -0.000102 -0.000798 -0.001423 0.000000 0.031127 0.000000
# 6 0.000000 0.000000 0.000000 0.004071 0.000000 0.031715
#
#
# Mechanical properties :
#
#
# Convention : Reuss Voigt Hill
#
# Bulk Modulus (GPa) = 51.17648 59.34807 55.26227
# Shear Modulus (GPa) = 23.46002 27.55471 25.50737
#
# Velocity S-wave (km/s) = 3.47483 3.76589 3.62328
# Velocity P-wave (km/s) = 6.51451 7.03240 6.77840
#
# Compressibility (1/GPa) = 0.01954023
#
# Stress axis : x y z
#
# Youngs Moduli (GPa) = 76.60706 28.71084 63.68549
#
# Poissons Ratio (x) = 0.26542 0.11920
# Poissons Ratio (y) = 0.70820 0.69458
# Poissons Ratio (z) = 0.14339 0.31313
#
# Static dielectric constant tensor:
#      x y z
#    x 3.628350 0.000000 -0.005380 
#    y 0.000000 3.402240 0.000000 
#    z -0.005380 0.000000 3.653610 
# 
# 
# High freq. dielectric constant tensor:
#      x y z
#    x 1.765900 0.000000 0.002530 
#    y 0.000000 1.736540 0.000000 
#    z 0.002530 0.000000 1.772640 
# 
# From -- ./inp_files/49817.got.cif
#   From: 2010.06.25/outbox.cif.g09.slc.cpg/sg10_25_cif.got.tgz:49817.got - 2010.06.27 22:07:45.
