data_PCOD8061628
_publ_section_title
;
Structure prediction by ZEFSAII (Michael W. Deem and Ramdas Pophale) SiO2 
 PCOD8061628
Probable space group: P 2/M
;
_chemical_formula_sum "Si O2"
_cell_formula_units_Z 28
_cell_length_a 9.742213
_cell_length_b 8.855592
_cell_length_c 32.004250
_cell_angle_alpha 90.000000
_cell_angle_beta 31.916684
_cell_angle_gamma 90.000000
_cell_volume 1459.756084
_symmetry_space_group_name_H-M "P 2/M"
_symmetry_group_IT_number 10
_symmetry_cell_setting 'monoclinic'
loop_
_space_group_symop_operation_xyz
x,y,z
-x,y,-z
-x,-y,-z
x,-y,z
loop_
_atom_site_type_symbol
_atom_site_label
_atom_site_fract_x
_atom_site_fract_y
_atom_site_fract_z
Si Si1 0.598206 0.320948 0.320204
Si Si2 0.788345 0.822643 0.644578
Si Si3 0.806658 0.666575 0.511333
Si Si4 0.056313 0.174059 0.936872
Si Si5 0.365036 0.178490 0.224751
Si Si6 0.139248 0.178244 0.197049
Si Si7 0.435040 0.326280 0.968866
O O1 0.595513 0.500000 0.316387
O O2 0.440824 0.255316 0.321857
O O3 0.464954 0.272807 0.399029
O O4 0.888099 0.260255 0.243708
O O5 0.768578 0.769350 0.697699
O O6 0.075696 0.777081 0.554097
O O7 0.753118 0.000000 0.648977
O O8 0.771777 0.500000 0.500428
O O9 0.000000 0.656172 0.500000
O O10 0.341712 0.240631 0.853564
O O11 0.028669 0.000000 0.929807
O O12 0.861187 0.276473 0.960870
O O13 0.000000 0.191514 0.000000
O O14 0.193968 0.237425 0.230007
O O15 0.382623 0.000000 0.216665
O O16 0.384012 0.219140 0.105494
O O17 0.093641 0.000000 0.207325
O O18 0.473115 0.500000 0.945574
O O19 0.500000 0.301243 0.000000
#
# Coordination Sequence:
#
# PCOD8061628 Si02
#       7
#     4   4   4   4   4   4   4
#     4  10  21  37  56  82 116 148 182 229 280 328
#     4  10  19  33  57  87 113 143 186 232 274 327
#     4   8  16  33  54  77 111 150 183 224 276 325
#     4  10  19  38  63  82 106 147 191 228 271 324
#     4   9  20  37  56  83 114 142 182 234 279 323
#     4  11  22  40  61  81 109 148 188 227 277 330
#     4  11  25  41  56  83 118 146 181 230 279 327
#
# _framework density 19.181287000000001
#
# number of rings (size 3 to 8) (size 9 to 14) (size 15 to 20)
#    0.000    2.143    1.429    2.571    2.000    4.571 
#    0.000    4.286    0.000    4.286    0.000    0.000 
#    0.000    0.000    0.000    0.000    0.000    0.000 
#
# Total GULP energy -347191.889683 kJ/mol
# GULP energy per Si atom -12399.710346 kJ/mol
# Density = 1.913763 g / cm^3
# Si number density = 19.181287 Si / 1000 Ang^3
#
#
#
# Elastic Constant Matrix: (Units=GPa)
#
#
# Indices 1 2 3 4 5 6 
#
# 1 74.8021 31.1132 12.1605 0.0001 10.4579 -0.0001
# 2 31.1132 63.2782 22.9786 0.0001 11.3067 -0.0001
# 3 12.1605 22.9786 68.7041 0.0022 19.0954 -0.0014
# 4 0.0001 0.0001 0.0022 -418.5369 -0.0005 285.7539
# 5 10.4579 11.3067 19.0954 -0.0005 27.5482 0.0003
# 6 -0.0001 -0.0001 -0.0014 285.7539 0.0003 -174.7925
#
#
#
# Elastic Compliance Matrix: (Units=1/GPa)
#
#
# Indices 1 2 3 4 5 6 
#
# 1 0.017098 -0.007993 0.000668 0.000000 -0.003673 0.000000
# 2 -0.007993 0.022084 -0.005321 0.000000 -0.002342 0.000000
# 3 0.000668 -0.005321 0.019422 0.000000 -0.011532 0.000000
# 4 0.000000 0.000000 0.000000 0.020568 0.000000 0.033625
# 5 -0.003673 -0.002342 -0.011532 0.000000 0.046649 0.000000
# 6 0.000000 0.000000 0.000000 0.033625 0.000000 0.049250
#
#
# Mechanical properties :
#
#
# Convention : Reuss Voigt Hill
#
# Bulk Modulus (GPa) = 30.01903 37.69879 33.85891
# Shear Modulus (GPa) = 23.64432 -103.78744 -40.07156
#
# Velocity S-wave (km/s) = 3.51476 -7.36384 -4.57562
# Velocity P-wave (km/s) = 5.67058 7.25293 3.19761
#
# Compressibility (1/GPa) = 0.03331220
#
# Stress axis : x y z
#
# Youngs Moduli (GPa) = 58.48531 45.28182 51.48883
#
# Poissons Ratio (x) = 0.36195 -0.03439
# Poissons Ratio (y) = 0.46749 0.27395
# Poissons Ratio (z) = -0.03907 0.24092
#
# Static dielectric constant tensor:
#      x y z
#    x 3.469160 0.000000 -0.079070 
#    y 0.000000 3.401560 0.000000 
#    z -0.079070 0.000000 3.889190 
# 
# 
# High freq. dielectric constant tensor:
#      x y z
#    x 1.732310 0.000000 -0.000760 
#    y 0.000000 1.736810 0.000000 
#    z -0.000760 0.000000 1.757320 
# 
# From -- ./inp_files/91970.got.cif
#   From: 2010.06.25/outbox.cif.g09.slc.cpg/sg10_46_cif.got.tgz:91970.got - 2010.06.27 22:07:45.
