data_PCOD8061958
_publ_section_title
;
Structure prediction by ZEFSAII (Michael W. Deem and Ramdas Pophale) SiO2 
 PCOD8061958
Probable space group: P 2/M
;
_chemical_formula_sum "Si O2"
_cell_formula_units_Z 30
_cell_length_a 11.506714
_cell_length_b 8.548647
_cell_length_c 22.441288
_cell_angle_alpha 90.000000
_cell_angle_beta 136.258134
_cell_angle_gamma 90.000000
_cell_volume 1526.273809
_symmetry_space_group_name_H-M "P 2/M"
_symmetry_group_IT_number 10
_symmetry_cell_setting 'monoclinic'
loop_
_space_group_symop_operation_xyz
x,y,z
-x,y,-z
-x,-y,-z
x,-y,z
loop_
_atom_site_type_symbol
_atom_site_label
_atom_site_fract_x
_atom_site_fract_y
_atom_site_fract_z
Si Si1 0.121982 0.167960 0.865071
Si Si2 0.243522 0.683262 0.604754
Si Si3 0.444813 0.184492 0.855563
Si Si4 0.414462 0.318067 0.207261
Si Si5 0.942936 0.815991 0.568328
Si Si6 0.906507 0.682307 0.267417
Si Si7 0.064413 0.815253 0.087761
Si Si8 0.500000 0.218345 0.000000
O O1 0.060637 0.284467 0.790227
O O2 0.320909 0.130882 0.936575
O O3 0.067981 0.234086 0.909767
O O4 0.032809 0.000000 0.821580
O O5 0.206124 0.500000 0.598590
O O6 0.435617 0.725032 0.691905
O O7 0.210652 0.736865 0.524678
O O8 0.119317 0.777716 0.601776
O O9 0.568876 0.222664 0.848023
O O10 0.254969 0.224118 0.767220
O O11 0.490353 0.296886 0.930478
O O12 0.463830 0.000000 0.879593
O O13 0.416604 0.500000 0.192823
O O14 0.238979 0.266564 0.170902
O O15 0.941720 0.744302 0.634833
O O16 0.914435 0.000000 0.560490
O O17 0.878317 0.500000 0.266894
O O18 0.090699 0.000000 0.094100
O O19 0.000000 0.751243 0.000000
#
# Coordination Sequence:
#
# PCOD8061958 Si02
#       8
#     4   4   4   4   4   4   4   2
#     4  10  20  36  57  82 109 144 190 235 283 337
#     4  10  20  34  53  80 118 153 183 230 287 341
#     4  11  20  33  54  78 108 145 188 231 279 335
#     4  11  23  37  56  82 115 151 189 232 284 339
#     4  11  20  32  54  84 115 149 190 231 279 340
#     4  11  21  34  52  78 115 151 183 226 285 341
#     4  10  22  40  61  83 111 151 197 241 284 332
#     4  10  19  34  57  82 107 138 181 236 285 334
#
# _framework density 19.655712999999999
#
# number of rings (size 3 to 8) (size 9 to 14) (size 15 to 20)
#    0.000    1.467    1.333    7.200    0.000    3.467 
#    0.000   11.000    0.000    0.800    0.000    5.600 
#    0.000    0.000    0.000    0.000    0.000    0.000 
#
# Total GULP energy -371668.078109 kJ/mol
# GULP energy per Si atom -12388.935937 kJ/mol
# Density = 1.961098 g / cm^3
# Si number density = 19.655713 Si / 1000 Ang^3
#
#
#
# Elastic Constant Matrix: (Units=GPa)
#
#
# Indices 1 2 3 4 5 6 
#
# 1 107.6887 23.5357 56.1155 0.0000 -11.5318 0.0000
# 2 23.5357 70.9595 34.4925 0.0000 -4.8317 0.0000
# 3 56.1155 34.4925 142.0411 0.0000 -14.1625 0.0000
# 4 0.0000 0.0000 0.0000 13.0547 0.0000 2.7209
# 5 -11.5318 -4.8317 -14.1625 0.0000 31.9304 0.0000
# 6 0.0000 0.0000 0.0000 2.7209 0.0000 19.3485
#
#
#
# Elastic Compliance Matrix: (Units=1/GPa)
#
#
# Indices 1 2 3 4 5 6 
#
# 1 0.012066 -0.001860 -0.004090 0.000000 0.002262 0.000000
# 2 -0.001860 0.016282 -0.003181 0.000000 0.000381 0.000000
# 3 -0.004090 -0.003181 0.009660 0.000000 0.002326 0.000000
# 4 0.000000 0.000000 0.000000 0.078914 0.000000 -0.011097
# 5 0.002262 0.000381 0.002326 0.000000 0.033225 0.000000
# 6 0.000000 0.000000 0.000000 -0.011097 0.000000 0.053244
#
#
# Mechanical properties :
#
#
# Convention : Reuss Voigt Hill
#
# Bulk Modulus (GPa) = 50.64136 60.99743 55.81940
# Shear Modulus (GPa) = 21.90740 26.63642 24.27191
#
# Velocity S-wave (km/s) = 3.34212 3.68523 3.51786
# Velocity P-wave (km/s) = 6.38068 7.01485 6.70527
#
# Compressibility (1/GPa) = 0.01974670
#
# Stress axis : x y z
#
# Youngs Moduli (GPa) = 82.87875 61.41894 103.51696
#
# Poissons Ratio (x) = 0.11424 0.42334
# Poissons Ratio (y) = 0.15416 0.32928
# Poissons Ratio (z) = 0.33894 0.19537
#
# Static dielectric constant tensor:
#      x y z
#    x 3.428360 0.000000 -0.247460 
#    y 0.000000 3.371400 0.000000 
#    z -0.247460 0.000000 3.909790 
# 
# 
# High freq. dielectric constant tensor:
#      x y z
#    x 1.738010 0.000000 -0.021950 
#    y 0.000000 1.755090 0.000000 
#    z -0.021950 0.000000 1.774800 
# 
# From -- ./inp_files/88734.got.cif
#   From: 2010.06.25/outbox.cif.g09.slc.cpg/sg10_45_cif.got.tgz:88734.got - 2010.06.27 22:07:45.
