data_PCOD8061345
_publ_section_title
;
Structure prediction by ZEFSAII (Michael W. Deem and Ramdas Pophale) SiO2 
 PCOD8061345
Probable space group: P 2/M
;
_chemical_formula_sum "Si O2"
_cell_formula_units_Z 32
_cell_length_a 26.270512
_cell_length_b 9.313219
_cell_length_c 20.799827
_cell_angle_alpha 90.000000
_cell_angle_beta 21.324586
_cell_angle_gamma 90.000000
_cell_volume 1850.601253
_symmetry_space_group_name_H-M "P 2/M"
_symmetry_group_IT_number 10
_symmetry_cell_setting 'monoclinic'
loop_
_space_group_symop_operation_xyz
x,y,z
-x,y,-z
-x,-y,-z
x,-y,z
loop_
_atom_site_type_symbol
_atom_site_label
_atom_site_fract_x
_atom_site_fract_y
_atom_site_fract_z
Si Si1 0.875223 0.834955 0.955134
Si Si2 0.407178 0.169923 0.013502
Si Si3 0.375038 0.663283 0.798936
Si Si4 0.300679 0.168715 0.277252
Si Si5 0.887094 0.167811 0.083713
Si Si6 0.000829 0.829917 0.674507
Si Si7 0.263457 0.330244 0.066145
Si Si8 0.605742 0.335466 0.431725
O O1 0.981723 0.792951 0.772606
O O2 0.834744 0.000000 0.996880
O O3 0.730055 0.752689 0.121027
O O4 0.940645 0.799843 0.948008
O O5 0.567920 0.222033 0.834474
O O6 0.340747 0.262237 0.035453
O O7 0.397999 0.000000 0.009125
O O8 0.320682 0.209375 0.179325
O O9 0.328572 0.500000 0.843407
O O10 0.363008 0.704517 0.888046
O O11 0.531513 0.688709 0.588476
O O12 0.153444 0.231375 0.475759
O O13 0.297691 0.000000 0.288051
O O14 0.739753 0.237172 0.272360
O O15 0.868120 0.000000 0.117942
O O16 0.000000 0.233259 0.000000
O O17 0.985615 0.000000 0.678538
O O18 0.886695 0.745357 0.766621
O O19 0.241322 0.500000 0.102413
O O20 0.500000 0.289116 0.500000
O O21 0.651785 0.500000 0.368230
#
# Coordination Sequence:
#
# PCOD8061345 Si02
#       8
#     4   4   4   4   4   4   4   4
#     4   9  17  30  50  71  96 129 164 199 241 294
#     4   9  17  33  54  75  99 129 165 203 243 288
#     4   9  18  33  51  71  98 127 162 206 247 285
#     4   8  16  32  54  75  97 128 167 207 241 280
#     4  10  21  35  48  71 107 135 157 198 253 298
#     4   9  17  32  53  74  94 126 170 206 239 286
#     4  10  20  33  49  73 105 133 157 199 252 293
#     4  10  19  33  55  76  92 124 173 211 238 284
#
# _framework density 17.291677
#
# number of rings (size 3 to 8) (size 9 to 14) (size 15 to 20)
#    0.000    2.750    1.250    1.125    0.000    2.000 
#    2.250    5.000    0.000    0.000    0.000    0.000 
#    0.000    0.000    0.000    0.000    0.000    0.000 
#
# Total GULP energy -396677.872346 kJ/mol
# GULP energy per Si atom -12396.183511 kJ/mol
# Density = 1.725232 g / cm^3
# Si number density = 17.291677 Si / 1000 Ang^3
#
#
#
# Elastic Constant Matrix: (Units=GPa)
#
#
# Indices 1 2 3 4 5 6 
#
# 1 143.3411 51.2614 75.3397 0.0000 -7.9051 0.0000
# 2 51.2614 47.4904 39.1167 0.0000 -3.9155 0.0000
# 3 75.3397 39.1167 128.2058 0.0000 -2.3324 0.0000
# 4 0.0000 0.0000 0.0000 145.8705 0.0000 -108.7896
# 5 -7.9051 -3.9155 -2.3324 0.0000 18.8877 0.0000
# 6 0.0000 0.0000 0.0000 -108.7896 0.0000 115.7207
#
#
#
# Elastic Compliance Matrix: (Units=1/GPa)
#
#
# Indices 1 2 3 4 5 6 
#
# 1 0.013205 -0.010246 -0.004582 0.000000 0.002837 0.000000
# 2 -0.010246 0.036512 -0.005071 0.000000 0.002655 0.000000
# 3 -0.004582 -0.005071 0.012013 0.000000 -0.001486 0.000000
# 4 0.000000 0.000000 0.000000 0.022937 0.000000 0.021564
# 5 0.002837 0.002655 -0.001486 0.000000 0.054499 0.000000
# 6 0.000000 0.000000 0.000000 0.021564 0.000000 0.028914
#
#
# Mechanical properties :
#
#
# Convention : Reuss Voigt Hill
#
# Bulk Modulus (GPa) = 45.59533 72.27479 58.93506
# Shear Modulus (GPa) = 23.23543 66.31708 44.77625
#
# Velocity S-wave (km/s) = 3.66968 6.19962 5.09420
# Velocity P-wave (km/s) = 6.66190 9.65066 8.29205
#
# Compressibility (1/GPa) = 0.02193207
#
# Stress axis : x y z
#
# Youngs Moduli (GPa) = 75.72680 27.38844 83.24312
#
# Poissons Ratio (x) = 0.28061 0.38146
# Poissons Ratio (y) = 0.77586 0.42212
# Poissons Ratio (z) = 0.34702 0.13889
#
# Static dielectric constant tensor:
#      x y z
#    x 3.322930 0.000000 0.160310 
#    y 0.000000 3.082660 0.000000 
#    z 0.160310 0.000000 3.662210 
# 
# 
# High freq. dielectric constant tensor:
#      x y z
#    x 1.666250 0.000000 0.012350 
#    y 0.000000 1.653410 0.000000 
#    z 0.012350 0.000000 1.667180 
# 
# From -- ./inp_files/86891.got.cif
#   From: 2010.06.25/outbox.cif.g09.slc.cpg/sg10_44_cif.got.tgz:86891.got - 2010.06.27 22:07:45.
