data_PCOD8061729
_publ_section_title
;
Structure prediction by ZEFSAII (Michael W. Deem and Ramdas Pophale) SiO2 
 PCOD8061729
Probable space group: P 2/M
;
_chemical_formula_sum "Si O2"
_cell_formula_units_Z 32
_cell_length_a 26.176153
_cell_length_b 9.072755
_cell_length_c 20.656960
_cell_angle_alpha 90.000000
_cell_angle_beta 158.613325
_cell_angle_gamma 90.000000
_cell_volume 1788.956703
_symmetry_space_group_name_H-M "P 2/M"
_symmetry_group_IT_number 10
_symmetry_cell_setting 'monoclinic'
loop_
_space_group_symop_operation_xyz
x,y,z
-x,y,-z
-x,-y,-z
x,-y,z
loop_
_atom_site_type_symbol
_atom_site_label
_atom_site_fract_x
_atom_site_fract_y
_atom_site_fract_z
Si Si1 0.184667 0.173307 0.607492
Si Si2 0.034924 0.173215 0.944671
Si Si3 0.226312 0.174987 0.287151
Si Si4 0.215096 0.175035 0.038668
Si Si5 0.563674 0.334974 0.146255
Si Si6 0.691750 0.173189 0.108879
Si Si7 0.494254 0.674397 0.417901
Si Si8 0.878978 0.825117 0.213023
O O1 0.289576 0.250133 0.681050
O O2 0.218902 0.214395 0.722048
O O3 0.032320 0.236555 0.410603
O O4 0.196665 0.000000 0.610312
O O5 0.875161 0.223890 0.772329
O O6 0.086866 0.221675 0.934890
O O7 0.035344 0.000000 0.953243
O O8 0.147347 0.231867 0.129435
O O9 0.373509 0.259393 0.464926
O O10 0.255604 0.000000 0.321388
O O11 0.171013 0.230464 0.915784
O O12 0.241269 0.000000 0.072286
O O13 0.355798 0.257084 0.223930
O O14 0.587366 0.500000 0.199573
O O15 0.500000 0.332679 0.000000
O O16 0.458103 0.252292 0.069651
O O17 0.773592 0.234045 0.143197
O O18 0.664495 0.000000 0.073455
O O19 0.500000 0.719534 0.500000
O O20 0.492225 0.500000 0.406180
O O21 0.884199 0.000000 0.221739
#
# Coordination Sequence:
#
# PCOD8061729 Si02
#       8
#     4   4   4   4   4   4   4   4
#     4   9  16  29  50  74 100 130 163 204 252 296
#     4   8  15  28  50  76  97 119 154 200 241 284
#     4   9  16  30  52  76  97 122 160 199 239 288
#     4  10  19  34  54  73  97 129 164 204 250 293
#     4   9  17  29  46  71 100 129 166 208 244 285
#     4   9  16  29  50  74 100 130 164 203 249 295
#     4  11  22  34  49  74 103 130 162 200 241 292
#     4   9  18  31  50  76  99 124 164 209 248 294
#
# _framework density 17.887521
#
# number of rings (size 3 to 8) (size 9 to 14) (size 15 to 20)
#    0.000    2.750    1.250    1.875    0.000    3.500 
#    0.000    5.000    0.000    7.500    0.000    0.000 
#    0.000    0.000    0.000    0.000    0.000    0.000 
#
# Total GULP energy -396693.871877 kJ/mol
# GULP energy per Si atom -12396.683496 kJ/mol
# Density = 1.784681 g / cm^3
# Si number density = 17.887521 Si / 1000 Ang^3
#
#
#
# Elastic Constant Matrix: (Units=GPa)
#
#
# Indices 1 2 3 4 5 6 
#
# 1 144.2740 45.9789 103.7228 0.0000 25.3711 0.0000
# 2 45.9789 47.5654 38.8565 0.0000 9.6420 0.0000
# 3 103.7228 38.8565 97.2248 0.0000 23.4267 0.0000
# 4 0.0000 0.0000 0.0000 6.6633 0.0000 -5.0102
# 5 25.3711 9.6420 23.4267 0.0000 33.2555 0.0000
# 6 0.0000 0.0000 0.0000 -5.0102 0.0000 7.0389
#
#
#
# Elastic Compliance Matrix: (Units=1/GPa)
#
#
# Indices 1 2 3 4 5 6 
#
# 1 0.030326 -0.004281 -0.030552 0.000000 -0.000373 0.000000
# 2 -0.004281 0.031822 -0.008088 0.000000 -0.000263 0.000000
# 3 -0.030552 -0.008088 0.048094 0.000000 -0.008226 0.000000
# 4 0.000000 0.000000 0.000000 0.322886 0.000000 0.229827
# 5 -0.000373 -0.000263 -0.008226 0.000000 0.036226 0.000000
# 6 0.000000 0.000000 0.000000 0.229827 0.000000 0.305656
#
#
# Mechanical properties :
#
#
# Convention : Reuss Voigt Hill
#
# Bulk Modulus (GPa) = 40.98244 74.02007 57.50125
# Shear Modulus (GPa) = 5.75386 16.09193 10.92289
#
# Velocity S-wave (km/s) = 1.79546 3.00262 2.47380
# Velocity P-wave (km/s) = 5.22103 7.31380 6.35416
#
# Compressibility (1/GPa) = 0.02440070
#
# Stress axis : x y z
#
# Youngs Moduli (GPa) = 32.97541 31.42505 20.79277
#
# Poissons Ratio (x) = 0.13452 0.63526
# Poissons Ratio (y) = 0.14115 0.16817
# Poissons Ratio (z) = 1.00746 0.25416
#
# Static dielectric constant tensor:
#      x y z
#    x 3.616180 0.000000 0.252830 
#    y 0.000000 3.025780 0.000000 
#    z 0.252830 0.000000 3.273040 
# 
# 
# High freq. dielectric constant tensor:
#      x y z
#    x 1.690680 0.000000 0.025680 
#    y 0.000000 1.661560 0.000000 
#    z 0.025680 0.000000 1.683350 
# 
# From -- ./inp_files/87052.got.cif
#   From: 2010.06.25/outbox.cif.g09.slc.cpg/sg10_44_cif.got.tgz:87052.got - 2010.06.27 22:07:45.
