data_PCOD8061033
_publ_section_title
;
Structure prediction by ZEFSAII (Michael W. Deem and Ramdas Pophale) SiO2 
 PCOD8061033
Probable space group: P 2/M
;
_chemical_formula_sum "Si O2"
_cell_formula_units_Z 24
_cell_length_a 10.045591
_cell_length_b 10.301722
_cell_length_c 28.288141
_cell_angle_alpha 90.000000
_cell_angle_beta 153.704954
_cell_angle_gamma 90.000000
_cell_volume 1296.842552
_symmetry_space_group_name_H-M "P 2/M"
_symmetry_group_IT_number 10
_symmetry_cell_setting 'monoclinic'
loop_
_space_group_symop_operation_xyz
x,y,z
-x,y,-z
-x,-y,-z
x,-y,z
loop_
_atom_site_type_symbol
_atom_site_label
_atom_site_fract_x
_atom_site_fract_y
_atom_site_fract_z
Si Si1 0.231377 0.849310 0.034960
Si Si2 0.278464 0.000000 0.554314
Si Si3 0.125118 0.766078 0.733071
Si Si4 0.702611 0.242103 0.687386
Si Si5 0.843918 0.000000 0.591761
Si Si6 0.161229 0.150531 0.905267
Si Si7 0.949453 0.500000 0.641492
Si Si8 0.478527 0.500000 0.576400
O O1 0.549844 0.780376 0.140593
O O2 0.287676 0.000000 0.062311
O O3 0.099144 0.824974 0.940775
O O4 0.000000 0.792529 0.000000
O O5 0.473280 0.127692 0.625119
O O6 0.000000 0.000000 0.500000
O O7 0.144912 0.000000 0.460202
O O8 0.876701 0.780999 0.694295
O O9 0.034113 0.874911 0.666886
O O10 0.140328 0.629528 0.710696
O O11 0.521780 0.376816 0.624647
O O12 0.939614 0.245263 0.805968
O O13 0.500000 0.000000 0.500000
O O14 0.102276 0.000000 0.872561
O O15 0.500000 0.188919 0.000000
O O16 0.697633 0.500000 0.601553
O O17 0.842416 0.500000 0.552504
#
# Coordination Sequence:
#
# PCOD8061033 Si02
#       8
#     4   2   4   4   2   4   2   2
#     4  10  21  36  56  88 121 150 191 244 294 345
#     4  12  26  38  56  89 121 148 196 251 293 339
#     4  11  20  36  61  88 116 155 199 239 295 349
#     4  11  20  38  60  87 117 156 196 240 294 350
#     4  12  22  34  62  88 111 152 199 247 282 349
#     4  10  19  32  59  85 114 152 192 235 295 345
#     4   9  20  34  56  88 121 152 193 247 298 335
#     4   9  20  36  59  85 119 155 195 246 289 345
#
# _framework density 18.506487
#
# number of rings (size 3 to 8) (size 9 to 14) (size 15 to 20)
#    0.000    1.500    5.000    1.000    2.333    1.333 
#    0.000    2.083    0.000    2.000    0.000    0.000 
#    0.000    0.000    0.000    0.000    0.000    0.000 
#
# Total GULP energy -297583.396653 kJ/mol
# GULP energy per Si atom -12399.308194 kJ/mol
# Density = 1.846437 g / cm^3
# Si number density = 18.506487 Si / 1000 Ang^3
#
#
#
# Elastic Constant Matrix: (Units=GPa)
#
#
# Indices 1 2 3 4 5 6 
#
# 1 93.8875 30.6646 32.3419 0.0000 -5.5836 0.0000
# 2 30.6646 126.8857 61.8885 0.0000 -5.1219 0.0000
# 3 32.3419 61.8885 115.7578 0.0000 -20.2447 0.0000
# 4 0.0000 0.0000 0.0000 29.2957 0.0000 -14.8264
# 5 -5.5836 -5.1219 -20.2447 0.0000 29.8835 0.0000
# 6 0.0000 0.0000 0.0000 -14.8264 0.0000 16.1657
#
#
#
# Elastic Compliance Matrix: (Units=1/GPa)
#
#
# Indices 1 2 3 4 5 6 
#
# 1 0.012059 -0.001740 -0.002379 0.000000 0.000343 0.000000
# 2 -0.001740 0.011055 -0.005842 0.000000 -0.002388 0.000000
# 3 -0.002379 -0.005842 0.013810 0.000000 0.007910 0.000000
# 4 0.000000 0.000000 0.000000 0.063704 0.000000 0.058426
# 5 0.000343 -0.002388 0.007910 0.000000 0.038477 0.000000
# 6 0.000000 0.000000 0.000000 0.058426 0.000000 0.115445
#
#
# Mechanical properties :
#
#
# Convention : Reuss Voigt Hill
#
# Bulk Modulus (GPa) = 58.81535 65.14679 61.98107
# Shear Modulus (GPa) = 17.84834 29.17803 23.51319
#
# Velocity S-wave (km/s) = 3.10891 3.97500 3.56833
# Velocity P-wave (km/s) = 6.68857 7.50640 7.10926
#
# Compressibility (1/GPa) = 0.01700236
#
# Stress axis : x y z
#
# Youngs Moduli (GPa) = 82.92356 90.46083 72.41229
#
# Poissons Ratio (x) = 0.15743 0.17226
# Poissons Ratio (y) = 0.14431 0.42300
# Poissons Ratio (z) = 0.19726 0.52843
#
# Static dielectric constant tensor:
#      x y z
#    x 3.233150 0.000000 -0.126810 
#    y 0.000000 3.405090 0.000000 
#    z -0.126810 0.000000 3.493920 
# 
# 
# High freq. dielectric constant tensor:
#      x y z
#    x 1.697060 0.000000 -0.015080 
#    y 0.000000 1.704360 0.000000 
#    z -0.015080 0.000000 1.730570 
# 
# From -- ./inp_files/88153.got.cif
#   From: 2010.06.25/outbox.cif.g09.slc.cpg/sg10_45_cif.got.tgz:88153.got - 2010.06.27 22:07:45.
