data_PCOD8061800
_publ_section_title
;
Structure prediction by ZEFSAII (Michael W. Deem and Ramdas Pophale) SiO2 
 PCOD8061800
Probable space group: P 2/M
;
_chemical_formula_sum "Si O2"
_cell_formula_units_Z 20
_cell_length_a 5.879613
_cell_length_b 15.883747
_cell_length_c 11.386123
_cell_angle_alpha 90.000000
_cell_angle_beta 86.023824
_cell_angle_gamma 90.000000
_cell_volume 1060.793752
_symmetry_space_group_name_H-M "P 2/M"
_symmetry_group_IT_number 10
_symmetry_cell_setting 'monoclinic'
loop_
_space_group_symop_operation_xyz
x,y,z
-x,y,-z
-x,-y,-z
x,-y,z
loop_
_atom_site_type_symbol
_atom_site_label
_atom_site_fract_x
_atom_site_fract_y
_atom_site_fract_z
Si Si1 0.500000 0.809017 0.000000
Si Si2 0.878876 0.677567 0.378188
Si Si3 0.758452 0.500000 0.435053
Si Si4 0.823337 0.095849 0.161666
Si Si5 0.448861 0.832835 0.628182
Si Si6 0.806507 0.224767 0.791395
O O1 0.338389 0.871151 0.934482
O O2 0.630376 0.748216 0.901393
O O3 0.771837 0.585302 0.358234
O O4 0.675026 0.743583 0.383752
O O5 0.000000 0.682458 0.500000
O O6 0.049005 0.696426 0.262765
O O7 0.500000 0.500000 0.500000
O O8 0.000000 0.500000 0.500000
O O9 0.703878 0.102271 0.293244
O O10 0.046905 0.152398 0.152439
O O11 0.892367 0.000000 0.134344
O O12 0.500000 0.873918 0.500000
O O13 0.686266 0.816903 0.684086
#
# Coordination Sequence:
#
# PCOD8061800 Si02
#       6
#     2   4   2   4   4   4
#     4  10  21  38  58  79 106 146 202 239 300 344
#     4  10  19  34  58  84 119 149 190 236 291 349
#     4  10  22  34  58  95 127 159 196 242 297 351
#     4  10  22  36  54  80 109 144 192 251 299 346
#     4  10  19  34  55  78 113 153 191 227 295 355
#     4  10  21  35  56  82 110 154 189 246 286 354
#
# _framework density 18.853805000000001
#
# number of rings (size 3 to 8) (size 9 to 14) (size 15 to 20)
#    0.000    2.000    2.000    1.500    2.800    5.200 
#    0.000    1.000    0.000    0.600    0.000   18.200 
#    0.000    0.000    0.000    0.000    0.000    0.000 
#
# Total GULP energy -247828.887134 kJ/mol
# GULP energy per Si atom -12391.444357 kJ/mol
# Density = 1.881089 g / cm^3
# Si number density = 18.853805 Si / 1000 Ang^3
#
#
#
# Elastic Constant Matrix: (Units=GPa)
#
#
# Indices 1 2 3 4 5 6 
#
# 1 103.3913 32.3231 44.1590 0.0000 -0.3716 0.0000
# 2 32.3231 99.4751 28.0338 0.0000 -7.8730 0.0000
# 3 44.1590 28.0338 131.4643 0.0000 -19.7333 0.0000
# 4 0.0000 0.0000 0.0000 14.7112 0.0000 2.5139
# 5 -0.3716 -7.8730 -19.7333 0.0000 43.7490 0.0000
# 6 0.0000 0.0000 0.0000 2.5139 0.0000 -1.9860
#
#
#
# Elastic Compliance Matrix: (Units=1/GPa)
#
#
# Indices 1 2 3 4 5 6 
#
# 1 0.012242 -0.003084 -0.003778 0.000000 -0.002155 0.000000
# 2 -0.003084 0.011510 -0.001192 0.000000 0.001507 0.000000
# 3 -0.003778 -0.001192 0.009753 0.000000 0.004153 0.000000
# 4 0.000000 0.000000 0.000000 0.055887 0.000000 0.070741
# 5 -0.002155 0.001507 0.004153 0.000000 0.024984 0.000000
# 6 0.000000 0.000000 0.000000 0.070741 0.000000 -0.413976
#
#
# Mechanical properties :
#
#
# Convention : Reuss Voigt Hill
#
# Bulk Modulus (GPa) = 57.48069 60.37362 58.92715
# Shear Modulus (GPa) = -18.00549 26.61582 4.30517
#
# Velocity S-wave (km/s) = -3.09367 3.76133 1.51275
# Velocity P-wave (km/s) = 4.21814 7.13827 5.86292
#
# Compressibility (1/GPa) = 0.01739715
#
# Stress axis : x y z
#
# Youngs Moduli (GPa) = 81.68675 86.88017 102.53017
#
# Poissons Ratio (x) = 0.26791 0.38735
# Poissons Ratio (y) = 0.25190 0.12225
# Poissons Ratio (z) = 0.30861 0.10359
#
# Static dielectric constant tensor:
#      x y z
#    x 3.778420 0.000000 -0.090100 
#    y 0.000000 3.347970 0.000000 
#    z -0.090100 0.000000 3.805890 
# 
# 
# High freq. dielectric constant tensor:
#      x y z
#    x 1.755350 0.000000 -0.005050 
#    y 0.000000 1.697150 0.000000 
#    z -0.005050 0.000000 1.733600 
# 
# From -- ./inp_files/6781.got.cif
#   From: 2010.06.25/outbox.cif.g09.slc.cpg/sg10_4_cif.got.tgz:6781.got - 2010.06.27 22:07:45.
