data_PCOD8061306
_publ_section_title
;
Structure prediction by ZEFSAII (Michael W. Deem and Ramdas Pophale) SiO2 
 PCOD8061306
Probable space group: P 2/M
;
_chemical_formula_sum "Si O2"
_cell_formula_units_Z 32
_cell_length_a 21.369094
_cell_length_b 9.318235
_cell_length_c 14.574998
_cell_angle_alpha 90.000000
_cell_angle_beta 145.379754
_cell_angle_gamma 90.000000
_cell_volume 1648.843704
_symmetry_space_group_name_H-M "P 2/M"
_symmetry_group_IT_number 10
_symmetry_cell_setting 'monoclinic'
loop_
_space_group_symop_operation_xyz
x,y,z
-x,y,-z
-x,-y,-z
x,-y,z
loop_
_atom_site_type_symbol
_atom_site_label
_atom_site_fract_x
_atom_site_fract_y
_atom_site_fract_z
Si Si1 0.838780 0.332852 0.646079
Si Si2 0.041666 0.162710 0.678716
Si Si3 0.705114 0.167069 0.771028
Si Si4 0.736795 0.166280 0.157619
Si Si5 0.372367 0.330388 0.491565
Si Si6 0.949237 0.837212 0.096006
Si Si7 0.579902 0.166268 0.804772
Si Si8 0.171896 0.330888 0.576889
O O1 0.863297 0.500000 0.680530
O O2 0.737689 0.286597 0.587235
O O3 0.809737 0.286823 0.506928
O O4 0.948927 0.256863 0.817184
O O5 0.151719 0.207557 0.760052
O O6 0.065703 0.179840 0.814205
O O7 0.944284 0.266975 0.528702
O O8 0.006151 0.000000 0.612043
O O9 0.631082 0.260907 0.613349
O O10 0.665547 0.198953 0.826393
O O11 0.689096 0.000000 0.727803
O O12 0.832946 0.212969 0.912722
O O13 0.731341 0.260358 0.244384
O O14 0.733276 0.000000 0.180549
O O15 0.635619 0.204961 0.969046
O O16 0.386294 0.500000 0.499352
O O17 0.474227 0.267029 0.670342
O O18 0.975106 0.000000 0.099206
O O19 0.543963 0.000000 0.758332
O O20 0.172712 0.500000 0.592045
#
# Coordination Sequence:
#
# PCOD8061306 Si02
#       8
#     4   4   4   4   4   4   4   4
#     4   9  21  40  55  73 111 153 185 221 268 318
#     4   9  16  30  51  77 110 144 174 210 264 325
#     4  10  20  37  60  86 113 139 173 222 279 330
#     4  10  19  33  54  80 109 141 175 216 270 325
#     4  11  24  40  57  78 106 146 190 228 269 319
#     4   9  17  32  57  85 110 140 179 221 266 323
#     4  10  21  39  60  82 111 143 177 222 276 327
#     4  10  20  33  51  77 108 144 182 219 263 316
#
# _framework density 19.407537999999999
#
# number of rings (size 3 to 8) (size 9 to 14) (size 15 to 20)
#    0.000    2.250    1.250    1.500    0.000    7.000 
#    0.000    3.125    0.000    3.750    0.000    0.000 
#    0.000    0.000    0.000    0.000    0.000    0.000 
#
# Total GULP energy -396836.572378 kJ/mol
# GULP energy per Si atom -12401.142887 kJ/mol
# Density = 1.936337 g / cm^3
# Si number density = 19.407538 Si / 1000 Ang^3
#
#
#
# Elastic Constant Matrix: (Units=GPa)
#
#
# Indices 1 2 3 4 5 6 
#
# 1 34.8019 21.5231 12.0414 0.0000 12.4826 0.0000
# 2 21.5231 65.7491 43.7961 0.0000 6.6360 0.0000
# 3 12.0414 43.7961 103.4846 0.0000 2.5857 0.0000
# 4 0.0000 0.0000 0.0000 -12.8424 0.0000 5.3363
# 5 12.4826 6.6360 2.5857 0.0000 20.6980 0.0000
# 6 0.0000 0.0000 0.0000 5.3363 0.0000 26.2644
#
#
#
# Elastic Compliance Matrix: (Units=1/GPa)
#
#
# Indices 1 2 3 4 5 6 
#
# 1 0.044595 -0.012830 0.000813 0.000000 -0.022883 0.000000
# 2 -0.012830 0.025561 -0.009342 0.000000 0.000710 0.000000
# 3 0.000813 -0.009342 0.013502 0.000000 0.000818 0.000000
# 4 0.000000 0.000000 0.000000 -0.071805 0.000000 0.014589
# 5 -0.022883 0.000710 0.000818 0.000000 0.061784 0.000000
# 6 0.000000 0.000000 0.000000 0.014589 0.000000 0.035110
#
#
# Mechanical properties :
#
#
# Convention : Reuss Voigt Hill
#
# Bulk Modulus (GPa) = 24.42717 39.86188 32.14453
# Shear Modulus (GPa) = 30.28225 15.26901 22.77563
#
# Velocity S-wave (km/s) = 3.95439 2.80796 3.42942
# Velocity P-wave (km/s) = 5.78475 5.57645 5.68156
#
# Compressibility (1/GPa) = 0.04093801
#
# Stress axis : x y z
#
# Youngs Moduli (GPa) = 22.42398 39.12245 74.06231
#
# Poissons Ratio (x) = 0.50194 -0.06018
# Poissons Ratio (y) = 0.28770 0.69193
# Poissons Ratio (z) = -0.01822 0.36550
#
# Static dielectric constant tensor:
#      x y z
#    x 3.432230 0.000000 -0.070410 
#    y 0.000000 3.426920 0.000000 
#    z -0.070410 0.000000 3.780780 
# 
# 
# High freq. dielectric constant tensor:
#      x y z
#    x 1.741720 0.000000 -0.009730 
#    y 0.000000 1.745660 0.000000 
#    z -0.009730 0.000000 1.763570 
# 
# From -- ./inp_files/71684.got.cif
#   From: 2010.06.25/outbox.cif.g09.slc.cpg/sg10_36_cif.got.tgz:71684.got - 2010.06.27 22:07:45.
