data_PCOD8061440
_publ_section_title
;
Structure prediction by ZEFSAII (Michael W. Deem and Ramdas Pophale) SiO2 
 PCOD8061440
Probable space group: P 2/M
;
_chemical_formula_sum "Si O2"
_cell_formula_units_Z 32
_cell_length_a 14.474573
_cell_length_b 8.488283
_cell_length_c 14.421329
_cell_angle_alpha 90.000000
_cell_angle_beta 113.896354
_cell_angle_gamma 90.000000
_cell_volume 1619.981256
_symmetry_space_group_name_H-M "P 2/M"
_symmetry_group_IT_number 10
_symmetry_cell_setting 'monoclinic'
loop_
_space_group_symop_operation_xyz
x,y,z
-x,y,-z
-x,-y,-z
x,-y,z
loop_
_atom_site_type_symbol
_atom_site_label
_atom_site_fract_x
_atom_site_fract_y
_atom_site_fract_z
Si Si1 0.614474 0.684775 0.062944
Si Si2 0.583037 0.187456 0.408183
Si Si3 0.979258 0.187017 0.202248
Si Si4 0.291913 0.186556 0.712620
Si Si5 0.176061 0.812173 0.179844
Si Si6 0.635188 0.187452 0.630452
Si Si7 0.064519 0.187601 0.612211
Si Si8 0.784932 0.187026 0.012503
O O1 0.618190 0.500000 0.081332
O O2 0.659826 0.770067 0.170366
O O3 0.680370 0.732240 0.000243
O O4 0.500000 0.742909 0.000000
O O5 0.640729 0.259361 0.343087
O O6 0.638310 0.244405 0.524882
O O7 0.467306 0.248003 0.361614
O O8 0.584482 0.000000 0.404500
O O9 0.986785 0.242709 0.312139
O O10 0.874177 0.246939 0.116080
O O11 0.073090 0.256863 0.182172
O O12 0.981448 0.000000 0.196638
O O13 0.178616 0.254448 0.655768
O O14 0.288051 0.000000 0.703963
O O15 0.269185 0.741911 0.276649
O O16 0.174960 0.000000 0.183856
O O17 0.186996 0.754990 0.078957
O O18 0.637355 0.000000 0.634571
O O19 0.000000 0.257079 0.500000
O O20 0.066377 0.000000 0.607575
O O21 0.770913 0.000000 0.011116
#
# Coordination Sequence:
#
# PCOD8061440 Si02
#       8
#     4   4   4   4   4   4   4   4
#     4  11  25  41  55  74 103 140 176 217 274 328
#     4   8  15  25  41  65 104 136 161 202 253 304
#     4   9  16  28  44  70 107 139 166 206 258 308
#     4  10  19  33  55  82 105 135 177 221 260 305
#     4   9  17  25  44  73 104 137 169 207 257 306
#     4   8  14  25  37  65 105 139 162 196 255 309
#     4   9  17  27  44  75 111 141 171 209 258 310
#     4  10  19  34  54  78 103 131 173 220 260 307
#
# _framework density 19.753315000000001
#
# number of rings (size 3 to 8) (size 9 to 14) (size 15 to 20)
#    0.000    2.750    1.250    1.500    3.500    2.500 
#    0.000    0.000    0.000    1.875    0.000    2.625 
#    0.000    0.000    0.000    0.000    0.000    0.000 
#
# Total GULP energy -396703.123050 kJ/mol
# GULP energy per Si atom -12396.972595 kJ/mol
# Density = 1.970836 g / cm^3
# Si number density = 19.753315 Si / 1000 Ang^3
#
#
#
# Elastic Constant Matrix: (Units=GPa)
#
#
# Indices 1 2 3 4 5 6 
#
# 1 181.3661 6.3230 86.1910 0.0000 -7.5388 0.0000
# 2 6.3230 3.9620 2.5772 0.0000 1.2569 0.0000
# 3 86.1910 2.5772 139.3751 0.0000 5.4250 0.0000
# 4 0.0000 0.0000 0.0000 1.4242 0.0000 2.7949
# 5 -7.5388 1.2569 5.4250 0.0000 42.0046 0.0000
# 6 0.0000 0.0000 0.0000 2.7949 0.0000 6.6750
#
#
#
# Elastic Compliance Matrix: (Units=1/GPa)
#
#
# Indices 1 2 3 4 5 6 
#
# 1 0.008424 -0.010916 -0.005105 0.000000 0.002498 0.000000
# 2 -0.010916 0.271723 0.002129 0.000000 -0.010365 0.000000
# 3 -0.005105 0.002129 0.010383 0.000000 -0.002321 0.000000
# 4 0.000000 0.000000 0.000000 3.938624 0.000000 -1.649159
# 5 0.002498 -0.010365 -0.002321 0.000000 0.024865 0.000000
# 6 0.000000 0.000000 0.000000 -1.649159 0.000000 0.840340
#
#
# Mechanical properties :
#
#
# Convention : Reuss Voigt Hill
#
# Bulk Modulus (GPa) = 3.80595 57.20952 30.50773
# Shear Modulus (GPa) = 0.95974 25.32821 13.14398
#
# Velocity S-wave (km/s) = 0.69780 3.58470 2.58235
# Velocity P-wave (km/s) = 1.60628 6.79399 4.93652
#
# Compressibility (1/GPa) = 0.26274682
#
# Stress axis : x y z
#
# Youngs Moduli (GPa) = 118.70640 3.68022 96.31316
#
# Poissons Ratio (x) = 0.04017 0.49167
# Poissons Ratio (y) = 1.29580 -0.20510
# Poissons Ratio (z) = 0.60599 -0.00784
#
# Static dielectric constant tensor:
#      x y z
#    x 4.034840 0.000000 0.005280 
#    y 0.000000 2.825730 0.000000 
#    z 0.005280 0.000000 3.814320 
# 
# 
# High freq. dielectric constant tensor:
#      x y z
#    x 1.787630 0.000000 -0.002600 
#    y 0.000000 1.691810 0.000000 
#    z -0.002600 0.000000 1.781210 
# 
# From -- ./inp_files/66575.got.cif
#   From: 2010.06.25/outbox.cif.g09.slc.cpg/sg10_34_cif.got.tgz:66575.got - 2010.06.27 22:07:45.
