data_PCOD8061943
_publ_section_title
;
Structure prediction by ZEFSAII (Michael W. Deem and Ramdas Pophale) SiO2 
 PCOD8061943
Probable space group: P 2/M
;
_chemical_formula_sum "Si O2"
_cell_formula_units_Z 32
_cell_length_a 20.656264
_cell_length_b 8.946510
_cell_length_c 25.321503
_cell_angle_alpha 90.000000
_cell_angle_beta 157.904188
_cell_angle_gamma 90.000000
_cell_volume 1760.206103
_symmetry_space_group_name_H-M "P 2/M"
_symmetry_group_IT_number 10
_symmetry_cell_setting 'monoclinic'
loop_
_space_group_symop_operation_xyz
x,y,z
-x,y,-z
-x,-y,-z
x,-y,z
loop_
_atom_site_type_symbol
_atom_site_label
_atom_site_fract_x
_atom_site_fract_y
_atom_site_fract_z
Si Si1 0.846842 0.673702 0.422505
Si Si2 0.495006 0.176516 0.158854
Si Si3 0.404127 0.176590 0.583882
Si Si4 0.816300 0.672749 0.122557
Si Si5 0.356097 0.325562 0.158514
Si Si6 0.896400 0.671813 0.580883
Si Si7 0.349798 0.176673 0.423950
Si Si8 0.003346 0.328422 0.157997
O O1 0.800258 0.500000 0.380106
O O2 0.682673 0.771727 0.281983
O O3 0.907603 0.709140 0.527806
O O4 0.000000 0.723015 0.500000
O O5 0.456286 0.252190 0.185568
O O6 0.488134 0.000000 0.160130
O O7 0.356198 0.228310 0.010033
O O8 0.577458 0.252373 0.737227
O O9 0.242108 0.221917 0.496747
O O10 0.379855 0.235602 0.506025
O O11 0.426599 0.000000 0.602755
O O12 0.762522 0.500000 0.074728
O O13 0.943024 0.720430 0.170783
O O14 0.914802 0.702733 0.251831
O O15 0.401035 0.500000 0.191265
O O16 0.151718 0.297810 0.000201
O O17 0.842361 0.500000 0.550430
O O18 0.500000 0.240781 0.500000
O O19 0.166726 0.232432 0.263758
O O20 0.348042 0.000000 0.421044
O O21 0.059520 0.500000 0.200151
#
# Coordination Sequence:
#
# PCOD8061943 Si02
#       8
#     4   4   4   4   4   4   4   4
#     4  10  21  37  57  81 111 149 186 223 272 328
#     4  11  21  33  53  82 111 143 180 223 277 324
#     4  11  21  33  54  84 110 139 183 228 271 321
#     4   9  18  33  54  80 108 140 180 226 275 322
#     4  10  20  35  55  80 110 141 177 226 275 324
#     4  10  19  34  57  81 108 142 182 229 273 316
#     4  10  22  38  54  77 113 150 180 216 270 332
#     4   9  18  33  54  80 105 137 181 226 270 317
#
# _framework density 18.179689
#
# number of rings (size 3 to 8) (size 9 to 14) (size 15 to 20)
#    0.000    2.000    2.500    2.625    0.000    4.000 
#    0.000    1.250    0.000    7.500    0.000    0.000 
#    0.000    0.000    0.000    0.000    0.000    0.000 
#
# Total GULP energy -396886.839686 kJ/mol
# GULP energy per Si atom -12402.713740 kJ/mol
# Density = 1.813831 g / cm^3
# Si number density = 18.179689 Si / 1000 Ang^3
#
#
#
# Elastic Constant Matrix: (Units=GPa)
#
#
# Indices 1 2 3 4 5 6 
#
# 1 91.2062 36.0437 59.6143 0.0000 4.6088 0.0000
# 2 36.0437 75.7579 52.8183 0.0000 2.2460 0.0000
# 3 59.6143 52.8183 143.2894 0.0000 0.2670 0.0000
# 4 0.0000 0.0000 0.0000 24.7437 0.0000 1.2416
# 5 4.6088 2.2460 0.2670 0.0000 26.5438 0.0000
# 6 0.0000 0.0000 0.0000 1.2416 0.0000 19.4760
#
#
#
# Elastic Compliance Matrix: (Units=1/GPa)
#
#
# Indices 1 2 3 4 5 6 
#
# 1 0.016053 -0.003921 -0.005229 0.000000 -0.002403 0.000000
# 2 -0.003921 0.018778 -0.005289 0.000000 -0.000855 0.000000
# 3 -0.005229 -0.005289 0.011102 0.000000 0.001244 0.000000
# 4 0.000000 0.000000 0.000000 0.040544 0.000000 -0.002585
# 5 -0.002403 -0.000855 0.001244 0.000000 0.038151 0.000000
# 6 0.000000 0.000000 0.000000 -0.002585 0.000000 0.051510
#
#
# Mechanical properties :
#
#
# Convention : Reuss Voigt Hill
#
# Bulk Modulus (GPa) = 58.63323 67.46735 63.05029
# Shear Modulus (GPa) = 23.73047 24.93786 24.33417
#
# Velocity S-wave (km/s) = 3.61685 3.70772 3.66257
# Velocity P-wave (km/s) = 7.05438 7.45128 7.25554
#
# Compressibility (1/GPa) = 0.01705517
#
# Stress axis : x y z
#
# Youngs Moduli (GPa) = 62.29486 53.25320 90.07669
#
# Poissons Ratio (x) = 0.20879 0.47100
# Poissons Ratio (y) = 0.24424 0.47643
# Poissons Ratio (z) = 0.32573 0.28166
#
# Static dielectric constant tensor:
#      x y z
#    x 3.222600 0.000000 -0.170680 
#    y 0.000000 3.255740 0.000000 
#    z -0.170680 0.000000 3.548120 
# 
# 
# High freq. dielectric constant tensor:
#      x y z
#    x 1.674290 0.000000 -0.011970 
#    y 0.000000 1.700850 0.000000 
#    z -0.011970 0.000000 1.718680 
# 
# From -- ./inp_files/86800.got.cif
#   From: 2010.06.25/outbox.cif.g09.slc.cpg/sg10_44_cif.got.tgz:86800.got - 2010.06.27 22:07:45.
