data_PCOD8061946
_publ_section_title
;
Structure prediction by ZEFSAII (Michael W. Deem and Ramdas Pophale) SiO2 
 PCOD8061946
Probable space group: P 2/M
;
_chemical_formula_sum "Si O2"
_cell_formula_units_Z 28
_cell_length_a 9.660482
_cell_length_b 9.209997
_cell_length_c 29.132220
_cell_angle_alpha 90.000000
_cell_angle_beta 34.133027
_cell_angle_gamma 90.000000
_cell_volume 1454.402754
_symmetry_space_group_name_H-M "P 2/M"
_symmetry_group_IT_number 10
_symmetry_cell_setting 'monoclinic'
loop_
_space_group_symop_operation_xyz
x,y,z
-x,y,-z
-x,-y,-z
x,-y,z
loop_
_atom_site_type_symbol
_atom_site_label
_atom_site_fract_x
_atom_site_fract_y
_atom_site_fract_z
Si Si1 0.989072 0.670241 0.924693
Si Si2 0.219957 0.172262 0.349341
Si Si3 0.465925 0.333570 0.108655
Si Si4 0.975312 0.333719 0.189762
Si Si5 0.665531 0.172943 0.496732
Si Si6 0.456139 0.172153 0.825004
Si Si7 0.474790 0.172276 0.647454
O O1 0.034132 0.500000 0.919561
O O2 0.028897 0.717823 0.861448
O O3 0.184381 0.758697 0.901237
O O4 0.717596 0.715643 0.015141
O O5 0.395652 0.227650 0.260311
O O6 0.329346 0.227424 0.367968
O O7 0.944681 0.234126 0.416577
O O8 0.208343 0.000000 0.352732
O O9 0.481746 0.500000 0.121056
O O10 0.252599 0.311571 0.130382
O O11 0.403017 0.230797 0.168936
O O12 0.890579 0.500000 0.217827
O O13 0.794009 0.235481 0.269237
O O14 0.500000 0.234091 0.500000
O O15 0.556784 0.228009 0.574940
O O16 0.666792 0.000000 0.494832
O O17 0.437741 0.000000 0.831406
O O18 0.455378 0.000000 0.654156
#
# Coordination Sequence:
#
# PCOD8061946 Si02
#       7
#     4   4   4   4   4   4   4
#     4  10  20  38  60  79 105 146 193 231 269 326
#     4   9  18  33  51  78 112 144 177 218 266 321
#     4  10  22  38  56  79 109 148 190 230 273 326
#     4  10  21  37  58  82 110 143 186 233 278 324
#     4   9  18  31  53  83 110 140 180 221 263 321
#     4  11  22  35  55  84 117 145 179 229 282 326
#     4  10  19  34  57  81 110 144 180 222 272 325
#
# _framework density 19.251887
#
# number of rings (size 3 to 8) (size 9 to 14) (size 15 to 20)
#    0.000    2.143    1.429    1.714    2.000    6.286 
#    0.000    0.000    0.000    6.429    0.000    0.000 
#    0.000    0.000    0.000    0.000    0.000    0.000 
#
# Total GULP energy -347258.043388 kJ/mol
# GULP energy per Si atom -12402.072978 kJ/mol
# Density = 1.920807 g / cm^3
# Si number density = 19.251887 Si / 1000 Ang^3
#
#
#
# Elastic Constant Matrix: (Units=GPa)
#
#
# Indices 1 2 3 4 5 6 
#
# 1 89.2575 19.0137 39.3022 0.0000 -0.2555 0.0000
# 2 19.0137 30.2608 25.2156 0.0000 2.8498 0.0000
# 3 39.3022 25.2156 115.3229 0.0000 -4.4684 0.0000
# 4 0.0000 0.0000 0.0000 21.3953 0.0000 1.5128
# 5 -0.2555 2.8498 -4.4684 0.0000 34.1508 0.0000
# 6 0.0000 0.0000 0.0000 1.5128 0.0000 24.9043
#
#
#
# Elastic Compliance Matrix: (Units=1/GPa)
#
#
# Indices 1 2 3 4 5 6 
#
# 1 0.013991 -0.005914 -0.003470 0.000000 0.000144 0.000000
# 2 -0.005914 0.043624 -0.007705 0.000000 -0.004693 0.000000
# 3 -0.003470 -0.007705 0.011621 0.000000 0.002138 0.000000
# 4 0.000000 0.000000 0.000000 0.046941 0.000000 -0.002851
# 5 0.000144 -0.004693 0.002138 0.000000 0.029954 0.000000
# 6 0.000000 0.000000 0.000000 -0.002851 0.000000 0.040327
#
#
# Mechanical properties :
#
#
# Convention : Reuss Voigt Hill
#
# Bulk Modulus (GPa) = 28.52228 44.65603 36.58916
# Shear Modulus (GPa) = 21.52183 26.17739 23.84961
#
# Velocity S-wave (km/s) = 3.34714 3.69145 3.52350
# Velocity P-wave (km/s) = 5.45759 6.43546 5.96659
#
# Compressibility (1/GPa) = 0.03506031
#
# Stress axis : x y z
#
# Youngs Moduli (GPa) = 71.47217 22.92312 86.04877
#
# Poissons Ratio (x) = 0.13556 0.29856
# Poissons Ratio (y) = 0.42266 0.66300
# Poissons Ratio (z) = 0.24799 0.17662
#
# Static dielectric constant tensor:
#      x y z
#    x 3.704510 0.000000 0.045750 
#    y 0.000000 3.128140 0.000000 
#    z 0.045750 0.000000 3.639950 
# 
# 
# High freq. dielectric constant tensor:
#      x y z
#    x 1.764280 0.000000 0.001850 
#    y 0.000000 1.706940 0.000000 
#    z 0.001850 0.000000 1.758860 
# 
# From -- ./inp_files/36669.got.cif
#   From: 2010.06.25/outbox.cif.g09.slc.cpg/sg10_19_cif.got.tgz:36669.got - 2010.06.27 22:07:45.
