data_PCOD8061593
_publ_section_title
;
Structure prediction by ZEFSAII (Michael W. Deem and Ramdas Pophale) SiO2 
 PCOD8061593
Probable space group: P 2/M
;
_chemical_formula_sum "Si O2"
_cell_formula_units_Z 28
_cell_length_a 11.190363
_cell_length_b 8.911415
_cell_length_c 15.064259
_cell_angle_alpha 90.000000
_cell_angle_beta 113.984368
_cell_angle_gamma 90.000000
_cell_volume 1372.528955
_symmetry_space_group_name_H-M "P 2/M"
_symmetry_group_IT_number 10
_symmetry_cell_setting 'monoclinic'
loop_
_space_group_symop_operation_xyz
x,y,z
-x,y,-z
-x,-y,-z
x,-y,z
loop_
_atom_site_type_symbol
_atom_site_label
_atom_site_fract_x
_atom_site_fract_y
_atom_site_fract_z
Si Si1 0.350172 0.322970 0.956953
Si Si2 0.093940 0.176454 0.356836
Si Si3 0.150226 0.321518 0.049187
Si Si4 0.464530 0.673403 0.582747
Si Si5 0.157079 0.675908 0.746887
Si Si6 0.810145 0.321955 0.444374
Si Si7 0.263464 0.672973 0.268942
O O1 0.361355 0.500000 0.973831
O O2 0.283647 0.279501 0.842980
O O3 0.500000 0.256638 0.000000
O O4 0.251363 0.259385 0.004039
O O5 0.089684 0.249197 0.454663
O O6 0.220228 0.230592 0.340818
O O7 0.971796 0.234959 0.260344
O O8 0.092054 0.000000 0.366035
O O9 0.148146 0.500000 0.041191
O O10 0.205210 0.265334 0.159901
O O11 0.000000 0.260451 0.000000
O O12 0.500000 0.750912 0.500000
O O13 0.432206 0.500000 0.555359
O O14 0.332647 0.746321 0.578790
O O15 0.579823 0.691058 0.689550
O O16 0.130362 0.500000 0.749290
O O17 0.171346 0.729725 0.650476
O O18 0.824845 0.500000 0.457268
O O19 0.223377 0.500000 0.272996
#
# Coordination Sequence:
#
# PCOD8061593 Si02
#       7
#     4   4   4   4   4   4   4
#     4   9  18  32  53  88 123 144 177 234 287 329
#     4  12  24  37  54  79 112 146 186 235 282 324
#     4   9  17  29  50  81 115 146 178 222 277 330
#     4   9  16  29  51  79 107 137 175 224 269 320
#     4  10  21  36  58  82 112 149 184 222 273 334
#     4  10  20  35  56  82 111 146 187 223 270 336
#     4  10  19  33  57  81 109 146 184 222 273 336
#
# _framework density 20.400296999999998
#
# number of rings (size 3 to 8) (size 9 to 14) (size 15 to 20)
#    0.000    2.143    1.429    2.571    2.000    4.571 
#    0.000    1.429    0.000    4.286    0.000    0.000 
#    0.000    0.000    0.000    0.000    0.000    0.000 
#
# Total GULP energy -346988.371392 kJ/mol
# GULP energy per Si atom -12392.441835 kJ/mol
# Density = 2.035387 g / cm^3
# Si number density = 20.400297 Si / 1000 Ang^3
#
#
#
# Elastic Constant Matrix: (Units=GPa)
#
#
# Indices 1 2 3 4 5 6 
#
# 1 110.6851 8.9658 47.5805 0.0000 9.9784 0.0000
# 2 8.9658 35.9308 23.2357 0.0000 -1.2049 0.0000
# 3 47.5805 23.2357 141.6706 0.0000 8.9808 0.0000
# 4 0.0000 0.0000 0.0000 2.5997 0.0000 -0.5586
# 5 9.9784 -1.2049 8.9808 0.0000 37.2485 0.0000
# 6 0.0000 0.0000 0.0000 -0.5586 0.0000 5.5251
#
#
#
# Elastic Compliance Matrix: (Units=1/GPa)
#
#
# Indices 1 2 3 4 5 6 
#
# 1 0.010719 -0.000561 -0.003376 0.000000 -0.002075 0.000000
# 2 -0.000561 0.031353 -0.005106 0.000000 0.002395 0.000000
# 3 -0.003376 -0.005106 0.009123 0.000000 -0.001460 0.000000
# 4 0.000000 0.000000 0.000000 0.393201 0.000000 0.039754
# 5 -0.002075 0.002395 -0.001460 0.000000 0.027832 0.000000
# 6 0.000000 0.000000 0.000000 0.039754 0.000000 0.185013
#
#
# Mechanical properties :
#
#
# Convention : Reuss Voigt Hill
#
# Bulk Modulus (GPa) = 30.20365 49.76115 39.98240
# Shear Modulus (GPa) = 7.28478 22.97496 15.12987
#
# Velocity S-wave (km/s) = 1.89174 3.35954 2.72628
# Velocity P-wave (km/s) = 4.42823 6.28443 5.43614
#
# Compressibility (1/GPa) = 0.03310858
#
# Stress axis : x y z
#
# Youngs Moduli (GPa) = 93.29618 31.89448 109.61831
#
# Poissons Ratio (x) = 0.01789 0.37011
# Poissons Ratio (y) = 0.05232 0.55970
# Poissons Ratio (z) = 0.31500 0.16285
#
# Static dielectric constant tensor:
#      x y z
#    x 4.106320 0.000000 0.076520 
#    y 0.000000 2.952050 0.000000 
#    z 0.076520 0.000000 3.830670 
# 
# 
# High freq. dielectric constant tensor:
#      x y z
#    x 1.815180 0.000000 0.009850 
#    y 0.000000 1.717420 0.000000 
#    z 0.009850 0.000000 1.808400 
# 
# From -- ./inp_files/63920.got.cif
#   From: 2010.06.25/outbox.cif.g09.slc.cpg/sg10_32_cif.got.tgz:63920.got - 2010.06.27 22:07:45.
