data_PCOD8061604
_publ_section_title
;
Structure prediction by ZEFSAII (Michael W. Deem and Ramdas Pophale) SiO2 
 PCOD8061604
Probable space group: P 2/M
;
_chemical_formula_sum "Si O2"
_cell_formula_units_Z 28
_cell_length_a 15.304238
_cell_length_b 9.504458
_cell_length_c 19.809231
_cell_angle_alpha 90.000000
_cell_angle_beta 148.879655
_cell_angle_gamma 90.000000
_cell_volume 1489.225866
_symmetry_space_group_name_H-M "P 2/M"
_symmetry_group_IT_number 10
_symmetry_cell_setting 'monoclinic'
loop_
_space_group_symop_operation_xyz
x,y,z
-x,y,-z
-x,-y,-z
x,-y,z
loop_
_atom_site_type_symbol
_atom_site_label
_atom_site_fract_x
_atom_site_fract_y
_atom_site_fract_z
Si Si1 0.504458 0.838016 0.928150
Si Si2 0.626899 0.838959 0.643449
Si Si3 0.789653 0.653793 0.303618
Si Si4 0.140433 0.345838 0.494622
Si Si5 0.960933 0.667501 0.895976
Si Si6 0.266611 0.835837 0.040678
Si Si7 0.448055 0.841214 0.667215
O O1 0.355679 0.767304 0.789098
O O2 0.678079 0.815576 0.001085
O O3 0.458164 0.000000 0.902481
O O4 0.500000 0.770429 0.000000
O O5 0.500000 0.790369 0.500000
O O6 0.786282 0.735001 0.754630
O O7 0.525446 0.828295 0.645056
O O8 0.688938 0.000000 0.672023
O O9 0.726243 0.500000 0.236592
O O10 0.843384 0.640473 0.415530
O O11 0.944275 0.703322 0.356454
O O12 0.168402 0.500000 0.479928
O O13 0.272153 0.240863 0.548294
O O14 0.955516 0.500000 0.880598
O O15 0.000000 0.703576 0.000000
O O16 0.106407 0.737139 0.946798
O O17 0.418058 0.782516 0.189600
O O18 0.223531 0.000000 0.027628
O O19 0.403340 0.000000 0.657390
#
# Coordination Sequence:
#
# PCOD8061604 Si02
#       7
#     4   4   4   4   4   4   4
#     4  10  21  37  55  78 109 144 185 236 286 327
#     4  10  22  41  62  84 115 153 189 233 291 347
#     4   9  18  33  52  75 105 142 180 217 268 330
#     4   9  18  32  52  78 107 139 176 223 273 322
#     4  11  23  38  61  92 120 150 193 241 289 345
#     4  10  20  36  59  84 111 147 192 238 284 338
#     4  10  19  33  57  85 107 138 187 233 278 336
#
# _framework density 18.801715999999999
#
# number of rings (size 3 to 8) (size 9 to 14) (size 15 to 20)
#    0.000    2.143    2.857    1.286    0.000    3.429 
#    2.571    1.429    0.000    0.000    0.000    0.000 
#    0.000    0.000    0.000    0.000    0.000    0.000 
#
# Total GULP energy -346993.759789 kJ/mol
# GULP energy per Si atom -12392.634278 kJ/mol
# Density = 1.875892 g / cm^3
# Si number density = 18.801716 Si / 1000 Ang^3
#
#
#
# Elastic Constant Matrix: (Units=GPa)
#
#
# Indices 1 2 3 4 5 6 
#
# 1 89.0968 44.3582 38.6039 0.0000 8.0574 0.0000
# 2 44.3582 85.6816 53.7552 0.0000 21.2242 0.0000
# 3 38.6039 53.7552 83.8087 0.0000 14.4799 0.0000
# 4 0.0000 0.0000 0.0000 25.1802 0.0000 12.4558
# 5 8.0574 21.2242 14.4799 0.0000 35.1965 0.0000
# 6 0.0000 0.0000 0.0000 12.4558 0.0000 26.5082
#
#
#
# Elastic Compliance Matrix: (Units=1/GPa)
#
#
# Indices 1 2 3 4 5 6 
#
# 1 0.015754 -0.006420 -0.003428 0.000000 0.001675 0.000000
# 2 -0.006420 0.023964 -0.010949 0.000000 -0.008477 0.000000
# 3 -0.003428 -0.010949 0.020731 0.000000 -0.001142 0.000000
# 4 0.000000 0.000000 0.000000 0.051740 0.000000 -0.024312
# 5 0.001675 -0.008477 -0.001142 0.000000 0.033610 0.000000
# 6 0.000000 0.000000 0.000000 -0.024312 0.000000 0.049148
#
#
# Mechanical properties :
#
#
# Convention : Reuss Voigt Hill
#
# Bulk Modulus (GPa) = 53.03775 59.11354 56.07565
# Shear Modulus (GPa) = 20.59104 25.50165 23.04635
#
# Velocity S-wave (km/s) = 3.31292 3.68686 3.50488
# Velocity P-wave (km/s) = 6.55013 7.04504 6.80209
#
# Compressibility (1/GPa) = 0.01885449
#
# Stress axis : x y z
#
# Youngs Moduli (GPa) = 63.47606 41.73000 48.23780
#
# Poissons Ratio (x) = 0.26792 0.16536
# Poissons Ratio (y) = 0.40753 0.52813
# Poissons Ratio (z) = 0.21760 0.45688
#
# Static dielectric constant tensor:
#      x y z
#    x 3.533480 0.000000 0.137280 
#    y 0.000000 3.471740 0.000000 
#    z 0.137280 0.000000 3.666040 
# 
# 
# High freq. dielectric constant tensor:
#      x y z
#    x 1.731710 0.000000 0.013710 
#    y 0.000000 1.726340 0.000000 
#    z 0.013710 0.000000 1.716540 
# 
# From -- ./inp_files/84788.got.cif
#   From: 2010.06.25/outbox.cif.g09.slc.cpg/sg10_43_cif.got.tgz:84788.got - 2010.06.27 22:07:45.
