data_PCOD8061725
_publ_section_title
;
Structure prediction by ZEFSAII (Michael W. Deem and Ramdas Pophale) SiO2 
 PCOD8061725
Probable space group: P 2/M
;
_chemical_formula_sum "Si O2"
_cell_formula_units_Z 32
_cell_length_a 15.964073
_cell_length_b 8.762643
_cell_length_c 25.654838
_cell_angle_alpha 90.000000
_cell_angle_beta 150.281381
_cell_angle_gamma 90.000000
_cell_volume 1779.110260
_symmetry_space_group_name_H-M "P 2/M"
_symmetry_group_IT_number 10
_symmetry_cell_setting 'monoclinic'
loop_
_space_group_symop_operation_xyz
x,y,z
-x,y,-z
-x,-y,-z
x,-y,z
loop_
_atom_site_type_symbol
_atom_site_label
_atom_site_fract_x
_atom_site_fract_y
_atom_site_fract_z
Si Si1 0.471657 0.179713 0.727532
Si Si2 0.904036 0.319520 0.301337
Si Si3 0.028884 0.319576 0.777847
Si Si4 0.845134 0.819978 0.948369
Si Si5 0.239306 0.820297 0.983430
Si Si6 0.411262 0.681233 0.803730
Si Si7 0.724217 0.319592 0.473192
Si Si8 0.344325 0.319485 0.448097
O O1 0.666857 0.232290 0.827186
O O2 0.390043 0.259743 0.733573
O O3 0.373222 0.227451 0.623197
O O4 0.459758 0.000000 0.729990
O O5 0.902144 0.500000 0.300715
O O6 0.892562 0.266969 0.234972
O O7 0.747249 0.253113 0.249085
O O8 0.080219 0.266946 0.422589
O O9 0.050011 0.500000 0.798259
O O10 0.123219 0.227510 0.873219
O O11 0.832597 0.269134 0.673303
O O12 0.862064 0.000000 0.953948
O O13 0.852272 0.767884 0.012547
O O14 0.000000 0.743113 0.000000
O O15 0.270568 0.000000 0.000248
O O16 0.420627 0.740185 0.077156
O O17 0.412615 0.500000 0.804159
O O18 0.705281 0.500000 0.453475
O O19 0.645195 0.269300 0.485949
O O20 0.500000 0.245543 0.500000
O O21 0.354315 0.500000 0.451362
#
# Coordination Sequence:
#
# PCOD8061725 Si02
#       8
#     4   4   4   4   4   4   4   4
#     4  10  20  33  49  73 102 126 155 198 246 289
#     4   8  17  33  52  72  93 125 167 203 231 275
#     4   9  17  32  52  72  97 129 164 198 236 284
#     4   8  16  32  50  65  89 128 163 189 226 281
#     4  10  20  33  49  73 102 126 155 198 246 289
#     4  10  19  34  54  71  91 124 167 204 236 281
#     4   9  17  32  52  72  97 129 164 198 236 284
#     4   8  15  29  50  75 101 128 161 204 245 277
#
# _framework density 17.986518
#
# number of rings (size 3 to 8) (size 9 to 14) (size 15 to 20)
#    0.000    3.000    0.000    3.375    0.000    2.000 
#    0.000   10.000    0.000   13.500    0.000    0.000 
#    0.000    0.000    0.000    0.000    0.000    0.000 
#
# Total GULP energy -396681.513424 kJ/mol
# GULP energy per Si atom -12396.297294 kJ/mol
# Density = 1.794558 g / cm^3
# Si number density = 17.986518 Si / 1000 Ang^3
#
#
#
# Elastic Constant Matrix: (Units=GPa)
#
#
# Indices 1 2 3 4 5 6 
#
# 1 161.8037 30.2933 103.0672 0.0000 21.8869 0.0000
# 2 30.2933 42.9454 29.2713 0.0000 0.6327 0.0000
# 3 103.0672 29.2713 142.9190 0.0000 -10.1039 0.0000
# 4 0.0000 0.0000 0.0000 22.3696 0.0000 -3.2772
# 5 21.8869 0.6327 -10.1039 0.0000 32.7243 0.0000
# 6 0.0000 0.0000 0.0000 -3.2772 0.0000 17.2954
#
#
#
# Elastic Compliance Matrix: (Units=1/GPa)
#
#
# Indices 1 2 3 4 5 6 
#
# 1 0.016762 -0.003068 -0.012522 0.000000 -0.015018 0.000000
# 2 -0.003068 0.027793 -0.003448 0.000000 0.000450 0.000000
# 3 -0.012522 -0.003448 0.017717 0.000000 0.013912 0.000000
# 4 0.000000 0.000000 0.000000 0.045980 0.000000 0.008713
# 5 -0.015018 0.000450 0.013912 0.000000 0.044889 0.000000
# 6 0.000000 0.000000 0.000000 0.008713 0.000000 0.059470
#
#
# Mechanical properties :
#
#
# Convention : Reuss Voigt Hill
#
# Bulk Modulus (GPa) = 41.32770 74.77018 58.04894
# Shear Modulus (GPa) = 19.32350 26.81359 23.06855
#
# Velocity S-wave (km/s) = 3.28126 3.86523 3.58515
# Velocity P-wave (km/s) = 6.11412 7.84731 7.03430
#
# Compressibility (1/GPa) = 0.02419684
#
# Stress axis : x y z
#
# Youngs Moduli (GPa) = 59.65743 35.98022 56.44376
#
# Poissons Ratio (x) = 0.11039 0.70677
# Poissons Ratio (y) = 0.18304 0.19461
# Poissons Ratio (z) = 0.74701 0.12406
#
# Static dielectric constant tensor:
#      x y z
#    x 3.844110 0.000000 0.266960 
#    y 0.000000 2.966200 0.000000 
#    z 0.266960 0.000000 3.429590 
# 
# 
# High freq. dielectric constant tensor:
#      x y z
#    x 1.703870 0.000000 0.001650 
#    y 0.000000 1.665370 0.000000 
#    z 0.001650 0.000000 1.701280 
# 
# From -- ./inp_files/89590.got.cif
#   From: 2010.06.25/outbox.cif.g09.slc.cpg/sg10_45_cif.got.tgz:89590.got - 2010.06.27 22:07:45.
