data_PCOD8061154
_publ_section_title
;
Structure prediction by ZEFSAII (Michael W. Deem and Ramdas Pophale) SiO2 
 PCOD8061154
Probable space group: P 2/M
;
_chemical_formula_sum "Si O2"
_cell_formula_units_Z 32
_cell_length_a 21.333606
_cell_length_b 9.246203
_cell_length_c 20.805349
_cell_angle_alpha 90.000000
_cell_angle_beta 154.804298
_cell_angle_gamma 90.000000
_cell_volume 1747.100932
_symmetry_space_group_name_H-M "P 2/M"
_symmetry_group_IT_number 10
_symmetry_cell_setting 'monoclinic'
loop_
_space_group_symop_operation_xyz
x,y,z
-x,y,-z
-x,-y,-z
x,-y,z
loop_
_atom_site_type_symbol
_atom_site_label
_atom_site_fract_x
_atom_site_fract_y
_atom_site_fract_z
Si Si1 0.617072 0.162722 0.344897
Si Si2 0.185820 0.828598 0.586954
Si Si3 0.112407 0.171326 0.753674
Si Si4 0.470668 0.830005 0.545125
Si Si5 0.089691 0.334740 0.865630
Si Si6 0.334596 0.828731 0.852047
Si Si7 0.819188 0.838421 0.653209
Si Si8 0.392290 0.335100 0.214574
O O1 0.683071 0.218533 0.339158
O O2 0.750286 0.164480 0.518653
O O3 0.486801 0.268144 0.244365
O O4 0.552997 0.000000 0.279424
O O5 0.230515 0.766896 0.698313
O O6 0.028454 0.768391 0.416848
O O7 0.171996 0.000000 0.576054
O O8 0.122587 0.245679 0.831968
O O9 0.259741 0.212244 0.850474
O O10 0.099997 0.000000 0.753385
O O11 0.500000 0.778980 0.500000
O O12 0.303037 0.789907 0.408125
O O13 0.584111 0.748946 0.696901
O O14 0.497932 0.000000 0.579948
O O15 0.058356 0.500000 0.817180
O O16 0.952791 0.272952 0.778872
O O17 0.223248 0.322179 0.038928
O O18 0.343387 0.000000 0.852289
O O19 0.500000 0.763424 0.000000
O O20 0.876536 0.000000 0.722210
O O21 0.442111 0.500000 0.270279
#
# Coordination Sequence:
#
# PCOD8061154 Si02
#       8
#     4   4   4   4   4   4   4   4
#     4   9  17  31  53  79 104 133 176 226 269 317
#     4   9  16  29  48  74 104 131 167 218 274 325
#     4  10  19  33  53  74 101 138 177 222 275 325
#     4   9  19  38  63  88 112 139 174 216 260 310
#     4  11  23  36  51  76 112 146 181 224 265 311
#     4   9  18  29  46  76 105 131 171 223 277 330
#     4   9  17  33  56  83 108 134 174 216 259 313
#     4  10  22  36  51  77 112 146 181 216 259 311
#
# _framework density 18.316057000000001
#
# number of rings (size 3 to 8) (size 9 to 14) (size 15 to 20)
#    0.000    2.500    1.250    1.875    1.750    5.750 
#    0.000    0.625    0.000    6.375    0.000    0.000 
#    0.000    0.000    0.000    0.000    0.000    0.000 
#
# Total GULP energy -396762.960146 kJ/mol
# GULP energy per Si atom -12398.842505 kJ/mol
# Density = 1.827437 g / cm^3
# Si number density = 18.316057 Si / 1000 Ang^3
#
#
#
# Elastic Constant Matrix: (Units=GPa)
#
#
# Indices 1 2 3 4 5 6 
#
# 1 130.1792 46.1911 49.6720 0.0000 2.9443 0.0000
# 2 46.1911 67.1198 43.5128 0.0000 5.1476 0.0000
# 3 49.6720 43.5128 91.0763 0.0000 8.7027 0.0000
# 4 0.0000 0.0000 0.0000 23.5561 0.0000 0.2909
# 5 2.9443 5.1476 8.7027 0.0000 18.4281 0.0000
# 6 0.0000 0.0000 0.0000 0.2909 0.0000 0.7259
#
#
#
# Elastic Compliance Matrix: (Units=1/GPa)
#
#
# Indices 1 2 3 4 5 6 
#
# 1 0.010881 -0.005305 -0.003535 0.000000 0.001413 0.000000
# 2 -0.005305 0.024196 -0.008485 0.000000 -0.001904 0.000000
# 3 -0.003535 -0.008485 0.017469 0.000000 -0.005315 0.000000
# 4 0.000000 0.000000 0.000000 0.042663 0.000000 -0.017098
# 5 0.001413 -0.001904 -0.005315 0.000000 0.057081 0.000000
# 6 0.000000 0.000000 0.000000 -0.017098 0.000000 1.384363
#
#
# Mechanical properties :
#
#
# Convention : Reuss Voigt Hill
#
# Bulk Modulus (GPa) = 55.87454 63.01410 59.44432
# Shear Modulus (GPa) = 3.17004 18.47531 10.82267
#
# Velocity S-wave (km/s) = 1.31700 3.17944 2.43345
# Velocity P-wave (km/s) = 5.73451 6.92509 6.35773
#
# Compressibility (1/GPa) = 0.01789724
#
# Stress axis : x y z
#
# Youngs Moduli (GPa) = 91.90464 41.32897 57.24335
#
# Poissons Ratio (x) = 0.21924 0.20235
# Poissons Ratio (y) = 0.48754 0.48570
# Poissons Ratio (z) = 0.32487 0.35067
#
# Static dielectric constant tensor:
#      x y z
#    x 3.455650 0.000000 0.101300 
#    y 0.000000 3.123350 0.000000 
#    z 0.101300 0.000000 3.385650 
# 
# 
# High freq. dielectric constant tensor:
#      x y z
#    x 1.711900 0.000000 0.008360 
#    y 0.000000 1.674900 0.000000 
#    z 0.008360 0.000000 1.707740 
# 
# From -- ./inp_files/90659.got.cif
#   From: 2010.06.25/outbox.cif.g09.slc.cpg/sg10_46_cif.got.tgz:90659.got - 2010.06.27 22:07:45.
