data_PCOD8061610
_publ_section_title
;
Structure prediction by ZEFSAII (Michael W. Deem and Ramdas Pophale) SiO2 
 PCOD8061610
Probable space group: P 2/M
;
_chemical_formula_sum "Si O2"
_cell_formula_units_Z 24
_cell_length_a 11.706858
_cell_length_b 8.791149
_cell_length_c 22.329831
_cell_angle_alpha 90.000000
_cell_angle_beta 149.013352
_cell_angle_gamma 90.000000
_cell_volume 1183.156744
_symmetry_space_group_name_H-M "P 2/M"
_symmetry_group_IT_number 10
_symmetry_cell_setting 'monoclinic'
loop_
_space_group_symop_operation_xyz
x,y,z
-x,y,-z
-x,-y,-z
x,-y,z
loop_
_atom_site_type_symbol
_atom_site_label
_atom_site_fract_x
_atom_site_fract_y
_atom_site_fract_z
Si Si1 0.458056 0.180460 0.780119
Si Si2 0.748176 0.180744 0.112678
Si Si3 0.130704 0.821833 0.960915
Si Si4 0.637972 0.177679 0.737744
Si Si5 0.047852 0.819100 0.673367
Si Si6 0.578227 0.679244 0.469856
O O1 0.469306 0.226490 0.715034
O O2 0.227723 0.239225 0.705189
O O3 0.470173 0.000000 0.791379
O O4 0.671899 0.252258 0.910873
O O5 0.866105 0.240386 0.105704
O O6 0.877901 0.244366 0.228525
O O7 0.743989 0.000000 0.115627
O O8 0.500000 0.245655 0.000000
O O9 0.884557 0.787419 0.874926
O O10 0.178239 0.000000 0.980636
O O11 0.599171 0.272849 0.660092
O O12 0.614952 0.000000 0.711108
O O13 0.809219 0.750630 0.551987
O O14 0.029529 0.000000 0.663393
O O15 0.500000 0.740965 0.500000
O O16 0.602670 0.500000 0.482974
#
# Coordination Sequence:
#
# PCOD8061610 Si02
#       6
#     4   4   4   4   4   4
#     4   9  17  30  51  85 121 144 168 216 274 318
#     4   9  14  23  44  78 112 137 167 212 263 308
#     4   9  15  26  48  81 117 145 172 214 267 317
#     4  10  20  34  56  84 111 143 184 221 259 317
#     4  10  19  33  57  85 113 143 178 220 265 318
#     4  11  25  43  58  73 102 142 183 230 279 321
#
# _framework density 20.284717000000001
#
# number of rings (size 3 to 8) (size 9 to 14) (size 15 to 20)
#    0.000    2.333    1.667    2.000    0.000    5.333 
#    0.000    4.167    0.000    3.500    0.000    0.000 
#    0.000    0.000    0.000    0.000    0.000    0.000 
#
# Total GULP energy -297488.956046 kJ/mol
# GULP energy per Si atom -12395.373169 kJ/mol
# Density = 2.023855 g / cm^3
# Si number density = 20.284717 Si / 1000 Ang^3
#
#
#
# Elastic Constant Matrix: (Units=GPa)
#
#
# Indices 1 2 3 4 5 6 
#
# 1 144.2832 22.0799 41.5370 0.0000 5.5247 0.0000
# 2 22.0799 23.1800 16.2715 0.0000 1.2058 0.0000
# 3 41.5370 16.2715 92.6354 0.0000 4.6007 0.0000
# 4 0.0000 0.0000 0.0000 -0.3385 0.0000 -4.7952
# 5 5.5247 1.2058 4.6007 0.0000 33.2722 0.0000
# 6 0.0000 0.0000 0.0000 -4.7952 0.0000 11.7205
#
#
#
# Elastic Compliance Matrix: (Units=1/GPa)
#
#
# Indices 1 2 3 4 5 6 
#
# 1 0.008726 -0.006332 -0.002759 0.000000 -0.000838 0.000000
# 2 -0.006332 0.053814 -0.006614 0.000000 0.000016 0.000000
# 3 -0.002759 -0.006614 0.013250 0.000000 -0.001134 0.000000
# 4 0.000000 0.000000 0.000000 -0.434721 0.000000 -0.177855
# 5 -0.000838 0.000016 -0.001134 0.000000 0.030351 0.000000
# 6 0.000000 0.000000 0.000000 -0.177855 0.000000 0.012555
#
#
# Mechanical properties :
#
#
# Convention : Reuss Voigt Hill
#
# Bulk Modulus (GPa) = 22.53234 46.65281 34.59258
# Shear Modulus (GPa) = -18.53075 20.94485 1.20705
#
# Velocity S-wave (km/s) = -3.02575 3.21681 0.77223
# Velocity P-wave (km/s) = 1.03669 6.07010 4.22914
#
# Compressibility (1/GPa) = 0.04438065
#
# Stress axis : x y z
#
# Youngs Moduli (GPa) = 114.59866 18.58254 75.47046
#
# Poissons Ratio (x) = 0.11766 0.20822
# Poissons Ratio (y) = 0.72560 0.49918
# Poissons Ratio (z) = 0.31617 0.12291
#
# Static dielectric constant tensor:
#      x y z
#    x 3.997190 0.000000 0.028180 
#    y 0.000000 2.950190 0.000000 
#    z 0.028180 0.000000 3.704750 
# 
# 
# High freq. dielectric constant tensor:
#      x y z
#    x 1.810790 0.000000 0.002480 
#    y 0.000000 1.713880 0.000000 
#    z 0.002480 0.000000 1.797740 
# 
# From -- ./inp_files/45908.got.cif
#   From: 2010.06.25/outbox.cif.g09.slc.cpg/sg10_23_cif.got.tgz:45908.got - 2010.06.27 22:07:45.
