data_PCOD8061143
_publ_section_title
;
Structure prediction by ZEFSAII (Michael W. Deem and Ramdas Pophale) SiO2 
 PCOD8061143
Probable space group: P 2/M
;
_chemical_formula_sum "Si O2"
_cell_formula_units_Z 32
_cell_length_a 28.419110
_cell_length_b 9.258647
_cell_length_c 14.205013
_cell_angle_alpha 90.000000
_cell_angle_beta 28.189900
_cell_angle_gamma 90.000000
_cell_volume 1765.652759
_symmetry_space_group_name_H-M "P 2/M"
_symmetry_group_IT_number 10
_symmetry_cell_setting 'monoclinic'
loop_
_space_group_symop_operation_xyz
x,y,z
-x,y,-z
-x,-y,-z
x,-y,z
loop_
_atom_site_type_symbol
_atom_site_label
_atom_site_fract_x
_atom_site_fract_y
_atom_site_fract_z
Si Si1 0.976268 0.337834 0.932381
Si Si2 0.243644 0.332916 0.253396
Si Si3 0.427701 0.663844 0.797509
Si Si4 0.371768 0.834206 0.553112
Si Si5 0.285463 0.668341 0.877028
Si Si6 0.833305 0.169804 0.441408
Si Si7 0.793073 0.835676 0.300347
Si Si8 0.111109 0.328256 0.316040
O O1 0.973577 0.500000 0.895115
O O2 0.059779 0.245483 0.731413
O O3 0.000000 0.340107 0.000000
O O4 0.869193 0.263903 0.107339
O O5 0.226626 0.500000 0.310323
O O6 0.241945 0.235100 0.349346
O O7 0.157945 0.277966 0.332611
O O8 0.351142 0.311054 0.017259
O O9 0.467407 0.500000 0.727985
O O10 0.519550 0.768932 0.649868
O O11 0.375411 0.697054 0.790627
O O12 0.305057 0.757339 0.749010
O O13 0.316157 0.816563 0.551153
O O14 0.383076 0.000000 0.562314
O O15 0.279080 0.500000 0.862855
O O16 0.181560 0.723472 0.105945
O O17 0.788130 0.207882 0.418789
O O18 0.845666 0.000000 0.434764
O O19 0.831611 0.000000 0.223368
O O20 0.109633 0.500000 0.317666
O O21 0.000000 0.263403 0.500000
#
# Coordination Sequence:
#
# PCOD8061143 Si02
#       8
#     4   4   4   4   4   4   4   4
#     4   9  17  30  50  74  97 125 165 208 243 283
#     4   9  18  33  53  76 100 128 169 214 246 288
#     4   9  19  36  54  72  99 133 167 207 257 309
#     4  11  22  34  51  75 101 129 167 215 257 296
#     4   9  18  33  53  76 102 133 166 199 246 309
#     4  10  19  33  53  73 100 139 171 199 247 305
#     4   9  20  36  49  69 104 138 167 204 252 303
#     4   8  15  30  52  77 104 132 161 196 241 293
#
# _framework density 18.123609999999999
#
# number of rings (size 3 to 8) (size 9 to 14) (size 15 to 20)
#    0.000    2.750    0.000    3.000    0.000    6.500 
#    0.000    3.750    0.000    4.500    0.000    0.000 
#    0.000    0.000    0.000    0.000    0.000    0.000 
#
# Total GULP energy -396788.385448 kJ/mol
# GULP energy per Si atom -12399.637045 kJ/mol
# Density = 1.808236 g / cm^3
# Si number density = 18.123610 Si / 1000 Ang^3
#
#
#
# Elastic Constant Matrix: (Units=GPa)
#
#
# Indices 1 2 3 4 5 6 
#
# 1 82.2490 47.9146 59.0992 0.0000 -1.8041 0.0000
# 2 47.9146 91.7810 52.6080 0.0000 0.3306 0.0000
# 3 59.0992 52.6080 104.6650 0.0000 -4.3053 0.0000
# 4 0.0000 0.0000 0.0000 20.2083 0.0000 1.5819
# 5 -1.8041 0.3306 -4.3053 0.0000 30.4775 0.0000
# 6 0.0000 0.0000 0.0000 1.5819 0.0000 25.0825
#
#
#
# Elastic Compliance Matrix: (Units=1/GPa)
#
#
# Indices 1 2 3 4 5 6 
#
# 1 0.022829 -0.006364 -0.009690 0.000000 0.000052 0.000000
# 2 -0.006364 0.017127 -0.005068 0.000000 -0.001278 0.000000
# 3 -0.009690 -0.005068 0.017654 0.000000 0.001975 0.000000
# 4 0.000000 0.000000 0.000000 0.049730 0.000000 -0.003136
# 5 0.000052 -0.001278 0.001975 0.000000 0.033107 0.000000
# 6 0.000000 0.000000 0.000000 -0.003136 0.000000 0.040066
#
#
# Mechanical properties :
#
#
# Convention : Reuss Voigt Hill
#
# Bulk Modulus (GPa) = 65.07278 66.43763 65.75521
# Shear Modulus (GPa) = 21.94142 23.09189 22.51665
#
# Velocity S-wave (km/s) = 3.48322 3.57337 3.52858
# Velocity P-wave (km/s) = 7.22219 7.33232 7.27746
#
# Compressibility (1/GPa) = 0.01536741
#
# Stress axis : x y z
#
# Youngs Moduli (GPa) = 43.80351 58.38597 56.64459
#
# Poissons Ratio (x) = 0.37159 0.54886
# Poissons Ratio (y) = 0.27878 0.28706
# Poissons Ratio (z) = 0.42443 0.29588
#
# Static dielectric constant tensor:
#      x y z
#    x 3.248840 0.000000 -0.045270 
#    y 0.000000 3.261000 0.000000 
#    z -0.045270 0.000000 3.352430 
# 
# 
# High freq. dielectric constant tensor:
#      x y z
#    x 1.690560 0.000000 0.000540 
#    y 0.000000 1.691620 0.000000 
#    z 0.000540 0.000000 1.702120 
# 
# From -- ./inp_files/72549.got.cif
#   From: 2010.06.25/outbox.cif.g09.slc.cpg/sg10_37_cif.got.tgz:72549.got - 2010.06.27 22:07:45.
