data_PCOD8061933
_publ_section_title
;
Structure prediction by ZEFSAII (Michael W. Deem and Ramdas Pophale) SiO2 
 PCOD8061933
Probable space group: P 2/M
;
_chemical_formula_sum "Si O2"
_cell_formula_units_Z 32
_cell_length_a 20.798761
_cell_length_b 9.053342
_cell_length_c 20.856836
_cell_angle_alpha 90.000000
_cell_angle_beta 26.265241
_cell_angle_gamma 90.000000
_cell_volume 1737.940220
_symmetry_space_group_name_H-M "P 2/M"
_symmetry_group_IT_number 10
_symmetry_cell_setting 'monoclinic'
loop_
_space_group_symop_operation_xyz
x,y,z
-x,y,-z
-x,-y,-z
x,-y,z
loop_
_atom_site_type_symbol
_atom_site_label
_atom_site_fract_x
_atom_site_fract_y
_atom_site_fract_z
Si Si1 0.307084 0.673413 0.619955
Si Si2 0.437172 0.326394 0.121992
Si Si3 0.305906 0.325678 0.014044
Si Si4 0.925137 0.164970 0.254969
Si Si5 0.625690 0.674613 0.300085
Si Si6 0.016742 0.825180 0.312083
Si Si7 0.120612 0.672590 0.445456
Si Si8 0.256513 0.168159 0.928817
O O1 0.303869 0.500000 0.621147
O O2 0.175678 0.729322 0.695269
O O3 0.458749 0.726112 0.454129
O O4 0.293558 0.722770 0.706310
O O5 0.423765 0.500000 0.123979
O O6 0.275635 0.266272 0.281645
O O7 0.500000 0.255507 0.000000
O O8 0.544892 0.286449 0.083439
O O9 0.277959 0.500000 0.035930
O O10 0.173671 0.252765 0.171419
O O11 0.323245 0.261607 0.927405
O O12 0.930188 0.214911 0.324531
O O13 0.862756 0.000000 0.305248
O O14 0.084008 0.175314 0.083324
O O15 0.640228 0.500000 0.274661
O O16 0.695793 0.764118 0.180408
O O17 0.919412 0.766185 0.456550
O O18 0.042745 0.000000 0.294053
O O19 0.128242 0.500000 0.457004
O O20 0.000000 0.702594 0.500000
O O21 0.311477 0.000000 0.886247
#
# Coordination Sequence:
#
# PCOD8061933 Si02
#       8
#     4   4   4   4   4   4   4   4
#     4   9  19  35  55  77 103 135 174 220 263 307
#     4   9  18  33  54  81 108 133 170 219 263 305
#     4  10  19  34  57  80 104 137 175 217 262 307
#     4   9  20  36  52  74 105 138 173 213 259 313
#     4   9  19  36  54  76 105 136 173 217 263 310
#     4  10  21  37  54  76 109 143 174 213 261 312
#     4  10  20  35  57  82 106 137 178 219 261 311
#     4  10  21  36  53  77 108 140 174 214 260 312
#
# _framework density 18.412600000000001
#
# number of rings (size 3 to 8) (size 9 to 14) (size 15 to 20)
#    0.000    2.500    0.000    3.375    0.000    7.750 
#    0.000    8.750    0.000    2.625    0.000    0.000 
#    0.000    0.000    0.000    0.000    0.000    0.000 
#
# Total GULP energy -396793.724263 kJ/mol
# GULP energy per Si atom -12399.803883 kJ/mol
# Density = 1.837069 g / cm^3
# Si number density = 18.412600 Si / 1000 Ang^3
#
#
#
# Elastic Constant Matrix: (Units=GPa)
#
#
# Indices 1 2 3 4 5 6 
#
# 1 126.5737 48.9980 82.7165 0.0000 7.3505 0.0000
# 2 48.9980 59.3610 41.1179 0.0000 8.2777 0.0000
# 3 82.7165 41.1179 112.9722 0.0000 15.1208 0.0000
# 4 0.0000 0.0000 0.0000 9.7193 0.0000 13.9477
# 5 7.3505 8.2777 15.1208 0.0000 35.4332 0.0000
# 6 0.0000 0.0000 0.0000 13.9477 0.0000 7.8009
#
#
#
# Elastic Compliance Matrix: (Units=1/GPa)
#
#
# Indices 1 2 3 4 5 6 
#
# 1 0.017468 -0.007594 -0.010371 0.000000 0.002576 0.000000
# 2 -0.007594 0.025944 -0.003481 0.000000 -0.003000 0.000000
# 3 -0.010371 -0.003481 0.018364 0.000000 -0.004872 0.000000
# 4 0.000000 0.000000 0.000000 -0.065710 0.000000 0.117485
# 5 0.002576 -0.003000 -0.004872 0.000000 0.030468 0.000000
# 6 0.000000 0.000000 0.000000 0.117485 0.000000 -0.081869
#
#
# Mechanical properties :
#
#
# Convention : Reuss Voigt Hill
#
# Bulk Modulus (GPa) = 52.95284 71.61907 62.28595
# Shear Modulus (GPa) = -813.16051 18.99565 -397.08243
#
# Velocity S-wave (km/s) = -21.03786 3.21544 -14.70123
# Velocity P-wave (km/s) = 23.69178 7.26406 15.94575
#
# Compressibility (1/GPa) = 0.01888473
#
# Stress axis : x y z
#
# Youngs Moduli (GPa) = 57.24773 38.54469 54.45489
#
# Poissons Ratio (x) = 0.29272 0.56472
# Poissons Ratio (y) = 0.43476 0.18954
# Poissons Ratio (z) = 0.59369 0.13416
#
# Static dielectric constant tensor:
#      x y z
#    x 3.525510 0.000000 -0.045000 
#    y 0.000000 3.278930 0.000000 
#    z -0.045000 0.000000 3.539880 
# 
# 
# High freq. dielectric constant tensor:
#      x y z
#    x 1.724160 0.000000 0.004540 
#    y 0.000000 1.702950 0.000000 
#    z 0.004540 0.000000 1.715950 
# 
# From -- ./inp_files/90529.got.cif
#   From: 2010.06.25/outbox.cif.g09.slc.cpg/sg10_46_cif.got.tgz:90529.got - 2010.06.27 22:07:45.
