data_PCOD8061814
_publ_section_title
;
Structure prediction by ZEFSAII (Michael W. Deem and Ramdas Pophale) SiO2 
 PCOD8061814
Probable space group: P 2/M
;
_chemical_formula_sum "Si O2"
_cell_formula_units_Z 32
_cell_length_a 27.381296
_cell_length_b 8.608228
_cell_length_c 15.488847
_cell_angle_alpha 90.000000
_cell_angle_beta 28.348677
_cell_angle_gamma 90.000000
_cell_volume 1733.526766
_symmetry_space_group_name_H-M "P 2/M"
_symmetry_group_IT_number 10
_symmetry_cell_setting 'monoclinic'
loop_
_space_group_symop_operation_xyz
x,y,z
-x,y,-z
-x,-y,-z
x,-y,z
loop_
_atom_site_type_symbol
_atom_site_label
_atom_site_fract_x
_atom_site_fract_y
_atom_site_fract_z
Si Si1 0.771030 0.680987 0.293015
Si Si2 0.702426 0.819058 0.661891
Si Si3 0.150099 0.183726 0.299724
Si Si4 0.584440 0.180905 0.672097
Si Si5 0.888332 0.319279 0.284056
Si Si6 0.041181 0.317836 0.310758
Si Si7 0.639604 0.183970 0.946215
Si Si8 0.918437 0.819818 0.935930
O O1 0.777749 0.500000 0.262073
O O2 0.653361 0.726395 0.496043
O O3 0.841698 0.727450 0.264369
O O4 0.810358 0.775536 0.148700
O O5 0.621223 0.788011 0.712481
O O6 0.806508 0.722514 0.485287
O O7 0.653776 0.756130 0.826303
O O8 0.732565 0.000000 0.621038
O O9 0.072801 0.259249 0.488981
O O10 0.265603 0.239624 0.142015
O O11 0.124763 0.235988 0.242268
O O12 0.138912 0.000000 0.325572
O O13 0.592182 0.000000 0.636801
O O14 0.467813 0.246224 0.847179
O O15 0.916526 0.500000 0.244998
O O16 0.991435 0.221253 0.137087
O O17 0.046866 0.500000 0.317831
O O18 0.067830 0.279927 0.171391
O O19 0.632349 0.000000 0.954354
O O20 0.919813 0.000000 0.909783
#
# Coordination Sequence:
#
# PCOD8061814 Si02
#       8
#     4   4   4   4   4   4   4   4
#     4  10  21  36  51  72 104 139 172 209 254 299
#     4   9  16  28  48  74 105 140 176 210 245 292
#     4  10  19  34  55  80 109 138 170 208 251 302
#     4   9  17  31  50  73 102 138 178 214 248 290
#     4  10  20  33  49  73 107 140 169 206 252 302
#     4  11  22  37  55  77 106 136 166 206 259 311
#     4   9  17  29  50  77 103 134 173 215 253 291
#     4  12  23  35  54  77  99 130 173 214 255 305
#
# _framework density 18.459478000000001
#
# number of rings (size 3 to 8) (size 9 to 14) (size 15 to 20)
#    0.000    2.000    0.000    5.625    0.000    5.500 
#    0.000    2.500    0.000    3.750    0.000    5.250 
#    0.000    0.000    0.000    0.000    0.000    0.000 
#
# Total GULP energy -396874.328324 kJ/mol
# GULP energy per Si atom -12402.322760 kJ/mol
# Density = 1.841746 g / cm^3
# Si number density = 18.459478 Si / 1000 Ang^3
#
#
#
# Elastic Constant Matrix: (Units=GPa)
#
#
# Indices 1 2 3 4 5 6 
#
# 1 53.3689 -4.1153 43.4486 0.0000 -5.9427 0.0000
# 2 -4.1153 14.7740 9.0252 0.0000 -0.3816 0.0000
# 3 43.4486 9.0252 123.8365 0.0000 -5.2806 0.0000
# 4 0.0000 0.0000 0.0000 13.2713 0.0000 6.1517
# 5 -5.9427 -0.3816 -5.2806 0.0000 28.2613 0.0000
# 6 0.0000 0.0000 0.0000 6.1517 0.0000 20.1422
#
#
#
# Elastic Compliance Matrix: (Units=1/GPa)
#
#
# Indices 1 2 3 4 5 6 
#
# 1 0.029610 0.015273 -0.011318 0.000000 0.004318 0.000000
# 2 0.015273 0.078719 -0.011001 0.000000 0.002219 0.000000
# 3 -0.011318 -0.011001 0.012842 0.000000 -0.000129 0.000000
# 4 0.000000 0.000000 0.000000 0.087777 0.000000 -0.026808
# 5 0.004318 0.002219 -0.000129 0.000000 0.036298 0.000000
# 6 0.000000 0.000000 0.000000 -0.026808 0.000000 0.057835
#
#
# Mechanical properties :
#
#
# Convention : Reuss Voigt Hill
#
# Bulk Modulus (GPa) = 9.33880 32.07736 20.70808
# Shear Modulus (GPa) = 14.16970 21.90968 18.03969
#
# Velocity S-wave (km/s) = 2.77359 3.44889 3.12951
# Velocity P-wave (km/s) = 3.91498 5.76842 4.92959
#
# Compressibility (1/GPa) = 0.10708009
#
# Stress axis : x y z
#
# Youngs Moduli (GPa) = 33.77227 12.70344 77.86749
#
# Poissons Ratio (x) = -0.19402 0.88129
# Poissons Ratio (y) = -0.51582 0.85663
# Poissons Ratio (z) = 0.38223 0.13975
#
# Static dielectric constant tensor:
#      x y z
#    x 3.302570 0.000000 -0.101490 
#    y 0.000000 3.301500 0.000000 
#    z -0.101490 0.000000 3.562370 
# 
# 
# High freq. dielectric constant tensor:
#      x y z
#    x 1.693030 0.000000 0.000240 
#    y 0.000000 1.710010 0.000000 
#    z 0.000240 0.000000 1.719760 
# 
# From -- ./inp_files/72187.got.cif
#   From: 2010.06.25/outbox.cif.g09.slc.cpg/sg10_37_cif.got.tgz:72187.got - 2010.06.27 22:07:45.
