data_PCOD8062690
_publ_section_title
;
Structure prediction by ZEFSAII (Michael W. Deem and Ramdas Pophale) SiO2 
 PCOD8062690
Probable space group: P 2/M
;
_chemical_formula_sum "Si O2"
_cell_formula_units_Z 28
_cell_length_a 17.243618
_cell_length_b 8.832894
_cell_length_c 13.967665
_cell_angle_alpha 90.000000
_cell_angle_beta 136.019329
_cell_angle_gamma 90.000000
_cell_volume 1477.320511
_symmetry_space_group_name_H-M "P 2/M"
_symmetry_group_IT_number 10
_symmetry_cell_setting 'monoclinic'
loop_
_space_group_symop_operation_xyz
x,y,z
-x,y,-z
-x,-y,-z
x,-y,z
loop_
_atom_site_type_symbol
_atom_site_label
_atom_site_fract_x
_atom_site_fract_y
_atom_site_fract_z
Si Si1 0.613056 0.825027 0.152200
Si Si2 0.359379 0.676835 0.622239
Si Si3 0.206114 0.822064 0.154491
Si Si4 0.746331 0.171435 0.087085
Si Si5 0.928990 0.677522 0.131318
Si Si6 0.580991 0.173289 0.773085
Si Si7 0.162864 0.178924 0.331378
O O1 0.633653 0.718724 0.260391
O O2 0.716205 0.801079 0.170884
O O3 0.604089 0.000000 0.177384
O O4 0.500000 0.773893 0.000000
O O5 0.338435 0.500000 0.591711
O O6 0.472831 0.721566 0.667728
O O7 0.257351 0.767212 0.487051
O O8 0.330551 0.779001 0.229987
O O9 0.192813 0.766288 0.250893
O O10 0.185347 0.000000 0.124070
O O11 0.113876 0.740157 0.008122
O O12 0.844183 0.283642 0.142064
O O13 0.788266 0.000000 0.106649
O O14 0.635106 0.198315 0.925490
O O15 0.942427 0.500000 0.135123
O O16 0.047199 0.749490 0.262431
O O17 0.542941 0.000000 0.725572
O O18 0.152987 0.000000 0.327425
#
# Coordination Sequence:
#
# PCOD8062690 Si02
#       7
#     4   4   4   4   4   4   4
#     4  10  19  37  63  87 111 147 193 235 273 328
#     4  12  25  37  53  84 123 153 183 230 293 348
#     4   9  20  38  62  86 108 146 199 242 274 325
#     4   9  18  35  61  87 112 146 192 236 273 325
#     4  11  22  36  58  88 121 149 181 232 291 340
#     4   9  17  35  58  83 113 147 190 234 278 331
#     4  11  23  41  61  79 108 154 202 239 275 329
#
# _framework density 18.953233000000001
#
# number of rings (size 3 to 8) (size 9 to 14) (size 15 to 20)
#    0.000    1.857    1.429    4.286    0.000    6.571 
#    0.000    3.571    0.000    4.286    0.000    0.000 
#    0.000    0.000    0.000    0.000    0.000    0.000 
#
# Total GULP energy -347311.425994 kJ/mol
# GULP energy per Si atom -12403.979500 kJ/mol
# Density = 1.891009 g / cm^3
# Si number density = 18.953233 Si / 1000 Ang^3
#
#
#
# Elastic Constant Matrix: (Units=GPa)
#
#
# Indices 1 2 3 4 5 6 
#
# 1 77.4303 26.4130 43.0899 0.0000 6.7202 0.0000
# 2 26.4130 73.2025 30.4531 0.0000 8.6734 0.0000
# 3 43.0899 30.4531 89.8818 0.0000 18.3730 0.0000
# 4 0.0000 0.0000 0.0000 -3.2669 0.0000 -11.8704
# 5 6.7202 8.6734 18.3730 0.0000 20.4400 0.0000
# 6 0.0000 0.0000 0.0000 -11.8704 0.0000 10.5640
#
#
#
# Elastic Compliance Matrix: (Units=1/GPa)
#
#
# Indices 1 2 3 4 5 6 
#
# 1 0.018463 -0.003579 -0.008218 0.000000 0.002836 0.000000
# 2 -0.003579 0.016687 -0.003346 0.000000 -0.002897 0.000000
# 3 -0.008218 -0.003346 0.018814 0.000000 -0.012789 0.000000
# 4 0.000000 0.000000 0.000000 -0.060222 0.000000 -0.067670
# 5 0.002836 -0.002897 -0.012789 0.000000 0.060717 0.000000
# 6 0.000000 0.000000 0.000000 -0.067670 0.000000 0.018623
#
#
# Mechanical properties :
#
#
# Convention : Reuss Voigt Hill
#
# Bulk Modulus (GPa) = 42.23437 48.93629 45.58533
# Shear Modulus (GPa) = 44.93936 14.91798 29.92867
#
# Velocity S-wave (km/s) = 4.87464 2.80856 3.97807
# Velocity P-wave (km/s) = 7.34947 6.03265 6.72338
#
# Compressibility (1/GPa) = 0.02367740
#
# Stress axis : x y z
#
# Youngs Moduli (GPa) = 54.16207 59.92590 53.15283
#
# Poissons Ratio (x) = 0.21447 0.43683
# Poissons Ratio (y) = 0.19384 0.17785
# Poissons Ratio (z) = 0.44513 0.20051
#
# Static dielectric constant tensor:
#      x y z
#    x 3.627020 0.000000 0.016080 
#    y 0.000000 3.338310 0.000000 
#    z 0.016080 0.000000 3.311980 
# 
# 
# High freq. dielectric constant tensor:
#      x y z
#    x 1.749330 0.000000 0.005430 
#    y 0.000000 1.727970 0.000000 
#    z 0.005430 0.000000 1.719960 
# 
# From -- ./inp_files/68675.got.cif
#   From: 2010.06.25/outbox.cif.g09.slc.cpg/sg10_35_cif.got.tgz:68675.got - 2010.06.27 22:07:45.
