data_PCOD8062810
_publ_section_title
;
Structure prediction by ZEFSAII (Michael W. Deem and Ramdas Pophale) SiO2 
 PCOD8062810
Probable space group: P 2/M
;
_chemical_formula_sum "Si O2"
_cell_formula_units_Z 24
_cell_length_a 12.883266
_cell_length_b 11.499472
_cell_length_c 18.175899
_cell_angle_alpha 90.000000
_cell_angle_beta 29.250976
_cell_angle_gamma 90.000000
_cell_volume 1315.786200
_symmetry_space_group_name_H-M "P 2/M"
_symmetry_group_IT_number 10
_symmetry_cell_setting 'monoclinic'
loop_
_space_group_symop_operation_xyz
x,y,z
-x,y,-z
-x,-y,-z
x,-y,z
loop_
_atom_site_type_symbol
_atom_site_label
_atom_site_fract_x
_atom_site_fract_y
_atom_site_fract_z
Si Si1 0.000000 0.200938 0.000000
Si Si2 0.441068 0.861929 0.929494
Si Si3 0.118681 0.363320 0.502094
Si Si4 0.448302 0.777945 0.762265
Si Si5 0.045958 0.000000 0.863044
Si Si6 0.499662 0.000000 0.367517
Si Si7 0.932546 0.000000 0.314077
Si Si8 0.836841 0.206599 0.767750
O O1 0.224018 0.273244 0.864240
O O2 0.965322 0.116706 0.951486
O O3 0.392411 0.820163 0.878345
O O4 0.685626 0.833729 0.795027
O O5 0.400282 0.000000 0.967837
O O6 0.296682 0.783176 0.073814
O O7 0.142059 0.500000 0.495034
O O8 0.359718 0.314251 0.357105
O O9 0.000000 0.327420 0.500000
O O10 0.968219 0.321229 0.662622
O O11 0.519052 0.888605 0.672583
O O12 0.297180 0.000000 0.707352
O O13 0.956689 0.000000 0.834953
O O14 0.318557 0.000000 0.540768
O O15 0.986481 0.110173 0.329674
#
# Coordination Sequence:
#
# PCOD8062810 Si02
#       8
#     2   4   4   4   2   2   2   4
#     4   9  20  34  53  82 114 158 187 221 278 338
#     4  11  20  33  54  88 123 148 173 225 283 351
#     4  11  24  42  59  78 109 152 197 240 281 325
#     4  11  20  36  59  83 116 150 187 229 278 337
#     4   9  19  32  47  81 125 153 178 221 278 345
#     4  10  20  30  53  86 115 148 188 225 280 341
#     4  12  18  29  52  84 120 147 179 231 282 346
#     4  11  21  33  53  85 116 146 185 220 286 343
#
# _framework density 18.240044999999999
#
# number of rings (size 3 to 8) (size 9 to 14) (size 15 to 20)
#    0.000    1.333    5.833    2.250    0.000    0.000 
#    0.000    5.417    0.000    0.000    0.000   15.167 
#    0.000    0.000    0.000    0.000    0.000    0.000 
#
# Total GULP energy -297326.108419 kJ/mol
# GULP energy per Si atom -12388.587851 kJ/mol
# Density = 1.819853 g / cm^3
# Si number density = 18.240045 Si / 1000 Ang^3
#
#
#
# Elastic Constant Matrix: (Units=GPa)
#
#
# Indices 1 2 3 4 5 6 
#
# 1 88.3676 31.3195 45.6029 0.0000 -15.6899 0.0000
# 2 31.3195 74.4337 41.3271 0.0000 -10.4884 0.0000
# 3 45.6029 41.3271 114.9189 0.0000 -21.7339 0.0000
# 4 0.0000 0.0000 0.0000 3.4776 0.0000 -11.1964
# 5 -15.6899 -10.4884 -21.7339 0.0000 35.2965 0.0000
# 6 0.0000 0.0000 0.0000 -11.1964 0.0000 7.9917
#
#
#
# Elastic Compliance Matrix: (Units=1/GPa)
#
#
# Indices 1 2 3 4 5 6 
#
# 1 0.015333 -0.003699 -0.004158 0.000000 0.003157 0.000000
# 2 -0.003699 0.017743 -0.004784 0.000000 0.000683 0.000000
# 3 -0.004158 -0.004784 0.012963 0.000000 0.004712 0.000000
# 4 0.000000 0.000000 0.000000 -0.081910 0.000000 -0.114756
# 5 0.003157 0.000683 0.004712 0.000000 0.032839 0.000000
# 6 0.000000 0.000000 0.000000 -0.114756 0.000000 -0.035643
#
#
# Mechanical properties :
#
#
# Convention : Reuss Voigt Hill
#
# Bulk Modulus (GPa) = 48.17057 57.13546 52.65302
# Shear Modulus (GPa) = -772.38421 19.98453 -376.19984
#
# Velocity S-wave (km/s) = -20.60035 3.31364 -14.37697
# Velocity P-wave (km/s) = 23.22426 6.78472 15.70563
#
# Compressibility (1/GPa) = 0.02075956
#
# Stress axis : x y z
#
# Youngs Moduli (GPa) = 65.21769 56.35883 77.14082
#
# Poissons Ratio (x) = 0.20845 0.32071
# Poissons Ratio (y) = 0.24121 0.36905
# Poissons Ratio (z) = 0.27114 0.26963
#
# Static dielectric constant tensor:
#      x y z
#    x 3.446480 0.000000 -0.225710 
#    y 0.000000 2.903280 0.000000 
#    z -0.225710 0.000000 3.554720 
# 
# 
# High freq. dielectric constant tensor:
#      x y z
#    x 1.719520 0.000000 -0.017850 
#    y 0.000000 1.650810 0.000000 
#    z -0.017850 0.000000 1.732330 
# 
# From -- ./inp_files/76640.got.cif
#   From: 2010.06.25/outbox.cif.g09.slc.cpg/sg10_39_cif.got.tgz:76640.got - 2010.06.27 22:07:45.
