data_PCOD8062233
_publ_section_title
;
Structure prediction by ZEFSAII (Michael W. Deem and Ramdas Pophale) SiO2 
 PCOD8062233
Probable space group: P 2/M
;
_chemical_formula_sum "Si O2"
_cell_formula_units_Z 24
_cell_length_a 9.678947
_cell_length_b 8.446604
_cell_length_c 21.980784
_cell_angle_alpha 90.000000
_cell_angle_beta 135.634537
_cell_angle_gamma 90.000000
_cell_volume 1256.536345
_symmetry_space_group_name_H-M "P 2/M"
_symmetry_group_IT_number 10
_symmetry_cell_setting 'monoclinic'
loop_
_space_group_symop_operation_xyz
x,y,z
-x,y,-z
-x,-y,-z
x,-y,z
loop_
_atom_site_type_symbol
_atom_site_label
_atom_site_fract_x
_atom_site_fract_y
_atom_site_fract_z
Si Si1 0.355748 0.683733 0.771762
Si Si2 0.446004 0.815050 0.277970
Si Si3 0.359449 0.187638 0.901815
Si Si4 0.792463 0.683262 0.464118
Si Si5 0.084134 0.812624 0.241278
Si Si6 0.068892 0.185075 0.372099
O O1 0.301236 0.500000 0.752421
O O2 0.525545 0.722674 0.776328
O O3 0.433020 0.731832 0.862726
O O4 0.163620 0.783136 0.691964
O O5 0.624174 0.788419 0.380784
O O6 0.245304 0.745170 0.245049
O O7 0.425647 0.000000 0.257577
O O8 0.135943 0.242798 0.846924
O O9 0.371852 0.000000 0.896966
O O10 0.500000 0.247537 0.000000
O O11 0.745032 0.500000 0.437246
O O12 0.800200 0.718836 0.538422
O O13 0.000000 0.733106 0.500000
O O14 0.131917 0.754289 0.324900
O O15 0.094101 0.000000 0.244550
O O16 0.108505 0.000000 0.393719
#
# Coordination Sequence:
#
# PCOD8062233 Si02
#       6
#     4   4   4   4   4   4
#     4  11  21  34  53  80 112 142 177 219 266 318
#     4  11  21  35  55  77 107 145 182 221 267 313
#     4   9  18  37  64  87 106 135 177 219 262 320
#     4  11  22  34  50  76 111 143 182 228 266 311
#     4   8  18  35  55  82 109 134 174 227 270 311
#     4  10  19  35  57  78 103 141 188 226 265 314
#
# _framework density 19.100123
#
# number of rings (size 3 to 8) (size 9 to 14) (size 15 to 20)
#    0.000    2.000    1.667    4.000    0.000    1.667 
#    0.000   12.500    0.000    5.000    0.000    0.000 
#    0.000    0.000    0.000    0.000    0.000    0.000 
#
# Total GULP energy -297637.222078 kJ/mol
# GULP energy per Si atom -12401.550920 kJ/mol
# Density = 1.905665 g / cm^3
# Si number density = 19.100123 Si / 1000 Ang^3
#
#
#
# Elastic Constant Matrix: (Units=GPa)
#
#
# Indices 1 2 3 4 5 6 
#
# 1 149.3590 16.8307 59.9148 0.0000 -10.1093 0.0000
# 2 16.8307 39.4972 14.3290 0.0000 -2.8064 0.0000
# 3 59.9148 14.3290 119.4579 0.0000 -15.9259 0.0000
# 4 0.0000 0.0000 0.0000 15.8557 0.0000 -5.1534
# 5 -10.1093 -2.8064 -15.9259 0.0000 23.4207 0.0000
# 6 0.0000 0.0000 0.0000 -5.1534 0.0000 12.4569
#
#
#
# Elastic Compliance Matrix: (Units=1/GPa)
#
#
# Indices 1 2 3 4 5 6 
#
# 1 0.008571 -0.002170 -0.003937 0.000000 0.000762 0.000000
# 2 -0.002170 0.027046 -0.002033 0.000000 0.000922 0.000000
# 3 -0.003937 -0.002033 0.011360 0.000000 0.005782 0.000000
# 4 0.000000 0.000000 0.000000 0.072866 0.000000 0.030145
# 5 0.000762 0.000922 0.005782 0.000000 0.047069 0.000000
# 6 0.000000 0.000000 0.000000 0.030145 0.000000 0.092747
#
#
# Mechanical properties :
#
#
# Convention : Reuss Voigt Hill
#
# Bulk Modulus (GPa) = 32.57558 54.49589 43.53574
# Shear Modulus (GPa) = 17.47209 24.82932 21.15071
#
# Velocity S-wave (km/s) = 3.02779 3.60940 3.33131
# Velocity P-wave (km/s) = 5.41438 6.77968 6.13513
#
# Compressibility (1/GPa) = 0.03069784
#
# Stress axis : x y z
#
# Youngs Moduli (GPa) = 116.67813 36.97424 88.02554
#
# Poissons Ratio (x) = 0.08023 0.34653
# Poissons Ratio (y) = 0.25317 0.17895
# Poissons Ratio (z) = 0.45933 0.07517
#
# Static dielectric constant tensor:
#      x y z
#    x 3.787950 0.000000 -0.101950 
#    y 0.000000 3.266490 0.000000 
#    z -0.101950 0.000000 3.451430 
# 
# 
# High freq. dielectric constant tensor:
#      x y z
#    x 1.742250 0.000000 -0.014990 
#    y 0.000000 1.730920 0.000000 
#    z -0.014990 0.000000 1.728400 
# 
# From -- ./inp_files/27316.got.cif
#   From: 2010.06.25/outbox.cif.g09.slc.cpg/sg10_14_cif.got.tgz:27316.got - 2010.06.27 22:07:45.
