data_PCOD8062434
_publ_section_title
;
Structure prediction by ZEFSAII (Michael W. Deem and Ramdas Pophale) SiO2 
 PCOD8062434
Probable space group: P 2/M
;
_chemical_formula_sum "Si O2"
_cell_formula_units_Z 28
_cell_length_a 18.424588
_cell_length_b 16.398044
_cell_length_c 5.065618
_cell_angle_alpha 90.000000
_cell_angle_beta 74.012291
_cell_angle_gamma 90.000000
_cell_volume 1471.264004
_symmetry_space_group_name_H-M "P 2/M"
_symmetry_group_IT_number 10
_symmetry_cell_setting 'monoclinic'
loop_
_space_group_symop_operation_xyz
x,y,z
-x,y,-z
-x,-y,-z
x,-y,z
loop_
_atom_site_type_symbol
_atom_site_label
_atom_site_fract_x
_atom_site_fract_y
_atom_site_fract_z
Si Si1 0.950051 0.829306 0.296730
Si Si2 0.713318 0.824234 0.992472
Si Si3 0.616722 0.408787 0.173226
Si Si4 0.770393 0.000000 0.996653
Si Si5 0.453436 0.756864 0.796483
Si Si6 0.283540 0.590956 0.426725
Si Si7 0.127375 0.000000 0.606334
Si Si8 0.791255 0.246948 0.414743
O O1 0.925239 0.922624 0.296905
O O2 0.877801 0.771346 0.386781
O O3 0.000000 0.813847 0.500000
O O4 0.000000 0.803424 0.000000
O O5 0.717730 0.921619 0.010913
O O6 0.628509 0.796853 0.132314
O O7 0.769786 0.782220 0.143358
O O8 0.737048 0.799260 0.674421
O O9 0.582406 0.500000 0.173662
O O10 0.552030 0.341878 0.193721
O O11 0.648679 0.396189 0.434650
O O12 0.684195 0.394374 0.897978
O O13 0.803922 0.000000 0.257088
O O14 0.839773 0.000000 0.722018
O O15 0.500000 0.787551 0.500000
O O16 0.500000 0.787726 0.000000
O O17 0.249241 0.500000 0.488773
O O18 0.217918 0.655708 0.549102
#
# Coordination Sequence:
#
# PCOD8062434 Si02
#       8
#     4   4   4   2   4   4   2   4
#     4  12  24  38  57  92 130 157 187 238 296 362
#     4  12  23  41  63  87 114 156 209 248 284 352
#     4  10  20  35  57  86 120 151 189 244 302 358
#     4  12  22  41  64  91 112 152 208 256 278 345
#     4  12  24  38  58  85 120 159 193 246 307 353
#     4  10  19  35  61  90 114 148 201 252 286 334
#     4  12  22  39  62  89 124 158 188 236 308 353
#     4  12  21  40  65  85 119 162 201 238 289 347
#
# _framework density 19.031255999999999
#
# number of rings (size 3 to 8) (size 9 to 14) (size 15 to 20)
#    0.000    0.571    5.714    3.857    0.000    0.571 
#    0.000    0.714    0.000    0.857    0.000    0.000 
#    0.000    0.000    0.000    0.000    0.000    0.000 
#
# Total GULP energy -347362.897401 kJ/mol
# GULP energy per Si atom -12405.817764 kJ/mol
# Density = 1.898794 g / cm^3
# Si number density = 19.031256 Si / 1000 Ang^3
#
#
#
# Elastic Constant Matrix: (Units=GPa)
#
#
# Indices 1 2 3 4 5 6 
#
# 1 90.4269 36.4577 24.8044 0.0000 -0.2209 0.0000
# 2 36.4577 94.4318 21.9635 0.0000 -4.8606 0.0000
# 3 24.8044 21.9635 97.6471 0.0000 -0.3197 0.0000
# 4 0.0000 0.0000 0.0000 25.6728 0.0000 14.4847
# 5 -0.2209 -4.8606 -0.3197 0.0000 36.2789 0.0000
# 6 0.0000 0.0000 0.0000 14.4847 0.0000 15.7764
#
#
#
# Elastic Compliance Matrix: (Units=1/GPa)
#
#
# Indices 1 2 3 4 5 6 
#
# 1 0.013622 -0.004731 -0.002398 0.000000 -0.000572 0.000000
# 2 -0.004731 0.012897 -0.001694 0.000000 0.001684 0.000000
# 3 -0.002398 -0.001694 0.011231 0.000000 -0.000143 0.000000
# 4 0.000000 0.000000 0.000000 0.080814 0.000000 -0.074198
# 5 -0.000572 0.001684 -0.000143 0.000000 0.027785 0.000000
# 6 0.000000 0.000000 0.000000 -0.074198 0.000000 0.131509
#
#
# Mechanical properties :
#
#
# Convention : Reuss Voigt Hill
#
# Bulk Modulus (GPa) = 49.74011 49.88412 49.81212
# Shear Modulus (GPa) = 16.54505 28.83096 22.68801
#
# Velocity S-wave (km/s) = 2.95169 3.89643 3.45649
# Velocity P-wave (km/s) = 6.14894 6.81993 6.49311
#
# Compressibility (1/GPa) = 0.02010450
#
# Stress axis : x y z
#
# Youngs Moduli (GPa) = 73.40812 77.53889 89.04250
#
# Poissons Ratio (x) = 0.36683 0.21354
# Poissons Ratio (y) = 0.34729 0.15080
# Poissons Ratio (z) = 0.17604 0.13132
#
# Static dielectric constant tensor:
#      x y z
#    x 3.315780 0.000000 0.153500 
#    y 0.000000 3.205460 0.000000 
#    z 0.153500 0.000000 3.661770 
# 
# 
# High freq. dielectric constant tensor:
#      x y z
#    x 1.723190 0.000000 0.016400 
#    y 0.000000 1.737200 0.000000 
#    z 0.016400 0.000000 1.760650 
# 
# From -- ./inp_files/9655.got.cif
#   From: 2010.06.25/outbox.cif.g09.slc.cpg/sg10_5_cif.got.tgz:9655.got - 2010.06.27 22:07:45.
