data_PCOD8062691
_publ_section_title
;
Structure prediction by ZEFSAII (Michael W. Deem and Ramdas Pophale) SiO2 
 PCOD8062691
Probable space group: P 2/M
;
_chemical_formula_sum "Si O2"
_cell_formula_units_Z 32
_cell_length_a 12.413682
_cell_length_b 9.042181
_cell_length_c 28.691345
_cell_angle_alpha 90.000000
_cell_angle_beta 149.121934
_cell_angle_gamma 90.000000
_cell_volume 1652.806986
_symmetry_space_group_name_H-M "P 2/M"
_symmetry_group_IT_number 10
_symmetry_cell_setting 'monoclinic'
loop_
_space_group_symop_operation_xyz
x,y,z
-x,y,-z
-x,-y,-z
x,-y,z
loop_
_atom_site_type_symbol
_atom_site_label
_atom_site_fract_x
_atom_site_fract_y
_atom_site_fract_z
Si Si1 0.102543 0.833063 0.159029
Si Si2 0.211095 0.823744 0.300722
Si Si3 0.538610 0.833763 0.280016
Si Si4 0.402175 0.325577 0.790178
Si Si5 0.980918 0.674314 0.687322
Si Si6 0.166357 0.823334 0.022813
Si Si7 0.363683 0.667746 0.514552
Si Si8 0.216123 0.666748 0.559075
O O1 0.156036 0.755969 0.228641
O O2 0.288080 0.827531 0.189629
O O3 0.050822 0.000000 0.153687
O O4 0.908153 0.768806 0.056738
O O5 0.032614 0.762319 0.269128
O O6 0.436499 0.769867 0.402712
O O7 0.214184 0.000000 0.301847
O O8 0.632254 0.726890 0.275556
O O9 0.609118 0.778032 0.356978
O O10 0.617243 0.000000 0.299682
O O11 0.435396 0.500000 0.803287
O O12 0.606258 0.246781 0.886360
O O13 0.197052 0.277722 0.742960
O O14 0.980242 0.500000 0.696320
O O15 0.775858 0.720239 0.580896
O O16 0.187467 0.000000 0.033147
O O17 0.000000 0.767977 0.000000
O O18 0.444756 0.500000 0.537228
O O19 0.206775 0.676443 0.500071
O O20 0.266211 0.500000 0.594327
O O21 0.000000 0.723524 0.500000
#
# Coordination Sequence:
#
# PCOD8062691 Si02
#       8
#     4   4   4   4   4   4   4   4
#     4   9  19  36  57  84 117 147 180 231 290 341
#     4  11  22  38  60  86 116 149 195 247 286 332
#     4  11  20  35  57  82 116 154 190 231 285 348
#     4  11  23  39  59  87 120 151 191 244 292 343
#     4  10  23  42  59  79 115 158 196 237 289 344
#     4  10  19  37  63  87 115 153 190 229 288 356
#     4  10  20  36  58  81 111 155 198 235 285 344
#     4  10  20  34  52  79 116 156 195 236 287 344
#
# _framework density 19.361003
#
# number of rings (size 3 to 8) (size 9 to 14) (size 15 to 20)
#    0.000    1.750    2.500    2.250    0.000    5.500 
#    0.000    3.125    0.000    3.750    0.000    0.000 
#    0.000    0.000    0.000    0.000    0.000    0.000 
#
# Total GULP energy -396689.083877 kJ/mol
# GULP energy per Si atom -12396.533871 kJ/mol
# Density = 1.931694 g / cm^3
# Si number density = 19.361003 Si / 1000 Ang^3
#
#
#
# Elastic Constant Matrix: (Units=GPa)
#
#
# Indices 1 2 3 4 5 6 
#
# 1 122.3141 34.6042 42.4125 0.0000 -9.5627 0.0000
# 2 34.6042 54.4423 34.7137 0.0000 -3.4997 0.0000
# 3 42.4125 34.7137 92.5091 0.0000 -13.0788 0.0000
# 4 0.0000 0.0000 0.0000 23.9577 0.0000 -0.4450
# 5 -9.5627 -3.4997 -13.0788 0.0000 23.2395 0.0000
# 6 0.0000 0.0000 0.0000 -0.4450 0.0000 28.0798
#
#
#
# Elastic Compliance Matrix: (Units=1/GPa)
#
#
# Indices 1 2 3 4 5 6 
#
# 1 0.010683 -0.004892 -0.002765 0.000000 0.002103 0.000000
# 2 -0.004892 0.026440 -0.008040 0.000000 -0.002556 0.000000
# 3 -0.002765 -0.008040 0.016038 0.000000 0.006678 0.000000
# 4 0.000000 0.000000 0.000000 0.041753 0.000000 0.000662
# 5 0.002103 -0.002556 0.006678 0.000000 0.047269 0.000000
# 6 0.000000 0.000000 0.000000 0.000662 0.000000 0.035623
#
#
# Mechanical properties :
#
#
# Convention : Reuss Voigt Hill
#
# Bulk Modulus (GPa) = 45.94014 54.74736 50.34375
# Shear Modulus (GPa) = 23.09954 25.55774 24.32864
#
# Velocity S-wave (km/s) = 3.45787 3.63721 3.54867
# Velocity P-wave (km/s) = 6.30255 6.78068 6.54598
#
# Compressibility (1/GPa) = 0.02176745
#
# Stress axis : x y z
#
# Youngs Moduli (GPa) = 93.60859 37.82188 62.35090
#
# Poissons Ratio (x) = 0.18503 0.17238
# Poissons Ratio (y) = 0.45795 0.50130
# Poissons Ratio (z) = 0.25879 0.30409
#
# Static dielectric constant tensor:
#      x y z
#    x 3.727130 0.000000 -0.153590 
#    y 0.000000 3.334820 0.000000 
#    z -0.153590 0.000000 3.602950 
# 
# 
# High freq. dielectric constant tensor:
#      x y z
#    x 1.759500 0.000000 -0.009060 
#    y 0.000000 1.735240 0.000000 
#    z -0.009060 0.000000 1.751980 
# 
# From -- ./inp_files/95070.got.cif
#   From: 2010.06.25/outbox.cif.g09.slc.cpg/sg10_48_cif.got.tgz:95070.got - 2010.06.27 22:07:45.
