data_PCOD8062392
_publ_section_title
;
Structure prediction by ZEFSAII (Michael W. Deem and Ramdas Pophale) SiO2 
 PCOD8062392
Probable space group: P 2/M
;
_chemical_formula_sum "Si O2"
_cell_formula_units_Z 28
_cell_length_a 9.566493
_cell_length_b 8.284210
_cell_length_c 26.988644
_cell_angle_alpha 90.000000
_cell_angle_beta 138.395445
_cell_angle_gamma 90.000000
_cell_volume 1420.180753
_symmetry_space_group_name_H-M "P 2/M"
_symmetry_group_IT_number 10
_symmetry_cell_setting 'monoclinic'
loop_
_space_group_symop_operation_xyz
x,y,z
-x,y,-z
-x,-y,-z
x,-y,z
loop_
_atom_site_type_symbol
_atom_site_label
_atom_site_fract_x
_atom_site_fract_y
_atom_site_fract_z
Si Si1 0.640508 0.191409 0.707318
Si Si2 0.774206 0.816210 0.943212
Si Si3 0.837942 0.813358 0.418414
Si Si4 0.038788 0.311932 0.760221
Si Si5 0.570119 0.807793 0.073494
Si Si6 0.188828 0.814860 0.697593
Si Si7 0.624944 0.317649 0.806859
O O1 0.400167 0.255839 0.637147
O O2 0.798499 0.273890 0.710690
O O3 0.723647 0.249438 0.782748
O O4 0.656897 0.000000 0.707219
O O5 0.611052 0.735718 0.938448
O O6 0.686453 0.807662 0.865235
O O7 0.806106 0.000000 0.968830
O O8 0.000000 0.726167 0.000000
O O9 0.931692 0.792136 0.387223
O O10 0.000000 0.728877 0.500000
O O11 0.818926 0.000000 0.427058
O O12 0.071443 0.500000 0.760596
O O13 0.204305 0.255370 0.846692
O O14 0.060376 0.222486 0.713112
O O15 0.582730 0.000000 0.078922
O O16 0.500000 0.748641 0.000000
O O17 0.373975 0.686209 0.740851
O O18 0.271422 0.000000 0.722384
O O19 0.703478 0.500000 0.837437
#
# Coordination Sequence:
#
# PCOD8062392 Si02
#       7
#     4   4   4   4   4   4   4
#     4  10  21  37  60  85 114 152 192 232 282 344
#     4  10  21  36  55  79 108 144 190 237 286 342
#     4   8  16  34  62  93 117 141 186 242 284 327
#     4  12  24  38  57  84 119 154 193 243 288 337
#     4  10  22  39  58  81 111 150 194 240 293 348
#     4  10  19  35  60  85 112 152 192 228 279 342
#     4  11  21  35  55  82 113 145 186 237 285 332
#
# _framework density 19.715800999999999
#
# number of rings (size 3 to 8) (size 9 to 14) (size 15 to 20)
#    0.000    1.857    1.429    4.286    2.000    0.571 
#    0.000    0.714    0.000   19.714    0.000    0.000 
#    0.000    0.000    0.000    0.000    0.000    0.000 
#
# Total GULP energy -346902.640748 kJ/mol
# GULP energy per Si atom -12389.380027 kJ/mol
# Density = 1.967093 g / cm^3
# Si number density = 19.715801 Si / 1000 Ang^3
#
#
#
# Elastic Constant Matrix: (Units=GPa)
#
#
# Indices 1 2 3 4 5 6 
#
# 1 131.4409 10.4814 66.7089 0.0000 -5.3360 0.0000
# 2 10.4814 49.7074 20.5787 0.0000 -2.8628 0.0000
# 3 66.7089 20.5787 122.0304 0.0000 -13.8403 0.0000
# 4 0.0000 0.0000 0.0000 4.6638 0.0000 13.3438
# 5 -5.3360 -2.8628 -13.8403 0.0000 29.9542 0.0000
# 6 0.0000 0.0000 0.0000 13.3438 0.0000 -13.9279
#
#
#
# Elastic Compliance Matrix: (Units=1/GPa)
#
#
# Indices 1 2 3 4 5 6 
#
# 1 0.010550 0.000166 -0.005889 0.000000 -0.000826 0.000000
# 2 0.000166 0.021635 -0.003695 0.000000 0.000390 0.000000
# 3 -0.005889 -0.003695 0.012535 0.000000 0.004390 0.000000
# 4 0.000000 0.000000 0.000000 0.057313 0.000000 0.054909
# 5 -0.000826 0.000390 0.004390 0.000000 0.035303 0.000000
# 6 0.000000 0.000000 0.000000 0.054909 0.000000 -0.019191
#
#
# Mechanical properties :
#
#
# Convention : Reuss Voigt Hill
#
# Bulk Modulus (GPa) = 38.63402 55.41295 47.02348
# Shear Modulus (GPa) = 34.33892 17.83200 26.08546
#
# Velocity S-wave (km/s) = 4.17789 3.01067 3.64135
# Velocity P-wave (km/s) = 6.55065 6.34448 6.44839
#
# Compressibility (1/GPa) = 0.02588392
#
# Stress axis : x y z
#
# Youngs Moduli (GPa) = 94.78737 46.22171 79.77807
#
# Poissons Ratio (x) = -0.00766 0.46980
# Poissons Ratio (y) = -0.01572 0.29477
# Poissons Ratio (z) = 0.55819 0.17078
#
# Static dielectric constant tensor:
#      x y z
#    x 3.802940 0.000000 -0.106700 
#    y 0.000000 3.317610 0.000000 
#    z -0.106700 0.000000 4.057970 
# 
# 
# High freq. dielectric constant tensor:
#      x y z
#    x 1.775040 0.000000 -0.009240 
#    y 0.000000 1.750200 0.000000 
#    z -0.009240 0.000000 1.755050 
# 
# From -- ./inp_files/92090.got.cif
#   From: 2010.06.25/outbox.cif.g09.slc.cpg/sg10_47_cif.got.tgz:92090.got - 2010.06.27 22:07:45.
