data_PCOD8062307
_publ_section_title
;
Structure prediction by ZEFSAII (Michael W. Deem and Ramdas Pophale) SiO2 
 PCOD8062307
Probable space group: P 2/M
;
_chemical_formula_sum "Si O2"
_cell_formula_units_Z 32
_cell_length_a 24.959815
_cell_length_b 8.957920
_cell_length_c 20.023175
_cell_angle_alpha 90.000000
_cell_angle_beta 22.872508
_cell_angle_gamma 90.000000
_cell_volume 1740.106375
_symmetry_space_group_name_H-M "P 2/M"
_symmetry_group_IT_number 10
_symmetry_cell_setting 'monoclinic'
loop_
_space_group_symop_operation_xyz
x,y,z
-x,y,-z
-x,-y,-z
x,-y,z
loop_
_atom_site_type_symbol
_atom_site_label
_atom_site_fract_x
_atom_site_fract_y
_atom_site_fract_z
Si Si1 0.662441 0.664741 0.324597
Si Si2 0.132383 0.676719 0.153883
Si Si3 0.424150 0.326113 0.437141
Si Si4 0.845133 0.175583 0.500657
Si Si5 0.291116 0.824301 0.858201
Si Si6 0.351833 0.326137 0.372682
Si Si7 0.349478 0.824683 0.153710
Si Si8 0.653407 0.675198 0.979323
O O1 0.500000 0.660135 0.500000
O O2 0.725905 0.500000 0.239533
O O3 0.680748 0.713650 0.381340
O O4 0.731729 0.779227 0.193307
O O5 0.125905 0.500000 0.152884
O O6 0.987114 0.737744 0.345612
O O7 0.169478 0.749335 0.040290
O O8 0.246022 0.727051 0.077186
O O9 0.469738 0.500000 0.388491
O O10 0.562299 0.229518 0.282313
O O11 0.345352 0.292658 0.459073
O O12 0.766850 0.227803 0.524031
O O13 0.755518 0.220388 0.667753
O O14 0.872136 0.000000 0.465283
O O15 0.280497 0.000000 0.877010
O O16 0.325561 0.500000 0.387726
O O17 0.499207 0.274087 0.174927
O O18 0.356585 0.000000 0.134336
O O19 0.500000 0.761158 0.000000
O O20 0.297221 0.752012 0.145356
O O21 0.662181 0.500000 0.958987
#
# Coordination Sequence:
#
# PCOD8062307 Si02
#       8
#     4   4   4   4   4   4   4   4
#     4   8  15  28  48  74 108 149 185 225 273 325
#     4  11  23  41  59  80 112 149 189 232 278 332
#     4   9  17  32  53  79 112 147 189 231 273 326
#     4  11  24  40  57  83 114 147 186 226 278 341
#     4  11  20  30  50  80 114 148 183 228 280 331
#     4  10  19  35  58  84 111 144 187 234 276 321
#     4  10  21  38  58  81 114 149 180 221 278 337
#     4  10  21  36  60  86 108 140 189 236 272 321
#
# _framework density 18.389679999999998
#
# number of rings (size 3 to 8) (size 9 to 14) (size 15 to 20)
#    0.000    2.000    2.500    2.625    0.000    5.500 
#    0.000    2.500    0.000    0.750    0.000    5.250 
#    0.000    0.000    0.000    0.000    0.000    0.000 
#
# Total GULP energy -396843.302445 kJ/mol
# GULP energy per Si atom -12401.353201 kJ/mol
# Density = 1.834782 g / cm^3
# Si number density = 18.389680 Si / 1000 Ang^3
#
#
#
# Elastic Constant Matrix: (Units=GPa)
#
#
# Indices 1 2 3 4 5 6 
#
# 1 96.9460 38.0116 38.0654 0.0000 25.6934 0.0000
# 2 38.0116 76.5890 41.3222 0.0000 8.5771 0.0000
# 3 38.0654 41.3222 83.1213 0.0000 10.6429 0.0000
# 4 0.0000 0.0000 0.0000 29.4471 0.0000 0.7065
# 5 25.6934 8.5771 10.6429 0.0000 31.7298 0.0000
# 6 0.0000 0.0000 0.0000 0.7065 0.0000 18.3751
#
#
#
# Elastic Compliance Matrix: (Units=1/GPa)
#
#
# Indices 1 2 3 4 5 6 
#
# 1 0.016625 -0.005026 -0.003725 0.000000 -0.010854 0.000000
# 2 -0.005026 0.019476 -0.007552 0.000000 0.001338 0.000000
# 3 -0.003725 -0.007552 0.017599 0.000000 -0.000845 0.000000
# 4 0.000000 0.000000 0.000000 0.033991 0.000000 -0.001307
# 5 -0.010854 0.001338 -0.000845 0.000000 0.040227 0.000000
# 6 0.000000 0.000000 0.000000 -0.001307 0.000000 0.054472
#
#
# Mechanical properties :
#
#
# Convention : Reuss Voigt Hill
#
# Bulk Modulus (GPa) = 47.40627 54.60610 51.00618
# Shear Modulus (GPa) = 22.51997 25.19420 23.85709
#
# Velocity S-wave (km/s) = 3.50322 3.70539 3.60572
# Velocity P-wave (km/s) = 6.49601 6.93289 6.71800
#
# Compressibility (1/GPa) = 0.02109426
#
# Stress axis : x y z
#
# Youngs Moduli (GPa) = 60.15114 51.34655 56.82139
#
# Poissons Ratio (x) = 0.25805 0.21167
# Poissons Ratio (y) = 0.30230 0.42910
# Poissons Ratio (z) = 0.22407 0.38776
#
# Static dielectric constant tensor:
#      x y z
#    x 3.593440 0.000000 0.313910 
#    y 0.000000 3.280640 0.000000 
#    z 0.313910 0.000000 3.315250 
# 
# 
# High freq. dielectric constant tensor:
#      x y z
#    x 1.716130 0.000000 0.025370 
#    y 0.000000 1.708760 0.000000 
#    z 0.025370 0.000000 1.694440 
# 
# From -- ./inp_files/86911.got.cif
#   From: 2010.06.25/outbox.cif.g09.slc.cpg/sg10_44_cif.got.tgz:86911.got - 2010.06.27 22:07:45.
