data_PCOD8062093
_publ_section_title
;
Structure prediction by ZEFSAII (Michael W. Deem and Ramdas Pophale) SiO2 
 PCOD8062093
Probable space group: P 2/M
;
_chemical_formula_sum "Si O2"
_cell_formula_units_Z 32
_cell_length_a 9.080797
_cell_length_b 14.201596
_cell_length_c 24.845764
_cell_angle_alpha 90.000000
_cell_angle_beta 149.481917
_cell_angle_gamma 90.000000
_cell_volume 1627.102681
_symmetry_space_group_name_H-M "P 2/M"
_symmetry_group_IT_number 10
_symmetry_cell_setting 'monoclinic'
loop_
_space_group_symop_operation_xyz
x,y,z
-x,y,-z
-x,-y,-z
x,-y,z
loop_
_atom_site_type_symbol
_atom_site_label
_atom_site_fract_x
_atom_site_fract_y
_atom_site_fract_z
Si Si1 0.327324 0.608032 0.498416
Si Si2 0.821245 0.226496 0.199551
Si Si3 0.119895 0.393923 0.093863
Si Si4 0.100081 0.756077 0.174079
Si Si5 0.668005 0.104703 0.997176
Si Si6 0.243304 0.604817 0.739930
Si Si7 0.631519 0.107739 0.599905
Si Si8 0.667368 0.236709 0.413943
O O1 0.500000 0.642997 0.500000
O O2 0.406137 0.500000 0.536713
O O3 0.408024 0.669376 0.575725
O O4 0.991399 0.623944 0.380164
O O5 0.522231 0.167541 0.103778
O O6 0.768896 0.321140 0.216060
O O7 0.923847 0.258774 0.173290
O O8 0.066096 0.162777 0.304099
O O9 0.002049 0.500000 0.065010
O O10 0.013803 0.332492 0.110329
O O11 0.464126 0.389511 0.201176
O O12 0.000000 0.352648 0.000000
O O13 0.446149 0.765032 0.293559
O O14 0.984568 0.849431 0.107059
O O15 0.714441 0.000000 0.987603
O O16 0.500000 0.097346 0.000000
O O17 0.197657 0.500000 0.750627
O O18 0.500000 0.118839 0.500000
O O19 0.399159 0.146796 0.569684
O O20 0.694431 0.000000 0.634921
O O21 0.000000 0.233295 0.500000
#
# Coordination Sequence:
#
# PCOD8062093 Si02
#       8
#     4   4   4   4   4   4   4   4
#     4  10  20  35  55  80 113 151 186 223 272 329
#     4  10  19  34  59  85 110 138 179 230 275 318
#     4  10  21  37  54  74 107 148 182 216 267 330
#     4  10  21  34  54  81 105 139 182 228 275 320
#     4   9  18  34  55  78 103 133 174 224 276 323
#     4  10  20  34  55  81 110 146 180 213 263 325
#     4  10  21  37  57  82 112 147 186 227 275 332
#     4  11  22  35  54  81 113 147 185 230 279 327
#
# _framework density 19.66686
#
# number of rings (size 3 to 8) (size 9 to 14) (size 15 to 20)
#    0.000    2.000    0.000    4.500    0.000    4.500 
#    0.000    0.000    0.000    8.625    0.000    0.000 
#    0.000    0.000    0.000    0.000    0.000    0.000 
#
# Total GULP energy -396806.064117 kJ/mol
# GULP energy per Si atom -12400.189504 kJ/mol
# Density = 1.962210 g / cm^3
# Si number density = 19.666860 Si / 1000 Ang^3
#
#
#
# Elastic Constant Matrix: (Units=GPa)
#
#
# Indices 1 2 3 4 5 6 
#
# 1 43.6914 41.5756 30.1465 0.0000 -6.0519 0.0000
# 2 41.5756 145.1017 57.7988 0.0000 -15.0684 0.0000
# 3 30.1465 57.7988 125.6525 0.0000 3.8870 0.0000
# 4 0.0000 0.0000 0.0000 17.4684 0.0000 0.8591
# 5 -6.0519 -15.0684 3.8870 0.0000 27.0517 0.0000
# 6 0.0000 0.0000 0.0000 0.8591 0.0000 16.2516
#
#
#
# Elastic Compliance Matrix: (Units=1/GPa)
#
#
# Indices 1 2 3 4 5 6 
#
# 1 0.033780 -0.007302 -0.004875 0.000000 0.004191 0.000000
# 2 -0.007302 0.010841 -0.003386 0.000000 0.004891 0.000000
# 3 -0.004875 -0.003386 0.010826 0.000000 -0.004532 0.000000
# 4 0.000000 0.000000 0.000000 0.057396 0.000000 -0.003034
# 5 0.004191 0.004891 -0.004532 0.000000 0.041280 0.000000
# 6 0.000000 0.000000 0.000000 -0.003034 0.000000 0.061693
#
#
# Mechanical properties :
#
#
# Convention : Reuss Voigt Hill
#
# Bulk Modulus (GPa) = 41.11774 63.72082 52.41928
# Shear Modulus (GPa) = 19.60411 24.48264 22.04337
#
# Velocity S-wave (km/s) = 3.16065 3.53210 3.35152
# Velocity P-wave (km/s) = 5.85424 7.00747 6.45666
#
# Compressibility (1/GPa) = 0.02432041
#
# Stress axis : x y z
#
# Youngs Moduli (GPa) = 29.60289 92.24559 92.37087
#
# Poissons Ratio (x) = 0.67356 0.45035
# Poissons Ratio (y) = 0.21615 0.31277
# Poissons Ratio (z) = 0.14433 0.31235
#
# Static dielectric constant tensor:
#      x y z
#    x 3.251520 0.000000 0.046590 
#    y 0.000000 3.786360 0.000000 
#    z 0.046590 0.000000 3.834710 
# 
# 
# High freq. dielectric constant tensor:
#      x y z
#    x 1.736710 0.000000 0.001420 
#    y 0.000000 1.772200 0.000000 
#    z 0.001420 0.000000 1.784290 
# 
# From -- ./inp_files/88287.got.cif
#   From: 2010.06.25/outbox.cif.g09.slc.cpg/sg10_45_cif.got.tgz:88287.got - 2010.06.27 22:07:45.
