data_PCOD8062916
_publ_section_title
;
Structure prediction by ZEFSAII (Michael W. Deem and Ramdas Pophale) SiO2 
 PCOD8062916
Probable space group: P 2/M
;
_chemical_formula_sum "Si O2"
_cell_formula_units_Z 32
_cell_length_a 22.587053
_cell_length_b 9.219634
_cell_length_c 31.242506
_cell_angle_alpha 90.000000
_cell_angle_beta 163.736918
_cell_angle_gamma 90.000000
_cell_volume 1822.014855
_symmetry_space_group_name_H-M "P 2/M"
_symmetry_group_IT_number 10
_symmetry_cell_setting 'monoclinic'
loop_
_space_group_symop_operation_xyz
x,y,z
-x,y,-z
-x,-y,-z
x,-y,z
loop_
_atom_site_type_symbol
_atom_site_label
_atom_site_fract_x
_atom_site_fract_y
_atom_site_fract_z
Si Si1 0.899674 0.669238 0.474512
Si Si2 0.365244 0.167271 0.448976
Si Si3 0.030565 0.837660 0.394991
Si Si4 0.527848 0.163936 0.723725
Si Si5 0.063235 0.329758 0.842619
Si Si6 0.031556 0.660185 0.726656
Si Si7 0.581207 0.331779 0.843256
Si Si8 0.462935 0.336722 0.598388
O O1 0.941528 0.500000 0.510369
O O2 0.017152 0.750213 0.594827
O O3 0.651696 0.706160 0.301305
O O4 0.000000 0.725232 0.500000
O O5 0.500000 0.182406 0.500000
O O6 0.492071 0.249919 0.574431
O O7 0.138158 0.238093 0.282383
O O8 0.333949 0.000000 0.440804
O O9 0.277832 0.834387 0.556862
O O10 0.904836 0.767137 0.267732
O O11 0.945790 0.000000 0.341917
O O12 0.639359 0.239635 0.841612
O O13 0.588748 0.252753 0.723239
O O14 0.612737 0.000000 0.778366
O O15 0.004250 0.500000 0.803941
O O16 0.131450 0.288806 0.841256
O O17 0.257490 0.288239 0.007615
O O18 0.113435 0.500000 0.771130
O O19 0.781179 0.656913 0.558965
O O20 0.598102 0.500000 0.842441
O O21 0.554079 0.500000 0.656883
#
# Coordination Sequence:
#
# PCOD8062916 Si02
#       8
#     4   4   4   4   4   4   4   4
#     4   9  17  29  46  67  91 120 151 185 227 271
#     4  10  20  32  47  69  96 123 150 184 227 273
#     4   9  16  25  40  63  88 114 146 185 225 264
#     4   9  16  26  42  66  93 119 150 188 230 272
#     4   9  18  31  48  69  92 121 154 189 228 269
#     4   8  14  25  41  62  86 111 144 185 225 263
#     4   9  17  30  47  68  94 121 153 191 228 270
#     4   9  16  27  45  67  90 118 152 190 228 264
#
# _framework density 17.562975999999999
#
# number of rings (size 3 to 8) (size 9 to 14) (size 15 to 20)
#    0.000    3.000    0.000    2.250    0.000    7.750 
#    0.000    0.000    0.000    1.500    0.000   10.500 
#    0.000    0.000    0.000    0.000    0.000    0.000 
#
# Total GULP energy -396733.666733 kJ/mol
# GULP energy per Si atom -12397.927085 kJ/mol
# Density = 1.752300 g / cm^3
# Si number density = 17.562976 Si / 1000 Ang^3
#
#
#
# Elastic Constant Matrix: (Units=GPa)
#
#
# Indices 1 2 3 4 5 6 
#
# 1 110.9821 71.0713 50.0880 0.0000 -35.4650 0.0000
# 2 71.0713 121.2335 47.6964 0.0000 -26.9855 0.0000
# 3 50.0880 47.6964 74.2768 0.0000 -35.1487 0.0000
# 4 0.0000 0.0000 0.0000 13.9310 0.0000 -6.0027
# 5 -35.4650 -26.9855 -35.1487 0.0000 31.9893 0.0000
# 6 0.0000 0.0000 0.0000 -6.0027 0.0000 27.0946
#
#
#
# Elastic Compliance Matrix: (Units=1/GPa)
#
#
# Indices 1 2 3 4 5 6 
#
# 1 0.018495 -0.007355 -0.002046 0.000000 0.012052 0.000000
# 2 -0.007355 0.014118 -0.004852 0.000000 -0.001575 0.000000
# 3 -0.002046 -0.004852 0.031139 0.000000 0.027853 0.000000
# 4 0.000000 0.000000 0.000000 0.079358 0.000000 0.017581
# 5 0.012052 -0.001575 0.027853 0.000000 0.073898 0.000000
# 6 0.000000 0.000000 0.000000 0.017581 0.000000 0.040803
#
#
# Mechanical properties :
#
#
# Convention : Reuss Voigt Hill
#
# Bulk Modulus (GPa) = 28.37064 71.57820 49.97442
# Shear Modulus (GPa) = 16.77491 23.77877 20.27684
#
# Velocity S-wave (km/s) = 3.09387 3.68355 3.40151
# Velocity P-wave (km/s) = 5.38065 7.67692 6.62897
#
# Compressibility (1/GPa) = 0.03524771
#
# Stress axis : x y z
#
# Youngs Moduli (GPa) = 54.06821 70.82943 32.11453
#
# Poissons Ratio (x) = 0.52094 0.06570
# Poissons Ratio (y) = 0.39766 0.15580
# Poissons Ratio (z) = 0.11061 0.34363
#
# Static dielectric constant tensor:
#      x y z
#    x 3.248140 0.000000 -0.422620 
#    y 0.000000 3.444830 0.000000 
#    z -0.422620 0.000000 3.008540 
# 
# 
# High freq. dielectric constant tensor:
#      x y z
#    x 1.669440 0.000000 -0.040390 
#    y 0.000000 1.686660 0.000000 
#    z -0.040390 0.000000 1.637930 
# 
# From -- ./inp_files/52722.got.cif
#   From: 2010.06.25/outbox.cif.g09.slc.cpg/sg10_27_cif.got.tgz:52722.got - 2010.06.27 22:07:45.
