data_PCOD8062592
_publ_section_title
;
Structure prediction by ZEFSAII (Michael W. Deem and Ramdas Pophale) SiO2 
 PCOD8062592
Probable space group: P 2/M
;
_chemical_formula_sum "Si O2"
_cell_formula_units_Z 24
_cell_length_a 15.101564
_cell_length_b 8.786199
_cell_length_c 14.805628
_cell_angle_alpha 90.000000
_cell_angle_beta 140.382064
_cell_angle_gamma 90.000000
_cell_volume 1252.686758
_symmetry_space_group_name_H-M "P 2/M"
_symmetry_group_IT_number 10
_symmetry_cell_setting 'monoclinic'
loop_
_space_group_symop_operation_xyz
x,y,z
-x,y,-z
-x,-y,-z
x,-y,z
loop_
_atom_site_type_symbol
_atom_site_label
_atom_site_fract_x
_atom_site_fract_y
_atom_site_fract_z
Si Si1 0.629058 0.822629 0.164592
Si Si2 0.099749 0.180110 0.342601
Si Si3 0.116459 0.676940 0.164207
Si Si4 0.599777 0.176204 0.663187
Si Si5 0.389521 0.179594 0.645738
Si Si6 0.915926 0.320858 0.346757
O O1 0.588440 0.770910 0.233697
O O2 0.756185 0.723810 0.229535
O O3 0.670233 0.000000 0.194463
O O4 0.500000 0.785594 0.000000
O O5 0.080052 0.227859 0.224211
O O6 0.244818 0.247801 0.494728
O O7 0.973874 0.245066 0.302043
O O8 0.096525 0.000000 0.346923
O O9 0.117424 0.500000 0.189855
O O10 0.264543 0.722411 0.240030
O O11 0.000000 0.717298 0.000000
O O12 0.500000 0.198837 0.500000
O O13 0.518902 0.238456 0.688093
O O14 0.643828 0.000000 0.707198
O O15 0.382302 0.000000 0.628478
O O16 0.930992 0.500000 0.349549
O O17 0.000000 0.259578 0.500000
#
# Coordination Sequence:
#
# PCOD8062592 Si02
#       6
#     4   4   4   4   4   4
#     4  10  21  38  60  88 121 157 200 249 298 349
#     4  11  21  38  65  89 114 156 205 254 297 343
#     4  11  25  42  58  86 128 162 192 241 303 364
#     4  10  19  36  61  88 115 150 200 249 292 347
#     4   9  18  34  58  87 116 147 193 250 295 339
#     4  11  23  38  59  90 125 161 199 243 299 361
#
# _framework density 19.158821
#
# number of rings (size 3 to 8) (size 9 to 14) (size 15 to 20)
#    0.000    1.667    3.333    1.500    0.000    4.000 
#    0.000    2.500    0.000    0.000    0.000    0.000 
#    0.000    0.000    0.000    0.000    0.000    0.000 
#
# Total GULP energy -297703.992187 kJ/mol
# GULP energy per Si atom -12404.333008 kJ/mol
# Density = 1.911522 g / cm^3
# Si number density = 19.158821 Si / 1000 Ang^3
#
#
#
# Elastic Constant Matrix: (Units=GPa)
#
#
# Indices 1 2 3 4 5 6 
#
# 1 172.3812 35.0188 57.5613 0.0000 -7.5853 0.0000
# 2 35.0188 51.9205 36.0185 0.0000 0.6069 0.0000
# 3 57.5613 36.0185 111.8199 0.0000 -6.7974 0.0000
# 4 0.0000 0.0000 0.0000 25.1874 0.0000 4.4739
# 5 -7.5853 0.6069 -6.7974 0.0000 28.6658 0.0000
# 6 0.0000 0.0000 0.0000 4.4739 0.0000 69.7572
#
#
#
# Elastic Compliance Matrix: (Units=1/GPa)
#
#
# Indices 1 2 3 4 5 6 
#
# 1 0.007405 -0.003122 -0.002722 0.000000 0.001380 0.000000
# 2 -0.003122 0.026290 -0.007047 0.000000 -0.003054 0.000000
# 3 -0.002722 -0.007047 0.012763 0.000000 0.002455 0.000000
# 4 0.000000 0.000000 0.000000 0.040160 0.000000 -0.002576
# 5 0.001380 -0.003054 0.002455 0.000000 0.035897 0.000000
# 6 0.000000 0.000000 0.000000 -0.002576 0.000000 0.014501
#
#
# Mechanical properties :
#
#
# Convention : Reuss Voigt Hill
#
# Bulk Modulus (GPa) = 48.36482 65.92431 57.14456
# Shear Modulus (GPa) = 29.46533 38.55694 34.01113
#
# Velocity S-wave (km/s) = 3.92593 4.49095 4.21791
# Velocity P-wave (km/s) = 6.77122 7.83425 7.32206
#
# Compressibility (1/GPa) = 0.02067619
#
# Stress axis : x y z
#
# Youngs Moduli (GPa) = 135.04181 38.03690 78.34855
#
# Poissons Ratio (x) = 0.11875 0.21329
# Poissons Ratio (y) = 0.42161 0.55211
# Poissons Ratio (z) = 0.36763 0.26804
#
# Static dielectric constant tensor:
#      x y z
#    x 4.411170 0.000000 -0.443780 
#    y 0.000000 3.305470 0.000000 
#    z -0.443780 0.000000 3.471960 
# 
# 
# High freq. dielectric constant tensor:
#      x y z
#    x 1.763930 0.000000 -0.002200 
#    y 0.000000 1.728530 0.000000 
#    z -0.002200 0.000000 1.743190 
# 
# From -- ./inp_files/66331.got.cif
#   From: 2010.06.25/outbox.cif.g09.slc.cpg/sg10_34_cif.got.tgz:66331.got - 2010.06.27 22:07:45.
