data_PCOD8062037
_publ_section_title
;
Structure prediction by ZEFSAII (Michael W. Deem and Ramdas Pophale) SiO2 
 PCOD8062037
Probable space group: P 2/M
;
_chemical_formula_sum "Si O2"
_cell_formula_units_Z 32
_cell_length_a 22.602962
_cell_length_b 9.124407
_cell_length_c 27.521850
_cell_angle_alpha 90.000000
_cell_angle_beta 162.513877
_cell_angle_gamma 90.000000
_cell_volume 1705.515551
_symmetry_space_group_name_H-M "P 2/M"
_symmetry_group_IT_number 10
_symmetry_cell_setting 'monoclinic'
loop_
_space_group_symop_operation_xyz
x,y,z
-x,y,-z
-x,-y,-z
x,-y,z
loop_
_atom_site_type_symbol
_atom_site_label
_atom_site_fract_x
_atom_site_fract_y
_atom_site_fract_z
Si Si1 0.453882 0.335483 0.264366
Si Si2 0.460277 0.671154 0.024903
Si Si3 0.794050 0.168940 0.858410
Si Si4 0.062593 0.173059 0.742962
Si Si5 0.225794 0.169201 0.665738
Si Si6 0.190858 0.334156 0.381995
Si Si7 0.554664 0.830792 0.489561
Si Si8 0.286462 0.169899 0.601733
O O1 0.392593 0.500000 0.203128
O O2 0.264480 0.254970 0.138561
O O3 0.628786 0.329713 0.439827
O O4 0.525290 0.256610 0.271254
O O5 0.424164 0.500000 0.006222
O O6 0.648457 0.724715 0.202111
O O7 0.500000 0.704531 0.000000
O O8 0.272743 0.761594 0.895075
O O9 0.635207 0.193040 0.692201
O O10 0.814822 0.000000 0.889451
O O11 0.000000 0.231781 0.000000
O O12 0.988865 0.242776 0.735862
O O13 0.914105 0.214519 0.583033
O O14 0.081512 0.000000 0.764979
O O15 0.265024 0.211056 0.640872
O O16 0.000000 0.200369 0.500000
O O17 0.279963 0.000000 0.718813
O O18 0.121625 0.500000 0.317581
O O19 0.259821 0.260248 0.385628
O O20 0.500000 0.771672 0.500000
O O21 0.619051 0.000000 0.541763
O O22 0.329415 0.000000 0.626880
#
# Coordination Sequence:
#
# PCOD8062037 Si02
#       8
#     4   4   4   4   4   4   4   4
#     4   9  17  29  48  73 100 132 168 206 249 303
#     4  11  24  39  55  79 111 143 174 211 258 310
#     4   9  17  30  48  69  94 126 164 207 253 299
#     4  10  19  34  58  82 104 135 175 217 260 307
#     4  10  21  38  59  82 107 137 176 218 258 304
#     4   9  17  30  49  74 103 133 168 210 256 308
#     4   9  17  30  48  70  96 128 169 212 253 302
#     4   9  18  33  55  81 105 132 170 216 261 306
#
# _framework density 18.762654999999999
#
# number of rings (size 3 to 8) (size 9 to 14) (size 15 to 20)
#    0.000    2.500    0.000    2.250    0.000    6.750 
#    0.000    1.250    0.000    6.000    0.000    0.000 
#    0.000    0.000    0.000    0.000    0.000    0.000 
#
# Total GULP energy -396862.519921 kJ/mol
# GULP energy per Si atom -12401.953748 kJ/mol
# Density = 1.871995 g / cm^3
# Si number density = 18.762655 Si / 1000 Ang^3
#
#
#
# Elastic Constant Matrix: (Units=GPa)
#
#
# Indices 1 2 3 4 5 6 
#
# 1 153.3401 74.9646 51.6825 0.0000 26.7387 0.0000
# 2 74.9646 103.9181 46.7077 0.0000 19.2084 0.0000
# 3 51.6825 46.7077 71.3918 0.0000 23.4806 0.0000
# 4 0.0000 0.0000 0.0000 22.1319 0.0000 1.5075
# 5 26.7387 19.2084 23.4806 0.0000 34.3113 0.0000
# 6 0.0000 0.0000 0.0000 1.5075 0.0000 20.3159
#
#
#
# Elastic Compliance Matrix: (Units=1/GPa)
#
#
# Indices 1 2 3 4 5 6 
#
# 1 0.011030 -0.006021 -0.003003 0.000000 -0.003170 0.000000
# 2 -0.006021 0.017022 -0.006694 0.000000 -0.000257 0.000000
# 3 -0.003003 -0.006694 0.023949 0.000000 -0.010301 0.000000
# 4 0.000000 0.000000 0.000000 0.045413 0.000000 -0.003370
# 5 -0.003170 -0.000257 -0.010301 0.000000 0.038808 0.000000
# 6 0.000000 0.000000 0.000000 -0.003370 0.000000 0.049473
#
#
# Mechanical properties :
#
#
# Convention : Reuss Voigt Hill
#
# Bulk Modulus (GPa) = 48.62530 75.03995 61.83263
# Shear Modulus (GPa) = 22.32284 25.70484 24.01384
#
# Velocity S-wave (km/s) = 3.45302 3.70537 3.58141
# Velocity P-wave (km/s) = 6.47070 7.64117 7.08017
#
# Compressibility (1/GPa) = 0.02056542
#
# Stress axis : x y z
#
# Youngs Moduli (GPa) = 90.66248 58.74595 41.75610
#
# Poissons Ratio (x) = 0.35371 0.12540
# Poissons Ratio (y) = 0.54589 0.27950
# Poissons Ratio (z) = 0.27227 0.39322
#
# Static dielectric constant tensor:
#      x y z
#    x 3.611280 0.000000 0.212220 
#    y 0.000000 3.510730 0.000000 
#    z 0.212220 0.000000 3.222970 
# 
# 
# High freq. dielectric constant tensor:
#      x y z
#    x 1.736640 0.000000 0.021120 
#    y 0.000000 1.730530 0.000000 
#    z 0.021120 0.000000 1.706410 
# 
# From -- ./inp_files/93816.got.cif
#   From: 2010.06.25/outbox.cif.g09.slc.cpg/sg10_47_cif.got.tgz:93816.got - 2010.06.27 22:07:45.
