data_PCOD8062567
_publ_section_title
;
Structure prediction by ZEFSAII (Michael W. Deem and Ramdas Pophale) SiO2 
 PCOD8062567
Probable space group: P 2/M
;
_chemical_formula_sum "Si O2"
_cell_formula_units_Z 32
_cell_length_a 12.081923
_cell_length_b 17.507691
_cell_length_c 19.932514
_cell_angle_alpha 90.000000
_cell_angle_beta 23.238682
_cell_angle_gamma 90.000000
_cell_volume 1663.576054
_symmetry_space_group_name_H-M "P 2/M"
_symmetry_group_IT_number 10
_symmetry_cell_setting 'monoclinic'
loop_
_space_group_symop_operation_xyz
x,y,z
-x,y,-z
-x,-y,-z
x,-y,z
loop_
_atom_site_type_symbol
_atom_site_label
_atom_site_fract_x
_atom_site_fract_y
_atom_site_fract_z
Si Si1 0.272648 0.587053 0.575012
Si Si2 0.790837 0.177681 0.026289
Si Si3 0.209138 0.312466 0.478722
Si Si4 0.408674 0.165039 0.725222
Si Si5 0.283185 0.357019 0.064511
Si Si6 0.599809 0.322010 0.767759
Si Si7 0.293629 0.086835 0.554599
Si Si8 0.772473 0.823225 0.889551
O O1 0.500000 0.620900 0.500000
O O2 0.342102 0.500000 0.516900
O O3 0.266242 0.635378 0.510731
O O4 0.984366 0.590378 0.776432
O O5 0.662215 0.130097 0.161081
O O6 0.609888 0.253571 0.128915
O O7 0.755915 0.137468 0.972997
O O8 0.119120 0.196408 0.854500
O O9 0.366260 0.232818 0.399207
O O10 0.317867 0.356761 0.350694
O O11 0.877509 0.295059 0.654303
O O12 0.538612 0.097561 0.608338
O O13 0.197508 0.267745 0.118196
O O14 0.500000 0.380671 0.000000
O O15 0.426125 0.378594 0.913200
O O16 0.500000 0.106938 0.500000
O O17 0.034703 0.144845 0.702271
O O18 0.185370 0.000000 0.619034
O O19 0.500000 0.846494 0.000000
#
# Coordination Sequence:
#
# PCOD8062567 Si02
#       8
#     4   4   4   4   4   4   4   4
#     4  11  25  40  54  79 116 154 188 227 274 328
#     4   9  19  35  54  90 114 137 184 230 282 328
#     4  10  20  37  60  84 114 145 182 232 279 330
#     4  10  20  35  60  84 111 147 184 231 281 327
#     4  10  19  36  60  87 109 139 188 230 278 328
#     4   9  19  35  57  91 113 137 181 233 285 324
#     4  11  23  38  54  80 115 151 192 230 273 329
#     4  10  21  36  60  85 111 142 184 233 281 333
#
# _framework density 19.235669999999999
#
# number of rings (size 3 to 8) (size 9 to 14) (size 15 to 20)
#    0.000    2.000    2.500    0.750    7.000    1.500 
#    0.000    3.750    0.000    2.250    0.000    0.000 
#    0.000    0.000    0.000    0.000    0.000    0.000 
#
# Total GULP energy -396552.707545 kJ/mol
# GULP energy per Si atom -12392.272111 kJ/mol
# Density = 1.919189 g / cm^3
# Si number density = 19.235670 Si / 1000 Ang^3
#
#
#
# Elastic Constant Matrix: (Units=GPa)
#
#
# Indices 1 2 3 4 5 6 
#
# 1 131.9064 13.8920 53.8830 0.0000 6.2979 0.0000
# 2 13.8920 24.8504 16.7708 0.0000 -5.9615 0.0000
# 3 53.8830 16.7708 109.7462 0.0000 1.5498 0.0000
# 4 0.0000 0.0000 0.0000 17.8540 0.0000 -6.6941
# 5 6.2979 -5.9615 1.5498 0.0000 41.7818 0.0000
# 6 0.0000 0.0000 0.0000 -6.6941 0.0000 7.1697
#
#
#
# Elastic Compliance Matrix: (Units=1/GPa)
#
#
# Indices 1 2 3 4 5 6 
#
# 1 0.009732 -0.002951 -0.004303 0.000000 -0.001728 0.000000
# 2 -0.002951 0.047695 -0.005945 0.000000 0.007471 0.000000
# 3 -0.004303 -0.005945 0.012142 0.000000 -0.000650 0.000000
# 4 0.000000 0.000000 0.000000 0.086178 0.000000 0.080462
# 5 -0.001728 0.007471 -0.000650 0.000000 0.025284 0.000000
# 6 0.000000 0.000000 0.000000 0.080462 0.000000 0.214600
#
#
# Mechanical properties :
#
#
# Convention : Reuss Voigt Hill
#
# Bulk Modulus (GPa) = 23.16371 48.39940 35.78155
# Shear Modulus (GPa) = 11.45685 25.49160 18.47422
#
# Velocity S-wave (km/s) = 2.44315 3.64431 3.10242
# Velocity P-wave (km/s) = 4.47513 6.55164 5.61029
#
# Compressibility (1/GPa) = 0.04317098
#
# Stress axis : x y z
#
# Youngs Moduli (GPa) = 102.75192 20.96665 82.35747
#
# Poissons Ratio (x) = 0.06188 0.35437
# Poissons Ratio (y) = 0.30325 0.48961
# Poissons Ratio (z) = 0.44213 0.12464
#
# Static dielectric constant tensor:
#      x y z
#    x 4.151070 0.000000 0.312140 
#    y 0.000000 2.935750 0.000000 
#    z 0.312140 0.000000 3.981110 
# 
# 
# High freq. dielectric constant tensor:
#      x y z
#    x 1.772010 0.000000 0.007360 
#    y 0.000000 1.687570 0.000000 
#    z 0.007360 0.000000 1.771740 
# 
# From -- ./inp_files/84249.got.cif
#   From: 2010.06.25/outbox.cif.g09.slc.cpg/sg10_43_cif.got.tgz:84249.got - 2010.06.27 22:07:45.
