data_PCOD8062196
_publ_section_title
;
Structure prediction by ZEFSAII (Michael W. Deem and Ramdas Pophale) SiO2 
 PCOD8062196
Probable space group: P 2/M
;
_chemical_formula_sum "Si O2"
_cell_formula_units_Z 32
_cell_length_a 11.732846
_cell_length_b 9.021169
_cell_length_c 33.206437
_cell_angle_alpha 90.000000
_cell_angle_beta 150.233192
_cell_angle_gamma 90.000000
_cell_volume 1744.948062
_symmetry_space_group_name_H-M "P 2/M"
_symmetry_group_IT_number 10
_symmetry_cell_setting 'monoclinic'
loop_
_space_group_symop_operation_xyz
x,y,z
-x,y,-z
-x,-y,-z
x,-y,z
loop_
_atom_site_type_symbol
_atom_site_label
_atom_site_fract_x
_atom_site_fract_y
_atom_site_fract_z
Si Si1 0.880750 0.171329 0.922239
Si Si2 0.787533 0.674893 0.033038
Si Si3 0.953291 0.828599 0.158975
Si Si4 0.167187 0.163001 0.513678
Si Si5 0.476207 0.824410 0.315013
Si Si6 0.347848 0.829034 0.769009
Si Si7 0.357043 0.170575 0.862652
Si Si8 0.812230 0.325462 0.356028
O O1 0.613904 0.204139 0.843491
O O2 0.979311 0.269516 0.916388
O O3 0.933007 0.000000 0.928829
O O4 0.000000 0.221213 0.000000
O O5 0.782400 0.500000 0.032996
O O6 0.788073 0.737065 0.078629
O O7 0.568386 0.730519 0.941471
O O8 0.862733 0.803810 0.176441
O O9 0.213980 0.770466 0.236274
O O10 0.938759 0.000000 0.142037
O O11 0.409856 0.218350 0.606769
O O12 0.000000 0.150080 0.500000
O O13 0.062715 0.277011 0.449419
O O14 0.193253 0.000000 0.501509
O O15 0.603936 0.746301 0.317157
O O16 0.496388 0.000000 0.313930
O O17 0.282771 0.785178 0.794739
O O18 0.200656 0.726780 0.694107
O O19 0.289561 0.000000 0.742280
O O20 0.441220 0.000000 0.889116
O O21 0.791107 0.500000 0.352602
#
# Coordination Sequence:
#
# PCOD8062196 Si02
#       8
#     4   4   4   4   4   4   4   4
#     4  10  19  35  56  75  98 132 174 214 256 305
#     4  12  24  35  51  77 109 138 170 213 263 314
#     4  10  21  37  58  78  99 131 177 223 258 302
#     4   8  15  30  52  76 105 136 166 203 253 306
#     4   9  18  34  55  80 106 134 167 209 260 305
#     4  10  20  35  55  75 100 134 173 215 260 305
#     4  10  21  39  58  74  95 134 183 223 258 300
#     4  11  21  31  49  80 112 138 168 203 248 309
#
# _framework density 18.338654999999999
#
# number of rings (size 3 to 8) (size 9 to 14) (size 15 to 20)
#    0.000    2.000    1.250    4.125    0.000    9.000 
#    0.000    0.000    0.000    0.750    0.000    5.250 
#    0.000    0.000    0.000    0.000    0.000    0.000 
#
# Total GULP energy -396838.807827 kJ/mol
# GULP energy per Si atom -12401.212745 kJ/mol
# Density = 1.829692 g / cm^3
# Si number density = 18.338655 Si / 1000 Ang^3
#
#
#
# Elastic Constant Matrix: (Units=GPa)
#
#
# Indices 1 2 3 4 5 6 
#
# 1 86.5907 40.4990 37.8569 0.0000 -19.6136 0.0000
# 2 40.4990 88.3636 46.2393 0.0000 -14.4013 0.0000
# 3 37.8569 46.2393 100.7771 0.0000 -25.2446 0.0000
# 4 0.0000 0.0000 0.0000 10.9162 0.0000 1.5879
# 5 -19.6136 -14.4013 -25.2446 0.0000 23.2849 0.0000
# 6 0.0000 0.0000 0.0000 1.5879 0.0000 2.7675
#
#
#
# Elastic Compliance Matrix: (Units=1/GPa)
#
#
# Indices 1 2 3 4 5 6 
#
# 1 0.016829 -0.005413 -0.001546 0.000000 0.009152 0.000000
# 2 -0.005413 0.016738 -0.005760 0.000000 -0.000452 0.000000
# 3 -0.001546 -0.005760 0.016375 0.000000 0.012889 0.000000
# 4 0.000000 0.000000 0.000000 0.099949 0.000000 -0.057347
# 5 0.009152 -0.000452 0.012889 0.000000 0.064350 0.000000
# 6 0.000000 0.000000 0.000000 -0.057347 0.000000 0.394236
#
#
# Mechanical properties :
#
#
# Convention : Reuss Voigt Hill
#
# Bulk Modulus (GPa) = 40.80688 58.32463 49.56576
# Shear Modulus (GPa) = 7.78718 17.46947 12.62833
#
# Velocity S-wave (km/s) = 2.06290 3.08978 2.62700
# Velocity P-wave (km/s) = 5.28906 6.67849 6.02397
#
# Compressibility (1/GPa) = 0.02450567
#
# Stress axis : x y z
#
# Youngs Moduli (GPa) = 59.42148 59.74432 61.06913
#
# Poissons Ratio (x) = 0.32337 0.09439
# Poissons Ratio (y) = 0.32163 0.35174
# Poissons Ratio (z) = 0.09185 0.34411
#
# Static dielectric constant tensor:
#      x y z
#    x 3.307260 0.000000 -0.079450 
#    y 0.000000 3.210730 0.000000 
#    z -0.079450 0.000000 3.734360 
# 
# 
# High freq. dielectric constant tensor:
#      x y z
#    x 1.689870 0.000000 -0.011490 
#    y 0.000000 1.695100 0.000000 
#    z -0.011490 0.000000 1.715500 
# 
# From -- ./inp_files/95067.got.cif
#   From: 2010.06.25/outbox.cif.g09.slc.cpg/sg10_48_cif.got.tgz:95067.got - 2010.06.27 22:07:45.
