data_PCOD8062480
_publ_section_title
;
Structure prediction by ZEFSAII (Michael W. Deem and Ramdas Pophale) SiO2 
 PCOD8062480
Probable space group: P 2/M
;
_chemical_formula_sum "Si O2"
_cell_formula_units_Z 32
_cell_length_a 24.815712
_cell_length_b 8.973011
_cell_length_c 15.251901
_cell_angle_alpha 90.000000
_cell_angle_beta 28.054460
_cell_angle_gamma 90.000000
_cell_volume 1597.252892
_symmetry_space_group_name_H-M "P 2/M"
_symmetry_group_IT_number 10
_symmetry_cell_setting 'monoclinic'
loop_
_space_group_symop_operation_xyz
x,y,z
-x,y,-z
-x,-y,-z
x,-y,z
loop_
_atom_site_type_symbol
_atom_site_label
_atom_site_fract_x
_atom_site_fract_y
_atom_site_fract_z
Si Si1 0.362451 0.327332 0.455613
Si Si2 0.516239 0.176949 0.377608
Si Si3 0.930899 0.176609 0.881467
Si Si4 0.762981 0.823642 0.972764
Si Si5 0.848462 0.324673 0.498000
Si Si6 0.876100 0.167402 0.636194
Si Si7 0.601299 0.677153 0.792055
Si Si8 0.117441 0.327934 0.876374
O O1 0.392452 0.500000 0.424648
O O2 0.418918 0.238642 0.453859
O O3 0.410392 0.269804 0.292560
O O4 0.224935 0.302302 0.656972
O O5 0.500000 0.233114 0.500000
O O6 0.510942 0.000000 0.379857
O O7 0.638704 0.242113 0.172555
O O8 0.858874 0.238344 0.901836
O O9 0.057660 0.246454 0.698158
O O10 0.942096 0.000000 0.863641
O O11 0.863968 0.228312 0.064123
O O12 0.788901 0.776913 0.836014
O O13 0.762914 0.000000 0.983326
O O14 0.858579 0.500000 0.468698
O O15 0.870455 0.285337 0.567086
O O16 0.722847 0.264535 0.653185
O O17 0.000000 0.165046 0.500000
O O18 0.846156 0.000000 0.645545
O O19 0.598383 0.500000 0.799783
O O20 0.500000 0.742512 0.000000
O O21 0.108287 0.500000 0.917793
O O22 0.000000 0.274551 0.000000
#
# Coordination Sequence:
#
# PCOD8062480 Si02
#       8
#     4   4   4   4   4   4   4   4
#     4  10  21  38  61  86 116 152 193 242 292 341
#     4  10  21  38  59  83 115 154 194 237 287 345
#     4  11  21  37  60  85 113 150 190 232 286 349
#     4   9  19  35  55  78 109 151 190 229 287 347
#     4  11  22  36  58  87 117 149 193 244 293 343
#     4  10  19  36  57  79 114 156 192 233 290 347
#     4   9  20  39  60  82 114 157 198 236 286 346
#     4  10  21  38  59  84 115 150 187 233 292 344
#
# _framework density 20.034397999999999
#
# number of rings (size 3 to 8) (size 9 to 14) (size 15 to 20)
#    0.000    2.000    1.250    2.250    1.750    4.250 
#    0.000    3.750    0.000    1.875    0.000    0.000 
#    0.000    0.000    0.000    0.000    0.000    0.000 
#
# Total GULP energy -396817.226217 kJ/mol
# GULP energy per Si atom -12400.538319 kJ/mol
# Density = 1.998880 g / cm^3
# Si number density = 20.034398 Si / 1000 Ang^3
#
#
#
# Elastic Constant Matrix: (Units=GPa)
#
#
# Indices 1 2 3 4 5 6 
#
# 1 99.5442 22.3638 40.3605 0.0000 6.7427 0.0000
# 2 22.3638 39.4454 22.1592 0.0000 2.2210 0.0000
# 3 40.3605 22.1592 141.3334 0.0000 8.7843 0.0000
# 4 0.0000 0.0000 0.0000 20.1403 0.0000 4.6299
# 5 6.7427 2.2210 8.7843 0.0000 38.5408 0.0000
# 6 0.0000 0.0000 0.0000 4.6299 0.0000 3.5390
#
#
#
# Elastic Compliance Matrix: (Units=1/GPa)
#
#
# Indices 1 2 3 4 5 6 
#
# 1 0.012426 -0.005510 -0.002606 0.000000 -0.001262 0.000000
# 2 -0.005510 0.030258 -0.003167 0.000000 -0.000058 0.000000
# 3 -0.002606 -0.003167 0.008395 0.000000 -0.001275 0.000000
# 4 0.000000 0.000000 0.000000 0.071007 0.000000 -0.092897
# 5 -0.001262 -0.000058 -0.001275 0.000000 0.026461 0.000000
# 6 0.000000 0.000000 0.000000 -0.092897 0.000000 0.404102
#
#
# Mechanical properties :
#
#
# Convention : Reuss Voigt Hill
#
# Bulk Modulus (GPa) = 35.07141 50.00998 42.54070
# Shear Modulus (GPa) = 8.55111 25.47332 17.01221
#
# Velocity S-wave (km/s) = 2.06821 3.56965 2.91718
# Velocity P-wave (km/s) = 4.82150 6.48121 5.71196
#
# Compressibility (1/GPa) = 0.02851325
#
# Stress axis : x y z
#
# Youngs Moduli (GPa) = 80.47786 33.04949 119.11163
#
# Poissons Ratio (x) = 0.18209 0.31042
# Poissons Ratio (y) = 0.44341 0.37722
# Poissons Ratio (z) = 0.20973 0.10467
#
# Static dielectric constant tensor:
#      x y z
#    x 3.762220 0.000000 0.219810 
#    y 0.000000 3.298900 0.000000 
#    z 0.219810 0.000000 4.254930 
# 
# 
# High freq. dielectric constant tensor:
#      x y z
#    x 1.785660 0.000000 0.005470 
#    y 0.000000 1.746390 0.000000 
#    z 0.005470 0.000000 1.800560 
# 
# From -- ./inp_files/71513.got.cif
#   From: 2010.06.25/outbox.cif.g09.slc.cpg/sg10_36_cif.got.tgz:71513.got - 2010.06.27 22:07:45.
