data_PCOD8062673
_publ_section_title
;
Structure prediction by ZEFSAII (Michael W. Deem and Ramdas Pophale) SiO2 
 PCOD8062673
Probable space group: P 2/M
;
_chemical_formula_sum "Si O2"
_cell_formula_units_Z 32
_cell_length_a 12.120195
_cell_length_b 8.808938
_cell_length_c 16.298956
_cell_angle_alpha 90.000000
_cell_angle_beta 87.940533
_cell_angle_gamma 90.000000
_cell_volume 1739.051054
_symmetry_space_group_name_H-M "P 2/M"
_symmetry_group_IT_number 10
_symmetry_cell_setting 'monoclinic'
loop_
_space_group_symop_operation_xyz
x,y,z
-x,y,-z
-x,-y,-z
x,-y,z
loop_
_atom_site_type_symbol
_atom_site_label
_atom_site_fract_x
_atom_site_fract_y
_atom_site_fract_z
Si Si1 0.384774 0.675775 0.963451
Si Si2 0.113753 0.321554 0.532541
Si Si3 0.742477 0.326281 0.873082
Si Si4 0.083030 0.177853 0.237229
Si Si5 0.140373 0.320027 0.714376
Si Si6 0.650048 0.177087 0.207846
Si Si7 0.432021 0.325301 0.259613
Si Si8 0.770173 0.323630 0.630321
O O1 0.391255 0.500000 0.935715
O O2 0.360163 0.779955 0.886869
O O3 0.500000 0.726446 0.000000
O O4 0.286841 0.702589 0.031455
O O5 0.098565 0.500000 0.543145
O O6 0.141002 0.253490 0.621149
O O7 0.212549 0.283173 0.465948
O O8 0.000000 0.251552 0.500000
O O9 0.776393 0.500000 0.855992
O O10 0.845551 0.222599 0.844705
O O11 0.635440 0.287581 0.821142
O O12 0.144287 0.228322 0.318311
O O13 0.964455 0.256782 0.233706
O O14 0.065090 0.000000 0.238821
O O15 0.135515 0.500000 0.715364
O O16 0.250040 0.267920 0.755965
O O17 0.539047 0.219808 0.260091
O O18 0.672391 0.000000 0.215905
O O19 0.470406 0.500000 0.259125
O O20 0.355759 0.287412 0.340773
O O21 0.797097 0.500000 0.647077
#
# Coordination Sequence:
#
# PCOD8062673 Si02
#       8
#     4   4   4   4   4   4   4   4
#     4  10  19  37  62  86 110 142 190 237 274 323
#     4   9  16  31  59  89 108 133 188 246 280 314
#     4   9  18  34  59  85 110 142 186 234 273 321
#     4  11  21  33  52  83 120 149 180 223 279 337
#     4  11  22  39  61  80 109 151 192 232 278 333
#     4  12  25  38  54  81 119 152 184 227 282 341
#     4   9  17  33  56  81 110 147 188 227 272 329
#     4   9  17  33  57  84 111 142 186 236 278 323
#
# _framework density 18.400839000000001
#
# number of rings (size 3 to 8) (size 9 to 14) (size 15 to 20)
#    0.000    2.000    2.500    3.375    0.000    2.750 
#    0.000    3.125    0.000    7.500    0.000    0.000 
#    0.000    0.000    0.000    0.000    0.000    0.000 
#
# Total GULP energy -396818.353275 kJ/mol
# GULP energy per Si atom -12400.573540 kJ/mol
# Density = 1.835896 g / cm^3
# Si number density = 18.400839 Si / 1000 Ang^3
#
#
#
# Elastic Constant Matrix: (Units=GPa)
#
#
# Indices 1 2 3 4 5 6 
#
# 1 119.3775 43.8291 53.6402 0.0000 -10.4348 0.0000
# 2 43.8291 78.9339 26.9924 0.0000 -5.8937 0.0000
# 3 53.6402 26.9924 86.9037 0.0000 -11.9135 0.0000
# 4 0.0000 0.0000 0.0000 8.4230 0.0000 5.5765
# 5 -10.4348 -5.8937 -11.9135 0.0000 25.9886 0.0000
# 6 0.0000 0.0000 0.0000 5.5765 0.0000 8.0476
#
#
#
# Elastic Compliance Matrix: (Units=1/GPa)
#
#
# Indices 1 2 3 4 5 6 
#
# 1 0.013227 -0.005056 -0.006427 0.000000 0.001218 0.000000
# 2 -0.005056 0.016147 -0.001783 0.000000 0.000814 0.000000
# 3 -0.006427 -0.001783 0.016666 0.000000 0.004655 0.000000
# 4 0.000000 0.000000 0.000000 0.219359 0.000000 -0.152003
# 5 0.001218 0.000814 0.004655 0.000000 0.041286 0.000000
# 6 0.000000 0.000000 0.000000 -0.152003 0.000000 0.229591
#
#
# Mechanical properties :
#
#
# Convention : Reuss Voigt Hill
#
# Bulk Modulus (GPa) = 51.26012 59.34871 55.30442
# Shear Modulus (GPa) = 8.78256 19.20874 13.99565
#
# Velocity S-wave (km/s) = 2.18707 3.23446 2.76089
# Velocity P-wave (km/s) = 5.85625 6.80237 6.34696
#
# Compressibility (1/GPa) = 0.01950834
#
# Stress axis : x y z
#
# Youngs Moduli (GPa) = 75.60054 61.93229 60.00276
#
# Poissons Ratio (x) = 0.31312 0.38564
# Poissons Ratio (y) = 0.38223 0.10697
# Poissons Ratio (z) = 0.48589 0.11041
#
# Static dielectric constant tensor:
#      x y z
#    x 3.370680 0.000000 -0.260190 
#    y 0.000000 3.162050 0.000000 
#    z -0.260190 0.000000 3.511220 
# 
# 
# High freq. dielectric constant tensor:
#      x y z
#    x 1.708430 0.000000 -0.025360 
#    y 0.000000 1.694100 0.000000 
#    z -0.025360 0.000000 1.708970 
# 
# From -- ./inp_files/63762.got.cif
#   From: 2010.06.25/outbox.cif.g09.slc.cpg/sg10_32_cif.got.tgz:63762.got - 2010.06.27 22:07:45.
