data_PCOD8062735
_publ_section_title
;
Structure prediction by ZEFSAII (Michael W. Deem and Ramdas Pophale) SiO2 
 PCOD8062735
Probable space group: P 2/M
;
_chemical_formula_sum "Si O2"
_cell_formula_units_Z 32
_cell_length_a 15.438464
_cell_length_b 20.383592
_cell_length_c 15.438462
_cell_angle_alpha 90.000000
_cell_angle_beta 161.107274
_cell_angle_gamma 90.000000
_cell_volume 1573.120789
_symmetry_space_group_name_H-M "P 2/M"
_symmetry_group_IT_number 10
_symmetry_cell_setting 'monoclinic'
loop_
_space_group_symop_operation_xyz
x,y,z
-x,y,-z
-x,-y,-z
x,-y,z
loop_
_atom_site_type_symbol
_atom_site_label
_atom_site_fract_x
_atom_site_fract_y
_atom_site_fract_z
Si Si1 0.925223 0.750000 0.574778
Si Si2 0.481338 0.426252 0.182735
Si Si3 0.962396 0.388843 0.367254
Si Si4 0.132743 0.888844 0.537601
Si Si5 0.532112 0.693489 0.336008
Si Si6 0.778675 0.750000 0.721326
Si Si7 0.836006 0.806511 0.032110
Si Si8 0.682733 0.073748 0.981335
O O1 0.847501 0.809609 0.437827
O O2 0.665495 0.720582 0.374892
O O3 0.062175 0.690392 0.652502
O O4 0.125107 0.779418 0.834505
O O5 0.437629 0.500000 0.175405
O O6 0.400120 0.376421 0.184498
O O7 0.793349 0.415132 0.458759
O O8 0.309399 0.415236 0.933013
O O9 0.000000 0.416068 0.500000
O O10 0.000000 0.916068 0.500000
O O11 0.958756 0.915132 0.293346
O O12 0.433011 0.915236 0.809396
O O13 0.728439 0.688908 0.605793
O O14 0.327273 0.750000 0.172729
O O15 0.500000 0.773408 0.500000
O O16 0.894209 0.811092 0.771564
O O17 0.000000 0.726591 0.000000
O O18 0.684496 0.876421 0.900117
O O19 0.675404 0.000000 0.937626
#
# Coordination Sequence:
#
# PCOD8062735 Si02
#       8
#     4   4   4   4   4   4   4   4
#     4   9  19  34  55  86 112 152 204 248 293 344
#     4  11  24  39  57  83 116 159 204 242 289 349
#     4  11  22  36  56  81 116 156 203 258 305 339
#     4  11  22  36  56  81 116 156 203 258 305 339
#     4  10  19  38  63  85 116 154 194 237 284 356
#     4  11  22  36  63 100 121 140 179 244 301 350
#     4  10  19  38  63  85 116 154 194 237 284 356
#     4  11  24  39  57  83 116 159 204 242 289 349
#
# _framework density 20.341730999999999
#
# number of rings (size 3 to 8) (size 9 to 14) (size 15 to 20)
#    0.000    1.500    3.750    1.875    0.000    3.000 
#    0.000    2.500    0.000    1.500    0.000    0.000 
#    0.000    0.000    0.000    0.000    0.000    0.000 
#
# Total GULP energy -396543.576641 kJ/mol
# GULP energy per Si atom -12391.986770 kJ/mol
# Density = 2.029543 g / cm^3
# Si number density = 20.341731 Si / 1000 Ang^3
#
#
#
# Elastic Constant Matrix: (Units=GPa)
#
#
# Indices 1 2 3 4 5 6 
#
# 1 92.1139 37.5216 25.4123 0.0000 1.0867 0.0000
# 2 37.5216 161.3187 33.5651 0.0000 -0.7201 0.0000
# 3 25.4123 33.5651 84.8985 0.0000 -2.4002 0.0000
# 4 0.0000 0.0000 0.0000 21.5657 0.0000 2.9330
# 5 1.0867 -0.7201 -2.4002 0.0000 35.7026 0.0000
# 6 0.0000 0.0000 0.0000 2.9330 0.0000 5.4496
#
#
#
# Elastic Compliance Matrix: (Units=1/GPa)
#
#
# Indices 1 2 3 4 5 6 
#
# 1 0.012607 -0.002339 -0.002867 0.000000 -0.000624 0.000000
# 2 -0.002339 0.007188 -0.002140 0.000000 0.000072 0.000000
# 3 -0.002867 -0.002140 0.013510 0.000000 0.000952 0.000000
# 4 0.000000 0.000000 0.000000 0.050032 0.000000 -0.026928
# 5 -0.000624 0.000072 0.000952 0.000000 0.028094 0.000000
# 6 0.000000 0.000000 0.000000 -0.026928 0.000000 0.197994
#
#
# Mechanical properties :
#
#
# Convention : Reuss Voigt Hill
#
# Bulk Modulus (GPa) = 53.72072 59.03658 56.37865
# Shear Modulus (GPa) = 15.13681 28.66572 21.90127
#
# Velocity S-wave (km/s) = 2.73083 3.75801 3.28482
# Velocity P-wave (km/s) = 6.03404 6.92211 6.49328
#
# Compressibility (1/GPa) = 0.01861479
#
# Stress axis : x y z
#
# Youngs Moduli (GPa) = 79.32144 139.11250 74.02046
#
# Poissons Ratio (x) = 0.32533 0.21219
# Poissons Ratio (y) = 0.18550 0.15840
# Poissons Ratio (z) = 0.22738 0.29769
#
# Static dielectric constant tensor:
#      x y z
#    x 3.604510 0.000000 0.031690 
#    y 0.000000 3.870110 0.000000 
#    z 0.031690 0.000000 3.778640 
# 
# 
# High freq. dielectric constant tensor:
#      x y z
#    x 1.772140 0.000000 0.005990 
#    y 0.000000 1.772670 0.000000 
#    z 0.005990 0.000000 1.805040 
# 
# From -- ./inp_files/67964.got.cif
#   From: 2010.06.25/outbox.cif.g09.slc.cpg/sg10_34_cif.got.tgz:67964.got - 2010.06.27 22:07:45.
