data_PCOD8062078
_publ_section_title
;
Structure prediction by ZEFSAII (Michael W. Deem and Ramdas Pophale) SiO2 
 PCOD8062078
Probable space group: P 2/M
;
_chemical_formula_sum "Si O2"
_cell_formula_units_Z 28
_cell_length_a 11.900144
_cell_length_b 14.396537
_cell_length_c 9.934189
_cell_angle_alpha 90.000000
_cell_angle_beta 126.423997
_cell_angle_gamma 90.000000
_cell_volume 1369.452870
_symmetry_space_group_name_H-M "P 2/M"
_symmetry_group_IT_number 10
_symmetry_cell_setting 'monoclinic'
loop_
_space_group_symop_operation_xyz
x,y,z
-x,y,-z
-x,-y,-z
x,-y,z
loop_
_atom_site_type_symbol
_atom_site_label
_atom_site_fract_x
_atom_site_fract_y
_atom_site_fract_z
Si Si1 0.883717 0.170060 0.245373
Si Si2 0.692446 0.398755 0.908292
Si Si3 0.987345 0.332693 0.141080
Si Si4 0.164935 0.104182 0.500408
Si Si5 0.403502 0.210594 0.055775
Si Si6 0.411711 0.790073 0.564514
Si Si7 0.293599 0.604802 0.388785
O O1 0.954560 0.263412 0.240140
O O2 0.838313 0.172046 0.370811
O O3 0.009437 0.095289 0.323221
O O4 0.742113 0.152193 0.058397
O O5 0.632428 0.500000 0.905762
O O6 0.629508 0.320633 0.961002
O O7 0.653866 0.374805 0.725897
O O8 0.860066 0.404933 0.040800
O O9 0.127129 0.386562 0.280541
O O10 0.000000 0.284699 0.000000
O O11 0.270364 0.149271 0.468011
O O12 0.212687 0.000000 0.573895
O O13 0.489637 0.178557 0.244554
O O14 0.500000 0.187985 0.000000
O O15 0.500000 0.820327 0.500000
O O16 0.370841 0.680444 0.537619
O O17 0.335633 0.500000 0.463207
#
# Coordination Sequence:
#
# PCOD8062078 Si02
#       7
#     4   4   4   4   4   4   4
#     4  10  20  39  67  91 125 160 208 258 318 377
#     4   9  18  32  54  87 126 169 219 263 307 365
#     4   9  17  31  58  92 124 166 213 265 314 365
#     4  11  24  44  71  96 122 161 213 264 325 392
#     4  11  22  38  60  91 129 172 204 255 322 382
#     4  12  24  42  65  96 132 170 211 263 321 378
#     4  10  19  34  58  90 128 172 219 259 305 369
#
# _framework density 20.446121999999999
#
# number of rings (size 3 to 8) (size 9 to 14) (size 15 to 20)
#    0.000    1.714    4.286    1.286    0.000    3.143 
#    0.000    2.143    0.000    6.857    0.000    0.000 
#    0.000    0.000    0.000    0.000    0.000    0.000 
#
# Total GULP energy -346918.700016 kJ/mol
# GULP energy per Si atom -12389.953572 kJ/mol
# Density = 2.039959 g / cm^3
# Si number density = 20.446122 Si / 1000 Ang^3
#
#
#
# Elastic Constant Matrix: (Units=GPa)
#
#
# Indices 1 2 3 4 5 6 
#
# 1 123.2944 33.9171 42.9209 0.0000 3.9448 0.0000
# 2 33.9171 80.9876 30.6652 0.0000 -9.8833 0.0000
# 3 42.9209 30.6652 101.1047 0.0000 9.9256 0.0000
# 4 0.0000 0.0000 0.0000 17.1398 0.0000 -1.1252
# 5 3.9448 -9.8833 9.9256 0.0000 37.4141 0.0000
# 6 0.0000 0.0000 0.0000 -1.1252 0.0000 14.8509
#
#
#
# Elastic Compliance Matrix: (Units=1/GPa)
#
#
# Indices 1 2 3 4 5 6 
#
# 1 0.010140 -0.003143 -0.003249 0.000000 -0.001037 0.000000
# 2 -0.003143 0.015872 -0.004029 0.000000 0.005593 0.000000
# 3 -0.003249 -0.004029 0.012899 0.000000 -0.004144 0.000000
# 4 0.000000 0.000000 0.000000 0.058635 0.000000 0.004443
# 5 -0.001037 0.005593 -0.004144 0.000000 0.029414 0.000000
# 6 0.000000 0.000000 0.000000 0.004443 0.000000 0.067672
#
#
# Mechanical properties :
#
#
# Convention : Reuss Voigt Hill
#
# Bulk Modulus (GPa) = 55.34543 57.82147 56.58345
# Shear Modulus (GPa) = 22.57373 27.07321 24.82347
#
# Velocity S-wave (km/s) = 3.32634 3.64280 3.48816
# Velocity P-wave (km/s) = 6.47151 6.78488 6.63005
#
# Compressibility (1/GPa) = 0.01806834
#
# Stress axis : x y z
#
# Youngs Moduli (GPa) = 98.62383 63.00538 77.52567
#
# Poissons Ratio (x) = 0.19800 0.25192
# Poissons Ratio (y) = 0.30993 0.31234
# Poissons Ratio (z) = 0.32048 0.25384
#
# Static dielectric constant tensor:
#      x y z
#    x 3.894190 0.000000 0.317750 
#    y 0.000000 3.340360 0.000000 
#    z 0.317750 0.000000 3.595210 
# 
# 
# High freq. dielectric constant tensor:
#      x y z
#    x 1.813770 0.000000 0.025190 
#    y 0.000000 1.765110 0.000000 
#    z 0.025190 0.000000 1.790280 
# 
# From -- ./inp_files/25427.got.cif
#   From: 2010.06.25/outbox.cif.g09.slc.cpg/sg10_13_cif.got.tgz:25427.got - 2010.06.27 22:07:45.
