data_PCOD8062712
_publ_section_title
;
Structure prediction by ZEFSAII (Michael W. Deem and Ramdas Pophale) SiO2 
 PCOD8062712
Probable space group: P 2/M
;
_chemical_formula_sum "Si O2"
_cell_formula_units_Z 32
_cell_length_a 21.358639
_cell_length_b 8.784129
_cell_length_c 27.474923
_cell_angle_alpha 90.000000
_cell_angle_beta 18.756291
_cell_angle_gamma 90.000000
_cell_volume 1657.480438
_symmetry_space_group_name_H-M "P 2/M"
_symmetry_group_IT_number 10
_symmetry_cell_setting 'monoclinic'
loop_
_space_group_symop_operation_xyz
x,y,z
-x,y,-z
-x,-y,-z
x,-y,z
loop_
_atom_site_type_symbol
_atom_site_label
_atom_site_fract_x
_atom_site_fract_y
_atom_site_fract_z
Si Si1 0.228680 0.320233 0.466152
Si Si2 0.917667 0.680301 0.918544
Si Si3 0.505699 0.175827 0.074542
Si Si4 0.567280 0.820977 0.593966
Si Si5 0.656640 0.679457 0.426519
Si Si6 0.478826 0.320041 0.833921
Si Si7 0.161638 0.681015 0.917114
Si Si8 0.182879 0.823035 0.232253
O O1 0.252655 0.500000 0.454863
O O2 0.279183 0.240115 0.479800
O O3 0.368004 0.260143 0.319680
O O4 0.005545 0.279414 0.619475
O O5 0.910157 0.500000 0.925897
O O6 0.128789 0.734131 0.746514
O O7 0.739970 0.741226 0.016014
O O8 0.885633 0.748198 0.995461
O O9 0.465420 0.266941 0.153417
O O10 0.322802 0.206558 0.174721
O O11 0.522078 0.000000 0.076159
O O12 0.703874 0.226447 0.900659
O O13 0.625158 0.778798 0.497061
O O14 0.366189 0.739719 0.750112
O O15 0.549141 0.000000 0.613030
O O16 0.500000 0.720626 0.500000
O O17 0.645985 0.500000 0.446251
O O18 0.484467 0.500000 0.828670
O O19 0.165424 0.500000 0.913990
O O20 0.000000 0.746013 0.000000
O O21 0.123742 0.000000 0.272574
#
# Coordination Sequence:
#
# PCOD8062712 Si02
#       8
#     4   4   4   4   4   4   4   4
#     4  11  23  40  61  85 117 156 200 246 287 339
#     4   9  18  35  57  84 115 147 190 245 293 336
#     4   9  20  39  62  87 120 156 189 231 286 355
#     4  12  25  39  57  86 124 159 193 240 295 353
#     4  10  21  39  63  88 114 151 200 247 295 351
#     4  10  21  37  57  84 118 152 195 246 288 339
#     4  10  19  37  65  88 111 150 199 245 289 342
#     4   9  20  40  62  88 120 153 192 236 287 347
#
# _framework density 19.306412000000002
#
# number of rings (size 3 to 8) (size 9 to 14) (size 15 to 20)
#    0.000    2.000    1.250    3.000    1.750    5.000 
#    0.000    4.375    0.000    0.000    0.000    0.000 
#    0.000    0.000    0.000    0.000    0.000    0.000 
#
# Total GULP energy -396753.370891 kJ/mol
# GULP energy per Si atom -12398.542840 kJ/mol
# Density = 1.926247 g / cm^3
# Si number density = 19.306412 Si / 1000 Ang^3
#
#
#
# Elastic Constant Matrix: (Units=GPa)
#
#
# Indices 1 2 3 4 5 6 
#
# 1 147.0419 76.6813 95.6094 0.0000 16.9237 0.0000
# 2 76.6813 137.4361 110.2858 0.0000 13.1880 0.0000
# 3 95.6094 110.2858 217.1202 0.0000 8.5524 0.0000
# 4 0.0000 0.0000 0.0000 63.0230 0.0000 -12.3036
# 5 16.9237 13.1880 8.5524 0.0000 34.6543 0.0000
# 6 0.0000 0.0000 0.0000 -12.3036 0.0000 25.3633
#
#
#
# Elastic Compliance Matrix: (Units=1/GPa)
#
#
# Indices 1 2 3 4 5 6 
#
# 1 0.010850 -0.003390 -0.002926 0.000000 -0.003286 0.000000
# 2 -0.003390 0.013695 -0.005376 0.000000 -0.002230 0.000000
# 3 -0.002926 -0.005376 0.008572 0.000000 0.001360 0.000000
# 4 0.000000 0.000000 0.000000 0.017527 0.000000 0.008502
# 5 -0.003286 -0.002230 0.001360 0.000000 0.030974 0.000000
# 6 0.000000 0.000000 0.000000 0.008502 0.000000 0.043552
#
#
# Mechanical properties :
#
#
# Convention : Reuss Voigt Hill
#
# Bulk Modulus (GPa) = 102.75233 118.52793 110.64013
# Shear Modulus (GPa) = 32.93859 39.20956 36.07408
#
# Velocity S-wave (km/s) = 4.13497 4.51145 4.32731
# Velocity P-wave (km/s) = 8.72552 9.41615 9.07741
#
# Compressibility (1/GPa) = 0.00973214
#
# Stress axis : x y z
#
# Youngs Moduli (GPa) = 92.16990 73.01739 116.66547
#
# Poissons Ratio (x) = 0.24752 0.34140
# Poissons Ratio (y) = 0.31244 0.62719
# Poissons Ratio (z) = 0.26972 0.39254
#
# Static dielectric constant tensor:
#      x y z
#    x 3.641580 0.000000 -0.023760 
#    y 0.000000 3.240710 0.000000 
#    z -0.023760 0.000000 3.525780 
# 
# 
# High freq. dielectric constant tensor:
#      x y z
#    x 1.763740 0.000000 -0.000550 
#    y 0.000000 1.726370 0.000000 
#    z -0.000550 0.000000 1.765820 
# 
# From -- ./inp_files/93653.got.cif
#   From: 2010.06.25/outbox.cif.g09.slc.cpg/sg10_47_cif.got.tgz:93653.got - 2010.06.27 22:07:45.
