data_PCOD8062819
_publ_section_title
;
Structure prediction by ZEFSAII (Michael W. Deem and Ramdas Pophale) SiO2 
 PCOD8062819
Probable space group: P 2/M
;
_chemical_formula_sum "Si O2"
_cell_formula_units_Z 32
_cell_length_a 20.195137
_cell_length_b 15.080131
_cell_length_c 9.106597
_cell_angle_alpha 90.000000
_cell_angle_beta 47.437391
_cell_angle_gamma 90.000000
_cell_volume 2042.695261
_symmetry_space_group_name_H-M "P 2/M"
_symmetry_group_IT_number 10
_symmetry_cell_setting 'monoclinic'
loop_
_space_group_symop_operation_xyz
x,y,z
-x,y,-z
-x,-y,-z
x,-y,z
loop_
_atom_site_type_symbol
_atom_site_label
_atom_site_fract_x
_atom_site_fract_y
_atom_site_fract_z
Si Si1 0.734389 0.396373 0.977357
Si Si2 0.393601 0.268382 0.991400
Si Si3 0.393223 0.902453 0.495232
Si Si4 0.393223 0.902453 0.825099
Si Si5 0.734389 0.603627 0.319475
Si Si6 0.606399 0.268382 0.672203
Si Si7 0.912885 0.394440 0.546614
Si Si8 0.912885 0.394440 0.214732
O O1 0.719721 0.500000 0.970375
O O2 0.743398 0.374982 0.134902
O O3 0.648618 0.347156 0.039582
O O4 0.824166 0.361089 0.763350
O O5 0.364101 0.278188 0.203849
O O6 0.356964 0.173487 0.988245
O O7 0.500000 0.275811 0.812410
O O8 0.358770 0.882444 0.711845
O O9 0.500000 0.902368 0.333422
O O10 0.356964 0.826513 0.440864
O O11 0.358647 0.000000 0.495867
O O12 0.358647 0.000000 0.928193
O O13 0.719720 0.500000 0.370463
O O14 0.648618 0.652844 0.514564
O O15 0.824166 0.638910 0.264151
O O16 0.916179 0.500000 0.541586
O O17 0.912138 0.357535 0.381793
O O18 0.000000 0.356274 0.500000
O O19 0.916179 0.500000 0.209876
O O20 0.000000 0.356275 0.000000
#
# Coordination Sequence:
#
# PCOD8062819 Si02
#       8
#     4   4   4   4   4   4   4   4
#     4  10  20  32  45  61  83 114 151 186 218 254
#     4  10  20  31  43  61  86 116 148 182 219 258
#     4   8  14  26  44  63  82 106 137 174 216 259
#     4   8  14  26  44  63  82 106 137 174 216 259
#     4  10  20  32  45  61  83 114 151 186 218 254
#     4  10  20  31  43  61  86 116 148 182 219 258
#     4   9  16  27  44  64  85 108 136 173 217 261
#     4   9  16  27  44  64  85 108 136 173 217 261
#
# _framework density 15.665577000000001
#
# number of rings (size 3 to 8) (size 9 to 14) (size 15 to 20)
#    0.000    2.750    0.000    3.000    0.000    7.000 
#    0.000    5.000    0.000    0.000    0.000    0.000 
#    0.000    1.000    0.000    3.750    0.000    5.750 
#
# Total GULP energy -396724.096177 kJ/mol
# GULP energy per Si atom -12397.628006 kJ/mol
# Density = 1.562992 g / cm^3
# Si number density = 15.665577 Si / 1000 Ang^3
#
#
#
# Elastic Constant Matrix: (Units=GPa)
#
#
# Indices 1 2 3 4 5 6 
#
# 1 94.5744 42.9114 38.1722 0.0000 19.6158 0.0000
# 2 42.9114 63.7407 43.0774 0.0000 9.8418 0.0000
# 3 38.1722 43.0774 95.2344 0.0000 19.5201 0.0000
# 4 0.0000 0.0000 0.0000 12.8855 0.0000 11.2402
# 5 19.6158 9.8418 19.5201 0.0000 22.6990 0.0000
# 6 0.0000 0.0000 0.0000 11.2402 0.0000 12.6960
#
#
#
# Elastic Compliance Matrix: (Units=1/GPa)
#
#
# Indices 1 2 3 4 5 6 
#
# 1 0.017334 -0.009807 -0.000380 0.000000 -0.010401 0.000000
# 2 -0.009807 0.028172 -0.009767 0.000000 0.004659 0.000000
# 3 -0.000380 -0.009767 0.017160 0.000000 -0.010194 0.000000
# 4 0.000000 0.000000 0.000000 0.340811 0.000000 -0.301732
# 5 -0.010401 0.004659 -0.010194 0.000000 0.059789 0.000000
# 6 0.000000 0.000000 0.000000 -0.301732 0.000000 0.345899
#
#
# Mechanical properties :
#
#
# Convention : Reuss Voigt Hill
#
# Bulk Modulus (GPa) = 43.94091 55.76347 49.85219
# Shear Modulus (GPa) = 5.83663 18.28201 12.05932
#
# Velocity S-wave (km/s) = 1.93232 3.41987 2.77753
# Velocity P-wave (km/s) = 5.75228 7.16013 6.49447
#
# Compressibility (1/GPa) = 0.02275784
#
# Stress axis : x y z
#
# Youngs Moduli (GPa) = 57.69031 35.49595 58.27411
#
# Poissons Ratio (x) = 0.34810 0.02215
# Poissons Ratio (y) = 0.56575 0.56919
# Poissons Ratio (z) = 0.02193 0.34670
#
# Static dielectric constant tensor:
#      x y z
#    x 2.993300 0.000000 0.213540 
#    y 0.000000 2.939790 0.000000 
#    z 0.213540 0.000000 2.996900 
# 
# 
# High freq. dielectric constant tensor:
#      x y z
#    x 1.594300 0.000000 0.024090 
#    y 0.000000 1.572280 0.000000 
#    z 0.024090 0.000000 1.594710 
# 
# From -- ./inp_files/29113.got.cif
#   From: 2010.06.25/outbox.cif.g09.slc.cpg/sg10_15_cif.got.tgz:29113.got - 2010.06.27 22:07:45.
