data_PCOD8062962
_publ_section_title
;
Structure prediction by ZEFSAII (Michael W. Deem and Ramdas Pophale) SiO2 
 PCOD8062962
Probable space group: P 2/M
;
_chemical_formula_sum "Si O2"
_cell_formula_units_Z 28
_cell_length_a 9.386871
_cell_length_b 9.350896
_cell_length_c 26.429911
_cell_angle_alpha 90.000000
_cell_angle_beta 139.588870
_cell_angle_gamma 90.000000
_cell_volume 1503.918293
_symmetry_space_group_name_H-M "P 2/M"
_symmetry_group_IT_number 10
_symmetry_cell_setting 'monoclinic'
loop_
_space_group_symop_operation_xyz
x,y,z
-x,y,-z
-x,-y,-z
x,-y,z
loop_
_atom_site_type_symbol
_atom_site_label
_atom_site_fract_x
_atom_site_fract_y
_atom_site_fract_z
Si Si1 0.248975 0.837734 0.181712
Si Si2 0.855914 0.839240 0.010400
Si Si3 0.075919 0.333428 0.755074
Si Si4 0.676516 0.330860 0.281277
Si Si5 0.540517 0.668601 0.068259
Si Si6 0.681120 0.839754 0.682807
Si Si7 0.786474 0.831984 0.410128
O O1 0.433028 0.732567 0.209282
O O2 0.234479 0.830740 0.237518
O O3 0.010670 0.787359 0.098263
O O4 0.299432 0.000000 0.176526
O O5 0.769764 0.000000 0.996219
O O6 0.648897 0.736232 0.948502
O O7 0.000000 0.828135 0.000000
O O8 0.028504 0.500000 0.745683
O O9 0.191430 0.293214 0.733713
O O10 0.227227 0.285105 0.843890
O O11 0.838309 0.258102 0.691368
O O12 0.661311 0.500000 0.286461
O O13 0.798411 0.257190 0.361622
O O14 0.514049 0.500000 0.063946
O O15 0.500000 0.724843 0.000000
O O16 0.426517 0.787991 0.613807
O O17 0.697888 0.000000 0.665703
O O18 0.000000 0.794604 0.500000
O O19 0.769779 0.000000 0.391586
#
# Coordination Sequence:
#
# PCOD8062962 Si02
#       7
#     4   4   4   4   4   4   4
#     4   9  18  33  50  71 100 132 172 218 260 307
#     4  10  20  32  48  72  99 129 170 220 269 310
#     4  10  21  35  49  72 107 140 172 213 258 304
#     4  10  20  33  52  78 105 136 173 209 251 305
#     4  10  21  35  50  70  99 138 181 220 261 307
#     4   9  18  32  53  77  97 127 169 205 245 301
#     4   9  19  38  61  83 107 132 162 204 251 302
#
# _framework density 18.618034000000002
#
# number of rings (size 3 to 8) (size 9 to 14) (size 15 to 20)
#    0.000    2.429    0.000    3.000    0.000    5.429 
#    0.000    0.714    0.000    4.286    0.000    0.000 
#    0.000    0.000    0.000    0.000    0.000    0.000 
#
# Total GULP energy -347148.473034 kJ/mol
# GULP energy per Si atom -12398.159751 kJ/mol
# Density = 1.857566 g / cm^3
# Si number density = 18.618034 Si / 1000 Ang^3
#
#
#
# Elastic Constant Matrix: (Units=GPa)
#
#
# Indices 1 2 3 4 5 6 
#
# 1 93.1827 48.9137 33.9944 0.0000 12.8308 0.0000
# 2 48.9137 58.0578 33.5072 0.0000 5.6045 0.0000
# 3 33.9944 33.5072 82.3166 0.0000 14.4923 0.0000
# 4 0.0000 0.0000 0.0000 16.1634 0.0000 1.4012
# 5 12.8308 5.6045 14.4923 0.0000 23.5172 0.0000
# 6 0.0000 0.0000 0.0000 1.4012 0.0000 28.1057
#
#
#
# Elastic Compliance Matrix: (Units=1/GPa)
#
#
# Indices 1 2 3 4 5 6 
#
# 1 0.020385 -0.016143 -0.000636 0.000000 -0.006883 0.000000
# 2 -0.016143 0.035299 -0.008717 0.000000 0.005767 0.000000
# 3 -0.000636 -0.008717 0.017422 0.000000 -0.008312 0.000000
# 4 0.000000 0.000000 0.000000 0.062137 0.000000 -0.003098
# 5 -0.006883 0.005767 -0.008312 0.000000 0.050025 0.000000
# 6 0.000000 0.000000 0.000000 -0.003098 0.000000 0.035734
#
#
# Mechanical properties :
#
#
# Convention : Reuss Voigt Hill
#
# Bulk Modulus (GPa) = 45.21872 51.82087 48.51980
# Shear Modulus (GPa) = 17.89760 21.36674 19.63217
#
# Velocity S-wave (km/s) = 3.10385 3.39135 3.25078
# Velocity P-wave (km/s) = 6.09799 6.57489 6.34093
#
# Compressibility (1/GPa) = 0.02211473
#
# Stress axis : x y z
#
# Youngs Moduli (GPa) = 49.05517 28.32921 57.39712
#
# Poissons Ratio (x) = 0.45733 0.03648
# Poissons Ratio (y) = 0.79191 0.50035
# Poissons Ratio (z) = 0.03117 0.24695
#
# Static dielectric constant tensor:
#      x y z
#    x 3.311230 0.000000 0.023120 
#    y 0.000000 3.377970 0.000000 
#    z 0.023120 0.000000 3.610980 
# 
# 
# High freq. dielectric constant tensor:
#      x y z
#    x 1.717910 0.000000 0.006050 
#    y 0.000000 1.716960 0.000000 
#    z 0.006050 0.000000 1.718430 
# 
# From -- ./inp_files/37050.got.cif
#   From: 2010.06.25/outbox.cif.g09.slc.cpg/sg10_19_cif.got.tgz:37050.got - 2010.06.27 22:07:45.
