data_PCOD8062860
_publ_section_title
;
Structure prediction by ZEFSAII (Michael W. Deem and Ramdas Pophale) SiO2 
 PCOD8062860
Probable space group: P 2/M
;
_chemical_formula_sum "Si O2"
_cell_formula_units_Z 26
_cell_length_a 12.041694
_cell_length_b 16.316386
_cell_length_c 10.803708
_cell_angle_alpha 90.000000
_cell_angle_beta 41.335605
_cell_angle_gamma 90.000000
_cell_volume 1401.962624
_symmetry_space_group_name_H-M "P 2/M"
_symmetry_group_IT_number 10
_symmetry_cell_setting 'monoclinic'
loop_
_space_group_symop_operation_xyz
x,y,z
-x,y,-z
-x,-y,-z
x,-y,z
loop_
_atom_site_type_symbol
_atom_site_label
_atom_site_fract_x
_atom_site_fract_y
_atom_site_fract_z
Si Si1 0.000000 0.336313 0.500000
Si Si2 0.877891 0.407914 0.356609
Si Si3 0.309249 0.718506 0.632255
Si Si4 0.100349 0.907314 0.290747
Si Si5 0.834625 0.316824 0.993916
Si Si6 0.690770 0.752601 0.886345
Si Si7 0.949767 0.845728 0.174922
O O1 0.931038 0.395739 0.452950
O O2 0.840463 0.281296 0.674058
O O3 0.811228 0.500000 0.391985
O O4 0.729800 0.342794 0.448670
O O5 0.046650 0.393960 0.134558
O O6 0.500000 0.732601 0.500000
O O7 0.241093 0.811454 0.669413
O O8 0.234105 0.670450 0.812544
O O9 0.262023 0.848693 0.135757
O O10 0.000000 0.883685 0.500000
O O11 0.979111 0.903028 0.269873
O O12 0.167761 0.000000 0.244759
O O13 0.688831 0.300799 0.014597
O O14 0.946725 0.236344 0.891704
O O15 0.500000 0.744922 0.000000
O O16 0.000000 0.887921 0.000000
#
# Coordination Sequence:
#
# PCOD8062860 Si02
#       7
#     2   4   4   4   4   4   4
#     4  10  21  38  57  82 104 140 196 220 259 330
#     4  10  20  35  55  74 105 145 175 222 280 326
#     4  10  20  31  53  80 107 135 181 231 266 317
#     4  10  20  33  52  82 113 140 178 227 277 326
#     4   8  18  34  50  77 102 132 185 222 257 323
#     4  10  20  34  60  80 106 143 182 227 269 319
#     4   8  16  34  52  71 100 144 182 216 260 321
#
# _framework density 18.545431000000001
#
# number of rings (size 3 to 8) (size 9 to 14) (size 15 to 20)
#    0.000    2.615    0.769    2.538    2.154    2.154 
#    0.000    0.000    0.000    2.769    0.000    0.000 
#    0.000    0.000    0.000    0.000    0.000    0.000 
#
# Total GULP energy -322117.951233 kJ/mol
# GULP energy per Si atom -12389.151971 kJ/mol
# Density = 1.850322 g / cm^3
# Si number density = 18.545431 Si / 1000 Ang^3
#
#
#
# Elastic Constant Matrix: (Units=GPa)
#
#
# Indices 1 2 3 4 5 6 
#
# 1 116.3532 12.0266 36.9095 0.0000 -5.9245 0.0000
# 2 12.0266 52.9255 12.9617 0.0000 -5.3731 0.0000
# 3 36.9095 12.9617 46.4413 0.0000 -2.4876 0.0000
# 4 0.0000 0.0000 0.0000 9.9040 0.0000 -1.8818
# 5 -5.9245 -5.3731 -2.4876 0.0000 43.1924 0.0000
# 6 0.0000 0.0000 0.0000 -1.8818 0.0000 17.9978
#
#
#
# Elastic Compliance Matrix: (Units=1/GPa)
#
#
# Indices 1 2 3 4 5 6 
#
# 1 0.011544 -0.000307 -0.009034 0.000000 0.001025 0.000000
# 2 -0.000307 0.020500 -0.005360 0.000000 0.002199 0.000000
# 3 -0.009034 -0.005360 0.030200 0.000000 -0.000167 0.000000
# 4 0.000000 0.000000 0.000000 0.103016 0.000000 0.010771
# 5 0.001025 0.002199 -0.000167 0.000000 0.023557 0.000000
# 6 0.000000 0.000000 0.000000 0.010771 0.000000 0.056688
#
#
# Mechanical properties :
#
#
# Convention : Reuss Voigt Hill
#
# Bulk Modulus (GPa) = 30.44881 37.72397 34.08639
# Shear Modulus (GPa) = 17.49136 24.47365 20.98250
#
# Velocity S-wave (km/s) = 3.07443 3.63665 3.36729
# Velocity P-wave (km/s) = 5.39045 6.16597 5.79121
#
# Compressibility (1/GPa) = 0.03284200
#
# Stress axis : x y z
#
# Youngs Moduli (GPa) = 86.62281 48.78016 33.11282
#
# Poissons Ratio (x) = 0.01496 0.29916
# Poissons Ratio (y) = 0.02656 0.17749
# Poissons Ratio (z) = 0.78259 0.26146
#
# Static dielectric constant tensor:
#      x y z
#    x 3.944720 0.000000 0.198580 
#    y 0.000000 3.198340 0.000000 
#    z 0.198580 0.000000 3.528380 
# 
# 
# High freq. dielectric constant tensor:
#      x y z
#    x 1.737280 0.000000 0.017810 
#    y 0.000000 1.693500 0.000000 
#    z 0.017810 0.000000 1.697390 
# 
# From -- ./inp_files/47795.got.cif
#   From: 2010.06.25/outbox.cif.g09.slc.cpg/sg10_24_cif.got.tgz:47795.got - 2010.06.27 22:07:45.
