data_PCOD8062807
_publ_section_title
;
Structure prediction by ZEFSAII (Michael W. Deem and Ramdas Pophale) SiO2 
 PCOD8062807
Probable space group: P 2/M
;
_chemical_formula_sum "Si O2"
_cell_formula_units_Z 30
_cell_length_a 12.161299
_cell_length_b 9.206211
_cell_length_c 30.500201
_cell_angle_alpha 90.000000
_cell_angle_beta 154.152273
_cell_angle_gamma 90.000000
_cell_volume 1488.781842
_symmetry_space_group_name_H-M "P 2/M"
_symmetry_group_IT_number 10
_symmetry_cell_setting 'monoclinic'
loop_
_space_group_symop_operation_xyz
x,y,z
-x,y,-z
-x,-y,-z
x,-y,z
loop_
_atom_site_type_symbol
_atom_site_label
_atom_site_fract_x
_atom_site_fract_y
_atom_site_fract_z
Si Si1 0.000000 0.247313 0.000000
Si Si2 0.635659 0.827773 0.754087
Si Si3 0.136376 0.167398 0.337384
Si Si4 0.523069 0.840850 0.207916
Si Si5 0.762789 0.671198 0.444941
Si Si6 0.345255 0.671327 0.827805
Si Si7 0.885583 0.660871 0.050571
Si Si8 0.324660 0.168040 0.501603
O O1 0.764964 0.139972 0.910584
O O2 0.029099 0.353688 0.969193
O O3 0.484452 0.785356 0.744441
O O4 0.487721 0.751142 0.661880
O O5 0.925729 0.771010 0.857060
O O6 0.643332 0.000000 0.750015
O O7 0.193716 0.201528 0.408592
O O8 0.378632 0.207239 0.394989
O O9 0.899937 0.263209 0.236062
O O10 0.064891 0.000000 0.305547
O O11 0.658975 0.729752 0.223955
O O12 0.654029 0.000000 0.251694
O O13 0.715606 0.500000 0.429206
O O14 0.812458 0.731699 0.511599
O O15 0.000000 0.712165 0.500000
O O16 0.325403 0.500000 0.817992
O O17 0.593860 0.717161 0.945129
O O18 0.903429 0.500000 0.078254
O O19 0.290920 0.000000 0.502461
#
# Coordination Sequence:
#
# PCOD8062807 Si02
#       8
#     2   4   4   4   4   4   4   4
#     4   8  14  24  42  66  94 138 184 222 268 322
#     4  10  21  35  53  76 104 147 192 231 277 328
#     4   9  19  37  61  87 113 144 183 232 283 328
#     4   9  17  28  44  69 102 140 183 227 270 318
#     4  11  25  41  58  84 115 149 186 228 277 333
#     4  10  20  30  48  80 114 148 183 224 278 334
#     4   9  17  30  47  71 107 146 183 225 273 329
#     4   9  20  40  63  85 111 145 187 232 280 332
#
# _framework density 20.150701999999999
#
# number of rings (size 3 to 8) (size 9 to 14) (size 15 to 20)
#    0.000    2.533    0.000    2.400    1.867    9.600 
#    0.000    1.333    0.000    0.800    0.000    5.600 
#    0.000    0.000    0.000    0.000    0.000    0.000 
#
# Total GULP energy -371842.364116 kJ/mol
# GULP energy per Si atom -12394.745471 kJ/mol
# Density = 2.010484 g / cm^3
# Si number density = 20.150702 Si / 1000 Ang^3
#
#
#
# Elastic Constant Matrix: (Units=GPa)
#
#
# Indices 1 2 3 4 5 6 
#
# 1 66.1489 33.0180 21.9925 0.0000 10.5812 0.0000
# 2 33.0180 92.4847 40.2937 0.0000 10.2941 0.0000
# 3 21.9925 40.2937 82.6761 0.0000 21.9757 0.0000
# 4 0.0000 0.0000 0.0000 23.6278 0.0000 7.0198
# 5 10.5812 10.2941 21.9757 0.0000 31.3691 0.0000
# 6 0.0000 0.0000 0.0000 7.0198 0.0000 22.1290
#
#
#
# Elastic Compliance Matrix: (Units=1/GPa)
#
#
# Indices 1 2 3 4 5 6 
#
# 1 0.019031 -0.005846 -0.001249 0.000000 -0.003626 0.000000
# 2 -0.005846 0.015525 -0.006367 0.000000 0.001338 0.000000
# 3 -0.001249 -0.006367 0.018264 0.000000 -0.010284 0.000000
# 4 0.000000 0.000000 0.000000 0.046727 0.000000 -0.014823
# 5 -0.003626 0.001338 -0.010284 0.000000 0.039867 0.000000
# 6 0.000000 0.000000 0.000000 -0.014823 0.000000 0.049892
#
#
# Mechanical properties :
#
#
# Convention : Reuss Voigt Hill
#
# Bulk Modulus (GPa) = 38.61711 47.99089 43.30400
# Shear Modulus (GPa) = 22.23586 25.15890 23.69738
#
# Velocity S-wave (km/s) = 3.32547 3.53730 3.43302
# Velocity P-wave (km/s) = 5.82673 6.36797 6.10335
#
# Compressibility (1/GPa) = 0.02589526
#
# Stress axis : x y z
#
# Youngs Moduli (GPa) = 52.54608 64.41334 54.75170
#
# Poissons Ratio (x) = 0.37658 0.06840
# Poissons Ratio (y) = 0.30720 0.34858
# Poissons Ratio (z) = 0.06565 0.41010
#
# Static dielectric constant tensor:
#      x y z
#    x 3.435240 0.000000 0.204280 
#    y 0.000000 3.445060 0.000000 
#    z 0.204280 0.000000 3.734760 
# 
# 
# High freq. dielectric constant tensor:
#      x y z
#    x 1.754000 0.000000 0.016760 
#    y 0.000000 1.779740 0.000000 
#    z 0.016760 0.000000 1.789530 
# 
# From -- ./inp_files/94885.got.cif
#   From: 2010.06.25/outbox.cif.g09.slc.cpg/sg10_48_cif.got.tgz:94885.got - 2010.06.27 22:07:45.
