data_PCOD8062767
_publ_section_title
;
Structure prediction by ZEFSAII (Michael W. Deem and Ramdas Pophale) SiO2 
 PCOD8062767
Probable space group: P 2/M
;
_chemical_formula_sum "Si O2"
_cell_formula_units_Z 32
_cell_length_a 11.964294
_cell_length_b 17.345967
_cell_length_c 14.418118
_cell_angle_alpha 90.000000
_cell_angle_beta 148.397583
_cell_angle_gamma 90.000000
_cell_volume 1567.990950
_symmetry_space_group_name_H-M "P 2/M"
_symmetry_group_IT_number 10
_symmetry_cell_setting 'monoclinic'
loop_
_space_group_symop_operation_xyz
x,y,z
-x,y,-z
-x,-y,-z
x,-y,z
loop_
_atom_site_type_symbol
_atom_site_label
_atom_site_fract_x
_atom_site_fract_y
_atom_site_fract_z
Si Si1 0.706043 0.910729 0.706331
Si Si2 0.437270 0.832842 0.213184
Si Si3 0.078397 0.408209 0.340682
Si Si4 0.785695 0.415743 0.291554
Si Si5 0.092441 0.410629 0.972260
Si Si6 0.540546 0.343440 0.273121
Si Si7 0.896588 0.910224 0.140339
Si Si8 0.891379 0.090103 0.518386
O O1 0.500000 0.893501 0.500000
O O2 0.697437 0.860301 0.792983
O O3 0.909546 0.886609 0.789838
O O4 0.716615 0.000000 0.743640
O O5 0.451526 0.741506 0.223383
O O6 0.672863 0.866297 0.380298
O O7 0.311854 0.861187 0.033218
O O8 0.122255 0.500000 0.377603
O O9 0.281687 0.362954 0.524293
O O10 0.859749 0.387604 0.242186
O O11 0.032699 0.376362 0.205251
O O12 0.671770 0.500000 0.206289
O O13 0.632246 0.354462 0.233550
O O14 0.000000 0.425670 0.500000
O O15 0.037636 0.500000 0.934284
O O16 0.345167 0.401175 0.147519
O O17 0.000000 0.370801 0.000000
O O18 0.952166 0.890428 0.285971
O O19 0.842609 0.000000 0.091358
O O20 0.000000 0.118666 0.500000
O O21 0.838066 0.000000 0.477010
#
# Coordination Sequence:
#
# PCOD8062767 Si02
#       8
#     4   4   4   4   4   4   4   4
#     4  10  19  38  67  91 112 147 201 258 302 346
#     4  12  24  37  57  91 126 159 192 241 312 375
#     4   9  19  39  66  89 111 151 207 259 299 341
#     4   8  15  33  62  88 110 142 196 252 292 340
#     4  10  22  40  59  83 116 157 206 248 285 349
#     4  11  23  37  56  87 123 159 185 239 307 363
#     4  10  21  39  65  89 115 153 199 256 302 347
#     4  10  22  41  62  84 115 159 209 251 288 348
#
# _framework density 20.408282
#
# number of rings (size 3 to 8) (size 9 to 14) (size 15 to 20)
#    0.000    2.000    1.250    3.375    0.000    6.000 
#    2.250    6.875    0.000    0.000    0.000    0.000 
#    0.000    0.000    0.000    0.000    0.000    0.000 
#
# Total GULP energy -396783.419262 kJ/mol
# GULP energy per Si atom -12399.481852 kJ/mol
# Density = 2.036183 g / cm^3
# Si number density = 20.408282 Si / 1000 Ang^3
#
#
#
# Elastic Constant Matrix: (Units=GPa)
#
#
# Indices 1 2 3 4 5 6 
#
# 1 128.5465 35.8641 52.2418 0.0000 -23.4813 0.0000
# 2 35.8641 57.3144 29.5641 0.0000 -9.9486 0.0000
# 3 52.2418 29.5641 105.2730 0.0000 -16.9972 0.0000
# 4 0.0000 0.0000 0.0000 15.6661 0.0000 8.3871
# 5 -23.4813 -9.9486 -16.9972 0.0000 29.0874 0.0000
# 6 0.0000 0.0000 0.0000 8.3871 0.0000 12.3576
#
#
#
# Elastic Compliance Matrix: (Units=1/GPa)
#
#
# Indices 1 2 3 4 5 6 
#
# 1 0.011481 -0.004363 -0.003552 0.000000 0.005701 0.000000
# 2 -0.004363 0.022493 -0.003841 0.000000 0.001927 0.000000
# 3 -0.003552 -0.003841 0.012881 0.000000 0.003346 0.000000
# 4 0.000000 0.000000 0.000000 0.100263 0.000000 -0.068048
# 5 0.005701 0.001927 0.003346 0.000000 0.041595 0.000000
# 6 0.000000 0.000000 0.000000 -0.068048 0.000000 0.127106
#
#
# Mechanical properties :
#
#
# Convention : Reuss Voigt Hill
#
# Bulk Modulus (GPa) = 42.83688 58.49708 50.66698
# Shear Modulus (GPa) = 14.40460 22.98650 18.69555
#
# Velocity S-wave (km/s) = 2.65961 3.35973 3.02996
# Velocity P-wave (km/s) = 5.51968 6.61634 6.09274
#
# Compressibility (1/GPa) = 0.02334437
#
# Stress axis : x y z
#
# Youngs Moduli (GPa) = 87.09774 44.45803 77.63622
#
# Poissons Ratio (x) = 0.19395 0.27577
# Poissons Ratio (y) = 0.37998 0.29818
# Poissons Ratio (z) = 0.30937 0.17075
#
# Static dielectric constant tensor:
#      x y z
#    x 4.213560 0.000000 -0.193160 
#    y 0.000000 3.419660 0.000000 
#    z -0.193160 0.000000 3.676240 
# 
# 
# High freq. dielectric constant tensor:
#      x y z
#    x 1.806150 0.000000 -0.005480 
#    y 0.000000 1.768410 0.000000 
#    z -0.005480 0.000000 1.803210 
# 
# From -- ./inp_files/65410.got.cif
#   From: 2010.06.25/outbox.cif.g09.slc.cpg/sg10_33_cif.got.tgz:65410.got - 2010.06.27 22:07:45.
