data_PCOD8062533
_publ_section_title
;
Structure prediction by ZEFSAII (Michael W. Deem and Ramdas Pophale) SiO2 
 PCOD8062533
Probable space group: P 2/M
;
_chemical_formula_sum "Si O2"
_cell_formula_units_Z 28
_cell_length_a 14.005407
_cell_length_b 8.618803
_cell_length_c 17.317939
_cell_angle_alpha 90.000000
_cell_angle_beta 136.712170
_cell_angle_gamma 90.000000
_cell_volume 1433.342854
_symmetry_space_group_name_H-M "P 2/M"
_symmetry_group_IT_number 10
_symmetry_cell_setting 'monoclinic'
loop_
_space_group_symop_operation_xyz
x,y,z
-x,y,-z
-x,-y,-z
x,-y,z
loop_
_atom_site_type_symbol
_atom_site_label
_atom_site_fract_x
_atom_site_fract_y
_atom_site_fract_z
Si Si1 0.807839 0.179989 0.758090
Si Si2 0.150752 0.320492 0.617243
Si Si3 0.237718 0.320394 0.427375
Si Si4 0.321552 0.679472 0.168390
Si Si5 0.919200 0.677512 0.252868
Si Si6 0.613618 0.179809 0.345319
Si Si7 0.126332 0.179274 0.930223
O O1 0.738352 0.276169 0.647698
O O2 0.729102 0.217462 0.790135
O O3 0.969797 0.224616 0.862887
O O4 0.792424 0.000000 0.728948
O O5 0.173635 0.500000 0.607434
O O6 0.163641 0.295328 0.716677
O O7 0.265728 0.216064 0.644585
O O8 0.000000 0.264803 0.500000
O O9 0.272652 0.500000 0.460190
O O10 0.341147 0.221590 0.541189
O O11 0.080855 0.279896 0.361117
O O12 0.306765 0.500000 0.181280
O O13 0.480103 0.720475 0.242334
O O14 0.230364 0.714952 0.039638
O O15 0.908000 0.500000 0.218459
O O16 0.852061 0.785935 0.147845
O O17 0.575151 0.000000 0.318728
O O18 0.158711 0.000000 0.965913
#
# Coordination Sequence:
#
# PCOD8062533 Si02
#       7
#     4   4   4   4   4   4   4
#     4  10  21  38  61  90 120 151 190 240 294 343
#     4  10  19  37  62  89 119 154 192 236 285 343
#     4  10  19  36  59  87 119 154 195 237 285 344
#     4  12  25  41  60  82 113 157 202 241 286 346
#     4   9  18  34  60  89 118 151 191 237 283 336
#     4  12  25  39  57  85 121 156 193 241 296 349
#     4  10  21  38  61  88 120 152 189 240 292 340
#
# _framework density 19.534754
#
# number of rings (size 3 to 8) (size 9 to 14) (size 15 to 20)
#    0.000    1.571    1.429    4.286    0.000    5.429 
#    0.000    3.571    0.000    4.286    0.000    0.000 
#    0.000    0.000    0.000    0.000    0.000    0.000 
#
# Total GULP energy -347383.508798 kJ/mol
# GULP energy per Si atom -12406.553886 kJ/mol
# Density = 1.949029 g / cm^3
# Si number density = 19.534754 Si / 1000 Ang^3
#
#
#
# Elastic Constant Matrix: (Units=GPa)
#
#
# Indices 1 2 3 4 5 6 
#
# 1 78.7119 18.1175 51.5066 0.0000 -4.9198 0.0000
# 2 18.1175 66.2219 31.5749 0.0000 0.5471 0.0000
# 3 51.5066 31.5749 58.0158 0.0000 3.9705 0.0000
# 4 0.0000 0.0000 0.0000 33.0378 0.0000 -3.8794
# 5 -4.9198 0.5471 3.9705 0.0000 22.4868 0.0000
# 6 0.0000 0.0000 0.0000 -3.8794 0.0000 31.7735
#
#
#
# Elastic Compliance Matrix: (Units=1/GPa)
#
#
# Indices 1 2 3 4 5 6 
#
# 1 0.036353 0.007824 -0.037517 0.000000 0.014388 0.000000
# 2 0.007824 0.022125 -0.019301 0.000000 0.004581 0.000000
# 3 -0.037517 -0.019301 0.062332 0.000000 -0.018745 0.000000
# 4 0.000000 0.000000 0.000000 0.030709 0.000000 0.003749
# 5 0.014388 0.004581 -0.018745 0.000000 0.050817 0.000000
# 6 0.000000 0.000000 0.000000 0.003749 0.000000 0.031931
#
#
# Mechanical properties :
#
#
# Convention : Reuss Voigt Hill
#
# Bulk Modulus (GPa) = 43.81864 45.03862 44.42863
# Shear Modulus (GPa) = 14.71188 24.24299 19.47743
#
# Velocity S-wave (km/s) = 2.74727 3.52663 3.16106
# Velocity P-wave (km/s) = 5.70466 6.29988 6.00964
#
# Compressibility (1/GPa) = 0.02282134
#
# Stress axis : x y z
#
# Youngs Moduli (GPa) = 27.50812 45.19719 16.04321
#
# Poissons Ratio (x) = -0.35361 0.60189
# Poissons Ratio (y) = -0.21521 0.30965
# Poissons Ratio (z) = 1.03202 0.87235
#
# Static dielectric constant tensor:
#      x y z
#    x 3.476120 0.000000 -0.072350 
#    y 0.000000 3.508280 0.000000 
#    z -0.072350 0.000000 3.528590 
# 
# 
# High freq. dielectric constant tensor:
#      x y z
#    x 1.754580 0.000000 -0.012620 
#    y 0.000000 1.764600 0.000000 
#    z -0.012620 0.000000 1.757680 
# 
# From -- ./inp_files/77779.got.cif
#   From: 2010.06.25/outbox.cif.g09.slc.cpg/sg10_39_cif.got.tgz:77779.got - 2010.06.27 22:07:45.
