data_PCOD8062521
_publ_section_title
;
Structure prediction by ZEFSAII (Michael W. Deem and Ramdas Pophale) SiO2 
 PCOD8062521
Probable space group: P 2/M
;
_chemical_formula_sum "Si O2"
_cell_formula_units_Z 28
_cell_length_a 9.281417
_cell_length_b 7.762928
_cell_length_c 27.667425
_cell_angle_alpha 90.000000
_cell_angle_beta 134.889770
_cell_angle_gamma 90.000000
_cell_volume 1412.301793
_symmetry_space_group_name_H-M "P 2/M"
_symmetry_group_IT_number 10
_symmetry_cell_setting 'monoclinic'
loop_
_space_group_symop_operation_xyz
x,y,z
-x,y,-z
-x,-y,-z
x,-y,z
loop_
_atom_site_type_symbol
_atom_site_label
_atom_site_fract_x
_atom_site_fract_y
_atom_site_fract_z
Si Si1 0.006461 0.308415 0.321262
Si Si2 0.372774 0.699960 0.336810
Si Si3 0.567850 0.195520 0.197209
Si Si4 0.181646 0.295451 0.919963
Si Si5 0.258826 0.301655 0.204908
Si Si6 0.524806 0.296187 0.928601
Si Si7 0.446556 0.000000 0.565109
Si Si8 0.171779 0.000000 0.414555
O O1 0.041254 0.500000 0.350928
O O2 0.157822 0.274948 0.312627
O O3 0.779912 0.296644 0.246639
O O4 0.041033 0.171312 0.372351
O O5 0.446278 0.500000 0.356780
O O6 0.344389 0.770824 0.275665
O O7 0.541966 0.824703 0.400632
O O8 0.420881 0.279850 0.201382
O O9 0.462827 0.205143 0.120147
O O10 0.608266 0.000000 0.221598
O O11 0.176030 0.500000 0.920878
O O12 0.318616 0.237920 0.906939
O O13 0.956425 0.213784 0.860774
O O14 0.282922 0.231508 0.994112
O O15 0.212548 0.500000 0.203312
O O16 0.529767 0.500000 0.922099
O O17 0.233096 0.000000 0.485593
O O18 0.628516 0.000000 0.570366
#
# Coordination Sequence:
#
# PCOD8062521 Si02
#       8
#     4   4   4   4   4   4   2   2
#     4  10  19  36  59  82 111 146 184 229 273 322
#     4   9  19  34  58  85 109 145 187 223 272 329
#     4  12  24  35  49  76 110 146 187 229 276 329
#     4   8  16  33  58  81 102 133 183 232 276 334
#     4  10  20  35  53  77 106 141 187 233 274 323
#     4   9  17  34  58  80 102 137 180 229 283 330
#     4   9  18  32  57  83 126 143 172 221 275 316
#     4   9  18  34  53  91 116 147 176 219 267 336
#
# _framework density 19.825793000000001
#
# number of rings (size 3 to 8) (size 9 to 14) (size 15 to 20)
#    0.000    2.429    0.714    3.000    1.000    3.429 
#    0.000    8.571    0.000    1.714    0.000    3.000 
#    0.000    0.000    0.000    0.000    0.000    0.000 
#
# Total GULP energy -347145.764811 kJ/mol
# GULP energy per Si atom -12398.063029 kJ/mol
# Density = 1.978067 g / cm^3
# Si number density = 19.825793 Si / 1000 Ang^3
#
#
#
# Elastic Constant Matrix: (Units=GPa)
#
#
# Indices 1 2 3 4 5 6 
#
# 1 66.2575 10.6753 51.7688 0.0000 -18.5397 0.0000
# 2 10.6753 74.8304 42.0420 0.0000 -8.3766 0.0000
# 3 51.7688 42.0420 139.7227 0.0000 -31.2095 0.0000
# 4 0.0000 0.0000 0.0000 24.9679 0.0000 -3.0043
# 5 -18.5397 -8.3766 -31.2095 0.0000 17.9785 0.0000
# 6 0.0000 0.0000 0.0000 -3.0043 0.0000 11.7068
#
#
#
# Elastic Compliance Matrix: (Units=1/GPa)
#
#
# Indices 1 2 3 4 5 6 
#
# 1 0.023605 0.001619 -0.005925 0.000000 0.014811 0.000000
# 2 0.001619 0.016218 -0.005584 0.000000 -0.000468 0.000000
# 3 -0.005925 -0.005584 0.014841 0.000000 0.017052 0.000000
# 4 0.000000 0.000000 0.000000 0.041328 0.000000 0.010606
# 5 0.014811 -0.000468 0.017052 0.000000 0.100279 0.000000
# 6 0.000000 0.000000 0.000000 0.010606 0.000000 0.088142
#
#
# Mechanical properties :
#
#
# Convention : Reuss Voigt Hill
#
# Bulk Modulus (GPa) = 28.66595 54.42029 41.54312
# Shear Modulus (GPa) = 15.83175 22.68561 19.25868
#
# Velocity S-wave (km/s) = 2.82892 3.38634 3.12010
# Velocity P-wave (km/s) = 5.01604 6.54206 5.82920
#
# Compressibility (1/GPa) = 0.03488459
#
# Stress axis : x y z
#
# Youngs Moduli (GPa) = 42.36309 61.66145 67.37896
#
# Poissons Ratio (x) = -0.09985 0.39922
# Poissons Ratio (y) = -0.06860 0.37626
# Poissons Ratio (z) = 0.25100 0.34434
#
# Static dielectric constant tensor:
#      x y z
#    x 3.316680 0.000000 -0.040410 
#    y 0.000000 3.516070 0.000000 
#    z -0.040410 0.000000 3.866290 
# 
# 
# High freq. dielectric constant tensor:
#      x y z
#    x 1.746540 0.000000 -0.007140 
#    y 0.000000 1.766850 0.000000 
#    z -0.007140 0.000000 1.772020 
# 
# From -- ./inp_files/92155.got.cif
#   From: 2010.06.25/outbox.cif.g09.slc.cpg/sg10_47_cif.got.tgz:92155.got - 2010.06.27 22:07:45.
