data_PCOD8062140
_publ_section_title
;
Structure prediction by ZEFSAII (Michael W. Deem and Ramdas Pophale) SiO2 
 PCOD8062140
Probable space group: P 2/M
;
_chemical_formula_sum "Si O2"
_cell_formula_units_Z 24
_cell_length_a 24.119808
_cell_length_b 7.726802
_cell_length_c 18.493311
_cell_angle_alpha 90.000000
_cell_angle_beta 20.733486
_cell_angle_gamma 90.000000
_cell_volume 1220.163235
_symmetry_space_group_name_H-M "P 2/M"
_symmetry_group_IT_number 10
_symmetry_cell_setting 'monoclinic'
loop_
_space_group_symop_operation_xyz
x,y,z
-x,y,-z
-x,-y,-z
x,-y,z
loop_
_atom_site_type_symbol
_atom_site_label
_atom_site_fract_x
_atom_site_fract_y
_atom_site_fract_z
Si Si1 0.735461 0.298847 0.550296
Si Si2 0.166498 0.311864 0.162741
Si Si3 0.493440 0.797546 0.732273
Si Si4 0.966912 0.000000 0.457549
Si Si5 0.650291 0.000000 0.764844
Si Si6 0.592475 0.198010 0.320443
Si Si7 0.919018 0.687514 0.895798
O O1 0.746519 0.500000 0.564888
O O2 0.636705 0.297474 0.596827
O O3 0.909178 0.224377 0.318191
O O4 0.658464 0.172943 0.704688
O O5 0.142350 0.500000 0.230528
O O6 0.036487 0.176584 0.343221
O O7 0.151223 0.336703 0.097012
O O8 0.339315 0.239136 0.968849
O O9 0.467342 0.721132 0.682973
O O10 0.527609 0.000000 0.689518
O O11 0.000000 0.000000 0.500000
O O12 0.786609 0.000000 0.657400
O O13 0.500000 0.000000 0.000000
O O14 0.500000 0.288230 0.500000
O O15 0.543958 0.000000 0.376169
O O16 0.780882 0.208934 0.105425
O O17 0.938324 0.500000 0.909883
#
# Coordination Sequence:
#
# PCOD8062140 Si02
#       7
#     4   4   4   2   2   4   4
#     4  11  23  41  64  89 120 160 207 251 296 362
#     4  10  20  38  60  84 114 153 199 246 290 346
#     4  10  19  34  62  89 119 160 206 246 296 351
#     4  12  26  40  62  88 119 150 193 243 296 372
#     4  12  28  44  64  90 123 161 195 246 319 367
#     4   9  19  34  57  91 126 158 197 248 301 352
#     4   9  19  35  59  84 108 156 205 237 291 351
#
# _framework density 19.669498999999998
#
# number of rings (size 3 to 8) (size 9 to 14) (size 15 to 20)
#    0.000    1.833    3.333    0.500    4.667    1.667 
#    0.000    0.833    0.000    5.000    0.000    0.000 
#    0.000    0.000    0.000    0.000    0.000    0.000 
#
# Total GULP energy -297319.196931 kJ/mol
# GULP energy per Si atom -12388.299872 kJ/mol
# Density = 1.962473 g / cm^3
# Si number density = 19.669499 Si / 1000 Ang^3
#
#
#
# Elastic Constant Matrix: (Units=GPa)
#
#
# Indices 1 2 3 4 5 6 
#
# 1 90.0932 21.1307 61.2522 0.0000 -12.9611 0.0000
# 2 21.1307 92.5239 37.4874 0.0000 8.9802 0.0000
# 3 61.2522 37.4874 159.5739 0.0000 -7.6724 0.0000
# 4 0.0000 0.0000 0.0000 115.7327 0.0000 12.6022
# 5 -12.9611 8.9802 -7.6724 0.0000 32.2033 0.0000
# 6 0.0000 0.0000 0.0000 12.6022 0.0000 22.5284
#
#
#
# Elastic Compliance Matrix: (Units=1/GPa)
#
#
# Indices 1 2 3 4 5 6 
#
# 1 0.016091 -0.002037 -0.005421 0.000000 0.005752 0.000000
# 2 -0.002037 0.012748 -0.002451 0.000000 -0.004959 0.000000
# 3 -0.005421 -0.002451 0.008954 0.000000 0.000635 0.000000
# 4 0.000000 0.000000 0.000000 0.009201 0.000000 -0.005147
# 5 0.005752 -0.004959 0.000635 0.000000 0.034902 0.000000
# 6 0.000000 0.000000 0.000000 -0.005147 0.000000 0.047268
#
#
# Mechanical properties :
#
#
# Convention : Reuss Voigt Hill
#
# Bulk Modulus (GPa) = 55.63667 64.65908 60.14788
# Shear Modulus (GPa) = 32.26368 48.91425 40.58897
#
# Velocity S-wave (km/s) = 4.05444 4.99220 4.54756
# Velocity P-wave (km/s) = 7.08979 8.13471 7.63016
#
# Compressibility (1/GPa) = 0.01797376
#
# Stress axis : x y z
#
# Youngs Moduli (GPa) = 62.14764 78.44613 111.68090
#
# Poissons Ratio (x) = 0.15976 0.60546
# Poissons Ratio (y) = 0.12657 0.27377
# Poissons Ratio (z) = 0.33693 0.19230
#
# Static dielectric constant tensor:
#      x y z
#    x 3.529760 0.000000 -0.154750 
#    y 0.000000 3.824200 0.000000 
#    z -0.154750 0.000000 3.621750 
# 
# 
# High freq. dielectric constant tensor:
#      x y z
#    x 1.742730 0.000000 -0.020210 
#    y 0.000000 1.771080 0.000000 
#    z -0.020210 0.000000 1.765140 
# 
# From -- ./inp_files/80069.got.cif
#   From: 2010.06.25/outbox.cif.g09.slc.cpg/sg10_41_cif.got.tgz:80069.got - 2010.06.27 22:07:45.
