data_PCOD8062634
_publ_section_title
;
Structure prediction by ZEFSAII (Michael W. Deem and Ramdas Pophale) SiO2 
 PCOD8062634
Probable space group: P 2/M
;
_chemical_formula_sum "Si O2"
_cell_formula_units_Z 32
_cell_length_a 25.612450
_cell_length_b 8.674919
_cell_length_c 20.015939
_cell_angle_alpha 90.000000
_cell_angle_beta 21.213956
_cell_angle_gamma 90.000000
_cell_volume 1609.248384
_symmetry_space_group_name_H-M "P 2/M"
_symmetry_group_IT_number 10
_symmetry_cell_setting 'monoclinic'
loop_
_space_group_symop_operation_xyz
x,y,z
-x,y,-z
-x,-y,-z
x,-y,z
loop_
_atom_site_type_symbol
_atom_site_label
_atom_site_fract_x
_atom_site_fract_y
_atom_site_fract_z
Si Si1 0.170877 0.321036 0.403045
Si Si2 0.364087 0.819333 0.284561
Si Si3 0.831439 0.824215 0.214015
Si Si4 0.861617 0.818510 0.952107
Si Si5 0.870626 0.180250 0.788620
Si Si6 0.338872 0.319794 0.700759
Si Si7 0.165583 0.182594 0.640482
Si Si8 0.328366 0.678689 0.078337
O O1 0.192206 0.500000 0.395874
O O2 0.251079 0.215249 0.361009
O O3 0.002933 0.278610 0.601959
O O4 0.233335 0.282803 0.256118
O O5 0.293665 0.765542 0.438590
O O6 0.507797 0.722929 0.101037
O O7 0.399780 0.000000 0.241922
O O8 0.749978 0.716402 0.259689
O O9 0.797725 0.760932 0.328618
O O10 0.778211 0.000000 0.268520
O O11 0.000000 0.813267 0.000000
O O12 0.839091 0.771063 0.902254
O O13 0.013009 0.746933 0.797681
O O14 0.863522 0.000000 0.958968
O O15 0.729216 0.755133 0.152459
O O16 0.907186 0.000000 0.739617
O O17 0.728847 0.220553 0.915201
O O18 0.500000 0.253912 0.500000
O O19 0.340973 0.500000 0.710285
O O20 0.149078 0.000000 0.659438
O O21 0.319406 0.500000 0.069998
#
# Coordination Sequence:
#
# PCOD8062634 Si02
#       8
#     4   4   4   4   4   4   4   4
#     4  11  23  40  62  88 122 164 203 245 304 369
#     4  11  22  39  63  91 122 157 204 259 304 351
#     4  10  19  36  64  89 113 151 196 242 292 349
#     4  10  20  40  65  88 117 154 198 246 296 354
#     4  11  23  40  65  93 119 154 205 258 302 356
#     4  11  25  41  57  87 128 161 194 240 292 349
#     4   9  18  36  61  90 119 147 193 252 300 348
#     4  11  25  42  58  85 127 165 201 248 304 369
#
# _framework density 19.885058999999998
#
# number of rings (size 3 to 8) (size 9 to 14) (size 15 to 20)
#    0.000    1.500    2.500    2.625    0.000    8.250 
#    0.000    5.000    0.000    0.000    0.000    0.000 
#    0.000    0.000    0.000    0.000    0.000    0.000 
#
# Total GULP energy -396964.057048 kJ/mol
# GULP energy per Si atom -12405.126783 kJ/mol
# Density = 1.983980 g / cm^3
# Si number density = 19.885059 Si / 1000 Ang^3
#
#
#
# Elastic Constant Matrix: (Units=GPa)
#
#
# Indices 1 2 3 4 5 6 
#
# 1 92.3438 22.2055 25.7519 0.0000 19.9720 0.0000
# 2 22.2055 33.4976 27.0019 0.0000 18.5063 0.0000
# 3 25.7519 27.0019 93.0410 0.0000 14.9068 0.0000
# 4 0.0000 0.0000 0.0000 25.1037 0.0000 -6.7295
# 5 19.9720 18.5063 14.9068 0.0000 33.4982 0.0000
# 6 0.0000 0.0000 0.0000 -6.7295 0.0000 26.7916
#
#
#
# Elastic Compliance Matrix: (Units=1/GPa)
#
#
# Indices 1 2 3 4 5 6 
#
# 1 0.013476 -0.005271 -0.001485 0.000000 -0.004461 0.000000
# 2 -0.005271 0.054151 -0.010732 0.000000 -0.021998 0.000000
# 3 -0.001485 -0.010732 0.014194 0.000000 0.000498 0.000000
# 4 0.000000 0.000000 0.000000 0.042711 0.000000 0.010728
# 5 -0.004461 -0.021998 0.000498 0.000000 0.044443 0.000000
# 6 0.000000 0.000000 0.000000 0.010728 0.000000 0.040020
#
#
# Mechanical properties :
#
#
# Convention : Reuss Voigt Hill
#
# Bulk Modulus (GPa) = 21.34761 40.97790 31.16275
# Shear Modulus (GPa) = 19.26149 26.67357 22.96753
#
# Velocity S-wave (km/s) = 3.11568 3.66647 3.40224
# Velocity P-wave (km/s) = 4.86848 6.21097 5.58024
#
# Compressibility (1/GPa) = 0.04684365
#
# Stress axis : x y z
#
# Youngs Moduli (GPa) = 74.20767 18.46692 70.45318
#
# Poissons Ratio (x) = 0.09734 0.10464
# Poissons Ratio (y) = 0.39115 0.75611
# Poissons Ratio (z) = 0.11022 0.19819
#
# Static dielectric constant tensor:
#      x y z
#    x 3.646760 0.000000 0.170890 
#    y 0.000000 3.426380 0.000000 
#    z 0.170890 0.000000 3.728880 
# 
# 
# High freq. dielectric constant tensor:
#      x y z
#    x 1.786700 0.000000 0.007130 
#    y 0.000000 1.762760 0.000000 
#    z 0.007130 0.000000 1.782450 
# 
# From -- ./inp_files/86789.got.cif
#   From: 2010.06.25/outbox.cif.g09.slc.cpg/sg10_44_cif.got.tgz:86789.got - 2010.06.27 22:07:45.
