data_PCOD8062596
_publ_section_title
;
Structure prediction by ZEFSAII (Michael W. Deem and Ramdas Pophale) SiO2 
 PCOD8062596
Probable space group: P 2/M
;
_chemical_formula_sum "Si O2"
_cell_formula_units_Z 18
_cell_length_a 12.684595
_cell_length_b 10.898503
_cell_length_c 12.066660
_cell_angle_alpha 90.000000
_cell_angle_beta 147.490348
_cell_angle_gamma 90.000000
_cell_volume 896.523900
_symmetry_space_group_name_H-M "P 2/M"
_symmetry_group_IT_number 10
_symmetry_cell_setting 'monoclinic'
loop_
_space_group_symop_operation_xyz
x,y,z
-x,y,-z
-x,-y,-z
x,-y,z
loop_
_atom_site_type_symbol
_atom_site_label
_atom_site_fract_x
_atom_site_fract_y
_atom_site_fract_z
Si Si1 0.293400 0.239321 0.773502
Si Si2 0.358084 0.500000 0.733457
Si Si3 0.286218 0.500000 0.095893
Si Si4 0.684621 0.500000 0.549927
Si Si5 0.969271 0.703868 0.851518
Si Si6 0.036595 0.142373 0.365399
O O1 0.303222 0.383453 0.757888
O O2 0.237274 0.165929 0.611517
O O3 0.134227 0.219502 0.727819
O O4 0.500000 0.187656 0.000000
O O5 0.591473 0.500000 0.910739
O O6 0.239970 0.500000 0.512295
O O7 0.445005 0.500000 0.340271
O O8 0.155896 0.621296 0.984712
O O9 0.773579 0.621058 0.685238
O O10 0.939364 0.814005 0.739206
O O11 0.000000 0.762840 0.000000
O O12 0.982561 0.000000 0.318853
#
# Coordination Sequence:
#
# PCOD8062596 Si02
#       6
#     4   2   2   2   4   4
#     4  11  22  39  62  88 116 151 187 235 299 350
#     4  10  19  36  61  91 120 146 173 234 297 356
#     4   9  19  36  59  88 120 147 179 231 295 349
#     4   9  19  37  58  88 121 146 180 234 291 352
#     4  11  22  38  61  86 117 156 193 235 288 342
#     4  11  25  41  57  83 117 156 202 243 276 329
#
# _framework density 20.077546000000002
#
# number of rings (size 3 to 8) (size 9 to 14) (size 15 to 20)
#    0.667    0.889    2.222    4.333    0.000    7.556 
#    0.000    0.000    0.000    0.000    0.000    7.778 
#    0.000    0.000    0.000    0.000    0.000    0.000 
#
# Total GULP energy -223200.223025 kJ/mol
# GULP energy per Si atom -12400.012390 kJ/mol
# Density = 2.003185 g / cm^3
# Si number density = 20.077546 Si / 1000 Ang^3
#
#
#
# Elastic Constant Matrix: (Units=GPa)
#
#
# Indices 1 2 3 4 5 6 
#
# 1 85.9940 47.9598 44.3979 0.0000 -16.4585 0.0000
# 2 47.9598 85.9954 29.1239 0.0000 0.1978 0.0000
# 3 44.3979 29.1239 143.2068 0.0000 -6.9914 0.0000
# 4 0.0000 0.0000 0.0000 1.5665 0.0000 -5.7360
# 5 -16.4585 0.1978 -6.9914 0.0000 42.6614 0.0000
# 6 0.0000 0.0000 0.0000 -5.7360 0.0000 11.1558
#
#
#
# Elastic Compliance Matrix: (Units=1/GPa)
#
#
# Indices 1 2 3 4 5 6 
#
# 1 0.020866 -0.010295 -0.004012 0.000000 0.007440 0.000000
# 2 -0.010295 0.017578 -0.000586 0.000000 -0.004149 0.000000
# 3 -0.004012 -0.000586 0.008337 0.000000 -0.000179 0.000000
# 4 0.000000 0.000000 0.000000 -0.723165 0.000000 -0.371835
# 5 0.007440 -0.004149 -0.000179 0.000000 0.026301 0.000000
# 6 0.000000 0.000000 0.000000 -0.371835 0.000000 -0.101550
#
#
# Mechanical properties :
#
#
# Convention : Reuss Voigt Hill
#
# Bulk Modulus (GPa) = 58.83993 62.01772 60.42882
# Shear Modulus (GPa) = -6.98146 23.99104 8.50479
#
# Velocity S-wave (km/s) = -1.86676 3.46051 2.06038
# Velocity P-wave (km/s) = 4.97228 6.85004 5.98525
#
# Compressibility (1/GPa) = 0.01699526
#
# Stress axis : x y z
#
# Youngs Moduli (GPa) = 47.92524 56.88896 119.94577
#
# Poissons Ratio (x) = 0.58569 0.48122
# Poissons Ratio (y) = 0.49340 0.07024
# Poissons Ratio (z) = 0.19228 0.03331
#
# Static dielectric constant tensor:
#      x y z
#    x 3.482200 0.000000 -0.137070 
#    y 0.000000 3.264390 0.000000 
#    z -0.137070 0.000000 4.091410 
# 
# 
# High freq. dielectric constant tensor:
#      x y z
#    x 1.778330 0.000000 -0.012510 
#    y 0.000000 1.754490 0.000000 
#    z -0.012510 0.000000 1.803490 
# 
# From -- ./inp_files/46317.got.cif
#   From: 2010.06.25/outbox.cif.g09.slc.cpg/sg10_24_cif.got.tgz:46317.got - 2010.06.27 22:07:45.
