data_PCOD8062990
_publ_section_title
;
Structure prediction by ZEFSAII (Michael W. Deem and Ramdas Pophale) SiO2 
 PCOD8062990
Probable space group: P 2/M
;
_chemical_formula_sum "Si O2"
_cell_formula_units_Z 28
_cell_length_a 24.400321
_cell_length_b 9.312594
_cell_length_c 21.921426
_cell_angle_alpha 90.000000
_cell_angle_beta 162.190052
_cell_angle_gamma 90.000000
_cell_volume 1523.556510
_symmetry_space_group_name_H-M "P 2/M"
_symmetry_group_IT_number 10
_symmetry_cell_setting 'monoclinic'
loop_
_space_group_symop_operation_xyz
x,y,z
-x,y,-z
-x,-y,-z
x,-y,z
loop_
_atom_site_type_symbol
_atom_site_label
_atom_site_fract_x
_atom_site_fract_y
_atom_site_fract_z
Si Si1 0.671526 0.329368 0.514577
Si Si2 0.737809 0.833724 0.118815
Si Si3 0.587236 0.329377 0.654314
Si Si4 0.392099 0.834065 0.676350
Si Si5 0.209266 0.661330 0.709261
Si Si6 0.020157 0.329378 0.953079
Si Si7 0.856870 0.166275 0.475874
O O1 0.668301 0.500000 0.504894
O O2 0.518685 0.273284 0.398890
O O3 0.637846 0.263212 0.413533
O O4 0.861519 0.273284 0.741725
O O5 0.693566 0.742860 0.132438
O O6 0.932168 0.794557 0.296574
O O7 0.729230 0.000000 0.128689
O O8 0.587331 0.795971 0.909869
O O9 0.500000 0.266435 0.500000
O O10 0.575862 0.500000 0.639511
O O11 0.792147 0.276407 0.876439
O O12 0.235115 0.795979 0.557636
O O13 0.382318 0.000000 0.646970
O O14 0.285809 0.500000 0.785801
O O15 0.245267 0.742861 0.684124
O O16 0.000000 0.661353 0.500000
O O17 0.012218 0.500000 0.948570
O O18 0.000000 0.266430 0.000000
O O19 0.829831 0.000000 0.430382
#
# Coordination Sequence:
#
# PCOD8062990 Si02
#       7
#     4   4   4   4   4   4   4
#     4  10  20  32  49  75 102 128 163 206 250 295
#     4   9  18  34  54  72  95 132 174 208 243 293
#     4   9  15  26  47  75 102 126 156 198 245 292
#     4  10  22  37  51  70  99 136 174 208 242 292
#     4   9  17  30  51  80 107 129 158 207 263 300
#     4   9  15  26  47  75 102 126 156 198 245 292
#     4   9  18  34  54  72  95 132 174 208 243 293
#
# _framework density 18.378050999999999
#
# number of rings (size 3 to 8) (size 9 to 14) (size 15 to 20)
#    0.000    2.714    1.429    0.429    0.000    4.571 
#    0.000    2.857    0.000    0.857    0.000    0.000 
#    0.000    0.000    0.000    0.000    0.000    0.000 
#
# Total GULP energy -347169.161203 kJ/mol
# GULP energy per Si atom -12398.898614 kJ/mol
# Density = 1.833622 g / cm^3
# Si number density = 18.378051 Si / 1000 Ang^3
#
#
#
# Elastic Constant Matrix: (Units=GPa)
#
#
# Indices 1 2 3 4 5 6 
#
# 1 148.0490 52.3970 87.8483 0.0000 -10.0440 0.0000
# 2 52.3970 54.1880 40.5827 0.0000 -11.1944 0.0000
# 3 87.8483 40.5827 136.6741 0.0000 -0.8290 0.0000
# 4 0.0000 0.0000 0.0000 7.9572 0.0000 3.8819
# 5 -10.0440 -11.1944 -0.8290 0.0000 33.5342 0.0000
# 6 0.0000 0.0000 0.0000 3.8819 0.0000 3.8506
#
#
#
# Elastic Compliance Matrix: (Units=1/GPa)
#
#
# Indices 1 2 3 4 5 6 
#
# 1 0.013347 -0.008032 -0.006187 0.000000 0.001163 0.000000
# 2 -0.008032 0.030765 -0.003925 0.000000 0.007767 0.000000
# 3 -0.006187 -0.003925 0.012442 0.000000 -0.002856 0.000000
# 4 0.000000 0.000000 0.000000 0.247292 0.000000 -0.249300
# 5 0.001163 0.007767 -0.002856 0.000000 0.032691 0.000000
# 6 0.000000 0.000000 0.000000 -0.249300 0.000000 0.511026
#
#
# Mechanical properties :
#
#
# Convention : Reuss Voigt Hill
#
# Bulk Modulus (GPa) = 49.34555 77.84077 63.59316
# Shear Modulus (GPa) = 5.61415 19.60727 12.61071
#
# Velocity S-wave (km/s) = 1.74970 3.26986 2.62235
# Velocity P-wave (km/s) = 5.56691 7.53016 6.62170
#
# Compressibility (1/GPa) = 0.02026525
#
# Stress axis : x y z
#
# Youngs Moduli (GPa) = 74.92055 32.50409 80.37492
#
# Poissons Ratio (x) = 0.26108 0.49729
# Poissons Ratio (y) = 0.60178 0.31549
# Poissons Ratio (z) = 0.46354 0.12759
#
# Static dielectric constant tensor:
#      x y z
#    x 3.393910 0.000000 0.165720 
#    y 0.000000 3.088260 0.000000 
#    z 0.165720 0.000000 3.569170 
# 
# 
# High freq. dielectric constant tensor:
#      x y z
#    x 1.712920 0.000000 0.006910 
#    y 0.000000 1.673650 0.000000 
#    z 0.006910 0.000000 1.720220 
# 
# From -- ./inp_files/86478.got.cif
#   From: 2010.06.25/outbox.cif.g09.slc.cpg/sg10_44_cif.got.tgz:86478.got - 2010.06.27 22:07:45.
