data_PCOD8062637
_publ_section_title
;
Structure prediction by ZEFSAII (Michael W. Deem and Ramdas Pophale) SiO2 
 PCOD8062637
Probable space group: P 2/M
;
_chemical_formula_sum "Si O2"
_cell_formula_units_Z 32
_cell_length_a 12.382600
_cell_length_b 8.900160
_cell_length_c 14.623401
_cell_angle_alpha 90.000000
_cell_angle_beta 89.229298
_cell_angle_gamma 90.000000
_cell_volume 1611.457129
_symmetry_space_group_name_H-M "P 2/M"
_symmetry_group_IT_number 10
_symmetry_cell_setting 'monoclinic'
loop_
_space_group_symop_operation_xyz
x,y,z
-x,y,-z
-x,-y,-z
x,-y,z
loop_
_atom_site_type_symbol
_atom_site_label
_atom_site_fract_x
_atom_site_fract_y
_atom_site_fract_z
Si Si1 0.620250 0.820650 0.975304
Si Si2 0.613583 0.668458 0.450393
Si Si3 0.888586 0.178710 0.295402
Si Si4 0.895052 0.322676 0.675593
Si Si5 0.477695 0.170028 0.713301
Si Si6 0.678718 0.676127 0.784449
Si Si7 0.713794 0.829805 0.156457
Si Si8 0.815767 0.177311 0.499971
O O1 0.666570 0.758134 0.880786
O O2 0.618635 0.000000 0.969429
O O3 0.500000 0.760416 0.000000
O O4 0.703939 0.763522 0.053798
O O5 0.500000 0.664940 0.500000
O O6 0.651174 0.500000 0.424727
O O7 0.605578 0.770754 0.361123
O O8 0.699121 0.746034 0.517299
O O9 0.801588 0.246715 0.223171
O O10 0.854121 0.223879 0.398403
O O11 0.001302 0.260027 0.271419
O O12 0.901172 0.000000 0.287755
O O13 0.902695 0.500000 0.661178
O O14 0.791170 0.277568 0.736690
O O15 0.894586 0.242998 0.576311
O O16 0.583070 0.273486 0.717743
O O17 0.409747 0.177410 0.807070
O O18 0.513157 0.000000 0.690208
O O19 0.670523 0.500000 0.800393
O O20 0.753049 0.000000 0.150181
O O21 0.808163 0.000000 0.512460
#
# Coordination Sequence:
#
# PCOD8062637 Si02
#       8
#     4   4   4   4   4   4   4   4
#     4  10  19  36  64  92 118 152 193 239 295 358
#     4  11  23  36  51  80 123 162 195 237 291 352
#     4  10  21  40  63  87 117 152 198 250 294 346
#     4  11  25  42  58  82 120 161 201 247 297 349
#     4  11  20  36  60  85 116 153 195 241 291 350
#     4  11  24  40  57  85 124 159 195 244 298 354
#     4   9  18  36  60  89 119 144 182 242 296 341
#     4  11  22  38  62  89 115 152 202 251 296 347
#
# _framework density 19.857804999999999
#
# number of rings (size 3 to 8) (size 9 to 14) (size 15 to 20)
#    0.000    1.500    2.500    3.000    0.000    8.750 
#    0.000    1.250    0.000    3.750    0.000    0.000 
#    0.000    0.000    0.000    0.000    0.000    0.000 
#
# Total GULP energy -396779.248362 kJ/mol
# GULP energy per Si atom -12399.351511 kJ/mol
# Density = 1.981261 g / cm^3
# Si number density = 19.857805 Si / 1000 Ang^3
#
#
#
# Elastic Constant Matrix: (Units=GPa)
#
#
# Indices 1 2 3 4 5 6 
#
# 1 121.5551 32.0261 39.5571 0.0000 17.8726 0.0000
# 2 32.0261 54.8434 30.6257 0.0000 3.6614 0.0000
# 3 39.5571 30.6257 97.3821 0.0000 15.1520 0.0000
# 4 0.0000 0.0000 0.0000 20.2618 0.0000 -3.3509
# 5 17.8726 3.6614 15.1520 0.0000 25.0380 0.0000
# 6 0.0000 0.0000 0.0000 -3.3509 0.0000 23.4464
#
#
#
# Elastic Compliance Matrix: (Units=1/GPa)
#
#
# Indices 1 2 3 4 5 6 
#
# 1 0.011058 -0.004935 -0.002013 0.000000 -0.005953 0.000000
# 2 -0.004935 0.024347 -0.006233 0.000000 0.003735 0.000000
# 3 -0.002013 -0.006233 0.014000 0.000000 -0.006123 0.000000
# 4 0.000000 0.000000 0.000000 0.050549 0.000000 0.007224
# 5 -0.005953 0.003735 -0.006123 0.000000 0.047348 0.000000
# 6 0.000000 0.000000 0.000000 0.007224 0.000000 0.043683
#
#
# Mechanical properties :
#
#
# Convention : Reuss Voigt Hill
#
# Bulk Modulus (GPa) = 43.40168 53.13316 48.26742
# Shear Modulus (GPa) = 22.21942 25.18735 23.70339
#
# Velocity S-wave (km/s) = 3.34866 3.56530 3.45868
# Velocity P-wave (km/s) = 6.07084 6.61539 6.34896
#
# Compressibility (1/GPa) = 0.02304058
#
# Stress axis : x y z
#
# Youngs Moduli (GPa) = 90.43630 41.07241 71.43020
#
# Poissons Ratio (x) = 0.20271 0.14380
# Poissons Ratio (y) = 0.44634 0.44524
# Poissons Ratio (z) = 0.18207 0.25602
#
# Static dielectric constant tensor:
#      x y z
#    x 3.704620 0.000000 0.245310 
#    y 0.000000 3.507530 0.000000 
#    z 0.245310 0.000000 3.807210 
# 
# 
# High freq. dielectric constant tensor:
#      x y z
#    x 1.775350 0.000000 0.013360 
#    y 0.000000 1.762430 0.000000 
#    z 0.013360 0.000000 1.774170 
# 
# From -- ./inp_files/49947.got.cif
#   From: 2010.06.25/outbox.cif.g09.slc.cpg/sg10_25_cif.got.tgz:49947.got - 2010.06.27 22:07:45.
