data_PCOD8062475
_publ_section_title
;
Structure prediction by ZEFSAII (Michael W. Deem and Ramdas Pophale) SiO2 
 PCOD8062475
Probable space group: P 2/M
;
_chemical_formula_sum "Si O2"
_cell_formula_units_Z 32
_cell_length_a 16.516333
_cell_length_b 13.723658
_cell_length_c 13.457106
_cell_angle_alpha 90.000000
_cell_angle_beta 36.867686
_cell_angle_gamma 90.000000
_cell_volume 1830.054772
_symmetry_space_group_name_H-M "P 2/M"
_symmetry_group_IT_number 10
_symmetry_cell_setting 'monoclinic'
loop_
_space_group_symop_operation_xyz
x,y,z
-x,y,-z
-x,-y,-z
x,-y,z
loop_
_atom_site_type_symbol
_atom_site_label
_atom_site_fract_x
_atom_site_fract_y
_atom_site_fract_z
Si Si1 0.102696 0.613821 0.479664
Si Si2 0.992687 0.706184 0.784812
Si Si3 0.381335 0.704713 0.189126
Si Si4 0.798005 0.386865 0.286582
Si Si5 0.971481 0.889671 0.688231
Si Si6 0.221234 0.889045 0.299181
Si Si7 0.740795 0.613388 0.119128
Si Si8 0.449407 0.612648 0.324893
O O1 0.083834 0.500000 0.509165
O O2 0.073160 0.658946 0.614929
O O3 0.251605 0.638063 0.294880
O O4 0.000000 0.658293 0.500000
O O5 0.079523 0.681647 0.797344
O O6 0.976751 0.821276 0.780086
O O7 0.842255 0.665344 0.943741
O O8 0.345191 0.817749 0.203419
O O9 0.428490 0.687373 0.255347
O O10 0.500000 0.670440 0.000000
O O11 0.843822 0.500000 0.245896
O O12 0.765071 0.352592 0.207890
O O13 0.665777 0.369695 0.481482
O O14 0.104005 0.869905 0.493394
O O15 0.838792 0.868357 0.751716
O O16 0.968492 0.000000 0.730268
O O17 0.274085 0.000000 0.254208
O O18 0.767328 0.500000 0.082429
O O19 0.589378 0.640817 0.238653
O O20 0.447540 0.500000 0.289642
#
# Coordination Sequence:
#
# PCOD8062475 Si02
#       8
#     4   4   4   4   4   4   4   4
#     4  11  23  36  51  75 111 153 183 210 257 322
#     4  12  20  33  57  81 109 133 177 227 272 317
#     4  12  24  35  53  80 113 147 182 220 265 324
#     4  10  19  36  57  78 106 141 184 228 267 310
#     4   9  18  33  58  81 103 138 179 221 271 326
#     4   9  18  36  56  77 104 138 183 229 268 310
#     4  10  22  35  54  81 106 141 184 227 269 311
#     4  10  21  37  53  74 110 151 184 215 259 320
#
# _framework density 17.485814999999999
#
# number of rings (size 3 to 8) (size 9 to 14) (size 15 to 20)
#    0.000    1.625    2.500    3.750    3.500    3.750 
#    0.000    0.000    0.000    1.500    0.000    0.000 
#    0.000    5.000    0.000    0.000    0.000    0.000 
#
# Total GULP energy -396849.782574 kJ/mol
# GULP energy per Si atom -12401.555705 kJ/mol
# Density = 1.744602 g / cm^3
# Si number density = 17.485815 Si / 1000 Ang^3
#
#
#
# Elastic Constant Matrix: (Units=GPa)
#
#
# Indices 1 2 3 4 5 6 
#
# 1 112.3675 52.4109 28.8482 0.0000 -4.1499 0.0000
# 2 52.4109 78.3353 27.3282 0.0000 1.7634 0.0000
# 3 28.8482 27.3282 80.5814 0.0000 -5.2315 0.0000
# 4 0.0000 0.0000 0.0000 22.9031 0.0000 -3.1557
# 5 -4.1499 1.7634 -5.2315 0.0000 19.1070 0.0000
# 6 0.0000 0.0000 0.0000 -3.1557 0.0000 23.8897
#
#
#
# Elastic Compliance Matrix: (Units=1/GPa)
#
#
# Indices 1 2 3 4 5 6 
#
# 1 0.013394 -0.008431 -0.001727 0.000000 0.003214 0.000000
# 2 -0.008431 0.019927 -0.004050 0.000000 -0.004779 0.000000
# 3 -0.001727 -0.004050 0.014662 0.000000 0.004013 0.000000
# 4 0.000000 0.000000 0.000000 0.044472 0.000000 0.005874
# 5 0.003214 -0.004779 0.004013 0.000000 0.054575 0.000000
# 6 0.000000 0.000000 0.000000 0.005874 0.000000 0.042635
#
#
# Mechanical properties :
#
#
# Convention : Reuss Voigt Hill
#
# Bulk Modulus (GPa) = 51.10687 54.27318 52.69002
# Shear Modulus (GPa) = 22.26149 24.02642 23.14396
#
# Velocity S-wave (km/s) = 3.57195 3.71084 3.64206
# Velocity P-wave (km/s) = 6.80462 7.03322 6.91987
#
# Compressibility (1/GPa) = 0.01956684
#
# Stress axis : x y z
#
# Youngs Moduli (GPa) = 74.66037 50.18304 68.20302
#
# Poissons Ratio (x) = 0.42310 0.11779
# Poissons Ratio (y) = 0.62948 0.27622
# Poissons Ratio (z) = 0.12894 0.20324
#
# Static dielectric constant tensor:
#      x y z
#    x 3.380750 0.000000 -0.062050 
#    y 0.000000 3.224190 0.000000 
#    z -0.062050 0.000000 3.205200 
# 
# 
# High freq. dielectric constant tensor:
#      x y z
#    x 1.677710 0.000000 -0.008960 
#    y 0.000000 1.657730 0.000000 
#    z -0.008960 0.000000 1.673260 
# 
# From -- ./inp_files/35126.got.cif
#   From: 2010.06.25/outbox.cif.g09.slc.cpg/sg10_18_cif.got.tgz:35126.got - 2010.06.27 22:07:45.
