data_PCOD8062454
_publ_section_title
;
Structure prediction by ZEFSAII (Michael W. Deem and Ramdas Pophale) SiO2 
 PCOD8062454
Probable space group: P 2/M
;
_chemical_formula_sum "Si O2"
_cell_formula_units_Z 20
_cell_length_a 9.417067
_cell_length_b 14.888749
_cell_length_c 12.049305
_cell_angle_alpha 90.000000
_cell_angle_beta 37.203264
_cell_angle_gamma 90.000000
_cell_volume 1021.494344
_symmetry_space_group_name_H-M "P 2/M"
_symmetry_group_IT_number 10
_symmetry_cell_setting 'monoclinic'
loop_
_space_group_symop_operation_xyz
x,y,z
-x,y,-z
-x,-y,-z
x,-y,z
loop_
_atom_site_type_symbol
_atom_site_label
_atom_site_fract_x
_atom_site_fract_y
_atom_site_fract_z
Si Si1 0.000000 0.763742 0.000000
Si Si2 0.714591 0.310089 0.981877
Si Si3 0.500000 0.150666 0.000000
Si Si4 0.389740 0.896694 0.688417
Si Si5 0.214321 0.394756 0.287583
Si Si6 0.752449 0.901014 0.637151
O O1 0.873764 0.696318 0.992343
O O2 0.829053 0.829962 0.173530
O O3 0.453824 0.345305 0.176356
O O4 0.690845 0.210911 0.945691
O O5 0.835178 0.372464 0.811843
O O6 0.630987 0.087973 0.831588
O O7 0.500000 0.894169 0.500000
O O8 0.578859 0.854509 0.657318
O O9 0.319906 0.000000 0.763840
O O10 0.254157 0.500000 0.276475
O O11 0.000000 0.362445 0.500000
O O12 0.000000 0.847928 0.500000
O O13 0.809377 0.000000 0.553651
#
# Coordination Sequence:
#
# PCOD8062454 Si02
#       6
#     2   4   2   4   4   4
#     4  12  23  40  53  84 120 158 184 236 287 338
#     4  10  22  35  58  88 117 145 187 223 281 335
#     4  10  19  36  53  78 108 146 182 234 289 332
#     4  10  23  40  56  76 109 159 205 241 286 338
#     4   9  19  41  68  89 113 147 182 222 273 338
#     4  10  21  35  54  78 103 140 196 250 287 326
#
# _framework density 19.579159000000001
#
# number of rings (size 3 to 8) (size 9 to 14) (size 15 to 20)
#    0.000    2.200    2.000    1.800    2.800    4.800 
#    0.000    2.000    0.000    2.400    0.000    0.000 
#    0.000    0.000    0.000    0.000    0.000    0.000 
#
# Total GULP energy -247879.994909 kJ/mol
# GULP energy per Si atom -12393.999745 kJ/mol
# Density = 1.953460 g / cm^3
# Si number density = 19.579159 Si / 1000 Ang^3
#
#
#
# Elastic Constant Matrix: (Units=GPa)
#
#
# Indices 1 2 3 4 5 6 
#
# 1 153.0351 34.0162 59.8343 0.0000 0.8918 0.0000
# 2 34.0162 58.3829 26.2855 0.0000 -4.2461 0.0000
# 3 59.8343 26.2855 142.1282 0.0000 2.9871 0.0000
# 4 0.0000 0.0000 0.0000 28.6460 0.0000 9.1712
# 5 0.8918 -4.2461 2.9871 0.0000 24.6669 0.0000
# 6 0.0000 0.0000 0.0000 9.1712 0.0000 20.0613
#
#
#
# Elastic Compliance Matrix: (Units=1/GPa)
#
#
# Indices 1 2 3 4 5 6 
#
# 1 0.008483 -0.003691 -0.002876 0.000000 -0.000594 0.000000
# 2 -0.003691 0.020622 -0.002344 0.000000 0.003967 0.000000
# 3 -0.002876 -0.002344 0.008709 0.000000 -0.001354 0.000000
# 4 0.000000 0.000000 0.000000 0.040894 0.000000 -0.018695
# 5 -0.000594 0.003967 -0.001354 0.000000 0.041408 0.000000
# 6 0.000000 0.000000 0.000000 -0.018695 0.000000 0.058394
#
#
# Mechanical properties :
#
#
# Convention : Reuss Voigt Hill
#
# Bulk Modulus (GPa) = 50.01766 65.97981 57.99874
# Shear Modulus (GPa) = 24.63111 30.23552 27.43331
#
# Velocity S-wave (km/s) = 3.55072 3.93398 3.74725
# Velocity P-wave (km/s) = 6.51245 7.37612 6.95770
#
# Compressibility (1/GPa) = 0.01999294
#
# Stress axis : x y z
#
# Youngs Moduli (GPa) = 117.88585 48.49115 114.82910
#
# Poissons Ratio (x) = 0.17897 0.33026
# Poissons Ratio (y) = 0.43508 0.26911
# Poissons Ratio (z) = 0.33905 0.11364
#
# Static dielectric constant tensor:
#      x y z
#    x 3.719580 0.000000 0.017570 
#    y 0.000000 3.382730 0.000000 
#    z 0.017570 0.000000 3.685860 
# 
# 
# High freq. dielectric constant tensor:
#      x y z
#    x 1.756290 0.000000 0.004190 
#    y 0.000000 1.744730 0.000000 
#    z 0.004190 0.000000 1.768880 
# 
# From -- ./inp_files/43204.got.cif
#   From: 2010.06.25/outbox.cif.g09.slc.cpg/sg10_22_cif.got.tgz:43204.got - 2010.06.27 22:07:45.
