data_PCOD8062834
_publ_section_title
;
Structure prediction by ZEFSAII (Michael W. Deem and Ramdas Pophale) SiO2 
 PCOD8062834
Probable space group: P 2/M
;
_chemical_formula_sum "Si O2"
_cell_formula_units_Z 32
_cell_length_a 21.101099
_cell_length_b 9.340744
_cell_length_c 21.101074
_cell_angle_alpha 90.000000
_cell_angle_beta 153.445615
_cell_angle_gamma 90.000000
_cell_volume 1859.278165
_symmetry_space_group_name_H-M "P 2/M"
_symmetry_group_IT_number 10
_symmetry_cell_setting 'monoclinic'
loop_
_space_group_symop_operation_xyz
x,y,z
-x,y,-z
-x,-y,-z
x,-y,z
loop_
_atom_site_type_symbol
_atom_site_label
_atom_site_fract_x
_atom_site_fract_y
_atom_site_fract_z
Si Si1 0.012483 0.665535 0.810862
Si Si2 0.625773 0.330452 0.570572
Si Si3 0.929428 0.669549 0.874227
Si Si4 0.241256 0.832543 0.936279
Si Si5 0.563718 0.167457 0.258743
Si Si6 0.689139 0.665536 0.487519
Si Si7 0.627913 0.660510 0.199562
Si Si8 0.699560 0.660511 0.127913
O O1 0.053816 0.500000 0.837557
O O2 0.018001 0.706126 0.890254
O O3 0.856578 0.695440 0.643423
O O4 0.126732 0.765160 0.880140
O O5 0.500000 0.262167 0.500000
O O6 0.629146 0.500000 0.581897
O O7 0.772187 0.264835 0.727813
O O8 0.609747 0.293876 0.482000
O O9 0.918106 0.500000 0.870854
O O10 0.000000 0.737831 0.000000
O O11 0.397361 0.797175 0.102637
O O12 0.214042 0.000000 0.907096
O O13 0.218422 0.767605 0.845501
O O14 0.619858 0.234843 0.373267
O O15 0.654497 0.232393 0.281578
O O16 0.592902 0.000000 0.285958
O O17 0.662445 0.500000 0.446187
O O18 0.672667 0.500000 0.260104
O O19 0.718536 0.708382 0.218537
O O20 0.464705 0.662583 0.035296
O O21 0.760102 0.500000 0.172667
#
# Coordination Sequence:
#
# PCOD8062834 Si02
#       8
#     4   4   4   4   4   4   4   4
#     4   9  18  32  49  69  94 125 159 193 232 280
#     4   8  14  25  42  66  93 117 145 185 232 279
#     4   8  14  25  42  66  93 117 145 185 232 279
#     4  10  20  31  45  69  98 126 158 195 233 275
#     4  10  20  31  45  69  98 126 158 195 233 275
#     4   9  18  32  49  69  94 125 159 193 232 280
#     4   8  14  26  45  68  93 121 153 190 233 279
#     4   8  14  26  45  68  93 121 153 190 233 279
#
# _framework density 17.210979999999999
#
# number of rings (size 3 to 8) (size 9 to 14) (size 15 to 20)
#    0.000    3.250    0.000    3.000    0.000    3.500 
#    0.000    5.000    0.000    1.500    0.000    5.250 
#    0.000    0.000    0.000    0.000    0.000    0.000 
#
# Total GULP energy -396595.833305 kJ/mol
# GULP energy per Si atom -12393.619791 kJ/mol
# Density = 1.717181 g / cm^3
# Si number density = 17.210980 Si / 1000 Ang^3
#
#
#
# Elastic Constant Matrix: (Units=GPa)
#
#
# Indices 1 2 3 4 5 6 
#
# 1 160.6489 71.7522 66.5793 0.0000 -14.8375 0.0000
# 2 71.7522 80.2307 44.1590 0.0000 -7.9657 0.0000
# 3 66.5793 44.1590 60.7097 0.0000 -14.0095 0.0000
# 4 0.0000 0.0000 0.0000 18.5840 0.0000 4.1977
# 5 -14.8375 -7.9657 -14.0095 0.0000 21.5707 0.0000
# 6 0.0000 0.0000 0.0000 4.1977 0.0000 4.0451
#
#
#
# Elastic Compliance Matrix: (Units=1/GPa)
#
#
# Indices 1 2 3 4 5 6 
#
# 1 0.013105 -0.006371 -0.009646 0.000000 0.000397 0.000000
# 2 -0.006371 0.024001 -0.011100 0.000000 -0.002729 0.000000
# 3 -0.009646 -0.011100 0.038402 0.000000 0.014207 0.000000
# 4 0.000000 0.000000 0.000000 0.070284 0.000000 -0.072936
# 5 0.000397 -0.002729 0.014207 0.000000 0.054852 0.000000
# 6 0.000000 0.000000 0.000000 -0.072936 0.000000 0.322897
#
#
# Mechanical properties :
#
#
# Convention : Reuss Voigt Hill
#
# Bulk Modulus (GPa) = 47.00595 74.06336 60.53466
# Shear Modulus (GPa) = 8.54897 16.77988 12.66443
#
# Velocity S-wave (km/s) = 2.23113 3.12581 2.71557
# Velocity P-wave (km/s) = 5.83165 7.49357 6.71423
#
# Compressibility (1/GPa) = 0.02127390
#
# Stress axis : x y z
#
# Youngs Moduli (GPa) = 76.30843 41.66565 26.04006
#
# Poissons Ratio (x) = 0.26547 0.25118
# Poissons Ratio (y) = 0.48620 0.28904
# Poissons Ratio (z) = 0.73605 0.46248
#
# Static dielectric constant tensor:
#      x y z
#    x 3.539980 0.000000 -0.117330 
#    y 0.000000 2.966030 0.000000 
#    z -0.117330 0.000000 3.133460 
# 
# 
# High freq. dielectric constant tensor:
#      x y z
#    x 1.677800 0.000000 -0.011800 
#    y 0.000000 1.634640 0.000000 
#    z -0.011800 0.000000 1.636930 
# 
# From -- ./inp_files/86139.got.cif
#   From: 2010.06.25/outbox.cif.g09.slc.cpg/sg10_44_cif.got.tgz:86139.got - 2010.06.27 22:07:45.
