data_PCOD8062561
_publ_section_title
;
Structure prediction by ZEFSAII (Michael W. Deem and Ramdas Pophale) SiO2 
 PCOD8062561
Probable space group: P 2/M
;
_chemical_formula_sum "Si O2"
_cell_formula_units_Z 28
_cell_length_a 9.766192
_cell_length_b 9.089724
_cell_length_c 29.260557
_cell_angle_alpha 90.000000
_cell_angle_beta 147.189077
_cell_angle_gamma 90.000000
_cell_volume 1407.512976
_symmetry_space_group_name_H-M "P 2/M"
_symmetry_group_IT_number 10
_symmetry_cell_setting 'monoclinic'
loop_
_space_group_symop_operation_xyz
x,y,z
-x,y,-z
-x,-y,-z
x,-y,z
loop_
_atom_site_type_symbol
_atom_site_label
_atom_site_fract_x
_atom_site_fract_y
_atom_site_fract_z
Si Si1 0.621077 0.826769 0.434684
Si Si2 0.988361 0.328627 0.135811
Si Si3 0.077457 0.174498 0.313455
Si Si4 0.546536 0.328911 0.322005
Si Si5 0.930872 0.826437 0.371584
Si Si6 0.880556 0.827996 0.014608
Si Si7 0.697285 0.827604 0.129759
O O1 0.358330 0.768719 0.381833
O O2 0.669597 0.746201 0.400712
O O3 0.840537 0.783404 0.530978
O O4 0.614775 0.000000 0.423233
O O5 0.929531 0.500000 0.114252
O O6 0.015132 0.259547 0.093081
O O7 0.759937 0.253606 0.099776
O O8 0.247826 0.298882 0.235700
O O9 0.996967 0.234846 0.340115
O O10 0.883967 0.233761 0.221152
O O11 0.073658 0.000000 0.313303
O O12 0.609275 0.500000 0.340568
O O13 0.676285 0.255948 0.314463
O O14 0.881222 0.000000 0.357609
O O15 0.931913 0.000000 0.036526
O O16 0.583576 0.791188 0.932162
O O17 0.000000 0.775715 0.000000
O O18 0.735445 0.000000 0.131685
#
# Coordination Sequence:
#
# PCOD8062561 Si02
#       7
#     4   4   4   4   4   4   4
#     4  10  19  36  60  86 113 148 194 242 291 341
#     4  11  24  41  60  84 116 157 198 233 280 339
#     4   9  18  34  59  88 116 146 187 239 288 337
#     4  11  24  39  55  81 117 157 198 236 281 340
#     4  10  21  35  58  88 116 149 192 241 294 344
#     4  10  23  40  63  94 121 145 183 234 288 347
#     4  10  20  38  63  89 115 150 192 233 283 340
#
# _framework density 19.893245
#
# number of rings (size 3 to 8) (size 9 to 14) (size 15 to 20)
#    0.000    1.857    1.429    2.143    2.000    8.286 
#    0.000    1.429    0.000    1.714    0.000    0.000 
#    0.000    0.000    0.000    0.000    0.000    0.000 
#
# Total GULP energy -347330.596495 kJ/mol
# GULP energy per Si atom -12404.664161 kJ/mol
# Density = 1.984797 g / cm^3
# Si number density = 19.893245 Si / 1000 Ang^3
#
#
#
# Elastic Constant Matrix: (Units=GPa)
#
#
# Indices 1 2 3 4 5 6 
#
# 1 147.2217 42.0670 35.4858 0.0000 -11.2340 0.0000
# 2 42.0670 56.3071 37.7316 0.0000 -4.5324 0.0000
# 3 35.4858 37.7316 75.5357 0.0000 -9.8798 0.0000
# 4 0.0000 0.0000 0.0000 19.8655 0.0000 8.5625
# 5 -11.2340 -4.5324 -9.8798 0.0000 36.2980 0.0000
# 6 0.0000 0.0000 0.0000 8.5625 0.0000 4.0476
#
#
#
# Elastic Compliance Matrix: (Units=1/GPa)
#
#
# Indices 1 2 3 4 5 6 
#
# 1 0.008819 -0.005749 -0.001045 0.000000 0.001727 0.000000
# 2 -0.005749 0.030447 -0.012695 0.000000 -0.001433 0.000000
# 3 -0.001045 -0.012695 0.020553 0.000000 0.003686 0.000000
# 4 0.000000 0.000000 0.000000 0.570826 0.000000 -1.207554
# 5 0.001727 -0.001433 0.003686 0.000000 0.028908 0.000000
# 6 0.000000 0.000000 0.000000 -1.207554 0.000000 2.801577
#
#
# Mechanical properties :
#
#
# Convention : Reuss Voigt Hill
#
# Bulk Modulus (GPa) = 47.98557 56.62593 52.30575
# Shear Modulus (GPa) = 1.42570 22.96088 12.19329
#
# Velocity S-wave (km/s) = 0.84748 3.40104 2.47844
# Velocity P-wave (km/s) = 5.01314 6.62944 5.87712
#
# Compressibility (1/GPa) = 0.02083960
#
# Stress axis : x y z
#
# Youngs Moduli (GPa) = 113.39174 32.84422 48.65354
#
# Poissons Ratio (x) = 0.18883 0.05086
# Poissons Ratio (y) = 0.65191 0.61767
# Poissons Ratio (z) = 0.11854 0.41697
#
# Static dielectric constant tensor:
#      x y z
#    x 3.807470 0.000000 -0.004660 
#    y 0.000000 3.315110 0.000000 
#    z -0.004660 0.000000 3.674940 
# 
# 
# High freq. dielectric constant tensor:
#      x y z
#    x 1.790450 0.000000 0.000650 
#    y 0.000000 1.747690 0.000000 
#    z 0.000650 0.000000 1.783980 
# 
# From -- ./inp_files/36949.got.cif
#   From: 2010.06.25/outbox.cif.g09.slc.cpg/sg10_19_cif.got.tgz:36949.got - 2010.06.27 22:07:45.
