data_PCOD8062136
_publ_section_title
;
Structure prediction by ZEFSAII (Michael W. Deem and Ramdas Pophale) SiO2 
 PCOD8062136
Probable space group: P 2/M
;
_chemical_formula_sum "Si O2"
_cell_formula_units_Z 24
_cell_length_a 11.559734
_cell_length_b 8.890541
_cell_length_c 21.935492
_cell_angle_alpha 90.000000
_cell_angle_beta 31.199609
_cell_angle_gamma 90.000000
_cell_volume 1167.806585
_symmetry_space_group_name_H-M "P 2/M"
_symmetry_group_IT_number 10
_symmetry_cell_setting 'monoclinic'
loop_
_space_group_symop_operation_xyz
x,y,z
-x,y,-z
-x,-y,-z
x,-y,z
loop_
_atom_site_type_symbol
_atom_site_label
_atom_site_fract_x
_atom_site_fract_y
_atom_site_fract_z
Si Si1 0.052950 0.821863 0.325355
Si Si2 0.449879 0.177445 0.453332
Si Si3 0.339698 0.322534 0.754555
Si Si4 0.548097 0.177573 0.770640
Si Si5 0.111599 0.823665 0.043199
Si Si6 0.748096 0.178715 0.888204
O O1 0.224161 0.764265 0.299937
O O2 0.119814 0.754724 0.229239
O O3 0.800211 0.773018 0.453352
O O4 0.071522 0.000000 0.313032
O O5 0.500000 0.227295 0.500000
O O6 0.619218 0.260806 0.331957
O O7 0.487960 0.000000 0.429132
O O8 0.343672 0.500000 0.752099
O O9 0.530662 0.260688 0.713785
O O10 0.101499 0.263862 0.887632
O O11 0.556330 0.000000 0.755382
O O12 0.338969 0.223055 0.907165
O O13 0.127897 0.773660 0.106159
O O14 0.066495 0.000000 0.055560
O O15 0.733204 0.000000 0.890966
O O16 0.500000 0.247244 0.000000
#
# Coordination Sequence:
#
# PCOD8062136 Si02
#       6
#     4   4   4   4   4   4
#     4   9  17  31  56  90 120 145 179 232 291 340
#     4  10  21  40  65  90 114 143 186 237 286 341
#     4  12  26  40  55  78 115 160 199 235 280 336
#     4  10  20  36  59  87 116 148 190 239 289 339
#     4  10  19  34  60  89 117 149 189 239 289 339
#     4   9  14  26  53  91 122 138 167 224 290 343
#
# _framework density 20.551348999999998
#
# number of rings (size 3 to 8) (size 9 to 14) (size 15 to 20)
#    0.000    2.000    1.667    3.000    0.000    6.333 
#    0.000    4.167    0.000    1.500    0.000    0.000 
#    0.000    0.000    0.000    0.000    0.000    0.000 
#
# Total GULP energy -297609.625014 kJ/mol
# GULP energy per Si atom -12400.401042 kJ/mol
# Density = 2.050457 g / cm^3
# Si number density = 20.551349 Si / 1000 Ang^3
#
#
#
# Elastic Constant Matrix: (Units=GPa)
#
#
# Indices 1 2 3 4 5 6 
#
# 1 123.5148 35.9688 34.9741 0.0000 -11.0552 0.0000
# 2 35.9688 52.9320 30.3856 0.0000 1.1635 0.0000
# 3 34.9741 30.3856 86.9043 0.0000 -11.6386 0.0000
# 4 0.0000 0.0000 0.0000 5.0340 0.0000 4.2975
# 5 -11.0552 1.1635 -11.6386 0.0000 36.9391 0.0000
# 6 0.0000 0.0000 0.0000 4.2975 0.0000 4.3302
#
#
#
# Elastic Compliance Matrix: (Units=1/GPa)
#
#
# Indices 1 2 3 4 5 6 
#
# 1 0.010681 -0.006347 -0.001696 0.000000 0.002862 0.000000
# 2 -0.006347 0.027849 -0.007887 0.000000 -0.005262 0.000000
# 3 -0.001696 -0.007887 0.015569 0.000000 0.004646 0.000000
# 4 0.000000 0.000000 0.000000 1.300431 0.000000 -1.290609
# 5 0.002862 -0.005262 0.004646 0.000000 0.029558 0.000000
# 6 0.000000 0.000000 0.000000 -1.290609 0.000000 1.511799
#
#
# Mechanical properties :
#
#
# Convention : Reuss Voigt Hill
#
# Bulk Modulus (GPa) = 44.96822 51.77867 48.37344
# Shear Modulus (GPa) = 1.70348 20.06216 10.88282
#
# Velocity S-wave (km/s) = 0.91142 3.12780 2.30368
# Velocity P-wave (km/s) = 4.79958 6.18819 5.53758
#
# Compressibility (1/GPa) = 0.02223793
#
# Stress axis : x y z
#
# Youngs Moduli (GPa) = 93.62399 35.90805 64.22834
#
# Poissons Ratio (x) = 0.22793 0.10892
# Poissons Ratio (y) = 0.59428 0.50660
# Poissons Ratio (z) = 0.15877 0.28322
#
# Static dielectric constant tensor:
#      x y z
#    x 3.996480 0.000000 -0.064320 
#    y 0.000000 3.078340 0.000000 
#    z -0.064320 0.000000 3.834790 
# 
# 
# High freq. dielectric constant tensor:
#      x y z
#    x 1.822500 0.000000 -0.003450 
#    y 0.000000 1.737180 0.000000 
#    z -0.003450 0.000000 1.809000 
# 
# From -- ./inp_files/88609.got.cif
#   From: 2010.06.25/outbox.cif.g09.slc.cpg/sg10_45_cif.got.tgz:88609.got - 2010.06.27 22:07:45.
