data_PCOD8062951
_publ_section_title
;
Structure prediction by ZEFSAII (Michael W. Deem and Ramdas Pophale) SiO2 
 PCOD8062951
Probable space group: P 2/M
;
_chemical_formula_sum "Si O2"
_cell_formula_units_Z 32
_cell_length_a 17.771389
_cell_length_b 9.447135
_cell_length_c 19.016837
_cell_angle_alpha 90.000000
_cell_angle_beta 33.567378
_cell_angle_gamma 90.000000
_cell_volume 1765.305603
_symmetry_space_group_name_H-M "P 2/M"
_symmetry_group_IT_number 10
_symmetry_cell_setting 'monoclinic'
loop_
_space_group_symop_operation_xyz
x,y,z
-x,y,-z
-x,-y,-z
x,-y,z
loop_
_atom_site_type_symbol
_atom_site_label
_atom_site_fract_x
_atom_site_fract_y
_atom_site_fract_z
Si Si1 0.695233 0.163256 0.215488
Si Si2 0.935962 0.337059 0.973067
Si Si3 0.358196 0.334103 0.327701
Si Si4 0.294123 0.156662 0.159391
Si Si5 0.178554 0.163296 0.731367
Si Si6 0.379089 0.166219 0.448331
Si Si7 0.480982 0.157733 0.895304
Si Si8 0.854044 0.664215 0.627404
O O1 0.740495 0.187108 0.259918
O O2 0.536983 0.209211 0.336318
O O3 0.713817 0.000000 0.178375
O O4 0.788735 0.258287 0.090327
O O5 0.915635 0.500000 0.964734
O O6 0.040726 0.258329 0.837987
O O7 0.000000 0.329386 0.000000
O O8 0.378355 0.500000 0.324738
O O9 0.321628 0.256431 0.428176
O O10 0.495089 0.268863 0.186218
O O11 0.238970 0.296863 0.366299
O O12 0.412843 0.166624 0.124217
O O13 0.184941 0.270982 0.267239
O O14 0.230720 0.000000 0.210181
O O15 0.339077 0.192926 0.044630
O O16 0.284297 0.208671 0.588044
O O17 0.133921 0.000000 0.757599
O O18 0.366639 0.000000 0.442167
O O19 0.480067 0.000000 0.862897
O O20 0.857718 0.500000 0.637961
O O21 0.000000 0.729912 0.500000
#
# Coordination Sequence:
#
# PCOD8062951 Si02
#       8
#     4   4   4   4   4   4   4   4
#     4   9  17  31  52  76 100 129 169 214 254 295
#     4   9  17  29  47  73 103 132 163 204 253 298
#     4  10  20  32  48  70  96 128 163 197 242 299
#     4   8  14  25  45  72  93 113 144 188 235 277
#     4   9  17  31  52  76 100 131 173 213 250 297
#     4  10  20  33  51  74 102 134 167 209 257 301
#     4   8  14  27  46  67  93 118 146 186 234 282
#     4   9  18  32  49  69  95 126 160 198 239 286
#
# _framework density 18.127172999999999
#
# number of rings (size 3 to 8) (size 9 to 14) (size 15 to 20)
#    0.000    3.000    0.000    1.875    0.000    5.250 
#    0.000    2.500    2.750    3.750    0.000    0.000 
#    0.000    0.000    0.000    0.000    0.000    0.000 
#
# Total GULP energy -396539.789712 kJ/mol
# GULP energy per Si atom -12391.868428 kJ/mol
# Density = 1.808591 g / cm^3
# Si number density = 18.127173 Si / 1000 Ang^3
#
#
#
# Elastic Constant Matrix: (Units=GPa)
#
#
# Indices 1 2 3 4 5 6 
#
# 1 23.2555 36.9169 40.6611 0.0000 6.9947 0.0000
# 2 36.9169 88.3258 78.2244 0.0000 3.0101 0.0000
# 3 40.6611 78.2244 161.4080 0.0000 -0.5399 0.0000
# 4 0.0000 0.0000 0.0000 38.4424 0.0000 20.8357
# 5 6.9947 3.0101 -0.5399 0.0000 19.2821 0.0000
# 6 0.0000 0.0000 0.0000 20.8357 0.0000 48.2585
#
#
#
# Elastic Compliance Matrix: (Units=1/GPa)
#
#
# Indices 1 2 3 4 5 6 
#
# 1 0.190834 -0.061242 -0.018595 0.000000 -0.060186 0.000000
# 2 -0.061242 0.039710 -0.003764 0.000000 0.015911 0.000000
# 3 -0.018595 -0.003764 0.012730 0.000000 0.007689 0.000000
# 4 0.000000 0.000000 0.000000 0.033960 0.000000 -0.014662
# 5 -0.060186 0.015911 0.007689 0.000000 0.071426 0.000000
# 6 0.000000 0.000000 0.000000 -0.014662 0.000000 0.027052
#
#
# Mechanical properties :
#
#
# Convention : Reuss Voigt Hill
#
# Bulk Modulus (GPa) = 13.14552 64.95488 39.05020
# Shear Modulus (GPa) = 8.79865 29.00906 18.90385
#
# Velocity S-wave (km/s) = 2.20553 4.00472 3.23282
# Velocity P-wave (km/s) = 3.70856 7.56931 5.96019
#
# Compressibility (1/GPa) = 0.07607153
#
# Stress axis : x y z
#
# Youngs Moduli (GPa) = 5.24017 25.18282 78.55654
#
# Poissons Ratio (x) = 1.54224 1.46077
# Poissons Ratio (y) = 0.32092 0.29567
# Poissons Ratio (z) = 0.09744 0.09478
#
# Static dielectric constant tensor:
#      x y z
#    x 2.984970 0.000000 0.003740 
#    y 0.000000 3.390810 0.000000 
#    z 0.003740 0.000000 4.002660 
# 
# 
# High freq. dielectric constant tensor:
#      x y z
#    x 1.660620 0.000000 0.007090 
#    y 0.000000 1.699840 0.000000 
#    z 0.007090 0.000000 1.712230 
# 
# From -- ./inp_files/86099.got.cif
#   From: 2010.06.25/outbox.cif.g09.slc.cpg/sg10_44_cif.got.tgz:86099.got - 2010.06.27 22:07:45.
