data_PCOD8062832
_publ_section_title
;
Structure prediction by ZEFSAII (Michael W. Deem and Ramdas Pophale) SiO2 
 PCOD8062832
Probable space group: P 2/M
;
_chemical_formula_sum "Si O2"
_cell_formula_units_Z 28
_cell_length_a 18.275116
_cell_length_b 16.895277
_cell_length_c 23.936439
_cell_angle_alpha 90.000000
_cell_angle_beta 165.545059
_cell_angle_gamma 90.000000
_cell_volume 1844.853368
_symmetry_space_group_name_H-M "P 2/M"
_symmetry_group_IT_number 10
_symmetry_cell_setting 'monoclinic'
loop_
_space_group_symop_operation_xyz
x,y,z
-x,y,-z
-x,-y,-z
x,-y,z
loop_
_atom_site_type_symbol
_atom_site_label
_atom_site_fract_x
_atom_site_fract_y
_atom_site_fract_z
Si Si1 0.344519 0.093520 0.606701
Si Si2 0.697913 0.906061 0.096079
Si Si3 0.971020 0.332229 0.859214
Si Si4 0.476963 0.500000 0.366860
Si Si5 0.412036 0.667774 0.523828
Si Si6 0.926386 0.500000 0.036524
Si Si7 0.688716 0.906062 0.290546
Si Si8 0.719093 0.222021 0.831459
O O1 0.372463 0.121462 0.691613
O O2 0.597644 0.136346 0.758597
O O3 0.031782 0.121510 0.350948
O O4 0.391387 0.000000 0.634790
O O5 0.683530 0.000000 0.088040
O O6 0.500000 0.871166 0.000000
O O7 0.569131 0.875569 0.941480
O O8 0.847314 0.301713 0.708384
O O9 0.717218 0.339068 0.717213
O O10 0.109736 0.420048 0.953588
O O11 0.205182 0.270028 0.056014
O O12 0.670920 0.579952 0.514784
O O13 0.322503 0.500000 0.193500
O O14 0.247744 0.500000 0.247762
O O15 0.459386 0.729971 0.608544
O O16 0.000000 0.871163 0.500000
O O17 0.706164 0.000000 0.301607
O O18 0.000000 0.208268 0.000000
#
# Coordination Sequence:
#
# PCOD8062832 Si02
#       8
#     4   4   4   2   4   2   4   4
#     4  10  20  31  45  65  86 114 152 189 226 262
#     4   9  15  26  46  69  88 102 124 169 230 289
#     4   9  16  26  41  59  81 112 147 183 222 259
#     4   9  13  21  39  62  83 103 136 180 223 267
#     4   9  16  26  41  59  81 112 147 183 222 259
#     4   9  13  21  39  62  83 103 136 180 223 267
#     4   9  15  26  46  69  88 102 124 169 230 289
#     4  10  20  32  42  56  85 125 164 191 209 242
#
# _framework density 15.177358
#
# number of rings (size 3 to 8) (size 9 to 14) (size 15 to 20)
#    0.000    2.714    2.857    0.429    0.000    3.143 
#    0.000    0.000    0.000    0.000    0.000    8.000 
#    0.000    0.000    0.000    5.143    0.000    0.857 
#
# Total GULP energy -347002.414456 kJ/mol
# GULP energy per Si atom -12392.943373 kJ/mol
# Density = 1.514281 g / cm^3
# Si number density = 15.177358 Si / 1000 Ang^3
#
#
#
# Elastic Constant Matrix: (Units=GPa)
#
#
# Indices 1 2 3 4 5 6 
#
# 1 71.3440 31.7085 58.0409 0.0000 -28.7096 0.0000
# 2 31.7085 67.1574 30.0052 0.0000 4.1396 0.0000
# 3 58.0409 30.0052 100.8571 0.0000 -42.6169 0.0000
# 4 0.0000 0.0000 0.0000 6.2164 0.0000 -2.8994
# 5 -28.7096 4.1396 -42.6169 0.0000 46.2429 0.0000
# 6 0.0000 0.0000 0.0000 -2.8994 0.0000 5.0240
#
#
#
# Elastic Compliance Matrix: (Units=1/GPa)
#
#
# Indices 1 2 3 4 5 6 
#
# 1 0.031872 -0.011194 -0.010198 0.000000 0.011392 0.000000
# 2 -0.011194 0.024673 -0.007809 0.000000 -0.016356 0.000000
# 3 -0.010198 -0.007809 0.025757 0.000000 0.018105 0.000000
# 4 0.000000 0.000000 0.000000 0.220112 0.000000 0.127027
# 5 0.011392 -0.016356 0.018105 0.000000 0.046847 0.000000
# 6 0.000000 0.000000 0.000000 0.127027 0.000000 0.272350
#
#
# Mechanical properties :
#
#
# Convention : Reuss Voigt Hill
#
# Bulk Modulus (GPa) = 41.84151 53.20751 47.52451
# Shear Modulus (GPa) = 7.26763 19.47025 13.36894
#
# Velocity S-wave (km/s) = 2.19063 3.58557 2.97113
# Velocity P-wave (km/s) = 5.83324 7.23015 6.56893
#
# Compressibility (1/GPa) = 0.02389971
#
# Stress axis : x y z
#
# Youngs Moduli (GPa) = 31.37505 40.53001 38.82401
#
# Poissons Ratio (x) = 0.45371 0.39592
# Poissons Ratio (y) = 0.35123 0.30318
# Poissons Ratio (z) = 0.31996 0.31650
#
# Static dielectric constant tensor:
#      x y z
#    x 2.760010 0.000000 -0.399980 
#    y 0.000000 2.701470 0.000000 
#    z -0.399980 0.000000 2.925410 
# 
# 
# High freq. dielectric constant tensor:
#      x y z
#    x 1.553950 0.000000 -0.043440 
#    y 0.000000 1.552600 0.000000 
#    z -0.043440 0.000000 1.571920 
# 
# From -- ./inp_files/67653.got.cif
#   From: 2010.06.25/outbox.cif.g09.slc.cpg/sg10_34_cif.got.tgz:67653.got - 2010.06.27 22:07:45.
