data_PCOD8062259
_publ_section_title
;
Structure prediction by ZEFSAII (Michael W. Deem and Ramdas Pophale) SiO2 
 PCOD8062259
Probable space group: P 2/M
;
_chemical_formula_sum "Si O2"
_cell_formula_units_Z 28
_cell_length_a 8.973282
_cell_length_b 7.786443
_cell_length_c 30.026599
_cell_angle_alpha 90.000000
_cell_angle_beta 138.801131
_cell_angle_gamma 90.000000
_cell_volume 1381.870961
_symmetry_space_group_name_H-M "P 2/M"
_symmetry_group_IT_number 10
_symmetry_cell_setting 'monoclinic'
loop_
_space_group_symop_operation_xyz
x,y,z
-x,y,-z
-x,-y,-z
x,-y,z
loop_
_atom_site_type_symbol
_atom_site_label
_atom_site_fract_x
_atom_site_fract_y
_atom_site_fract_z
Si Si1 0.072209 0.694004 0.799998
Si Si2 0.403824 0.194106 0.802780
Si Si3 0.986844 0.500000 0.424601
Si Si4 0.406416 0.809207 0.332238
Si Si5 0.748144 0.704317 0.066043
Si Si6 0.094292 0.297462 0.068917
Si Si7 0.633944 0.500000 0.424815
Si Si8 0.258985 0.801751 0.672041
O O1 0.988126 0.500000 0.789154
O O2 0.271141 0.690148 0.808298
O O3 0.167249 0.774131 0.867245
O O4 0.861333 0.804188 0.735709
O O5 0.670059 0.205378 0.869829
O O6 0.344283 0.254228 0.739667
O O7 0.323797 0.000000 0.792164
O O8 0.822536 0.500000 0.429573
O O9 0.945791 0.673866 0.386988
O O10 0.246214 0.500000 0.499911
O O11 0.480304 0.670665 0.385948
O O12 0.530313 0.771376 0.313467
O O13 0.469331 0.000000 0.363898
O O14 0.734580 0.500000 0.063976
O O15 0.918722 0.768752 0.066431
O O16 0.500000 0.781017 0.000000
O O17 0.131934 0.500000 0.080208
O O18 0.000000 0.241233 0.000000
O O19 0.174676 0.000000 0.651266
#
# Coordination Sequence:
#
# PCOD8062259 Si02
#       8
#     4   4   2   4   4   4   2   4
#     4  11  21  34  55  81 109 146 193 236 282 339
#     4  11  23  37  53  78 111 146 188 234 283 337
#     4   9  18  32  59  83 120 149 182 231 275 337
#     4  10  19  35  57  82 116 149 185 234 283 334
#     4   9  18  33  54  81 111 142 183 235 284 336
#     4  10  20  35  57  82 108 143 187 233 285 340
#     4   9  18  34  53  91 116 147 188 223 279 339
#     4   9  20  35  55  84 114 149 189 232 283 335
#
# _framework density 20.262384000000001
#
# number of rings (size 3 to 8) (size 9 to 14) (size 15 to 20)
#    0.000    2.143    0.714    2.571    2.000    3.143 
#    0.000    3.571    0.000    4.714    0.000    3.000 
#    0.000    0.000    0.000    0.000    0.000    0.000 
#
# Total GULP energy -347259.365079 kJ/mol
# GULP energy per Si atom -12402.120181 kJ/mol
# Density = 2.021627 g / cm^3
# Si number density = 20.262384 Si / 1000 Ang^3
#
#
#
# Elastic Constant Matrix: (Units=GPa)
#
#
# Indices 1 2 3 4 5 6 
#
# 1 101.6976 23.5449 56.1330 0.0000 -0.0113 0.0000
# 2 23.5449 86.3156 54.7809 0.0000 -1.8447 0.0000
# 3 56.1330 54.7809 175.2691 0.0000 1.3634 0.0000
# 4 0.0000 0.0000 0.0000 18.6445 0.0000 1.5736
# 5 -0.0113 -1.8447 1.3634 0.0000 25.0700 0.0000
# 6 0.0000 0.0000 0.0000 1.5736 0.0000 18.3046
#
#
#
# Elastic Compliance Matrix: (Units=1/GPa)
#
#
# Indices 1 2 3 4 5 6 
#
# 1 0.012020 -0.001038 -0.003526 0.000000 0.000121 0.000000
# 2 -0.001038 0.014585 -0.004236 0.000000 0.001303 0.000000
# 3 -0.003526 -0.004236 0.008165 0.000000 -0.000757 0.000000
# 4 0.000000 0.000000 0.000000 0.054027 0.000000 -0.004644
# 5 0.000121 0.001303 -0.000757 0.000000 0.040025 0.000000
# 6 0.000000 0.000000 0.000000 -0.004644 0.000000 0.055030
#
#
# Mechanical properties :
#
#
# Convention : Reuss Voigt Hill
#
# Bulk Modulus (GPa) = 58.24640 70.24444 64.24542
# Shear Modulus (GPa) = 24.13408 27.65872 25.89640
#
# Velocity S-wave (km/s) = 3.45494 3.69864 3.57886
# Velocity P-wave (km/s) = 6.68760 7.27891 6.98951
#
# Compressibility (1/GPa) = 0.01716844
#
# Stress axis : x y z
#
# Youngs Moduli (GPa) = 83.19713 68.56363 122.47905
#
# Poissons Ratio (x) = 0.07119 0.43185
# Poissons Ratio (y) = 0.08639 0.51884
# Poissons Ratio (z) = 0.29334 0.29045
#
# Static dielectric constant tensor:
#      x y z
#    x 3.473150 0.000000 -0.066090 
#    y 0.000000 3.566840 0.000000 
#    z -0.066090 0.000000 3.786430 
# 
# 
# High freq. dielectric constant tensor:
#      x y z
#    x 1.775000 0.000000 -0.000920 
#    y 0.000000 1.788240 0.000000 
#    z -0.000920 0.000000 1.790030 
# 
# From -- ./inp_files/92157.got.cif
#   From: 2010.06.25/outbox.cif.g09.slc.cpg/sg10_47_cif.got.tgz:92157.got - 2010.06.27 22:07:45.
