data_PCOD8062835
_publ_section_title
;
Structure prediction by ZEFSAII (Michael W. Deem and Ramdas Pophale) SiO2 
 PCOD8062835
Probable space group: P 2/M
;
_chemical_formula_sum "Si O2"
_cell_formula_units_Z 32
_cell_length_a 18.613629
_cell_length_b 9.164473
_cell_length_c 25.505721
_cell_angle_alpha 90.000000
_cell_angle_beta 23.825302
_cell_angle_gamma 90.000000
_cell_volume 1757.531108
_symmetry_space_group_name_H-M "P 2/M"
_symmetry_group_IT_number 10
_symmetry_cell_setting 'monoclinic'
loop_
_space_group_symop_operation_xyz
x,y,z
-x,y,-z
-x,-y,-z
x,-y,z
loop_
_atom_site_type_symbol
_atom_site_label
_atom_site_fract_x
_atom_site_fract_y
_atom_site_fract_z
Si Si1 0.094815 0.326416 0.359434
Si Si2 0.233694 0.172465 0.646759
Si Si3 0.735771 0.326650 0.647251
Si Si4 0.396606 0.827822 0.645403
Si Si5 0.303184 0.673727 0.120999
Si Si6 0.345087 0.326975 0.883901
Si Si7 0.204090 0.829890 0.876554
Si Si8 0.871943 0.672279 0.869037
O O1 0.100405 0.500000 0.355552
O O2 0.216807 0.269308 0.326084
O O3 0.171228 0.263762 0.253976
O O4 0.890414 0.274295 0.503849
O O5 0.397171 0.215096 0.499278
O O6 0.279708 0.230240 0.674520
O O7 0.062994 0.253850 0.739271
O O8 0.199949 0.000000 0.669068
O O9 0.725835 0.500000 0.655482
O O10 0.545707 0.264698 0.755669
O O11 0.321496 0.765511 0.750162
O O12 0.375281 0.000000 0.659222
O O13 0.306757 0.500000 0.120816
O O14 0.237081 0.727839 0.108649
O O15 0.500000 0.736301 0.000000
O O16 0.344165 0.500000 0.877920
O O17 0.253139 0.256750 0.895491
O O18 0.235313 0.278022 0.008167
O O19 0.242258 0.000000 0.860486
O O20 0.000000 0.800850 0.000000
O O21 0.899368 0.500000 0.849209
#
# Coordination Sequence:
#
# PCOD8062835 Si02
#       8
#     4   4   4   4   4   4   4   4
#     4   8  13  23  41  63  87 119 158 191 222 270
#     4   9  17  33  55  72  91 123 157 188 230 282
#     4   8  14  25  41  63  91 120 151 190 231 271
#     4   8  16  32  53  74  93 118 156 195 227 271
#     4   9  16  26  41  61  88 123 157 189 229 275
#     4  10  20  32  46  68  99 128 153 191 242 283
#     4  10  20  34  52  72  93 120 158 198 230 271
#     4  10  20  31  45  70 100 124 154 198 238 273
#
# _framework density 18.207359
#
# number of rings (size 3 to 8) (size 9 to 14) (size 15 to 20)
#    0.000    3.000    0.000    3.000    0.000    5.750 
#    0.000    3.750    0.000    0.375    0.000    2.625 
#    0.000    0.000    0.000    0.000    0.000    0.000 
#
# Total GULP energy -396678.127147 kJ/mol
# GULP energy per Si atom -12396.191473 kJ/mol
# Density = 1.816592 g / cm^3
# Si number density = 18.207359 Si / 1000 Ang^3
#
#
#
# Elastic Constant Matrix: (Units=GPa)
#
#
# Indices 1 2 3 4 5 6 
#
# 1 144.8016 25.4758 91.6843 0.0000 7.5349 0.0000
# 2 25.4758 13.0383 24.4704 0.0000 -0.5167 0.0000
# 3 91.6843 24.4704 156.0161 0.0000 9.0211 0.0000
# 4 0.0000 0.0000 0.0000 17.7155 0.0000 3.3330
# 5 7.5349 -0.5167 9.0211 0.0000 41.1168 0.0000
# 6 0.0000 0.0000 0.0000 3.3330 0.0000 -11.7607
#
#
#
# Elastic Compliance Matrix: (Units=1/GPa)
#
#
# Indices 1 2 3 4 5 6 
#
# 1 0.012983 -0.015967 -0.005040 0.000000 -0.001474 0.000000
# 2 -0.015967 0.129428 -0.011324 0.000000 0.007037 0.000000
# 3 -0.005040 -0.011324 0.011245 0.000000 -0.001686 0.000000
# 4 0.000000 0.000000 0.000000 0.053590 0.000000 0.015188
# 5 -0.001474 0.007037 -0.001686 0.000000 0.025049 0.000000
# 6 0.000000 0.000000 0.000000 0.015188 0.000000 -0.080725
#
#
# Mechanical properties :
#
#
# Convention : Reuss Voigt Hill
#
# Bulk Modulus (GPa) = 11.23676 66.34632 38.79154
# Shear Modulus (GPa) = 20.33370 20.89602 20.61486
#
# Velocity S-wave (km/s) = 3.34546 3.39140 3.36851
# Velocity P-wave (km/s) = 4.59432 7.20096 6.03993
#
# Compressibility (1/GPa) = 0.08899363
#
# Stress axis : x y z
#
# Youngs Moduli (GPa) = 77.02297 7.72633 88.92888
#
# Poissons Ratio (x) = 0.12337 0.44820
# Poissons Ratio (y) = 1.22985 1.00700
# Poissons Ratio (z) = 0.38820 0.08749
#
# Static dielectric constant tensor:
#      x y z
#    x 3.492580 0.000000 0.136990 
#    y 0.000000 2.753910 0.000000 
#    z 0.136990 0.000000 3.790310 
# 
# 
# High freq. dielectric constant tensor:
#      x y z
#    x 1.710480 0.000000 0.001530 
#    y 0.000000 1.640820 0.000000 
#    z 0.001530 0.000000 1.725590 
# 
# From -- ./inp_files/93647.got.cif
#   From: 2010.06.25/outbox.cif.g09.slc.cpg/sg10_47_cif.got.tgz:93647.got - 2010.06.27 22:07:45.
