data_PCOD8062066
_publ_section_title
;
Structure prediction by ZEFSAII (Michael W. Deem and Ramdas Pophale) SiO2 
 PCOD8062066
Probable space group: P 2/M
;
_chemical_formula_sum "Si O2"
_cell_formula_units_Z 32
_cell_length_a 8.115801
_cell_length_b 9.179600
_cell_length_c 22.523832
_cell_angle_alpha 90.000000
_cell_angle_beta 90.500262
_cell_angle_gamma 90.000000
_cell_volume 1677.957173
_symmetry_space_group_name_H-M "P 2/M"
_symmetry_group_IT_number 10
_symmetry_cell_setting 'monoclinic'
loop_
_space_group_symop_operation_xyz
x,y,z
-x,y,-z
-x,-y,-z
x,-y,z
loop_
_atom_site_type_symbol
_atom_site_label
_atom_site_fract_x
_atom_site_fract_y
_atom_site_fract_z
Si Si1 0.592379 0.165116 0.063097
Si Si2 0.067776 0.168486 0.683064
Si Si3 0.664762 0.671714 0.870984
Si Si4 0.087986 0.830956 0.439956
Si Si5 0.811792 0.343153 0.994282
Si Si6 0.428478 0.671139 0.435600
Si Si7 0.248721 0.173245 0.246985
Si Si8 0.433612 0.827530 0.674176
O O1 0.513630 0.256621 0.116668
O O2 0.608608 0.000000 0.084734
O O3 0.500000 0.182299 0.000000
O O4 0.768920 0.233041 0.047766
O O5 0.039859 0.199310 0.613413
O O6 0.915413 0.235945 0.720449
O O7 0.253913 0.222812 0.700100
O O8 0.058291 0.000000 0.697384
O O9 0.648176 0.500000 0.859670
O O10 0.773718 0.715381 0.928292
O O11 0.750268 0.747388 0.815768
O O12 0.246067 0.733397 0.429109
O O13 0.000000 0.782310 0.500000
O O14 0.142359 0.000000 0.441861
O O15 0.719393 0.500000 0.002404
O O16 0.000000 0.371994 0.000000
O O17 0.500000 0.709059 0.500000
O O18 0.423858 0.500000 0.423268
O O19 0.546117 0.747068 0.388228
O O20 0.416012 0.217554 0.282356
O O21 0.243098 0.000000 0.238293
O O22 0.433556 0.000000 0.662245
#
# Coordination Sequence:
#
# PCOD8062066 Si02
#       8
#     4   4   4   4   4   4   4   4
#     4   9  17  31  53  79 106 137 177 221 266 314
#     4   9  18  35  58  85 110 139 183 234 285 333
#     4  10  20  35  56  80 109 148 186 219 271 333
#     4  10  19  34  58  85 110 140 185 235 282 337
#     4   9  18  34  55  80 114 148 180 224 274 326
#     4  11  23  36  52  80 118 150 183 229 285 343
#     4  10  20  37  58  81 115 149 186 235 281 329
#     4  10  20  38  63  83 107 145 189 235 283 333
#
# _framework density 19.070809000000001
#
# number of rings (size 3 to 8) (size 9 to 14) (size 15 to 20)
#    0.000    2.250    1.250    1.875    0.000    5.000 
#    2.250    1.250    0.000    0.000    0.000    0.000 
#    0.000    0.000    0.000    0.000    0.000    0.000 
#
# Total GULP energy -396609.977384 kJ/mol
# GULP energy per Si atom -12394.061793 kJ/mol
# Density = 1.902740 g / cm^3
# Si number density = 19.070809 Si / 1000 Ang^3
#
#
#
# Elastic Constant Matrix: (Units=GPa)
#
#
# Indices 1 2 3 4 5 6 
#
# 1 136.7371 33.8255 53.1266 0.0000 -17.8293 0.0000
# 2 33.8255 59.3296 38.3373 0.0000 -10.3348 0.0000
# 3 53.1266 38.3373 106.5245 0.0000 -26.5204 0.0000
# 4 0.0000 0.0000 0.0000 26.6879 0.0000 -4.8428
# 5 -17.8293 -10.3348 -26.5204 0.0000 28.6571 0.0000
# 6 0.0000 0.0000 0.0000 -4.8428 0.0000 12.6479
#
#
#
# Elastic Compliance Matrix: (Units=1/GPa)
#
#
# Indices 1 2 3 4 5 6 
#
# 1 0.009557 -0.003054 -0.003198 0.000000 0.001885 0.000000
# 2 -0.003054 0.022952 -0.006691 0.000000 0.000185 0.000000
# 3 -0.003198 -0.006691 0.015975 0.000000 0.010381 0.000000
# 4 0.000000 0.000000 0.000000 0.040268 0.000000 0.015419
# 5 0.001885 0.000185 0.010381 0.000000 0.045742 0.000000
# 6 0.000000 0.000000 0.000000 0.015419 0.000000 0.084968
#
#
# Mechanical properties :
#
#
# Convention : Reuss Voigt Hill
#
# Bulk Modulus (GPa) = 44.25143 61.46335 52.85739
# Shear Modulus (GPa) = 19.77211 25.41869 22.59540
#
# Velocity S-wave (km/s) = 3.22339 3.65479 3.44585
# Velocity P-wave (km/s) = 6.09162 7.07877 6.60367
#
# Compressibility (1/GPa) = 0.02259814
#
# Stress axis : x y z
#
# Youngs Moduli (GPa) = 104.63439 43.56924 62.59780
#
# Poissons Ratio (x) = 0.13306 0.20019
# Poissons Ratio (y) = 0.31955 0.41885
# Poissons Ratio (z) = 0.33462 0.29152
#
# Static dielectric constant tensor:
#      x y z
#    x 3.713910 0.000000 -0.170760 
#    y 0.000000 3.371870 0.000000 
#    z -0.170760 0.000000 3.425560 
# 
# 
# High freq. dielectric constant tensor:
#      x y z
#    x 1.744360 0.000000 -0.013470 
#    y 0.000000 1.726990 0.000000 
#    z -0.013470 0.000000 1.733340 
# 
# From -- ./inp_files/87722.got.cif
#   From: 2010.06.25/outbox.cif.g09.slc.cpg/sg10_44_cif.got.tgz:87722.got - 2010.06.27 22:07:45.
