data_PCOD8062240
_publ_section_title
;
Structure prediction by ZEFSAII (Michael W. Deem and Ramdas Pophale) SiO2 
 PCOD8062240
Probable space group: P 2/M
;
_chemical_formula_sum "Si O2"
_cell_formula_units_Z 28
_cell_length_a 11.969379
_cell_length_b 15.906335
_cell_length_c 9.494703
_cell_angle_alpha 90.000000
_cell_angle_beta 55.095563
_cell_angle_gamma 90.000000
_cell_volume 1482.497421
_symmetry_space_group_name_H-M "P 2/M"
_symmetry_group_IT_number 10
_symmetry_cell_setting 'monoclinic'
loop_
_space_group_symop_operation_xyz
x,y,z
-x,y,-z
-x,-y,-z
x,-y,z
loop_
_atom_site_type_symbol
_atom_site_label
_atom_site_fract_x
_atom_site_fract_y
_atom_site_fract_z
Si Si1 0.349957 0.675998 0.618893
Si Si2 0.189619 0.733279 0.159360
Si Si3 0.951182 0.855078 0.389155
Si Si4 0.860431 0.597172 0.031213
Si Si5 0.376521 0.000000 0.695630
Si Si6 0.921010 0.000000 0.200956
Si Si7 0.391930 0.181409 0.807671
Si Si8 0.307371 0.756602 0.368080
O O1 0.500000 0.636092 0.500000
O O2 0.257834 0.610575 0.769361
O O3 0.355589 0.767202 0.691865
O O4 0.294110 0.687750 0.501333
O O5 0.263564 0.712572 0.253674
O O6 0.040979 0.772368 0.292934
O O7 0.171956 0.646672 0.088246
O O8 0.282049 0.798742 0.006828
O O9 0.792956 0.832731 0.521291
O O10 0.000000 0.897502 0.500000
O O11 0.969524 0.918195 0.248384
O O12 0.870563 0.500000 0.982851
O O13 0.000000 0.630334 0.000000
O O14 0.500000 0.000000 0.500000
O O15 0.384095 0.917814 0.787461
O O16 0.239817 0.000000 0.703418
O O17 0.000000 0.000000 0.000000
O O18 0.540962 0.206882 0.754617
#
# Coordination Sequence:
#
# PCOD8062240 Si02
#       8
#     4   4   4   4   2   2   4   4
#     4   9  18  34  57  79 106 141 179 219 265 319
#     4  10  21  37  57  79 107 143 181 218 267 325
#     4  10  21  35  52  75 106 144 181 223 272 316
#     4  10  21  37  58  83 110 138 171 217 269 321
#     4  12  22  33  53  81 109 141 186 231 268 307
#     4  12  23  35  52  77 108 141 187 233 267 309
#     4  10  20  35  54  80 109 143 183 225 268 313
#     4  10  19  35  57  79 105 143 182 219 264 317
#
# _framework density 18.887049000000001
#
# number of rings (size 3 to 8) (size 9 to 14) (size 15 to 20)
#    0.000    1.857    0.000    5.357    0.000    3.143 
#    0.000    3.571    0.000   16.714    0.000    0.000 
#    0.000    0.000    0.000    0.000    0.000    0.000 
#
# Total GULP energy -347280.251512 kJ/mol
# GULP energy per Si atom -12402.866125 kJ/mol
# Density = 1.884406 g / cm^3
# Si number density = 18.887049 Si / 1000 Ang^3
#
#
#
# Elastic Constant Matrix: (Units=GPa)
#
#
# Indices 1 2 3 4 5 6 
#
# 1 121.6658 43.2330 55.9748 0.0000 12.0274 0.0000
# 2 43.2330 81.0338 36.2934 0.0000 13.7825 0.0000
# 3 55.9748 36.2934 120.4702 0.0000 11.9144 0.0000
# 4 0.0000 0.0000 0.0000 34.0798 0.0000 26.1648
# 5 12.0274 13.7825 11.9144 0.0000 42.1744 0.0000
# 6 0.0000 0.0000 0.0000 26.1648 0.0000 83.6350
#
#
#
# Elastic Compliance Matrix: (Units=1/GPa)
#
#
# Indices 1 2 3 4 5 6 
#
# 1 0.011688 -0.004282 -0.004063 0.000000 -0.000786 0.000000
# 2 -0.004282 0.016369 -0.002606 0.000000 -0.003392 0.000000
# 3 -0.004063 -0.002606 0.011085 0.000000 -0.001121 0.000000
# 4 0.000000 0.000000 0.000000 0.038619 0.000000 -0.012082
# 5 -0.000786 -0.003392 -0.001121 0.000000 0.025360 0.000000
# 6 0.000000 0.000000 0.000000 -0.012082 0.000000 0.015736
#
#
# Mechanical properties :
#
#
# Convention : Reuss Voigt Hill
#
# Bulk Modulus (GPa) = 58.00804 66.01914 62.01359
# Shear Modulus (GPa) = 34.12820 44.48907 39.30864
#
# Velocity S-wave (km/s) = 4.25545 4.85865 4.56702
# Velocity P-wave (km/s) = 7.41114 8.15511 7.79201
#
# Compressibility (1/GPa) = 0.01723899
#
# Stress axis : x y z
#
# Youngs Moduli (GPa) = 85.55959 61.08931 90.21555
#
# Poissons Ratio (x) = 0.26161 0.36652
# Poissons Ratio (y) = 0.36640 0.23513
# Poissons Ratio (z) = 0.34760 0.15922
#
# Static dielectric constant tensor:
#      x y z
#    x 3.671960 0.000000 -0.065660 
#    y 0.000000 3.088120 0.000000 
#    z -0.065660 0.000000 3.628520 
# 
# 
# High freq. dielectric constant tensor:
#      x y z
#    x 1.749890 0.000000 -0.006520 
#    y 0.000000 1.702450 0.000000 
#    z -0.006520 0.000000 1.750820 
# 
# From -- ./inp_files/25250.got.cif
#   From: 2010.06.25/outbox.cif.g09.slc.cpg/sg10_13_cif.got.tgz:25250.got - 2010.06.27 22:07:45.
