data_PCOD8062289
_publ_section_title
;
Structure prediction by ZEFSAII (Michael W. Deem and Ramdas Pophale) SiO2 
 PCOD8062289
Probable space group: P 2/M
;
_chemical_formula_sum "Si O2"
_cell_formula_units_Z 28
_cell_length_a 14.262874
_cell_length_b 9.599197
_cell_length_c 17.518511
_cell_angle_alpha 90.000000
_cell_angle_beta 145.020796
_cell_angle_gamma 90.000000
_cell_volume 1375.008030
_symmetry_space_group_name_H-M "P 2/M"
_symmetry_group_IT_number 10
_symmetry_cell_setting 'monoclinic'
loop_
_space_group_symop_operation_xyz
x,y,z
-x,y,-z
-x,-y,-z
x,-y,z
loop_
_atom_site_type_symbol
_atom_site_label
_atom_site_fract_x
_atom_site_fract_y
_atom_site_fract_z
Si Si1 0.615785 0.352065 0.271837
Si Si2 0.311281 0.657481 0.174534
Si Si3 0.048125 0.342270 0.447043
Si Si4 0.475236 0.840032 0.572695
Si Si5 0.098904 0.837942 0.344557
Si Si6 0.475661 0.839674 0.067673
Si Si7 0.845095 0.838869 0.050054
O O1 0.643899 0.500000 0.247806
O O2 0.445773 0.355526 0.200279
O O3 0.755996 0.331523 0.427578
O O4 0.619464 0.230493 0.212559
O O5 0.254308 0.500000 0.161222
O O6 0.388459 0.742658 0.296542
O O7 0.166503 0.743962 0.034720
O O8 0.983585 0.500000 0.390905
O O9 0.996098 0.243817 0.341955
O O10 0.000000 0.289039 0.500000
O O11 0.500000 0.823382 0.500000
O O12 0.289504 0.794744 0.468145
O O13 0.504727 0.000000 0.618496
O O14 0.015378 0.804866 0.206767
O O15 0.078560 0.000000 0.350111
O O16 0.518822 0.000000 0.096753
O O17 0.500000 0.776573 0.000000
O O18 0.297868 0.807900 0.983824
O O19 0.837098 0.000000 0.018525
#
# Coordination Sequence:
#
# PCOD8062289 Si02
#       7
#     4   4   4   4   4   4   4
#     4   9  18  32  48  70 100 137 179 219 260 314
#     4  10  19  35  58  82 108 142 183 223 269 325
#     4  10  21  35  51  75 111 150 184 224 276 327
#     4  10  21  38  61  87 112 142 181 226 281 339
#     4  10  21  37  58  83 111 144 186 234 279 327
#     4   9  18  30  46  69  99 135 177 224 267 310
#     4   9  19  35  53  76 108 144 180 223 276 327
#
# _framework density 20.363516000000001
#
# number of rings (size 3 to 8) (size 9 to 14) (size 15 to 20)
#    0.000    2.429    1.429    0.429    2.000    2.571 
#    0.000    0.714    0.000    4.286    0.000    0.000 
#    0.000    0.000    0.000    0.000    0.000    0.000 
#
# Total GULP energy -346903.676385 kJ/mol
# GULP energy per Si atom -12389.417014 kJ/mol
# Density = 2.031717 g / cm^3
# Si number density = 20.363516 Si / 1000 Ang^3
#
#
#
# Elastic Constant Matrix: (Units=GPa)
#
#
# Indices 1 2 3 4 5 6 
#
# 1 48.7252 34.4045 19.9620 0.0000 -15.0873 0.0000
# 2 34.4045 84.8951 46.2664 0.0000 -20.4364 0.0000
# 3 19.9620 46.2664 81.7992 0.0000 -24.8472 0.0000
# 4 0.0000 0.0000 0.0000 22.0784 0.0000 4.4716
# 5 -15.0873 -20.4364 -24.8472 0.0000 21.0128 0.0000
# 6 0.0000 0.0000 0.0000 4.4716 0.0000 -2.1914
#
#
#
# Elastic Compliance Matrix: (Units=1/GPa)
#
#
# Indices 1 2 3 4 5 6 
#
# 1 0.031810 -0.010757 0.003248 0.000000 0.016218 0.000000
# 2 -0.010757 0.021591 -0.008668 0.000000 0.003025 0.000000
# 3 0.003248 -0.008668 0.022601 0.000000 0.020627 0.000000
# 4 0.000000 0.000000 0.000000 0.032049 0.000000 0.065395
# 5 0.016218 0.003025 0.020627 0.000000 0.086568 0.000000
# 6 0.000000 0.000000 0.000000 0.065395 0.000000 -0.322886
#
#
# Mechanical properties :
#
#
# Convention : Reuss Voigt Hill
#
# Bulk Modulus (GPa) = 22.91094 46.29838 34.60466
# Shear Modulus (GPa) = -61.45127 15.83238 -22.80944
#
# Velocity S-wave (km/s) = -5.49933 2.79137 -3.35044
# Velocity P-wave (km/s) = 5.38963 5.75971 1.43634
#
# Compressibility (1/GPa) = 0.04364727
#
# Stress axis : x y z
#
# Youngs Moduli (GPa) = 31.43661 46.31596 44.24672
#
# Poissons Ratio (x) = 0.49823 -0.14371
# Poissons Ratio (y) = 0.33817 0.38352
# Poissons Ratio (z) = -0.10211 0.40146
#
# Static dielectric constant tensor:
#      x y z
#    x 3.423180 0.000000 -0.027510 
#    y 0.000000 4.046830 0.000000 
#    z -0.027510 0.000000 3.825620 
# 
# 
# High freq. dielectric constant tensor:
#      x y z
#    x 1.772990 0.000000 -0.005390 
#    y 0.000000 1.792660 0.000000 
#    z -0.005390 0.000000 1.795430 
# 
# From -- ./inp_files/77795.got.cif
#   From: 2010.06.25/outbox.cif.g09.slc.cpg/sg10_39_cif.got.tgz:77795.got - 2010.06.27 22:07:45.
