data_PCOD8062057
_publ_section_title
;
Structure prediction by ZEFSAII (Michael W. Deem and Ramdas Pophale) SiO2 
 PCOD8062057
Probable space group: P 2/M
;
_chemical_formula_sum "Si O2"
_cell_formula_units_Z 32
_cell_length_a 27.901637
_cell_length_b 8.601275
_cell_length_c 21.479929
_cell_angle_alpha 90.000000
_cell_angle_beta 18.826955
_cell_angle_gamma 90.000000
_cell_volume 1663.562596
_symmetry_space_group_name_H-M "P 2/M"
_symmetry_group_IT_number 10
_symmetry_cell_setting 'monoclinic'
loop_
_space_group_symop_operation_xyz
x,y,z
-x,y,-z
-x,-y,-z
x,-y,z
loop_
_atom_site_type_symbol
_atom_site_label
_atom_site_fract_x
_atom_site_fract_y
_atom_site_fract_z
Si Si1 0.663421 0.816505 0.785232
Si Si2 0.170414 0.319408 0.905769
Si Si3 0.671696 0.181332 0.404387
Si Si4 0.668895 0.818869 0.175085
Si Si5 0.910735 0.681489 0.800756
Si Si6 0.173977 0.680702 0.669358
Si Si7 0.185183 0.818063 0.526962
Si Si8 0.060021 0.682819 0.491088
O O1 0.708949 0.764785 0.659800
O O2 0.777337 0.749732 0.695643
O O3 0.667177 0.000000 0.787198
O O4 0.500000 0.749369 0.000000
O O5 0.189934 0.500000 0.898587
O O6 0.239238 0.284333 0.754227
O O7 0.253049 0.218337 0.855761
O O8 0.998359 0.273054 0.114763
O O9 0.501026 0.234480 0.612187
O O10 0.736247 0.214543 0.392867
O O11 0.688786 0.000000 0.366969
O O12 0.681395 0.000000 0.145318
O O13 0.743721 0.727053 0.025193
O O14 0.939794 0.500000 0.775820
O O15 0.016150 0.776489 0.717797
O O16 0.944334 0.728811 0.688067
O O17 0.200115 0.500000 0.651681
O O18 0.236160 0.722475 0.524637
O O19 0.197655 0.000000 0.525488
O O20 0.076746 0.500000 0.464948
O O21 0.000000 0.753671 0.500000
#
# Coordination Sequence:
#
# PCOD8062057 Si02
#       8
#     4   4   4   4   4   4   4   4
#     4   9  19  36  57  84 116 148 187 232 277 330
#     4  11  23  39  62  87 112 146 189 235 283 338
#     4  11  25  41  57  83 117 151 188 234 286 336
#     4  11  23  39  59  84 114 149 191 235 281 336
#     4  10  19  34  58  84 112 148 191 235 278 331
#     4  11  23  39  59  85 115 148 190 235 282 337
#     4  10  19  34  59  84 112 150 191 233 278 330
#     4   9  19  36  57  83 116 148 186 232 278 332
#
# _framework density 19.235827
#
# number of rings (size 3 to 8) (size 9 to 14) (size 15 to 20)
#    0.000    1.750    1.250    3.000    0.000    8.000 
#    2.250    0.000    0.000    0.000    0.000    0.000 
#    0.000    0.000    0.000    0.000    0.000    0.000 
#
# Total GULP energy -396946.835354 kJ/mol
# GULP energy per Si atom -12404.588605 kJ/mol
# Density = 1.919205 g / cm^3
# Si number density = 19.235827 Si / 1000 Ang^3
#
#
#
# Elastic Constant Matrix: (Units=GPa)
#
#
# Indices 1 2 3 4 5 6 
#
# 1 119.9712 15.0297 51.1879 0.0000 3.9435 0.0000
# 2 15.0297 30.9971 25.8499 0.0000 -2.9319 0.0000
# 3 51.1879 25.8499 99.3668 0.0000 -1.2752 0.0000
# 4 0.0000 0.0000 0.0000 21.2375 0.0000 1.3980
# 5 3.9435 -2.9319 -1.2752 0.0000 27.1822 0.0000
# 6 0.0000 0.0000 0.0000 1.3980 0.0000 29.9467
#
#
#
# Elastic Compliance Matrix: (Units=1/GPa)
#
#
# Indices 1 2 3 4 5 6 
#
# 1 0.010796 -0.000968 -0.005334 0.000000 -0.001921 0.000000
# 2 -0.000968 0.041713 -0.010300 0.000000 0.004156 0.000000
# 3 -0.005334 -0.010300 0.015496 0.000000 0.000390 0.000000
# 4 0.000000 0.000000 0.000000 0.047232 0.000000 -0.002205
# 5 -0.001921 0.004156 0.000390 0.000000 0.037534 0.000000
# 6 0.000000 0.000000 0.000000 -0.002205 0.000000 0.033496
#
#
# Mechanical properties :
#
#
# Convention : Reuss Voigt Hill
#
# Bulk Modulus (GPa) = 28.73450 48.27447 38.50448
# Shear Modulus (GPa) = 21.63854 26.22445 23.93149
#
# Velocity S-wave (km/s) = 3.35760 3.69631 3.53102
# Velocity P-wave (km/s) = 5.47739 6.58541 6.05679
#
# Compressibility (1/GPa) = 0.03480137
#
# Stress axis : x y z
#
# Youngs Moduli (GPa) = 92.63010 23.97347 64.53296
#
# Poissons Ratio (x) = 0.02320 0.34423
# Poissons Ratio (y) = 0.08965 0.66466
# Poissons Ratio (z) = 0.49410 0.24692
#
# Static dielectric constant tensor:
#      x y z
#    x 3.565490 0.000000 0.121390 
#    y 0.000000 3.431110 0.000000 
#    z 0.121390 0.000000 3.682730 
# 
# 
# High freq. dielectric constant tensor:
#      x y z
#    x 1.748480 0.000000 0.010990 
#    y 0.000000 1.751160 0.000000 
#    z 0.010990 0.000000 1.749400 
# 
# From -- ./inp_files/86841.got.cif
#   From: 2010.06.25/outbox.cif.g09.slc.cpg/sg10_44_cif.got.tgz:86841.got - 2010.06.27 22:07:45.
