data_PCOD8062128
_publ_section_title
;
Structure prediction by ZEFSAII (Michael W. Deem and Ramdas Pophale) SiO2 
 PCOD8062128
Probable space group: P 2/M
;
_chemical_formula_sum "Si O2"
_cell_formula_units_Z 24
_cell_length_a 9.593488
_cell_length_b 7.671564
_cell_length_c 21.022631
_cell_angle_alpha 90.000000
_cell_angle_beta 53.934756
_cell_angle_gamma 90.000000
_cell_volume 1250.677756
_symmetry_space_group_name_H-M "P 2/M"
_symmetry_group_IT_number 10
_symmetry_cell_setting 'monoclinic'
loop_
_space_group_symop_operation_xyz
x,y,z
-x,y,-z
-x,-y,-z
x,-y,z
loop_
_atom_site_type_symbol
_atom_site_label
_atom_site_fract_x
_atom_site_fract_y
_atom_site_fract_z
Si Si1 0.361979 0.699918 0.733830
Si Si2 0.218033 0.000000 0.560653
Si Si3 0.533202 0.000000 0.386767
Si Si4 0.619198 0.802843 0.914402
Si Si5 0.391534 0.207411 0.224475
Si Si6 0.986036 0.298261 0.805212
Si Si7 0.016322 0.699049 0.339977
O O1 0.376719 0.500000 0.705420
O O2 0.453150 0.825960 0.659005
O O3 0.446477 0.720322 0.780162
O O4 0.160424 0.751959 0.795712
O O5 0.343005 0.000000 0.466923
O O6 0.322890 0.000000 0.597972
O O7 0.100964 0.826802 0.586378
O O8 0.594491 0.716429 0.851248
O O9 0.821159 0.798306 0.880014
O O10 0.554817 0.000000 0.926297
O O11 0.500000 0.708456 0.000000
O O12 0.217206 0.278917 0.304012
O O13 0.386841 0.000000 0.226209
O O14 0.942335 0.500000 0.821310
O O15 0.011169 0.241680 0.725428
O O16 0.957346 0.500000 0.367886
#
# Coordination Sequence:
#
# PCOD8062128 Si02
#       7
#     4   2   2   4   4   4   4
#     4  11  22  38  57  84 115 149 193 232 279 337
#     4  11  22  37  59  89 112 145 190 230 288 342
#     4  11  24  37  59  87 116 148 182 236 292 329
#     4   9  19  34  56  87 115 144 185 232 280 330
#     4  10  19  34  60  83 112 152 192 232 279 333
#     4   9  19  33  55  80 106 149 191 225 273 331
#     4  10  19  35  57  83 112 147 192 236 275 330
#
# _framework density 19.189596999999999
#
# number of rings (size 3 to 8) (size 9 to 14) (size 15 to 20)
#    0.000    2.000    3.333    0.500    2.333    1.667 
#    0.000    4.167    0.000    7.000    0.000    0.000 
#    0.000    0.000    0.000    0.000    0.000    0.000 
#
# Total GULP energy -297573.325199 kJ/mol
# GULP energy per Si atom -12398.888550 kJ/mol
# Density = 1.914592 g / cm^3
# Si number density = 19.189597 Si / 1000 Ang^3
#
#
#
# Elastic Constant Matrix: (Units=GPa)
#
#
# Indices 1 2 3 4 5 6 
#
# 1 137.1205 21.3655 57.7150 0.0000 -15.1840 0.0000
# 2 21.3655 92.0741 48.6076 0.0000 -7.9963 0.0000
# 3 57.7150 48.6076 132.5445 0.0000 -19.0636 0.0000
# 4 0.0000 0.0000 0.0000 9.1265 0.0000 -3.3367
# 5 -15.1840 -7.9963 -19.0636 0.0000 22.0706 0.0000
# 6 0.0000 0.0000 0.0000 -3.3367 0.0000 28.0118
#
#
#
# Elastic Compliance Matrix: (Units=1/GPa)
#
#
# Indices 1 2 3 4 5 6 
#
# 1 0.009129 0.000019 -0.003515 0.000000 0.003252 0.000000
# 2 0.000019 0.013478 -0.004849 0.000000 0.000708 0.000000
# 3 -0.003515 -0.004849 0.011707 0.000000 0.005937 0.000000
# 4 0.000000 0.000000 0.000000 0.114561 0.000000 0.013646
# 5 0.003252 0.000708 0.005937 0.000000 0.052931 0.000000
# 6 0.000000 0.000000 0.000000 0.013646 0.000000 0.037325
#
#
# Mechanical properties :
#
#
# Convention : Reuss Voigt Hill
#
# Bulk Modulus (GPa) = 56.73628 68.56837 62.65233
# Shear Modulus (GPa) = 19.10618 27.44516 23.27567
#
# Velocity S-wave (km/s) = 3.15882 3.78592 3.48650
# Velocity P-wave (km/s) = 6.55245 7.41084 6.99482
#
# Compressibility (1/GPa) = 0.01762541
#
# Stress axis : x y z
#
# Youngs Moduli (GPa) = 109.53775 74.19588 85.41605
#
# Poissons Ratio (x) = -0.00144 0.30021
# Poissons Ratio (y) = -0.00213 0.41421
# Poissons Ratio (z) = 0.38499 0.35980
#
# Static dielectric constant tensor:
#      x y z
#    x 3.603640 0.000000 -0.097960 
#    y 0.000000 3.504360 0.000000 
#    z -0.097960 0.000000 3.430630 
# 
# 
# High freq. dielectric constant tensor:
#      x y z
#    x 1.743490 0.000000 -0.018750 
#    y 0.000000 1.752740 0.000000 
#    z -0.018750 0.000000 1.719880 
# 
# From -- ./inp_files/33523.got.cif
#   From: 2010.06.25/outbox.cif.g09.slc.cpg/sg10_17_cif.got.tgz:33523.got - 2010.06.27 22:07:45.
