data_PCOD8062336
_publ_section_title
;
Structure prediction by ZEFSAII (Michael W. Deem and Ramdas Pophale) SiO2 
 PCOD8062336
Probable space group: P 2/M
;
_chemical_formula_sum "Si O2"
_cell_formula_units_Z 16
_cell_length_a 11.275533
_cell_length_b 8.448791
_cell_length_c 9.279729
_cell_angle_alpha 90.000000
_cell_angle_beta 114.629196
_cell_angle_gamma 90.000000
_cell_volume 803.604255
_symmetry_space_group_name_H-M "P 2/M"
_symmetry_group_IT_number 10
_symmetry_cell_setting 'monoclinic'
loop_
_space_group_symop_operation_xyz
x,y,z
-x,y,-z
-x,-y,-z
x,-y,z
loop_
_atom_site_type_symbol
_atom_site_label
_atom_site_fract_x
_atom_site_fract_y
_atom_site_fract_z
Si Si1 0.622660 0.188019 0.149504
Si Si2 0.855458 0.682998 0.783269
Si Si3 0.370226 0.186357 0.519126
Si Si4 0.131011 0.185138 0.902727
O O1 0.614323 0.245769 0.309540
O O2 0.756182 0.249616 0.145324
O O3 0.618033 0.000000 0.138485
O O4 0.500000 0.259649 0.000000
O O5 0.848080 0.500000 0.821373
O O6 0.752150 0.723139 0.608543
O O7 0.999285 0.722242 0.796152
O O8 0.825756 0.785369 0.910608
O O9 0.500000 0.234981 0.500000
O O10 0.344017 0.000000 0.496690
O O11 0.106183 0.000000 0.867824
#
# Coordination Sequence:
#
# PCOD8062336 Si02
#       4
#     4   4   4   4
#     4   9  18  33  56  85 109 133 175 229 274 314
#     4  11  22  36  54  79 113 146 180 220 267 323
#     4  10  20  36  59  83 108 140 180 224 269 319
#     4  10  19  35  59  82 107 141 183 225 267 316
#
# _framework density 19.910298000000001
#
# number of rings (size 3 to 8) (size 9 to 14) (size 15 to 20)
#    0.000    2.000    0.000    6.000    0.000    5.500 
#    0.000    7.500    0.000    5.250    0.000    0.000 
#    0.000    0.000    0.000    0.000    0.000    0.000 
#
# Total GULP energy -198458.865284 kJ/mol
# GULP energy per Si atom -12403.679080 kJ/mol
# Density = 1.986498 g / cm^3
# Si number density = 19.910298 Si / 1000 Ang^3
#
#
#
# Elastic Constant Matrix: (Units=GPa)
#
#
# Indices 1 2 3 4 5 6 
#
# 1 172.7514 20.3622 89.6558 0.0000 -12.3525 0.0000
# 2 20.3622 43.2192 17.6919 0.0000 5.5045 0.0000
# 3 89.6558 17.6919 146.5074 0.0000 11.2104 0.0000
# 4 0.0000 0.0000 0.0000 6.7823 0.0000 -1.8718
# 5 -12.3525 5.5045 11.2104 0.0000 34.2281 0.0000
# 6 0.0000 0.0000 0.0000 -1.8718 0.0000 -1.8019
#
#
#
# Elastic Compliance Matrix: (Units=1/GPa)
#
#
# Indices 1 2 3 4 5 6 
#
# 1 0.009679 -0.002845 -0.006033 0.000000 0.005926 0.000000
# 2 -0.002845 0.025487 -0.000969 0.000000 -0.004808 0.000000
# 3 -0.006033 -0.000969 0.011066 0.000000 -0.005646 0.000000
# 4 0.000000 0.000000 0.000000 0.114592 0.000000 -0.119037
# 5 0.005926 -0.004808 -0.005646 0.000000 0.033977 0.000000
# 6 0.000000 0.000000 0.000000 -0.119037 0.000000 -0.431329
#
#
# Mechanical properties :
#
#
# Convention : Reuss Voigt Hill
#
# Bulk Modulus (GPa) = 37.68056 68.65533 53.16795
# Shear Modulus (GPa) = -24.03983 23.49291 -0.27346
#
# Velocity S-wave (km/s) = -3.47855 3.43875 -0.37100
# Velocity P-wave (km/s) = 1.68301 7.09393 5.15540
#
# Compressibility (1/GPa) = 0.02653888
#
# Stress axis : x y z
#
# Youngs Moduli (GPa) = 103.31883 39.23515 90.36354
#
# Poissons Ratio (x) = 0.11163 0.54515
# Poissons Ratio (y) = 0.29397 0.08754
# Poissons Ratio (z) = 0.62331 0.03801
#
# Static dielectric constant tensor:
#      x y z
#    x 3.819970 0.000000 0.006310 
#    y 0.000000 3.269510 0.000000 
#    z 0.006310 0.000000 3.620940 
# 
# 
# High freq. dielectric constant tensor:
#      x y z
#    x 1.789510 0.000000 0.005560 
#    y 0.000000 1.749820 0.000000 
#    z 0.005560 0.000000 1.778360 
# 
# From -- ./inp_files/21470.got.cif
#   From: 2010.06.25/outbox.cif.g09.slc.cpg/sg10_11_cif.got.tgz:21470.got - 2010.06.27 22:07:45.
