data_PCOD8062111
_publ_section_title
;
Structure prediction by ZEFSAII (Michael W. Deem and Ramdas Pophale) SiO2 
 PCOD8062111
Probable space group: P 2/M
;
_chemical_formula_sum "Si O2"
_cell_formula_units_Z 32
_cell_length_a 21.139259
_cell_length_b 8.565210
_cell_length_c 27.103396
_cell_angle_alpha 90.000000
_cell_angle_beta 19.425793
_cell_angle_gamma 90.000000
_cell_volume 1632.131222
_symmetry_space_group_name_H-M "P 2/M"
_symmetry_group_IT_number 10
_symmetry_cell_setting 'monoclinic'
loop_
_space_group_symop_operation_xyz
x,y,z
-x,y,-z
-x,-y,-z
x,-y,z
loop_
_atom_site_type_symbol
_atom_site_label
_atom_site_fract_x
_atom_site_fract_y
_atom_site_fract_z
Si Si1 0.281942 0.815800 0.155116
Si Si2 0.277838 0.181490 0.787078
Si Si3 0.622291 0.184898 0.669533
Si Si4 0.309804 0.818533 0.491203
Si Si5 0.089462 0.681605 0.199677
Si Si6 0.974011 0.682751 0.943917
Si Si7 0.991356 0.185399 0.451399
Si Si8 0.776980 0.816281 0.998331
O O1 0.178857 0.731285 0.185837
O O2 0.175674 0.766472 0.283775
O O3 0.267370 0.000000 0.156297
O O4 0.500000 0.761218 0.000000
O O5 0.502568 0.213573 0.613794
O O6 0.168383 0.234164 0.818481
O O7 0.242263 0.000000 0.824037
O O8 0.199850 0.271899 0.892354
O O9 0.635966 0.237572 0.603226
O O10 0.802576 0.256472 0.565479
O O11 0.429577 0.250867 0.835020
O O12 0.623836 0.000000 0.672785
O O13 0.134743 0.716881 0.638972
O O14 0.249319 0.000000 0.536703
O O15 0.123616 0.500000 0.166017
O O16 0.192886 0.777042 0.080747
O O17 0.007990 0.500000 0.921182
O O18 0.933849 0.734670 0.917529
O O19 0.000000 0.256528 0.500000
O O20 0.977724 0.000000 0.463892
O O21 0.790758 0.000000 0.996802
#
# Coordination Sequence:
#
# PCOD8062111 Si02
#       8
#     4   4   4   4   4   4   4   4
#     4  10  21  38  62  88 115 155 203 244 289 351
#     4  10  19  34  59  87 117 156 204 248 294 349
#     4   9  17  32  58  87 114 145 193 252 297 333
#     4  10  19  38  63  88 113 151 204 252 290 346
#     4  12  26  41  58  85 123 163 196 240 306 365
#     4  11  21  34  54  87 127 158 192 242 304 361
#     4   9  17  30  54  89 120 140 180 246 296 334
#     4  11  22  39  62  87 116 156 205 252 294 348
#
# _framework density 19.606268
#
# number of rings (size 3 to 8) (size 9 to 14) (size 15 to 20)
#    0.000    1.750    2.500    3.750    1.750    1.250 
#    0.000    0.625    0.000    4.125    0.000    0.000 
#    0.000    0.000    0.000    0.000    0.000    0.000 
#
# Total GULP energy -396844.737693 kJ/mol
# GULP energy per Si atom -12401.398053 kJ/mol
# Density = 1.956164 g / cm^3
# Si number density = 19.606268 Si / 1000 Ang^3
#
#
#
# Elastic Constant Matrix: (Units=GPa)
#
#
# Indices 1 2 3 4 5 6 
#
# 1 97.2936 13.7987 53.0294 0.0000 -6.3764 0.0000
# 2 13.7987 41.9703 19.5475 0.0000 -8.6450 0.0000
# 3 53.0294 19.5475 130.9688 0.0000 -8.4672 0.0000
# 4 0.0000 0.0000 0.0000 12.7512 0.0000 2.3754
# 5 -6.3764 -8.6450 -8.4672 0.0000 37.6703 0.0000
# 6 0.0000 0.0000 0.0000 2.3754 0.0000 19.1762
#
#
#
# Elastic Compliance Matrix: (Units=1/GPa)
#
#
# Indices 1 2 3 4 5 6 
#
# 1 0.013362 -0.001883 -0.005085 0.000000 0.000687 0.000000
# 2 -0.001883 0.026872 -0.002912 0.000000 0.005193 0.000000
# 3 -0.005085 -0.002912 0.010178 0.000000 0.000759 0.000000
# 4 0.000000 0.000000 0.000000 0.080276 0.000000 -0.009944
# 5 0.000687 0.005193 0.000759 0.000000 0.028025 0.000000
# 6 0.000000 0.000000 0.000000 -0.009944 0.000000 0.053380
#
#
# Mechanical properties :
#
#
# Convention : Reuss Voigt Hill
#
# Bulk Modulus (GPa) = 32.62584 49.22042 40.92313
# Shear Modulus (GPa) = 20.65519 26.17667 23.41593
#
# Velocity S-wave (km/s) = 3.24929 3.65789 3.45963
# Velocity P-wave (km/s) = 5.54561 6.55737 6.07260
#
# Compressibility (1/GPa) = 0.03065056
#
# Stress axis : x y z
#
# Youngs Moduli (GPa) = 74.84113 37.21382 98.25199
#
# Poissons Ratio (x) = 0.07009 0.49958
# Poissons Ratio (y) = 0.14095 0.28614
# Poissons Ratio (z) = 0.38054 0.10838
#
# Static dielectric constant tensor:
#      x y z
#    x 3.675630 0.000000 -0.181170 
#    y 0.000000 3.271950 0.000000 
#    z -0.181170 0.000000 3.732650 
# 
# 
# High freq. dielectric constant tensor:
#      x y z
#    x 1.767150 0.000000 -0.013310 
#    y 0.000000 1.736930 0.000000 
#    z -0.013310 0.000000 1.765830 
# 
# From -- ./inp_files/93667.got.cif
#   From: 2010.06.25/outbox.cif.g09.slc.cpg/sg10_47_cif.got.tgz:93667.got - 2010.06.27 22:07:45.
