data_PCOD8062785
_publ_section_title
;
Structure prediction by ZEFSAII (Michael W. Deem and Ramdas Pophale) SiO2 
 PCOD8062785
Probable space group: P 2/M
;
_chemical_formula_sum "Si O2"
_cell_formula_units_Z 32
_cell_length_a 9.020858
_cell_length_b 13.698107
_cell_length_c 28.875907
_cell_angle_alpha 90.000000
_cell_angle_beta 142.814332
_cell_angle_gamma 90.000000
_cell_volume 2156.593958
_symmetry_space_group_name_H-M "P 2/M"
_symmetry_group_IT_number 10
_symmetry_cell_setting 'monoclinic'
loop_
_space_group_symop_operation_xyz
x,y,z
-x,y,-z
-x,-y,-z
x,-y,z
loop_
_atom_site_type_symbol
_atom_site_label
_atom_site_fract_x
_atom_site_fract_y
_atom_site_fract_z
Si Si1 0.195939 0.758308 0.508533
Si Si2 0.979940 0.609805 0.220018
Si Si3 0.609520 0.108739 0.578234
Si Si4 0.227082 0.383282 0.925339
Si Si5 0.929155 0.271121 0.626746
Si Si6 0.604648 0.384444 0.609999
Si Si7 0.104374 0.616030 0.073795
Si Si8 0.348897 0.388554 0.776109
O O1 0.404340 0.842585 0.560460
O O2 0.062300 0.749576 0.425813
O O3 0.333229 0.655685 0.552353
O O4 0.000000 0.780357 0.500000
O O5 0.055963 0.500000 0.226507
O O6 0.900126 0.662291 0.152429
O O7 0.745939 0.611980 0.195158
O O8 0.214410 0.656686 0.304370
O O9 0.500000 0.105641 0.500000
O O10 0.861884 0.171589 0.638392
O O11 0.669217 0.000000 0.611476
O O12 0.236328 0.500000 0.923899
O O13 0.071591 0.346075 0.929821
O O14 0.500000 0.341448 0.000000
O O15 0.713163 0.347394 0.587539
O O16 0.193406 0.314852 0.705558
O O17 0.598268 0.500000 0.607048
O O18 0.109613 0.500000 0.071725
O O19 0.376426 0.653071 0.153527
O O20 0.000000 0.660327 0.000000
O O21 0.334440 0.500000 0.752653
#
# Coordination Sequence:
#
# PCOD8062785 Si02
#       8
#     4   4   4   4   4   4   4   4
#     4  10  20  29  39  60  84 104 131 167 205 240
#     4   8  14  24  36  49  64  89 128 165 196 228
#     4   8  15  30  49  63  76  98 128 161 199 246
#     4   9  15  22  33  48  67  93 128 169 202 226
#     4   9  17  29  44  60  78 102 135 167 198 242
#     4   9  17  29  42  53  73 109 145 171 195 230
#     4   9  16  24  34  50  73 102 135 166 195 230
#     4   9  16  26  40  56  77 106 136 166 199 231
#
# _framework density 14.838212
#
# number of rings (size 3 to 8) (size 9 to 14) (size 15 to 20)
#    0.000    3.125    0.000    3.000    0.000    6.000 
#    0.000    1.250    0.000    0.000    0.000    0.000 
#    0.000    0.500    0.000    0.000    0.000  105.500 
#
# Total GULP energy -396526.502073 kJ/mol
# GULP energy per Si atom -12391.453190 kJ/mol
# Density = 1.480444 g / cm^3
# Si number density = 14.838212 Si / 1000 Ang^3
#
#
#
# Elastic Constant Matrix: (Units=GPa)
#
#
# Indices 1 2 3 4 5 6 
#
# 1 102.8860 25.4878 52.3832 0.0000 2.6976 0.0000
# 2 25.4878 65.9323 30.3382 0.0000 3.9762 0.0000
# 3 52.3832 30.3382 85.1422 0.0000 4.8703 0.0000
# 4 0.0000 0.0000 0.0000 6.2606 0.0000 0.9399
# 5 2.6976 3.9762 4.8703 0.0000 27.9686 0.0000
# 6 0.0000 0.0000 0.0000 0.9399 0.0000 9.6184
#
#
#
# Elastic Compliance Matrix: (Units=1/GPa)
#
#
# Indices 1 2 3 4 5 6 
#
# 1 0.014326 -0.001785 -0.008195 0.000000 0.000299 0.000000
# 2 -0.001785 0.018424 -0.005380 0.000000 -0.001510 0.000000
# 3 -0.008195 -0.005380 0.018802 0.000000 -0.001719 0.000000
# 4 0.000000 0.000000 0.000000 0.162108 0.000000 -0.015842
# 5 0.000299 -0.001510 -0.001719 0.000000 0.036240 0.000000
# 6 0.000000 0.000000 0.000000 -0.015842 0.000000 0.105515
#
#
# Mechanical properties :
#
#
# Convention : Reuss Voigt Hill
#
# Bulk Modulus (GPa) = 48.00401 52.26433 50.13417
# Shear Modulus (GPa) = 12.72004 18.48627 15.60316
#
# Velocity S-wave (km/s) = 2.93106 3.53350 3.24628
# Velocity P-wave (km/s) = 6.62394 7.20741 6.92183
#
# Compressibility (1/GPa) = 0.02083159
#
# Stress axis : x y z
#
# Youngs Moduli (GPa) = 69.80114 54.27734 53.18455
#
# Poissons Ratio (x) = 0.09690 0.43586
# Poissons Ratio (y) = 0.12462 0.28614
# Poissons Ratio (z) = 0.57203 0.29202
#
# Static dielectric constant tensor:
#      x y z
#    x 2.832140 0.000000 -0.008290 
#    y 0.000000 2.645090 0.000000 
#    z -0.008290 0.000000 2.981340 
# 
# 
# High freq. dielectric constant tensor:
#      x y z
#    x 1.565450 0.000000 0.001640 
#    y 0.000000 1.508340 0.000000 
#    z 0.001640 0.000000 1.567020 
# 
# From -- ./inp_files/32582.got.cif
#   From: 2010.06.25/outbox.cif.g09.slc.cpg/sg10_17_cif.got.tgz:32582.got - 2010.06.27 22:07:45.
