data_PCOD8062897
_publ_section_title
;
Structure prediction by ZEFSAII (Michael W. Deem and Ramdas Pophale) SiO2 
 PCOD8062897
Probable space group: P 2/M
;
_chemical_formula_sum "Si O2"
_cell_formula_units_Z 28
_cell_length_a 7.650700
_cell_length_b 9.087660
_cell_length_c 27.389709
_cell_angle_alpha 90.000000
_cell_angle_beta 132.865152
_cell_angle_gamma 90.000000
_cell_volume 1395.786621
_symmetry_space_group_name_H-M "P 2/M"
_symmetry_group_IT_number 10
_symmetry_cell_setting 'monoclinic'
loop_
_space_group_symop_operation_xyz
x,y,z
-x,y,-z
-x,-y,-z
x,-y,z
loop_
_atom_site_type_symbol
_atom_site_label
_atom_site_fract_x
_atom_site_fract_y
_atom_site_fract_z
Si Si1 0.054520 0.838420 0.304782
Si Si2 0.740791 0.830821 0.431464
Si Si3 0.566380 0.160159 0.709468
Si Si4 0.612515 0.328601 0.570484
Si Si5 0.278431 0.173781 0.840655
Si Si6 0.814578 0.829782 0.922091
Si Si7 0.093607 0.325855 0.160640
O O1 0.264044 0.844789 0.305200
O O2 0.130275 0.739416 0.365564
O O3 0.822025 0.777340 0.231874
O O4 0.999709 0.000000 0.315515
O O5 0.697942 0.809863 0.364297
O O6 0.574483 0.708444 0.423471
O O7 0.000000 0.790780 0.500000
O O8 0.676085 0.000000 0.433816
O O9 0.658917 0.280795 0.765315
O O10 0.569778 0.000000 0.736469
O O11 0.500000 0.259284 0.500000
O O12 0.653577 0.500000 0.572312
O O13 0.555955 0.216003 0.894058
O O14 0.138583 0.257315 0.857199
O O15 0.234394 0.000000 0.840240
O O16 0.894286 0.729825 0.892245
O O17 0.813618 0.000000 0.905460
O O18 0.000000 0.799630 0.000000
O O19 0.069256 0.500000 0.156877
#
# Coordination Sequence:
#
# PCOD8062897 Si02
#       7
#     4   4   4   4   4   4   4
#     4   8  15  30  53  76  98 132 179 228 270 314
#     4   9  18  33  52  74  99 132 178 228 273 316
#     4   8  15  31  54  76 103 138 182 230 270 323
#     4  10  20  32  46  69 104 141 174 215 269 328
#     4   9  19  38  62  86 112 146 192 238 281 333
#     4  10  22  41  64  88 116 151 192 238 283 334
#     4  11  22  36  58  87 119 154 188 229 286 345
#
# _framework density 20.060372999999998
#
# number of rings (size 3 to 8) (size 9 to 14) (size 15 to 20)
#    0.000    2.714    0.000    3.429    0.000    8.000 
#    2.571    2.857    0.000    0.000    0.000    0.000 
#    0.000    0.000    0.000    0.000    0.000    0.000 
#
# Total GULP energy -346919.680963 kJ/mol
# GULP energy per Si atom -12389.988606 kJ/mol
# Density = 2.001472 g / cm^3
# Si number density = 20.060373 Si / 1000 Ang^3
#
#
#
# Elastic Constant Matrix: (Units=GPa)
#
#
# Indices 1 2 3 4 5 6 
#
# 1 68.6963 44.8507 58.7308 0.0000 3.1270 0.0000
# 2 44.8507 94.6854 59.1247 0.0000 -8.6261 0.0000
# 3 58.7308 59.1247 171.3905 0.0000 10.3720 0.0000
# 4 0.0000 0.0000 0.0000 17.2478 0.0000 -11.6373
# 5 3.1270 -8.6261 10.3720 0.0000 30.0015 0.0000
# 6 0.0000 0.0000 0.0000 -11.6373 0.0000 16.3408
#
#
#
# Elastic Compliance Matrix: (Units=1/GPa)
#
#
# Indices 1 2 3 4 5 6 
#
# 1 0.025028 -0.008827 -0.005331 0.000000 -0.003304 0.000000
# 2 -0.008827 0.017560 -0.003467 0.000000 0.007167 0.000000
# 3 -0.005331 -0.003467 0.009074 0.000000 -0.003578 0.000000
# 4 0.000000 0.000000 0.000000 0.111605 0.000000 0.079481
# 5 -0.003304 0.007167 -0.003578 0.000000 0.036974 0.000000
# 6 0.000000 0.000000 0.000000 0.079481 0.000000 0.117800
#
#
# Mechanical properties :
#
#
# Convention : Reuss Voigt Hill
#
# Bulk Modulus (GPa) = 60.93158 73.35384 67.14271
# Shear Modulus (GPa) = 13.93676 24.18908 19.06292
#
# Velocity S-wave (km/s) = 2.63865 3.47625 3.08600
# Velocity P-wave (km/s) = 6.30265 7.26349 6.80006
#
# Compressibility (1/GPa) = 0.01641185
#
# Stress axis : x y z
#
# Youngs Moduli (GPa) = 39.95446 56.94665 110.20486
#
# Poissons Ratio (x) = 0.50269 0.58756
# Poissons Ratio (y) = 0.35269 0.38204
# Poissons Ratio (z) = 0.21302 0.19741
#
# Static dielectric constant tensor:
#      x y z
#    x 3.234990 0.000000 0.189610 
#    y 0.000000 3.451240 0.000000 
#    z 0.189610 0.000000 4.264250 
# 
# 
# High freq. dielectric constant tensor:
#      x y z
#    x 1.749470 0.000000 0.003660 
#    y 0.000000 1.762740 0.000000 
#    z 0.003660 0.000000 1.804080 
# 
# From -- ./inp_files/94549.got.cif
#   From: 2010.06.25/outbox.cif.g09.slc.cpg/sg10_48_cif.got.tgz:94549.got - 2010.06.27 22:07:45.
