data_PCOD8062689
_publ_section_title
;
Structure prediction by ZEFSAII (Michael W. Deem and Ramdas Pophale) SiO2 
 PCOD8062689
Probable space group: P 2/M
;
_chemical_formula_sum "Si O2"
_cell_formula_units_Z 24
_cell_length_a 14.408999
_cell_length_b 13.900237
_cell_length_c 11.463552
_cell_angle_alpha 90.000000
_cell_angle_beta 29.271638
_cell_angle_gamma 90.000000
_cell_volume 1122.639455
_symmetry_space_group_name_H-M "P 2/M"
_symmetry_group_IT_number 10
_symmetry_cell_setting 'monoclinic'
loop_
_space_group_symop_operation_xyz
x,y,z
-x,y,-z
-x,-y,-z
x,-y,z
loop_
_atom_site_type_symbol
_atom_site_label
_atom_site_fract_x
_atom_site_fract_y
_atom_site_fract_z
Si Si1 0.207318 0.608690 0.764943
Si Si2 0.569872 0.887395 0.546657
Si Si3 0.923796 0.111492 0.298643
Si Si4 0.262489 0.208955 0.027570
Si Si5 0.718837 0.889747 0.763584
Si Si6 0.570506 0.608714 0.239509
O O1 0.172835 0.500000 0.759902
O O2 0.359224 0.651594 0.503517
O O3 0.303818 0.609116 0.783547
O O4 0.000000 0.661134 0.000000
O O5 0.500000 0.840871 0.500000
O O6 0.792653 0.866265 0.328975
O O7 0.451454 0.847256 0.784301
O O8 0.532889 0.000000 0.584196
O O9 0.805610 0.134225 0.544280
O O10 0.991147 0.000000 0.221606
O O11 0.104156 0.182803 0.102861
O O12 0.318464 0.321924 0.972070
O O13 0.187439 0.174279 0.236107
O O14 0.753325 0.000000 0.761122
O O15 0.500000 0.862500 0.000000
O O16 0.558304 0.500000 0.201844
#
# Coordination Sequence:
#
# PCOD8062689 Si02
#       6
#     4   4   4   4   4   4
#     4   8  15  33  58  77 102 146 196 242 288 334
#     4  10  22  38  55  83 125 157 183 226 290 363
#     4  10  21  38  61  88 113 149 198 244 289 342
#     4  12  22  34  59  86 117 152 195 239 291 348
#     4  10  19  37  63  85 110 146 195 251 296 335
#     4   9  20  35  52  81 116 150 191 243 290 338
#
# _framework density 21.37819
#
# number of rings (size 3 to 8) (size 9 to 14) (size 15 to 20)
#    0.000    2.167    1.667    3.000    2.333    3.333 
#    0.000    2.500    0.000    2.500    0.000    0.000 
#    0.000    0.000    0.000    0.000    0.000    0.000 
#
# Total GULP energy -297405.324984 kJ/mol
# GULP energy per Si atom -12391.888541 kJ/mol
# Density = 2.132953 g / cm^3
# Si number density = 21.378190 Si / 1000 Ang^3
#
#
#
# Elastic Constant Matrix: (Units=GPa)
#
#
# Indices 1 2 3 4 5 6 
#
# 1 87.0731 35.3612 20.2185 0.0000 -11.0002 0.0000
# 2 35.3612 69.9623 35.8035 0.0000 -4.2740 0.0000
# 3 20.2185 35.8035 71.7563 0.0000 -24.7814 0.0000
# 4 0.0000 0.0000 0.0000 28.4976 0.0000 -4.7559
# 5 -11.0002 -4.2740 -24.7814 0.0000 35.7363 0.0000
# 6 0.0000 0.0000 0.0000 -4.7559 0.0000 6.6480
#
#
#
# Elastic Compliance Matrix: (Units=1/GPa)
#
#
# Indices 1 2 3 4 5 6 
#
# 1 0.014996 -0.007989 0.001347 0.000000 0.004595 0.000000
# 2 -0.007989 0.024381 -0.012829 0.000000 -0.008439 0.000000
# 3 0.001347 -0.012829 0.025734 0.000000 0.016725 0.000000
# 4 0.000000 0.000000 0.000000 0.039848 0.000000 0.028506
# 5 0.004595 -0.008439 0.016725 0.000000 0.039986 0.000000
# 6 0.000000 0.000000 0.000000 0.028506 0.000000 0.170813
#
#
# Mechanical properties :
#
#
# Convention : Reuss Voigt Hill
#
# Bulk Modulus (GPa) = 38.20983 45.72868 41.96925
# Shear Modulus (GPa) = 13.75815 23.33695 18.54755
#
# Velocity S-wave (km/s) = 2.53960 3.30756 2.94869
# Velocity P-wave (km/s) = 5.14893 6.00195 5.59173
#
# Compressibility (1/GPa) = 0.02617128
#
# Stress axis : x y z
#
# Youngs Moduli (GPa) = 66.68241 41.01625 38.85981
#
# Poissons Ratio (x) = 0.32766 -0.05236
# Poissons Ratio (y) = 0.53269 0.49851
# Poissons Ratio (z) = -0.08985 0.52618
#
# Static dielectric constant tensor:
#      x y z
#    x 3.888850 0.000000 -0.345500 
#    y 0.000000 3.789030 0.000000 
#    z -0.345500 0.000000 4.011030 
# 
# 
# High freq. dielectric constant tensor:
#      x y z
#    x 1.822620 0.000000 -0.025630 
#    y 0.000000 1.813680 0.000000 
#    z -0.025630 0.000000 1.838850 
# 
# From -- ./inp_files/51505.got.cif
#   From: 2010.06.25/outbox.cif.g09.slc.cpg/sg10_26_cif.got.tgz:51505.got - 2010.06.27 22:07:45.
