data_PCOD8062557
_publ_section_title
;
Structure prediction by ZEFSAII (Michael W. Deem and Ramdas Pophale) SiO2 
 PCOD8062557
Probable space group: P 2/M
;
_chemical_formula_sum "Si O2"
_cell_formula_units_Z 28
_cell_length_a 11.706774
_cell_length_b 8.519268
_cell_length_c 15.169002
_cell_angle_alpha 90.000000
_cell_angle_beta 116.163927
_cell_angle_gamma 90.000000
_cell_volume 1357.839625
_symmetry_space_group_name_H-M "P 2/M"
_symmetry_group_IT_number 10
_symmetry_cell_setting 'monoclinic'
loop_
_space_group_symop_operation_xyz
x,y,z
-x,y,-z
-x,-y,-z
x,-y,z
loop_
_atom_site_type_symbol
_atom_site_label
_atom_site_fract_x
_atom_site_fract_y
_atom_site_fract_z
Si Si1 0.859816 0.183353 0.981654
Si Si2 0.193008 0.684465 0.547873
Si Si3 0.834784 0.317082 0.163701
Si Si4 0.469327 0.313889 0.585796
Si Si5 0.555994 0.685446 0.108371
Si Si6 0.020706 0.181988 0.636360
Si Si7 0.370036 0.314119 0.195760
O O1 0.763297 0.230502 0.870693
O O2 0.851417 0.000000 0.998410
O O3 0.824488 0.276339 0.057699
O O4 0.000000 0.234168 0.000000
O O5 0.194063 0.500000 0.569240
O O6 0.333866 0.749295 0.574798
O O7 0.140048 0.773980 0.615209
O O8 0.102983 0.718555 0.433400
O O9 0.862976 0.500000 0.183287
O O10 0.703463 0.268697 0.166995
O O11 0.946452 0.222215 0.251014
O O12 0.500000 0.241920 0.500000
O O13 0.459124 0.500000 0.575938
O O14 0.582842 0.265038 0.690775
O O15 0.540899 0.500000 0.098534
O O16 0.477630 0.749105 0.164997
O O17 0.500000 0.761436 0.000000
O O18 0.988284 0.000000 0.615539
O O19 0.351179 0.500000 0.181446
#
# Coordination Sequence:
#
# PCOD8062557 Si02
#       7
#     4   4   4   4   4   4   4
#     4  11  25  42  56  78 118 158 192 235 286 339
#     4  10  19  36  60  85 114 153 201 241 284 344
#     4  11  21  37  62  88 114 149 195 236 283 350
#     4   9  19  35  58  88 117 145 189 249 296 334
#     4   9  16  30  55  86 114 140 179 237 291 337
#     4  11  22  36  56  85 123 155 186 238 299 345
#     4  10  19  36  61  86 113 149 191 238 292 346
#
# _framework density 20.620992999999999
#
# number of rings (size 3 to 8) (size 9 to 14) (size 15 to 20)
#    0.000    1.857    1.429    4.286    0.000    4.571 
#    0.000    6.429    0.000    3.000    0.000    0.000 
#    0.000    0.000    0.000    0.000    0.000    0.000 
#
# Total GULP energy -347238.937515 kJ/mol
# GULP energy per Si atom -12401.390626 kJ/mol
# Density = 2.057406 g / cm^3
# Si number density = 20.620993 Si / 1000 Ang^3
#
#
#
# Elastic Constant Matrix: (Units=GPa)
#
#
# Indices 1 2 3 4 5 6 
#
# 1 107.6686 18.2294 41.4730 0.0000 13.1947 0.0000
# 2 18.2294 43.2914 7.9465 0.0000 2.9558 0.0000
# 3 41.4730 7.9465 139.2554 0.0000 7.4841 0.0000
# 4 0.0000 0.0000 0.0000 13.6835 0.0000 -2.9738
# 5 13.1947 2.9558 7.4841 0.0000 30.0932 0.0000
# 6 0.0000 0.0000 0.0000 -2.9738 0.0000 14.5949
#
#
#
# Elastic Compliance Matrix: (Units=1/GPa)
#
#
# Indices 1 2 3 4 5 6 
#
# 1 0.011623 -0.004071 -0.003017 0.000000 -0.003946 0.000000
# 2 -0.004071 0.024888 -0.000175 0.000000 -0.000616 0.000000
# 3 -0.003017 -0.000175 0.008126 0.000000 -0.000681 0.000000
# 4 0.000000 0.000000 0.000000 0.076467 0.000000 0.015581
# 5 -0.003946 -0.000616 -0.000681 0.000000 0.035190 0.000000
# 6 0.000000 0.000000 0.000000 0.015581 0.000000 0.071692
#
#
# Mechanical properties :
#
#
# Convention : Reuss Voigt Hill
#
# Bulk Modulus (GPa) = 33.21037 47.27924 40.24480
# Shear Modulus (GPa) = 19.79827 26.51209 23.15518
#
# Velocity S-wave (km/s) = 3.10191 3.58953 3.35460
# Velocity P-wave (km/s) = 5.38231 6.33697 5.87905
#
# Compressibility (1/GPa) = 0.03011108
#
# Stress axis : x y z
#
# Youngs Moduli (GPa) = 86.03812 40.18063 123.05922
#
# Poissons Ratio (x) = 0.16357 0.37128
# Poissons Ratio (y) = 0.35026 0.02150
# Poissons Ratio (z) = 0.25959 0.00702
#
# Static dielectric constant tensor:
#      x y z
#    x 3.800680 0.000000 0.036120 
#    y 0.000000 3.366590 0.000000 
#    z 0.036120 0.000000 3.881940 
# 
# 
# High freq. dielectric constant tensor:
#      x y z
#    x 1.798670 0.000000 0.008370 
#    y 0.000000 1.774490 0.000000 
#    z 0.008370 0.000000 1.821890 
# 
# From -- ./inp_files/63939.got.cif
#   From: 2010.06.25/outbox.cif.g09.slc.cpg/sg10_32_cif.got.tgz:63939.got - 2010.06.27 22:07:45.
