data_PCOD8062517
_publ_section_title
;
Structure prediction by ZEFSAII (Michael W. Deem and Ramdas Pophale) SiO2 
 PCOD8062517
Probable space group: P 2/M
;
_chemical_formula_sum "Si O2"
_cell_formula_units_Z 32
_cell_length_a 15.833142
_cell_length_b 19.920126
_cell_length_c 16.204050
_cell_angle_alpha 90.000000
_cell_angle_beta 18.246207
_cell_angle_gamma 90.000000
_cell_volume 1600.173698
_symmetry_space_group_name_H-M "P 2/M"
_symmetry_group_IT_number 10
_symmetry_cell_setting 'monoclinic'
loop_
_space_group_symop_operation_xyz
x,y,z
-x,y,-z
-x,-y,-z
x,-y,z
loop_
_atom_site_type_symbol
_atom_site_label
_atom_site_fract_x
_atom_site_fract_y
_atom_site_fract_z
Si Si1 0.550427 0.895018 0.667625
Si Si2 0.279450 0.074491 0.758886
Si Si3 0.451869 0.255410 0.348695
Si Si4 0.881560 0.295155 0.824227
Si Si5 0.535512 0.380412 0.563493
Si Si6 0.890047 0.575378 0.908868
Si Si7 0.792439 0.801563 0.763578
Si Si8 0.875865 0.076159 0.801268
O O1 0.368189 0.934269 0.771149
O O2 0.591296 0.821735 0.590572
O O3 0.847671 0.925922 0.402684
O O4 0.384920 0.898785 0.906106
O O5 0.500000 0.114094 0.500000
O O6 0.244318 0.000000 0.752992
O O7 0.000000 0.113670 0.000000
O O8 0.463039 0.300042 0.421371
O O9 0.200796 0.280864 0.526767
O O10 0.732681 0.259110 0.038549
O O11 0.765258 0.263861 0.847900
O O12 0.826936 0.374918 0.889647
O O13 0.500000 0.394627 0.500000
O O14 0.808218 0.414628 0.339993
O O15 0.297375 0.412638 0.837939
O O16 0.850030 0.500000 0.912685
O O17 0.908921 0.869080 0.698336
O O18 0.000000 0.781373 0.500000
O O19 0.500000 0.818615 0.000000
O O20 0.823639 0.000000 0.816862
#
# Coordination Sequence:
#
# PCOD8062517 Si02
#       8
#     4   4   4   4   4   4   4   4
#     4  12  21  39  62  81 111 156 203 242 293 352
#     4  10  21  35  50  74 106 140 186 241 288 329
#     4  10  19  36  59  79 110 156 198 241 281 331
#     4  10  20  40  59  85 116 147 195 238 272 347
#     4  10  21  34  53  86 126 159 200 247 286 333
#     4  10  21  36  60  86 117 165 200 234 288 338
#     4  12  24  40  65  90 116 150 188 231 303 364
#     4  12  25  40  61  89 118 152 193 241 296 364
#
# _framework density 19.997827999999998
#
# number of rings (size 3 to 8) (size 9 to 14) (size 15 to 20)
#    0.000    1.250    2.500    4.125    0.000    3.500 
#    0.000    2.500    0.000    0.750    0.000    0.000 
#    0.000    0.000    0.000    0.000    0.000    0.000 
#
# Total GULP energy -396633.784350 kJ/mol
# GULP energy per Si atom -12394.805761 kJ/mol
# Density = 1.995231 g / cm^3
# Si number density = 19.997828 Si / 1000 Ang^3
#
#
#
# Elastic Constant Matrix: (Units=GPa)
#
#
# Indices 1 2 3 4 5 6 
#
# 1 112.1682 70.8152 100.6095 0.0000 -21.0204 0.0000
# 2 70.8152 192.3297 126.7218 0.0000 -16.6187 0.0000
# 3 100.6095 126.7218 357.3624 0.0000 -60.8351 0.0000
# 4 0.0000 0.0000 0.0000 25.4657 0.0000 -0.0031
# 5 -21.0204 -16.6187 -60.8351 0.0000 46.7306 0.0000
# 6 0.0000 0.0000 0.0000 -0.0031 0.0000 4.9626
#
#
#
# Elastic Compliance Matrix: (Units=1/GPa)
#
#
# Indices 1 2 3 4 5 6 
#
# 1 0.013377 -0.003252 -0.002294 0.000000 0.001875 0.000000
# 2 -0.003252 0.007606 -0.002017 0.000000 -0.001384 0.000000
# 3 -0.002294 -0.002017 0.004961 0.000000 0.004709 0.000000
# 4 0.000000 0.000000 0.000000 0.039268 0.000000 0.000024
# 5 0.001875 -0.001384 0.004709 0.000000 0.027881 0.000000
# 6 0.000000 0.000000 0.000000 0.000024 0.000000 0.201506
#
#
# Mechanical properties :
#
#
# Convention : Reuss Voigt Hill
#
# Bulk Modulus (GPa) = 92.43662 139.79483 116.11572
# Shear Modulus (GPa) = 15.95750 39.67938 27.81844
#
# Velocity S-wave (km/s) = 2.82789 4.45925 3.73376
# Velocity P-wave (km/s) = 7.54892 9.82700 8.76231
#
# Compressibility (1/GPa) = 0.01081822
#
# Stress axis : x y z
#
# Youngs Moduli (GPa) = 74.75509 131.46886 201.57044
#
# Poissons Ratio (x) = 0.42755 0.46235
# Poissons Ratio (y) = 0.24311 0.40662
# Poissons Ratio (z) = 0.17147 0.26521
#
# Static dielectric constant tensor:
#      x y z
#    x 3.324480 0.000000 -0.216450 
#    y 0.000000 3.676930 0.000000 
#    z -0.216450 0.000000 4.072540 
# 
# 
# High freq. dielectric constant tensor:
#      x y z
#    x 1.747990 0.000000 -0.007940 
#    y 0.000000 1.774080 0.000000 
#    z -0.007940 0.000000 1.807720 
# 
# From -- ./inp_files/67916.got.cif
#   From: 2010.06.25/outbox.cif.g09.slc.cpg/sg10_34_cif.got.tgz:67916.got - 2010.06.27 22:07:45.
