data_PCOD8062585
_publ_section_title
;
Structure prediction by ZEFSAII (Michael W. Deem and Ramdas Pophale) SiO2 
 PCOD8062585
Probable space group: P 2/M
;
_chemical_formula_sum "Si O2"
_cell_formula_units_Z 32
_cell_length_a 15.274964
_cell_length_b 23.227899
_cell_length_c 8.937972
_cell_angle_alpha 90.000000
_cell_angle_beta 29.226896
_cell_angle_gamma 90.000000
_cell_volume 1548.419387
_symmetry_space_group_name_H-M "P 2/M"
_symmetry_group_IT_number 10
_symmetry_cell_setting 'monoclinic'
loop_
_space_group_symop_operation_xyz
x,y,z
-x,y,-z
-x,-y,-z
x,-y,z
loop_
_atom_site_type_symbol
_atom_site_label
_atom_site_fract_x
_atom_site_fract_y
_atom_site_fract_z
Si Si1 0.695829 0.861657 0.273471
Si Si2 0.846674 0.259359 0.023850
Si Si3 0.325101 0.854356 0.343804
Si Si4 0.180093 0.360531 0.135761
Si Si5 0.748465 0.273070 0.497502
Si Si6 0.532125 0.385072 0.796425
Si Si7 0.162918 0.432861 0.859873
Si Si8 0.990947 0.064151 0.191589
O O1 0.500000 0.861599 0.500000
O O2 0.667803 0.864196 0.491232
O O3 0.816404 0.807850 0.037159
O O4 0.812173 0.916255 0.044095
O O5 0.777083 0.296051 0.986921
O O6 0.048712 0.280024 0.750278
O O7 0.731602 0.272224 0.343154
O O8 0.313901 0.786003 0.330448
O O9 0.158017 0.890759 0.527354
O O10 0.500000 0.878756 0.000000
O O11 0.000000 0.363372 0.500000
O O12 0.344229 0.376647 0.995377
O O13 0.161702 0.402125 0.021074
O O14 0.625611 0.326897 0.722907
O O15 0.654423 0.420583 0.500545
O O16 0.500000 0.420321 0.000000
O O17 0.142658 0.500000 0.922196
O O18 0.000000 0.409648 0.000000
O O19 0.949084 0.000000 0.314339
O O20 0.000000 0.065322 0.000000
#
# Coordination Sequence:
#
# PCOD8062585 Si02
#       8
#     4   4   4   4   4   4   4   4
#     4  10  21  36  58  86 119 159 203 253 313 376
#     4  10  20  36  59  86 123 161 202 255 314 381
#     4  10  20  35  58  87 117 155 204 255 309 372
#     4  12  26  42  65  97 132 170 214 263 322 379
#     4  10  19  36  61  85 123 162 203 254 315 376
#     4  12  25  41  66  96 130 170 215 264 321 381
#     4  11  25  47  72  97 131 173 216 263 314 373
#     4   9  18  37  60  83 115 161 211 253 302 374
#
# _framework density 20.666236000000001
#
# number of rings (size 3 to 8) (size 9 to 14) (size 15 to 20)
#    0.000    1.500    2.500    3.000    3.500    2.000 
#    0.000    0.625    0.000    0.750    0.000    0.000 
#    0.000    0.000    0.000    0.000    0.000    0.000 
#
# Total GULP energy -396643.268068 kJ/mol
# GULP energy per Si atom -12395.102127 kJ/mol
# Density = 2.061920 g / cm^3
# Si number density = 20.666236 Si / 1000 Ang^3
#
#
#
# Elastic Constant Matrix: (Units=GPa)
#
#
# Indices 1 2 3 4 5 6 
#
# 1 106.2023 35.3038 44.6457 0.0000 -10.8295 0.0000
# 2 35.3038 82.2035 40.7906 0.0000 2.3170 0.0000
# 3 44.6457 40.7906 124.9775 0.0000 -5.8073 0.0000
# 4 0.0000 0.0000 0.0000 1.9184 0.0000 -6.3410
# 5 -10.8295 2.3170 -5.8073 0.0000 37.0815 0.0000
# 6 0.0000 0.0000 0.0000 -6.3410 0.0000 15.6165
#
#
#
# Elastic Compliance Matrix: (Units=1/GPa)
#
#
# Indices 1 2 3 4 5 6 
#
# 1 0.012305 -0.003910 -0.002963 0.000000 0.003374 0.000000
# 2 -0.003910 0.015860 -0.003907 0.000000 -0.002745 0.000000
# 3 -0.002963 -0.003907 0.010382 0.000000 0.001005 0.000000
# 4 0.000000 0.000000 0.000000 -1.523637 0.000000 -0.618662
# 5 0.003374 -0.002745 0.001005 0.000000 0.028282 0.000000
# 6 0.000000 0.000000 0.000000 -0.618662 0.000000 -0.187168
#
#
# Mechanical properties :
#
#
# Convention : Reuss Voigt Hill
#
# Bulk Modulus (GPa) = 58.86707 61.65149 60.25928
# Shear Modulus (GPa) = -3.09262 23.76614 10.33676
#
# Velocity S-wave (km/s) = -1.22463 3.39484 2.23889
# Velocity P-wave (km/s) = 5.15237 6.72780 5.99209
#
# Compressibility (1/GPa) = 0.01698743
#
# Stress axis : x y z
#
# Youngs Moduli (GPa) = 81.26622 63.05071 96.32111
#
# Poissons Ratio (x) = 0.24650 0.28540
# Poissons Ratio (y) = 0.31771 0.37637
# Poissons Ratio (z) = 0.24079 0.24637
#
# Static dielectric constant tensor:
#      x y z
#    x 3.674520 0.000000 -0.098340 
#    y 0.000000 3.863550 0.000000 
#    z -0.098340 0.000000 3.830460 
# 
# 
# High freq. dielectric constant tensor:
#      x y z
#    x 1.795360 0.000000 -0.008790 
#    y 0.000000 1.802400 0.000000 
#    z -0.008790 0.000000 1.820000 
# 
# From -- ./inp_files/30565.got.cif
#   From: 2010.06.25/outbox.cif.g09.slc.cpg/sg10_16_cif.got.tgz:30565.got - 2010.06.27 22:07:45.
