data_PCOD8062822
_publ_section_title
;
Structure prediction by ZEFSAII (Michael W. Deem and Ramdas Pophale) SiO2 
 PCOD8062822
Probable space group: P 2/M
;
_chemical_formula_sum "Si O2"
_cell_formula_units_Z 32
_cell_length_a 29.316986
_cell_length_b 8.986864
_cell_length_c 13.468564
_cell_angle_alpha 90.000000
_cell_angle_beta 34.830330
_cell_angle_gamma 90.000000
_cell_volume 2026.737826
_symmetry_space_group_name_H-M "P 2/M"
_symmetry_group_IT_number 10
_symmetry_cell_setting 'monoclinic'
loop_
_space_group_symop_operation_xyz
x,y,z
-x,y,-z
-x,-y,-z
x,-y,z
loop_
_atom_site_type_symbol
_atom_site_label
_atom_site_fract_x
_atom_site_fract_y
_atom_site_fract_z
Si Si1 0.324344 0.832181 0.119572
Si Si2 0.443530 0.675444 0.399880
Si Si3 0.582902 0.168308 0.247800
Si Si4 0.834285 0.324116 0.900868
Si Si5 0.685551 0.824688 0.254382
Si Si6 0.835039 0.824294 0.686986
Si Si7 0.008922 0.835796 0.366660
Si Si8 0.465239 0.675426 0.959398
O O1 0.231891 0.780159 0.275331
O O2 0.330046 0.000000 0.148936
O O3 0.357703 0.816738 0.949658
O O4 0.374806 0.732747 0.105677
O O5 0.430832 0.500000 0.427586
O O6 0.506768 0.725056 0.371038
O O7 0.359144 0.757572 0.569138
O O8 0.476834 0.727877 0.233172
O O9 0.631598 0.218296 0.256677
O O10 0.550450 0.000000 0.316410
O O11 0.825509 0.500000 0.916064
O O12 0.820388 0.263518 0.815078
O O13 0.922064 0.280100 0.785917
O O14 0.770885 0.253580 0.089984
O O15 0.698122 0.000000 0.244123
O O16 0.921265 0.784873 0.483986
O O17 0.829273 0.000000 0.723297
O O18 0.000000 0.844460 0.500000
O O19 0.031196 0.000000 0.285463
O O20 0.460033 0.500000 0.972603
O O21 0.500000 0.740386 0.000000
#
# Coordination Sequence:
#
# PCOD8062822 Si02
#       8
#     4   4   4   4   4   4   4   4
#     4   9  16  28  46  67  87 111 149 187 216 251
#     4  10  20  31  44  64  85 107 143 184 218 255
#     4   9  17  29  43  58  82 116 147 175 212 256
#     4  11  20  27  39  60  87 117 152 188 219 248
#     4  11  20  31  44  58  84 119 151 179 214 260
#     4   9  16  29  44  60  85 118 151 183 219 260
#     4   8  15  27  42  56  79 117 154 181 214 258
#     4   9  19  35  50  64  88 118 142 173 224 274
#
# _framework density 15.788919
#
# number of rings (size 3 to 8) (size 9 to 14) (size 15 to 20)
#    0.000    2.500    1.250    3.000    0.000    6.000 
#    0.000    0.000    0.000    0.000    0.000    0.000 
#    0.000    1.000    0.000   11.500    0.000    3.500 
#
# Total GULP energy -396681.657936 kJ/mol
# GULP energy per Si atom -12396.301810 kJ/mol
# Density = 1.575298 g / cm^3
# Si number density = 15.788919 Si / 1000 Ang^3
#
#
#
# Elastic Constant Matrix: (Units=GPa)
#
#
# Indices 1 2 3 4 5 6 
#
# 1 71.1472 24.9023 46.8997 0.0000 -17.6478 0.0000
# 2 24.9023 70.2196 47.3534 0.0000 -10.7486 0.0000
# 3 46.8997 47.3534 106.6530 0.0000 -26.4625 0.0000
# 4 0.0000 0.0000 0.0000 19.0817 0.0000 0.4429
# 5 -17.6478 -10.7486 -26.4625 0.0000 18.8608 0.0000
# 6 0.0000 0.0000 0.0000 0.4429 0.0000 11.9537
#
#
#
# Elastic Compliance Matrix: (Units=1/GPa)
#
#
# Indices 1 2 3 4 5 6 
#
# 1 0.021205 -0.001972 -0.005837 0.000000 0.010528 0.000000
# 2 -0.001972 0.020544 -0.008908 0.000000 -0.002636 0.000000
# 3 -0.005837 -0.008908 0.020377 0.000000 0.018052 0.000000
# 4 0.000000 0.000000 0.000000 0.052451 0.000000 -0.001944
# 5 0.010528 -0.002636 0.018052 0.000000 0.086696 0.000000
# 6 0.000000 0.000000 0.000000 -0.001944 0.000000 0.083728
#
#
# Mechanical properties :
#
#
# Convention : Reuss Voigt Hill
#
# Bulk Modulus (GPa) = 34.85390 54.03675 44.44532
# Shear Modulus (GPa) = 15.24390 18.57019 16.90704
#
# Velocity S-wave (km/s) = 3.11059 3.43323 3.27588
# Velocity P-wave (km/s) = 5.91810 7.07212 6.52069
#
# Compressibility (1/GPa) = 0.02869120
#
# Stress axis : x y z
#
# Youngs Moduli (GPa) = 47.15959 48.67489 49.07462
#
# Poissons Ratio (x) = 0.09600 0.28643
# Poissons Ratio (y) = 0.09301 0.43718
# Poissons Ratio (z) = 0.27526 0.43362
#
# Static dielectric constant tensor:
#      x y z
#    x 2.853510 0.000000 -0.316350 
#    y 0.000000 2.961960 0.000000 
#    z -0.316350 0.000000 3.291040 
# 
# 
# High freq. dielectric constant tensor:
#      x y z
#    x 1.556920 0.000000 -0.027760 
#    y 0.000000 1.606520 0.000000 
#    z -0.027760 0.000000 1.604340 
# 
# From -- ./inp_files/72553.got.cif
#   From: 2010.06.25/outbox.cif.g09.slc.cpg/sg10_37_cif.got.tgz:72553.got - 2010.06.27 22:07:45.
