data_PCOD8062568
_publ_section_title
;
Structure prediction by ZEFSAII (Michael W. Deem and Ramdas Pophale) SiO2 
 PCOD8062568
Probable space group: P 2/M
;
_chemical_formula_sum "Si O2"
_cell_formula_units_Z 32
_cell_length_a 15.166572
_cell_length_b 9.084862
_cell_length_c 22.561693
_cell_angle_alpha 90.000000
_cell_angle_beta 31.583897
_cell_angle_gamma 90.000000
_cell_volume 1628.165661
_symmetry_space_group_name_H-M "P 2/M"
_symmetry_group_IT_number 10
_symmetry_cell_setting 'monoclinic'
loop_
_space_group_symop_operation_xyz
x,y,z
-x,y,-z
-x,-y,-z
x,-y,z
loop_
_atom_site_type_symbol
_atom_site_label
_atom_site_fract_x
_atom_site_fract_y
_atom_site_fract_z
Si Si1 0.002822 0.825212 0.240212
Si Si2 0.429764 0.826226 0.703500
Si Si3 0.721504 0.669221 0.590963
Si Si4 0.946940 0.669381 0.667143
Si Si5 0.336410 0.174651 0.627354
Si Si6 0.364203 0.674660 0.229950
Si Si7 0.172124 0.669132 0.930118
Si Si8 0.261019 0.669785 0.010932
O O1 0.999450 0.770586 0.309218
O O2 0.835138 0.763984 0.303553
O O3 0.008663 0.000000 0.235697
O O4 0.169212 0.764567 0.113219
O O5 0.616133 0.759546 0.602413
O O6 0.345246 0.773669 0.690477
O O7 0.322067 0.768200 0.820120
O O8 0.443483 0.000000 0.698233
O O9 0.662862 0.500000 0.621658
O O10 0.917449 0.685151 0.463106
O O11 0.687044 0.736536 0.676011
O O12 0.933826 0.500000 0.695871
O O13 0.769842 0.727325 0.742382
O O14 0.500000 0.239244 0.500000
O O15 0.337421 0.000000 0.621875
O O16 0.361571 0.500000 0.235957
O O17 0.548784 0.730418 0.105175
O O18 0.208165 0.500000 0.892378
O O19 0.160825 0.689319 0.006928
O O20 0.000000 0.726380 0.000000
O O21 0.262800 0.500000 0.030050
#
# Coordination Sequence:
#
# PCOD8062568 Si02
#       8
#     4   4   4   4   4   4   4   4
#     4  11  23  39  58  81 115 152 190 237 284 336
#     4  11  21  33  55  84 113 148 188 229 279 341
#     4  10  19  36  60  87 117 145 185 237 289 342
#     4  10  21  37  61  87 110 145 193 241 286 339
#     4   9  19  36  55  76 108 152 193 226 271 333
#     4   9  18  36  61  86 112 147 189 234 285 340
#     4  10  20  35  56  82 112 146 185 235 287 332
#     4  10  20  37  59  81 113 151 189 231 277 339
#
# _framework density 19.654019000000002
#
# number of rings (size 3 to 8) (size 9 to 14) (size 15 to 20)
#    0.000    2.000    1.250    2.625    0.000    4.250 
#    0.000    5.625    0.000    6.000    0.000    0.000 
#    0.000    0.000    0.000    0.000    0.000    0.000 
#
# Total GULP energy -396886.859902 kJ/mol
# GULP energy per Si atom -12402.714372 kJ/mol
# Density = 1.960929 g / cm^3
# Si number density = 19.654019 Si / 1000 Ang^3
#
#
#
# Elastic Constant Matrix: (Units=GPa)
#
#
# Indices 1 2 3 4 5 6 
#
# 1 113.2964 28.8900 43.4421 0.0000 -12.8205 0.0000
# 2 28.8900 50.5148 28.1745 0.0000 0.7578 0.0000
# 3 43.4421 28.1745 115.6229 0.0000 -5.3665 0.0000
# 4 0.0000 0.0000 0.0000 21.1641 0.0000 0.4960
# 5 -12.8205 0.7578 -5.3665 0.0000 38.3115 0.0000
# 6 0.0000 0.0000 0.0000 0.4960 0.0000 24.1168
#
#
#
# Elastic Compliance Matrix: (Units=1/GPa)
#
#
# Indices 1 2 3 4 5 6 
#
# 1 0.011667 -0.005062 -0.002984 0.000000 0.003586 0.000000
# 2 -0.005062 0.025165 -0.004360 0.000000 -0.002803 0.000000
# 3 -0.002984 -0.004360 0.010861 0.000000 0.000609 0.000000
# 4 0.000000 0.000000 0.000000 0.047273 0.000000 -0.000972
# 5 0.003586 -0.002803 0.000609 0.000000 0.027443 0.000000
# 6 0.000000 0.000000 0.000000 -0.000972 0.000000 0.041485
#
#
# Mechanical properties :
#
#
# Convention : Reuss Voigt Hill
#
# Bulk Modulus (GPa) = 43.70479 53.38303 48.54391
# Shear Modulus (GPa) = 25.46700 28.64697 27.05699
#
# Velocity S-wave (km/s) = 3.60358 3.82195 3.71437
# Velocity P-wave (km/s) = 6.29283 6.83350 6.56873
#
# Compressibility (1/GPa) = 0.02288078
#
# Stress axis : x y z
#
# Youngs Moduli (GPa) = 85.71096 39.73724 92.07635
#
# Poissons Ratio (x) = 0.20116 0.27472
# Poissons Ratio (y) = 0.43389 0.40147
# Poissons Ratio (z) = 0.25572 0.17326
#
# Static dielectric constant tensor:
#      x y z
#    x 3.722940 0.000000 -0.182840 
#    y 0.000000 3.235660 0.000000 
#    z -0.182840 0.000000 3.676810 
# 
# 
# High freq. dielectric constant tensor:
#      x y z
#    x 1.774760 0.000000 -0.005690 
#    y 0.000000 1.730370 0.000000 
#    z -0.005690 0.000000 1.775250 
# 
# From -- ./inp_files/89503.got.cif
#   From: 2010.06.25/outbox.cif.g09.slc.cpg/sg10_45_cif.got.tgz:89503.got - 2010.06.27 22:07:45.
