data_PCOD8062853
_publ_section_title
;
Structure prediction by ZEFSAII (Michael W. Deem and Ramdas Pophale) SiO2 
 PCOD8062853
Probable space group: P 2/M
;
_chemical_formula_sum "Si O2"
_cell_formula_units_Z 24
_cell_length_a 12.863359
_cell_length_b 7.529840
_cell_length_c 25.526720
_cell_angle_alpha 90.000000
_cell_angle_beta 27.647226
_cell_angle_gamma 90.000000
_cell_volume 1147.302071
_symmetry_space_group_name_H-M "P 2/M"
_symmetry_group_IT_number 10
_symmetry_cell_setting 'monoclinic'
loop_
_space_group_symop_operation_xyz
x,y,z
-x,y,-z
-x,-y,-z
x,-y,z
loop_
_atom_site_type_symbol
_atom_site_label
_atom_site_fract_x
_atom_site_fract_y
_atom_site_fract_z
Si Si1 0.872438 0.500000 0.637866
Si Si2 0.344400 0.699598 0.613715
Si Si3 0.173234 0.209769 0.050871
Si Si4 0.134114 0.792720 0.183904
Si Si5 0.655744 0.500000 0.621540
Si Si6 0.358271 0.207641 0.191144
Si Si7 0.321752 0.800619 0.738987
O O1 0.755777 0.500000 0.634250
O O2 0.797922 0.322603 0.701469
O O3 0.142227 0.500000 0.511112
O O4 0.500000 0.787704 0.500000
O O5 0.426448 0.500000 0.590352
O O6 0.357741 0.813481 0.660554
O O7 0.096592 0.693792 0.700232
O O8 0.222528 0.278434 0.088120
O O9 0.930860 0.277044 0.137837
O O10 0.162306 0.000000 0.057745
O O11 0.379051 0.265997 0.920869
O O12 0.305556 0.752033 0.153899
O O13 0.082882 0.000000 0.203050
O O14 0.504671 0.675274 0.683785
O O15 0.320884 0.000000 0.221628
O O16 0.350024 0.000000 0.749379
#
# Coordination Sequence:
#
# PCOD8062853 Si02
#       7
#     2   4   4   4   2   4   4
#     4  11  28  45  63  87 114 150 205 261 308 357
#     4  10  20  31  50  84 127 161 196 244 282 340
#     4   8  16  35  60  93 129 159 194 236 285 358
#     4   9  18  31  52  84 125 168 196 227 285 349
#     4  11  26  49  63  82 118 151 199 265 312 358
#     4  10  21  39  63  89 124 162 201 245 293 352
#     4  10  21  39  66  90 116 159 200 239 303 361
#
# _framework density 20.91864
#
# number of rings (size 3 to 8) (size 9 to 14) (size 15 to 20)
#    0.000    2.333    0.833    2.000    3.500    5.333 
#    1.500    4.167    0.000    3.000    0.000    0.000 
#    0.000    0.000    0.000    0.000    0.000    0.000 
#
# Total GULP energy -297446.985362 kJ/mol
# GULP energy per Si atom -12393.624390 kJ/mol
# Density = 2.087103 g / cm^3
# Si number density = 20.918640 Si / 1000 Ang^3
#
#
#
# Elastic Constant Matrix: (Units=GPa)
#
#
# Indices 1 2 3 4 5 6 
#
# 1 59.7800 33.2397 33.0680 0.0000 -17.5467 0.0000
# 2 33.2397 89.7637 42.5489 0.0000 -8.2139 0.0000
# 3 33.0680 42.5489 113.4153 0.0000 -11.8306 0.0000
# 4 0.0000 0.0000 0.0000 25.0283 0.0000 -7.4626
# 5 -17.5467 -8.2139 -11.8306 0.0000 24.2811 0.0000
# 6 0.0000 0.0000 0.0000 -7.4626 0.0000 24.5264
#
#
#
# Elastic Compliance Matrix: (Units=1/GPa)
#
#
# Indices 1 2 3 4 5 6 
#
# 1 0.027154 -0.006873 -0.003723 0.000000 0.015484 0.000000
# 2 -0.006873 0.015404 -0.003950 0.000000 -0.001681 0.000000
# 3 -0.003723 -0.003950 0.011552 0.000000 0.001601 0.000000
# 4 0.000000 0.000000 0.000000 0.043941 0.000000 0.013370
# 5 0.015484 -0.001681 0.001601 0.000000 0.052585 0.000000
# 6 0.000000 0.000000 0.000000 0.013370 0.000000 0.044840
#
#
# Mechanical properties :
#
#
# Convention : Reuss Voigt Hill
#
# Bulk Modulus (GPa) = 39.97462 53.40801 46.69132
# Shear Modulus (GPa) = 21.46748 25.04067 23.25407
#
# Velocity S-wave (km/s) = 3.20697 3.46360 3.33775
# Velocity P-wave (km/s) = 5.73271 6.44841 6.10106
#
# Compressibility (1/GPa) = 0.02501587
#
# Stress axis : x y z
#
# Youngs Moduli (GPa) = 36.82651 64.91686 86.56624
#
# Poissons Ratio (x) = 0.44621 0.32233
# Poissons Ratio (y) = 0.25313 0.34197
# Poissons Ratio (z) = 0.13712 0.25644
#
# Static dielectric constant tensor:
#      x y z
#    x 3.521180 0.000000 -0.217640 
#    y 0.000000 3.675620 0.000000 
#    z -0.217640 0.000000 4.151520 
# 
# 
# High freq. dielectric constant tensor:
#      x y z
#    x 1.786930 0.000000 -0.017170 
#    y 0.000000 1.812280 0.000000 
#    z -0.017170 0.000000 1.826580 
# 
# From -- ./inp_files/88634.got.cif
#   From: 2010.06.25/outbox.cif.g09.slc.cpg/sg10_45_cif.got.tgz:88634.got - 2010.06.27 22:07:45.
