data_PCOD8062575
_publ_section_title
;
Structure prediction by ZEFSAII (Michael W. Deem and Ramdas Pophale) SiO2 
 PCOD8062575
Probable space group: P 2/M
;
_chemical_formula_sum "Si O2"
_cell_formula_units_Z 24
_cell_length_a 12.122118
_cell_length_b 13.537504
_cell_length_c 14.601126
_cell_angle_alpha 90.000000
_cell_angle_beta 150.753881
_cell_angle_gamma 90.000000
_cell_volume 1170.639742
_symmetry_space_group_name_H-M "P 2/M"
_symmetry_group_IT_number 10
_symmetry_cell_setting 'monoclinic'
loop_
_space_group_symop_operation_xyz
x,y,z
-x,y,-z
-x,-y,-z
x,-y,z
loop_
_atom_site_type_symbol
_atom_site_label
_atom_site_fract_x
_atom_site_fract_y
_atom_site_fract_z
Si Si1 0.760618 0.387900 0.372800
Si Si2 0.689790 0.817461 0.705490
Si Si3 0.822939 0.885504 0.992879
Si Si4 0.805735 0.392181 0.785018
Si Si5 0.601545 0.753036 0.979567
Si Si6 0.005120 0.389733 0.278694
O O1 0.681355 0.500000 0.293842
O O2 0.574783 0.312206 0.204106
O O3 0.000000 0.365419 0.500000
O O4 0.787176 0.371442 0.501252
O O5 0.500000 0.861908 0.500000
O O6 0.679548 0.872477 0.795386
O O7 0.639436 0.699778 0.683931
O O8 0.937621 0.829728 0.840643
O O9 0.680789 0.843925 0.974504
O O10 0.869976 0.000000 0.043998
O O11 0.681219 0.500000 0.699942
O O12 0.914005 0.375232 0.765193
O O13 0.000000 0.389032 0.000000
O O14 0.500000 0.797198 0.000000
O O15 0.808131 0.685464 0.159978
O O16 0.908879 0.500000 0.224531
#
# Coordination Sequence:
#
# PCOD8062575 Si02
#       6
#     4   4   4   4   4   4
#     4  10  21  36  58  91 128 167 209 247 290 363
#     4  11  22  42  72  94 120 162 207 258 316 372
#     4  11  26  46  64  91 122 154 213 275 321 376
#     4  10  19  36  60  93 135 168 197 239 297 368
#     4  12  23  38  65  91 123 168 206 254 316 370
#     4  10  20  36  58  89 129 167 203 241 290 364
#
# _framework density 20.501611
#
# number of rings (size 3 to 8) (size 9 to 14) (size 15 to 20)
#    0.000    1.333    5.000    1.500    2.333    2.667 
#    0.000    0.833    0.000    0.500    0.000    0.000 
#    0.000    0.000    0.000    0.000    0.000    0.000 
#
# Total GULP energy -297575.313862 kJ/mol
# GULP energy per Si atom -12398.971411 kJ/mol
# Density = 2.045495 g / cm^3
# Si number density = 20.501611 Si / 1000 Ang^3
#
#
#
# Elastic Constant Matrix: (Units=GPa)
#
#
# Indices 1 2 3 4 5 6 
#
# 1 113.0068 30.6279 30.5221 0.0000 -26.3468 0.0000
# 2 30.6279 114.9628 24.8656 0.0000 -0.9087 0.0000
# 3 30.5221 24.8656 96.3235 0.0000 -21.4350 0.0000
# 4 0.0000 0.0000 0.0000 2.6101 0.0000 -2.3555
# 5 -26.3468 -0.9087 -21.4350 0.0000 26.0690 0.0000
# 6 0.0000 0.0000 0.0000 -2.3555 0.0000 26.0577
#
#
#
# Elastic Compliance Matrix: (Units=1/GPa)
#
#
# Indices 1 2 3 4 5 6 
#
# 1 0.012722 -0.003193 -0.000453 0.000000 0.012373 0.000000
# 2 -0.003193 0.010101 -0.002736 0.000000 -0.005125 0.000000
# 3 -0.000453 -0.002736 0.013596 0.000000 0.010626 0.000000
# 4 0.000000 0.000000 0.000000 0.417164 0.000000 0.037710
# 5 0.012373 -0.005125 0.010626 0.000000 0.059423 0.000000
# 6 0.000000 0.000000 0.000000 0.037710 0.000000 0.041785
#
#
# Mechanical properties :
#
#
# Convention : Reuss Voigt Hill
#
# Bulk Modulus (GPa) = 42.27810 55.14714 48.71262
# Shear Modulus (GPa) = 8.68899 26.83253 17.76076
#
# Velocity S-wave (km/s) = 2.06092 3.62166 2.94651
# Velocity P-wave (km/s) = 5.13126 6.66678 5.94877
#
# Compressibility (1/GPa) = 0.02365291
#
# Stress axis : x y z
#
# Youngs Moduli (GPa) = 78.60585 99.00498 73.55003
#
# Poissons Ratio (x) = 0.31616 0.03334
# Poissons Ratio (y) = 0.25102 0.20123
# Poissons Ratio (z) = 0.03564 0.27088
#
# Static dielectric constant tensor:
#      x y z
#    x 3.808650 0.000000 -0.273690 
#    y 0.000000 3.726110 0.000000 
#    z -0.273690 0.000000 3.704730 
# 
# 
# High freq. dielectric constant tensor:
#      x y z
#    x 1.801240 0.000000 -0.022770 
#    y 0.000000 1.788900 0.000000 
#    z -0.022770 0.000000 1.802110 
# 
# From -- ./inp_files/65168.got.cif
#   From: 2010.06.25/outbox.cif.g09.slc.cpg/sg10_33_cif.got.tgz:65168.got - 2010.06.27 22:07:45.
