data_PCOD8062186
_publ_section_title
;
Structure prediction by ZEFSAII (Michael W. Deem and Ramdas Pophale) SiO2 
 PCOD8062186
Probable space group: P 2/M
;
_chemical_formula_sum "Si O2"
_cell_formula_units_Z 20
_cell_length_a 8.489444
_cell_length_b 11.731094
_cell_length_c 15.171442
_cell_angle_alpha 90.000000
_cell_angle_beta 132.851875
_cell_angle_gamma 90.000000
_cell_volume 1107.685260
_symmetry_space_group_name_H-M "P 2/M"
_symmetry_group_IT_number 10
_symmetry_cell_setting 'monoclinic'
loop_
_space_group_symop_operation_xyz
x,y,z
-x,y,-z
-x,-y,-z
x,-y,z
loop_
_atom_site_type_symbol
_atom_site_label
_atom_site_fract_x
_atom_site_fract_y
_atom_site_fract_z
Si Si1 0.264752 0.202045 0.395481
Si Si2 0.937895 0.000000 0.282825
Si Si3 0.618315 0.237298 0.750936
Si Si4 0.525795 0.000000 0.231863
Si Si5 0.000000 0.193736 0.000000
Si Si6 0.173045 0.000000 0.954723
Si Si7 0.775538 0.633321 0.459703
O O1 0.500000 0.146324 0.500000
O O2 0.253210 0.248486 0.291760
O O3 0.234546 0.308531 0.448946
O O4 0.082478 0.111161 0.345868
O O5 0.777109 0.000000 0.304225
O O6 0.800759 0.000000 0.140251
O O7 0.531871 0.109012 0.731362
O O8 0.790506 0.268927 0.894153
O O9 0.416752 0.322840 0.677100
O O10 0.399896 0.000000 0.091041
O O11 0.039609 0.112576 0.930610
O O12 0.747241 0.500000 0.463587
O O13 0.000000 0.663965 0.500000
#
# Coordination Sequence:
#
# PCOD8062186 Si02
#       7
#     4   2   4   2   2   2   4
#     4  10  21  33  53  78 105 138 178 215 256 311
#     4  12  18  31  48  80 114 140 176 209 261 304
#     4  10  19  35  55  79 108 141 176 213 258 308
#     4  10  21  30  50  79 113 143 171 209 257 315
#     4   9  16  32  53  78 108 142 175 211 254 302
#     4   9  17  29  49  73 110 148 175 203 248 311
#     4  10  22  40  58  76 101 135 175 221 271 315
#
# _framework density 18.055671
#
# number of rings (size 3 to 8) (size 9 to 14) (size 15 to 20)
#    0.000    2.000    2.000    3.000    0.000    6.000 
#    0.000    5.500    0.000    0.000    0.000    2.800 
#    0.000    0.000    0.000    0.000    0.000    0.000 
#
# Total GULP energy -247955.714761 kJ/mol
# GULP energy per Si atom -12397.785738 kJ/mol
# Density = 1.801458 g / cm^3
# Si number density = 18.055671 Si / 1000 Ang^3
#
#
#
# Elastic Constant Matrix: (Units=GPa)
#
#
# Indices 1 2 3 4 5 6 
#
# 1 113.9763 48.1706 51.2574 0.0000 12.2630 0.0000
# 2 48.1706 80.2939 48.9222 0.0000 9.6217 0.0000
# 3 51.2574 48.9222 111.6422 0.0000 10.0238 0.0000
# 4 0.0000 0.0000 0.0000 8.2772 0.0000 12.9753
# 5 12.2630 9.6217 10.0238 0.0000 30.0444 0.0000
# 6 0.0000 0.0000 0.0000 12.9753 0.0000 7.0963
#
#
#
# Elastic Compliance Matrix: (Units=1/GPa)
#
#
# Indices 1 2 3 4 5 6 
#
# 1 0.012787 -0.005373 -0.003301 0.000000 -0.002397 0.000000
# 2 -0.005373 0.019523 -0.005901 0.000000 -0.002091 0.000000
# 3 -0.003301 -0.005901 0.013162 0.000000 -0.001154 0.000000
# 4 0.000000 0.000000 0.000000 -0.064735 0.000000 0.118365
# 5 -0.002397 -0.002091 -0.001154 0.000000 0.035317 0.000000
# 6 0.000000 0.000000 0.000000 0.118365 0.000000 -0.075507
#
#
# Mechanical properties :
#
#
# Convention : Reuss Voigt Hill
#
# Bulk Modulus (GPa) = 61.26254 66.95697 64.10975
# Shear Modulus (GPa) = -201.11348 19.58772 -90.76288
#
# Velocity S-wave (km/s) = -10.56537 3.29728 -7.09771
# Velocity P-wave (km/s) = 10.71600 7.18750 5.62016
#
# Compressibility (1/GPa) = 0.01632319
#
# Stress axis : x y z
#
# Youngs Moduli (GPa) = 78.20458 51.22097 75.97492
#
# Poissons Ratio (x) = 0.27519 0.25081
# Poissons Ratio (y) = 0.42016 0.44831
# Poissons Ratio (z) = 0.25817 0.30224
#
# Static dielectric constant tensor:
#      x y z
#    x 3.415920 0.000000 0.156520 
#    y 0.000000 3.025170 0.000000 
#    z 0.156520 0.000000 3.475990 
# 
# 
# High freq. dielectric constant tensor:
#      x y z
#    x 1.705970 0.000000 0.009450 
#    y 0.000000 1.664060 0.000000 
#    z 0.009450 0.000000 1.708740 
# 
# From -- ./inp_files/60853.got.cif
#   From: 2010.06.25/outbox.cif.g09.slc.cpg/sg10_31_cif.got.tgz:60853.got - 2010.06.27 22:07:45.
