data_PCOD8062857
_publ_section_title
;
Structure prediction by ZEFSAII (Michael W. Deem and Ramdas Pophale) SiO2 
 PCOD8062857
Probable space group: P 2/M
;
_chemical_formula_sum "Si O2"
_cell_formula_units_Z 32
_cell_length_a 11.816905
_cell_length_b 9.334399
_cell_length_c 19.522038
_cell_angle_alpha 90.000000
_cell_angle_beta 50.896830
_cell_angle_gamma 90.000000
_cell_volume 1671.026830
_symmetry_space_group_name_H-M "P 2/M"
_symmetry_group_IT_number 10
_symmetry_cell_setting 'monoclinic'
loop_
_space_group_symop_operation_xyz
x,y,z
-x,y,-z
-x,-y,-z
x,-y,z
loop_
_atom_site_type_symbol
_atom_site_label
_atom_site_fract_x
_atom_site_fract_y
_atom_site_fract_z
Si Si1 0.081557 0.168901 0.316086
Si Si2 0.594572 0.668768 0.575344
Si Si3 0.838592 0.340880 0.589476
Si Si4 0.311915 0.834595 0.720529
Si Si5 0.685403 0.169654 0.876328
Si Si6 0.376094 0.170242 0.950897
Si Si7 0.762046 0.165615 0.404885
Si Si8 0.840162 0.169940 0.082003
O O1 0.172626 0.232051 0.343921
O O2 0.165557 0.219682 0.215909
O O3 0.915708 0.223777 0.375559
O O4 0.084082 0.000000 0.322839
O O5 0.573128 0.500000 0.572128
O O6 0.729072 0.708497 0.572551
O O7 0.453754 0.735062 0.665266
O O8 0.630809 0.742120 0.488091
O O9 0.798022 0.500000 0.630627
O O10 0.000000 0.336283 0.500000
O O11 0.229532 0.814274 0.679999
O O12 0.205316 0.785208 0.823147
O O13 0.359501 0.000000 0.712784
O O14 0.544718 0.223306 0.885884
O O15 0.672647 0.000000 0.884853
O O16 0.689834 0.228317 0.952122
O O17 0.281786 0.233696 0.923778
O O18 0.367019 0.000000 0.950233
O O19 0.735135 0.000000 0.434323
O O20 0.845907 0.000000 0.074239
O O21 0.000000 0.231788 0.000000
#
# Coordination Sequence:
#
# PCOD8062857 Si02
#       8
#     4   4   4   4   4   4   4   4
#     4  10  20  31  52  81 108 139 177 216 261 321
#     4  11  23  39  59  79 103 141 186 228 268 323
#     4  10  21  38  54  73 105 139 172 216 268 315
#     4  10  22  37  55  81 113 144 178 225 273 314
#     4   8  15  26  43  71 104 134 166 213 258 301
#     4   8  14  26  43  67 102 136 169 209 257 305
#     4  10  21  36  53  79 113 145 177 223 276 315
#     4   9  18  30  48  74 106 144 177 209 259 323
#
# _framework density 19.149902999999998
#
# number of rings (size 3 to 8) (size 9 to 14) (size 15 to 20)
#    0.000    2.500    1.250    1.500    3.500    3.250 
#    0.000    0.000    0.000    0.375    0.000    2.625 
#    0.000    0.000    0.000    0.000    0.000    0.000 
#
# Total GULP energy -396640.512104 kJ/mol
# GULP energy per Si atom -12395.016003 kJ/mol
# Density = 1.910632 g / cm^3
# Si number density = 19.149903 Si / 1000 Ang^3
#
#
#
# Elastic Constant Matrix: (Units=GPa)
#
#
# Indices 1 2 3 4 5 6 
#
# 1 93.9659 28.8164 47.0979 0.0000 7.0139 0.0000
# 2 28.8164 39.2949 40.7116 0.0000 -1.7835 0.0000
# 3 47.0979 40.7116 142.0749 0.0000 0.6185 0.0000
# 4 0.0000 0.0000 0.0000 -2.2393 0.0000 -8.4998
# 5 7.0139 -1.7835 0.6185 0.0000 29.3873 0.0000
# 6 0.0000 0.0000 0.0000 -8.4998 0.0000 13.7542
#
#
#
# Elastic Compliance Matrix: (Units=1/GPa)
#
#
# Indices 1 2 3 4 5 6 
#
# 1 0.014765 -0.008470 -0.002450 0.000000 -0.003987 0.000000
# 2 -0.008470 0.041225 -0.009026 0.000000 0.004714 0.000000
# 3 -0.002450 -0.009026 0.010438 0.000000 -0.000183 0.000000
# 4 0.000000 0.000000 0.000000 -0.133477 0.000000 -0.082485
# 5 -0.003987 0.004714 -0.000183 0.000000 0.035270 0.000000
# 6 0.000000 0.000000 0.000000 -0.082485 0.000000 0.021731
#
#
# Mechanical properties :
#
#
# Convention : Reuss Voigt Hill
#
# Bulk Modulus (GPa) = 37.68466 56.50970 47.09718
# Shear Modulus (GPa) = 129.23026 18.76110 73.99568
#
# Velocity S-wave (km/s) = 8.22375 3.13341 6.22287
# Velocity P-wave (km/s) = 10.48307 6.53178 8.73381
#
# Compressibility (1/GPa) = 0.02653599
#
# Stress axis : x y z
#
# Youngs Moduli (GPa) = 67.72569 24.25697 95.80488
#
# Poissons Ratio (x) = 0.20547 0.23474
# Poissons Ratio (y) = 0.57367 0.86470
# Poissons Ratio (z) = 0.16594 0.21894
#
# Static dielectric constant tensor:
#      x y z
#    x 3.739070 0.000000 0.013610 
#    y 0.000000 3.068100 0.000000 
#    z 0.013610 0.000000 3.751880 
# 
# 
# High freq. dielectric constant tensor:
#      x y z
#    x 1.755240 0.000000 0.000760 
#    y 0.000000 1.688860 0.000000 
#    z 0.000760 0.000000 1.751500 
# 
# From -- ./inp_files/83541.got.cif
#   From: 2010.06.25/outbox.cif.g09.slc.cpg/sg10_42_cif.got.tgz:83541.got - 2010.06.27 22:07:45.
