data_PCOD8062896
_publ_section_title
;
Structure prediction by ZEFSAII (Michael W. Deem and Ramdas Pophale) SiO2 
 PCOD8062896
Probable space group: P 2/M
;
_chemical_formula_sum "Si O2"
_cell_formula_units_Z 32
_cell_length_a 20.170437
_cell_length_b 8.968507
_cell_length_c 12.039514
_cell_angle_alpha 90.000000
_cell_angle_beta 57.613470
_cell_angle_gamma 90.000000
_cell_volume 1839.163531
_symmetry_space_group_name_H-M "P 2/M"
_symmetry_group_IT_number 10
_symmetry_cell_setting 'monoclinic'
loop_
_space_group_symop_operation_xyz
x,y,z
-x,y,-z
-x,-y,-z
x,-y,z
loop_
_atom_site_type_symbol
_atom_site_label
_atom_site_fract_x
_atom_site_fract_y
_atom_site_fract_z
Si Si1 0.367581 0.676723 0.317279
Si Si2 0.933704 0.674259 0.922450
Si Si3 0.543849 0.324103 0.207875
Si Si4 0.261811 0.823945 0.592330
Si Si5 0.895898 0.676737 0.201614
Si Si6 0.777063 0.673402 0.966992
Si Si7 0.666486 0.175513 0.239548
Si Si8 0.650481 0.673539 0.913083
O O1 0.354110 0.500000 0.332566
O O2 0.453105 0.720501 0.286382
O O3 0.302276 0.755793 0.448471
O O4 0.358977 0.743828 0.200277
O O5 0.943445 0.500000 0.929836
O O6 0.870104 0.714719 0.883399
O O7 0.021557 0.731136 0.815317
O O8 0.900308 0.732725 0.070053
O O9 0.556466 0.500000 0.205896
O O10 0.583485 0.249349 0.280161
O O11 0.586488 0.262635 0.057735
O O12 0.173861 0.761544 0.674830
O O13 0.311748 0.775211 0.655373
O O14 0.257818 0.000000 0.584504
O O15 0.881465 0.500000 0.225335
O O16 0.764910 0.500000 0.009642
O O17 0.738390 0.705841 0.881498
O O18 0.735443 0.770186 0.097807
O O19 0.658001 0.000000 0.236471
O O20 0.633621 0.500000 0.915049
#
# Coordination Sequence:
#
# PCOD8062896 Si02
#       8
#     4   4   4   4   4   4   4   4
#     4  10  20  34  52  72  93 125 165 200 239 286
#     4   8  14  25  48  79 102 121 152 195 240 282
#     4   9  18  33  54  75  94 118 155 204 249 289
#     4  11  23  35  46  66 100 136 165 196 234 281
#     4   9  16  29  49  73 100 128 158 193 235 285
#     4   9  15  28  52  77 100 124 153 194 242 288
#     4  10  20  32  46  68  99 130 159 194 239 285
#     4   8  15  29  52  78  98 117 151 202 247 281
#
# _framework density 17.399215000000002
#
# number of rings (size 3 to 8) (size 9 to 14) (size 15 to 20)
#    0.000    2.750    1.250    2.625    0.000    4.000 
#    0.000    6.875    0.000    4.500    0.000    5.250 
#    0.000    0.000    0.000    0.000    0.000    0.000 
#
# Total GULP energy -396596.452710 kJ/mol
# GULP energy per Si atom -12393.639147 kJ/mol
# Density = 1.735961 g / cm^3
# Si number density = 17.399215 Si / 1000 Ang^3
#
#
#
# Elastic Constant Matrix: (Units=GPa)
#
#
# Indices 1 2 3 4 5 6 
#
# 1 101.3890 22.6775 41.1950 0.0000 -27.6655 0.0000
# 2 22.6775 29.3227 19.8283 0.0000 -4.9017 0.0000
# 3 41.1950 19.8283 84.7362 0.0000 -16.8573 0.0000
# 4 0.0000 0.0000 0.0000 8.6846 0.0000 2.6060
# 5 -27.6655 -4.9017 -16.8573 0.0000 25.1297 0.0000
# 6 0.0000 0.0000 0.0000 2.6060 0.0000 14.6893
#
#
#
# Elastic Compliance Matrix: (Units=1/GPa)
#
#
# Indices 1 2 3 4 5 6 
#
# 1 0.017262 -0.008534 -0.003399 0.000000 0.015059 0.000000
# 2 -0.008534 0.044802 -0.007461 0.000000 -0.005661 0.000000
# 3 -0.003399 -0.007461 0.016347 0.000000 0.005768 0.000000
# 4 0.000000 0.000000 0.000000 0.121621 0.000000 -0.021576
# 5 0.015059 -0.005661 0.005768 0.000000 0.059137 0.000000
# 6 0.000000 0.000000 0.000000 -0.021576 0.000000 0.071904
#
#
# Mechanical properties :
#
#
# Convention : Reuss Voigt Hill
#
# Bulk Modulus (GPa) = 25.23801 42.53884 33.88843
# Shear Modulus (GPa) = 13.05240 18.48386 15.76813
#
# Velocity S-wave (km/s) = 2.74190 3.26289 3.01367
# Velocity P-wave (km/s) = 4.95588 6.22070 5.62396
#
# Compressibility (1/GPa) = 0.03962277
#
# Stress axis : x y z
#
# Youngs Moduli (GPa) = 57.93064 22.32029 61.17204
#
# Poissons Ratio (x) = 0.19048 0.20794
# Poissons Ratio (y) = 0.49439 0.45641
# Poissons Ratio (z) = 0.19692 0.16653
#
# Static dielectric constant tensor:
#      x y z
#    x 3.621450 0.000000 -0.039570 
#    y 0.000000 2.930500 0.000000 
#    z -0.039570 0.000000 3.063150 
# 
# 
# High freq. dielectric constant tensor:
#      x y z
#    x 1.688610 0.000000 -0.010020 
#    y 0.000000 1.642330 0.000000 
#    z -0.010020 0.000000 1.641810 
# 
# From -- ./inp_files/55250.got.cif
#   From: 2010.06.25/outbox.cif.g09.slc.cpg/sg10_28_cif.got.tgz:55250.got - 2010.06.27 22:07:45.
