data_PCOD8062829
_publ_section_title
;
Structure prediction by ZEFSAII (Michael W. Deem and Ramdas Pophale) SiO2 
 PCOD8062829
Probable space group: P 2/M
;
_chemical_formula_sum "Si O2"
_cell_formula_units_Z 32
_cell_length_a 22.239062
_cell_length_b 13.916276
_cell_length_c 19.409777
_cell_angle_alpha 90.000000
_cell_angle_beta 19.570155
_cell_angle_gamma 90.000000
_cell_volume 2012.120781
_symmetry_space_group_name_H-M "P 2/M"
_symmetry_group_IT_number 10
_symmetry_cell_setting 'monoclinic'
loop_
_space_group_symop_operation_xyz
x,y,z
-x,y,-z
-x,-y,-z
x,-y,z
loop_
_atom_site_type_symbol
_atom_site_label
_atom_site_fract_x
_atom_site_fract_y
_atom_site_fract_z
Si Si1 0.820905 0.391664 0.284143
Si Si2 0.975595 0.886934 0.948943
Si Si3 0.594730 0.885341 0.725532
Si Si4 0.321466 0.201895 0.510209
Si Si5 0.603613 0.204260 0.320601
Si Si6 0.238850 0.113988 0.184372
Si Si7 0.768415 0.607875 0.181326
Si Si8 0.150550 0.886066 0.428762
O O1 0.764397 0.500000 0.365698
O O2 0.719455 0.315894 0.442393
O O3 0.769992 0.368794 0.260549
O O4 0.033881 0.378578 0.063428
O O5 0.146792 0.857985 0.719683
O O6 0.955923 0.000000 0.971314
O O7 0.797661 0.844672 0.106312
O O8 0.000000 0.845435 0.000000
O O9 0.624109 0.826957 0.624653
O O10 0.747086 0.849982 0.614177
O O11 0.599284 0.000000 0.707515
O O12 0.406486 0.848599 0.959747
O O13 0.488260 0.174673 0.379023
O O14 0.500000 0.166550 0.500000
O O15 0.630416 0.319788 0.293834
O O16 0.244283 0.152908 0.257361
O O17 0.055715 0.149391 0.345290
O O18 0.245180 0.000000 0.179987
O O19 0.698591 0.500000 0.243109
O O20 0.158316 0.000000 0.418010
#
# Coordination Sequence:
#
# PCOD8062829 Si02
#       8
#     4   4   4   4   4   4   4   4
#     4   9  17  32  55  74  93 118 151 200 262 317
#     4  11  23  38  51  62  86 125 173 218 244 272
#     4  10  20  31  44  67 101 134 163 193 229 280
#     4  12  23  35  50  71  99 130 164 202 254 296
#     4  12  22  34  53  71  90 119 165 215 252 296
#     4   8  14  27  48  72  95 119 158 198 231 276
#     4   9  17  32  55  78  92 109 148 210 271 316
#     4   8  14  27  49  71  92 125 158 193 236 275
#
# _framework density 15.903617000000001
#
# number of rings (size 3 to 8) (size 9 to 14) (size 15 to 20)
#    0.000    2.125    3.750    2.250    0.000    4.500 
#    0.000    1.250    0.000    0.000    0.000    0.000 
#    0.000    2.000    0.000    2.750    0.000    0.250 
#
# Total GULP energy -396736.022750 kJ/mol
# GULP energy per Si atom -12398.000711 kJ/mol
# Density = 1.586742 g / cm^3
# Si number density = 15.903617 Si / 1000 Ang^3
#
#
#
# Elastic Constant Matrix: (Units=GPa)
#
#
# Indices 1 2 3 4 5 6 
#
# 1 122.9153 33.2191 74.7494 0.0000 1.0011 0.0000
# 2 33.2191 57.7651 29.2526 0.0000 0.9717 0.0000
# 3 74.7494 29.2526 93.6830 0.0000 -7.9723 0.0000
# 4 0.0000 0.0000 0.0000 12.4804 0.0000 5.7977
# 5 1.0011 0.9717 -7.9723 0.0000 24.2814 0.0000
# 6 0.0000 0.0000 0.0000 5.7977 0.0000 7.1408
#
#
#
# Elastic Compliance Matrix: (Units=1/GPa)
#
#
# Indices 1 2 3 4 5 6 
#
# 1 0.016844 -0.003080 -0.012887 0.000000 -0.004802 0.000000
# 2 -0.003080 0.021343 -0.004392 0.000000 -0.002169 0.000000
# 3 -0.012887 -0.004392 0.023032 0.000000 0.008269 0.000000
# 4 0.000000 0.000000 0.000000 0.128649 0.000000 -0.104452
# 5 -0.004802 -0.002169 0.008269 0.000000 0.044183 0.000000
# 6 0.000000 0.000000 0.000000 -0.104452 0.000000 0.224847
#
#
# Mechanical properties :
#
#
# Convention : Reuss Voigt Hill
#
# Bulk Modulus (GPa) = 48.77512 60.97841 54.87677
# Shear Modulus (GPa) = 9.87266 17.92334 13.89800
#
# Velocity S-wave (km/s) = 2.49425 3.36072 2.95937
# Velocity P-wave (km/s) = 6.24747 7.31334 6.80132
#
# Compressibility (1/GPa) = 0.02050225
#
# Stress axis : x y z
#
# Youngs Moduli (GPa) = 59.36773 46.85371 43.41842
#
# Poissons Ratio (x) = 0.14430 0.55953
# Poissons Ratio (y) = 0.18284 0.19068
# Poissons Ratio (z) = 0.76507 0.20576
#
# Static dielectric constant tensor:
#      x y z
#    x 2.971840 0.000000 -0.203800 
#    y 0.000000 2.828610 0.000000 
#    z -0.203800 0.000000 3.206390 
# 
# 
# High freq. dielectric constant tensor:
#      x y z
#    x 1.592190 0.000000 -0.022210 
#    y 0.000000 1.575450 0.000000 
#    z -0.022210 0.000000 1.621070 
# 
# From -- ./inp_files/79698.got.cif
#   From: 2010.06.25/outbox.cif.g09.slc.cpg/sg10_40_cif.got.tgz:79698.got - 2010.06.27 22:07:45.
