data_PCOD8062192
_publ_section_title
;
Structure prediction by ZEFSAII (Michael W. Deem and Ramdas Pophale) SiO2 
 PCOD8062192
Probable space group: P 2/M
;
_chemical_formula_sum "Si O2"
_cell_formula_units_Z 28
_cell_length_a 20.591214
_cell_length_b 8.990121
_cell_length_c 18.082962
_cell_angle_alpha 90.000000
_cell_angle_beta 151.343868
_cell_angle_gamma 90.000000
_cell_volume 1605.286539
_symmetry_space_group_name_H-M "P 2/M"
_symmetry_group_IT_number 10
_symmetry_cell_setting 'monoclinic'
loop_
_space_group_symop_operation_xyz
x,y,z
-x,y,-z
-x,-y,-z
x,-y,z
loop_
_atom_site_type_symbol
_atom_site_label
_atom_site_fract_x
_atom_site_fract_y
_atom_site_fract_z
Si Si1 0.354678 0.678575 0.280108
Si Si2 0.159104 0.664688 0.801256
Si Si3 0.142499 0.676067 0.944858
Si Si4 0.836010 0.676348 0.642091
Si Si5 0.161793 0.834777 0.662282
Si Si6 0.639323 0.178026 0.559747
Si Si7 0.162460 0.663394 0.522101
O O1 0.366905 0.500000 0.299385
O O2 0.309512 0.750308 0.312425
O O3 0.495824 0.749204 0.395128
O O4 0.242839 0.728811 0.109108
O O5 0.221997 0.500000 0.858409
O O6 0.192507 0.739254 0.914802
O O7 0.220628 0.756666 0.794530
O O8 0.998381 0.656586 0.633981
O O9 0.140785 0.500000 0.934078
O O10 0.990358 0.726847 0.812313
O O11 0.815574 0.500000 0.636639
O O12 0.744759 0.777866 0.602588
O O13 0.794889 0.718618 0.516900
O O14 0.221427 0.765301 0.646384
O O15 0.000000 0.827819 0.500000
O O16 0.217606 0.000000 0.720786
O O17 0.626588 0.000000 0.554162
O O18 0.222988 0.500000 0.595997
#
# Coordination Sequence:
#
# PCOD8062192 Si02
#       7
#     4   4   4   4   4   4   4
#     4  10  19  35  56  73  90 120 160 198 235 276
#     4   8  13  24  40  60  87 117 149 187 229 270
#     4   8  16  30  51  75  95 118 156 202 239 274
#     4   9  17  32  51  72  96 123 157 196 237 280
#     4   9  15  21  32  55  88 123 155 184 218 265
#     4  11  22  35  49  70  98 126 156 191 233 282
#     4   8  14  24  40  60  85 118 153 188 226 267
#
# _framework density 17.442367999999998
#
# number of rings (size 3 to 8) (size 9 to 14) (size 15 to 20)
#    0.000    3.000    0.000    4.714    0.000    2.857 
#    0.000    7.857    0.000    0.000    0.000    1.000 
#    0.000    8.000    0.000    0.000    0.000    0.000 
#
# Total GULP energy -346983.224883 kJ/mol
# GULP energy per Si atom -12392.258032 kJ/mol
# Density = 1.740267 g / cm^3
# Si number density = 17.442368 Si / 1000 Ang^3
#
#
#
# Elastic Constant Matrix: (Units=GPa)
#
#
# Indices 1 2 3 4 5 6 
#
# 1 128.7692 63.2683 80.9280 0.0000 -31.4667 0.0000
# 2 63.2683 102.8190 40.4687 0.0000 -14.7892 0.0000
# 3 80.9280 40.4687 48.6249 0.0000 -12.1147 0.0000
# 4 0.0000 0.0000 0.0000 7.2348 0.0000 3.1731
# 5 -31.4667 -14.7892 -12.1147 0.0000 14.9500 0.0000
# 6 0.0000 0.0000 0.0000 3.1731 0.0000 16.9884
#
#
#
# Elastic Compliance Matrix: (Units=1/GPa)
#
#
# Indices 1 2 3 4 5 6 
#
# 1 -0.056447 -0.007168 0.085884 0.000000 -0.056304 0.000000
# 2 -0.007168 0.013953 -0.000003 0.000000 -0.001287 0.000000
# 3 0.085884 -0.000003 -0.096897 0.000000 0.102245 0.000000
# 4 0.000000 0.000000 0.000000 0.150553 0.000000 -0.028120
# 5 -0.056304 -0.001287 0.102245 0.000000 0.029961 0.000000
# 6 0.000000 0.000000 0.000000 -0.028120 0.000000 0.064116
#
#
# Mechanical properties :
#
#
# Convention : Reuss Voigt Hill
#
# Bulk Modulus (GPa) = 55.44964 72.17144 63.81054
# Shear Modulus (GPa) = -108.28537 14.20452 -47.04042
#
# Velocity S-wave (km/s) = -7.88775 2.85681 -5.19881
# Velocity P-wave (km/s) = 7.14816 7.23524 0.79136
#
# Compressibility (1/GPa) = 0.01803438
#
# Stress axis : x y z
#
# Youngs Moduli (GPa) = -17.71583 71.67123 -10.32025
#
# Poissons Ratio (x) = 0.51374 0.88634
# Poissons Ratio (y) = -0.12699 -0.00003
# Poissons Ratio (z) = 1.52150 0.00021
#
# Static dielectric constant tensor:
#      x y z
#    x 3.329390 0.000000 -0.376930 
#    y 0.000000 3.219880 0.000000 
#    z -0.376930 0.000000 3.088580 
# 
# 
# High freq. dielectric constant tensor:
#      x y z
#    x 1.674910 0.000000 -0.032520 
#    y 0.000000 1.662050 0.000000 
#    z -0.032520 0.000000 1.636610 
# 
# From -- ./inp_files/75739.got.cif
#   From: 2010.06.25/outbox.cif.g09.slc.cpg/sg10_38_cif.got.tgz:75739.got - 2010.06.27 22:07:45.
