data_PCOD8062493
_publ_section_title
;
Structure prediction by ZEFSAII (Michael W. Deem and Ramdas Pophale) SiO2 
 PCOD8062493
Probable space group: P 2/M
;
_chemical_formula_sum "Si O2"
_cell_formula_units_Z 32
_cell_length_a 12.668573
_cell_length_b 15.227011
_cell_length_c 19.668711
_cell_angle_alpha 90.000000
_cell_angle_beta 26.731814
_cell_angle_gamma 90.000000
_cell_volume 1706.680299
_symmetry_space_group_name_H-M "P 2/M"
_symmetry_group_IT_number 10
_symmetry_cell_setting 'monoclinic'
loop_
_space_group_symop_operation_xyz
x,y,z
-x,y,-z
-x,-y,-z
x,-y,z
loop_
_atom_site_type_symbol
_atom_site_label
_atom_site_fract_x
_atom_site_fract_y
_atom_site_fract_z
Si Si1 0.069532 0.100171 0.885249
Si Si2 0.415735 0.601913 0.393055
Si Si3 0.944082 0.598911 0.110714
Si Si4 0.129376 0.247019 0.090870
Si Si5 0.745050 0.398256 0.659946
Si Si6 0.432769 0.100203 0.461871
Si Si7 0.598789 0.297413 0.872870
Si Si8 0.088373 0.747935 0.642596
O O1 0.346576 0.111569 0.714921
O O2 0.928330 0.157168 0.913056
O O3 0.991272 0.000000 0.918801
O O4 0.000000 0.133108 0.000000
O O5 0.345096 0.500000 0.444833
O O6 0.669640 0.622208 0.278801
O O7 0.420902 0.623358 0.309177
O O8 0.224991 0.661380 0.540164
O O9 0.997760 0.500000 0.106201
O O10 0.106073 0.667337 0.057046
O O11 0.000000 0.605447 0.000000
O O12 0.950081 0.262509 0.255310
O O13 0.395575 0.232375 0.963158
O O14 0.783441 0.500000 0.647043
O O15 0.632355 0.368985 0.795371
O O16 0.000000 0.353602 0.500000
O O17 0.500000 0.127571 0.500000
O O18 0.232983 0.163014 0.545981
O O19 0.339568 0.000000 0.514813
O O20 0.839999 0.244438 0.746338
O O21 0.500000 0.341243 0.000000
#
# Coordination Sequence:
#
# PCOD8062493 Si02
#       8
#     4   4   4   4   4   4   4   4
#     4  10  21  38  61  90 117 142 183 236 285 341
#     4  10  21  35  56  83 113 147 192 242 291 340
#     4  10  21  36  53  78 110 144 187 237 285 342
#     4  11  22  37  57  79 113 155 190 227 288 344
#     4  10  19  36  58  79 108 152 200 244 286 331
#     4  10  20  37  63  88 111 145 185 230 285 342
#     4  10  23  38  53  81 116 153 195 238 280 342
#     4  11  22  37  56  83 117 147 191 240 280 332
#
# _framework density 18.749851
#
# number of rings (size 3 to 8) (size 9 to 14) (size 15 to 20)
#    0.000    1.750    2.500    1.875    0.000    3.250 
#    0.000    4.375    0.000    2.250    0.000    4.375 
#    0.000    0.000    0.000    0.000    0.000    0.000 
#
# Total GULP energy -396749.217211 kJ/mol
# GULP energy per Si atom -12398.413038 kJ/mol
# Density = 1.870718 g / cm^3
# Si number density = 18.749851 Si / 1000 Ang^3
#
#
#
# Elastic Constant Matrix: (Units=GPa)
#
#
# Indices 1 2 3 4 5 6 
#
# 1 96.8733 52.5917 49.4584 0.0000 -1.2377 0.0000
# 2 52.5917 84.6400 42.4587 0.0000 -7.8227 0.0000
# 3 49.4584 42.4587 110.8933 0.0000 2.4629 0.0000
# 4 0.0000 0.0000 0.0000 24.2967 0.0000 3.0260
# 5 -1.2377 -7.8227 2.4629 0.0000 35.6176 0.0000
# 6 0.0000 0.0000 0.0000 3.0260 0.0000 24.4361
#
#
#
# Elastic Compliance Matrix: (Units=1/GPa)
#
#
# Indices 1 2 3 4 5 6 
#
# 1 0.017201 -0.008592 -0.004360 0.000000 -0.000988 0.000000
# 2 -0.008592 0.019392 -0.003687 0.000000 0.004215 0.000000
# 3 -0.004360 -0.003687 0.012414 0.000000 -0.001820 0.000000
# 4 0.000000 0.000000 0.000000 0.041803 0.000000 -0.005177
# 5 -0.000988 0.004215 -0.001820 0.000000 0.029093 0.000000
# 6 0.000000 0.000000 0.000000 -0.005177 0.000000 0.041564
#
#
# Mechanical properties :
#
#
# Convention : Reuss Voigt Hill
#
# Bulk Modulus (GPa) = 63.57140 64.60268 64.08704
# Shear Modulus (GPa) = 25.00164 26.72994 25.86579
#
# Velocity S-wave (km/s) = 3.65558 3.77982 3.71822
# Velocity P-wave (km/s) = 7.19696 7.31978 7.25863
#
# Compressibility (1/GPa) = 0.01573034
#
# Stress axis : x y z
#
# Youngs Moduli (GPa) = 58.13781 51.56684 80.55383
#
# Poissons Ratio (x) = 0.44306 0.35120
# Poissons Ratio (y) = 0.49952 0.29696
# Poissons Ratio (z) = 0.25347 0.19010
#
# Static dielectric constant tensor:
#      x y z
#    x 3.567360 0.000000 -0.022590 
#    y 0.000000 3.288590 0.000000 
#    z -0.022590 0.000000 3.723360 
# 
# 
# High freq. dielectric constant tensor:
#      x y z
#    x 1.725770 0.000000 0.002250 
#    y 0.000000 1.707860 0.000000 
#    z 0.002250 0.000000 1.745380 
# 
# From -- ./inp_files/54062.got.cif
#   From: 2010.06.25/outbox.cif.g09.slc.cpg/sg10_28_cif.got.tgz:54062.got - 2010.06.27 22:07:45.
