data_PCOD8062826
_publ_section_title
;
Structure prediction by ZEFSAII (Michael W. Deem and Ramdas Pophale) SiO2 
 PCOD8062826
Probable space group: P 2/M
;
_chemical_formula_sum "Si O2"
_cell_formula_units_Z 24
_cell_length_a 12.485079
_cell_length_b 9.269311
_cell_length_c 26.984003
_cell_angle_alpha 90.000000
_cell_angle_beta 27.458669
_cell_angle_gamma 90.000000
_cell_volume 1439.953216
_symmetry_space_group_name_H-M "P 2/M"
_symmetry_group_IT_number 10
_symmetry_cell_setting 'monoclinic'
loop_
_space_group_symop_operation_xyz
x,y,z
-x,y,-z
-x,-y,-z
x,-y,z
loop_
_atom_site_type_symbol
_atom_site_label
_atom_site_fract_x
_atom_site_fract_y
_atom_site_fract_z
Si Si1 0.537029 0.165739 0.592987
Si Si2 0.039862 0.329954 0.626576
Si Si3 0.646981 0.165740 0.223005
Si Si4 0.540560 0.329961 0.793003
Si Si5 0.273478 0.341153 0.626698
Si Si6 0.072961 0.658849 0.026867
O O1 0.774348 0.247846 0.483521
O O2 0.493712 0.183264 0.668762
O O3 0.315246 0.230252 0.654317
O O4 0.562969 0.000000 0.566599
O O5 0.080015 0.500000 0.602061
O O6 0.068157 0.291004 0.673527
O O7 0.785196 0.279871 0.714803
O O8 0.500720 0.247824 0.241400
O O9 0.674253 0.000000 0.196174
O O10 0.906551 0.230263 0.123882
O O11 0.533790 0.500000 0.784126
O O12 0.343110 0.290999 0.915203
O O13 0.500000 0.348719 0.500000
O O14 0.219595 0.500000 0.671067
O O15 0.047623 0.500000 0.061722
O O16 0.000000 0.651264 0.000000
#
# Coordination Sequence:
#
# PCOD8062826 Si02
#       6
#     4   4   4   4   4   4
#     4  10  20  31  44  66  95 123 151 184 220 261
#     4   9  18  32  49  69  92 117 147 185 227 269
#     4  10  20  31  44  66  95 123 151 184 220 261
#     4   9  18  32  49  69  92 117 147 185 227 269
#     4   8  15  29  48  67  86 113 151 189 222 261
#     4   8  15  29  48  67  86 113 151 189 222 261
#
# _framework density 16.667207999999999
#
# number of rings (size 3 to 8) (size 9 to 14) (size 15 to 20)
#    0.000    3.000    0.000    3.000    0.000   10.000 
#    0.000    3.333    0.000    1.000    0.000    7.000 
#    0.000    0.000    0.000    0.000    0.000    0.000 
#
# Total GULP energy -297461.477491 kJ/mol
# GULP energy per Si atom -12394.228229 kJ/mol
# Density = 1.662927 g / cm^3
# Si number density = 16.667208 Si / 1000 Ang^3
#
#
#
# Elastic Constant Matrix: (Units=GPa)
#
#
# Indices 1 2 3 4 5 6 
#
# 1 89.1562 44.8685 47.9786 0.0000 -26.5532 0.0000
# 2 44.8685 78.6350 43.2756 0.0000 -14.9052 0.0000
# 3 47.9786 43.2756 83.4223 0.0000 -27.0593 0.0000
# 4 0.0000 0.0000 0.0000 18.4320 0.0000 7.2996
# 5 -26.5532 -14.9052 -27.0593 0.0000 14.3822 0.0000
# 6 0.0000 0.0000 0.0000 7.2996 0.0000 17.6529
#
#
#
# Elastic Compliance Matrix: (Units=1/GPa)
#
#
# Indices 1 2 3 4 5 6 
#
# 1 0.029367 -0.009576 0.006275 0.000000 0.056101 0.000000
# 2 -0.009576 0.020963 -0.010405 0.000000 -0.015530 0.000000
# 3 0.006275 -0.010405 0.036015 0.000000 0.068563 0.000000
# 4 0.000000 0.000000 0.000000 0.064878 0.000000 -0.026827
# 5 0.056101 -0.015530 0.068563 0.000000 0.286009 0.000000
# 6 0.000000 0.000000 0.000000 -0.026827 0.000000 0.067741
#
#
# Mechanical properties :
#
#
# Convention : Reuss Voigt Hill
#
# Bulk Modulus (GPa) = 16.96826 58.16211 37.56519
# Shear Modulus (GPa) = 9.05748 17.76614 13.41181
#
# Velocity S-wave (km/s) = 2.33369 3.26841 2.83977
# Velocity P-wave (km/s) = 4.17902 7.01535 5.77405
#
# Compressibility (1/GPa) = 0.05893355
#
# Stress axis : x y z
#
# Youngs Moduli (GPa) = 34.05172 47.70214 27.76603
#
# Poissons Ratio (x) = 0.45680 -0.17423
# Poissons Ratio (y) = 0.32608 0.28890
# Poissons Ratio (z) = -0.21367 0.49634
#
# Static dielectric constant tensor:
#      x y z
#    x 3.305700 0.000000 -0.351560 
#    y 0.000000 3.211830 0.000000 
#    z -0.351560 0.000000 3.267880 
# 
# 
# High freq. dielectric constant tensor:
#      x y z
#    x 1.626090 0.000000 -0.011990 
#    y 0.000000 1.643920 0.000000 
#    z -0.011990 0.000000 1.624800 
# 
# From -- ./inp_files/52612.got.cif
#   From: 2010.06.25/outbox.cif.g09.slc.cpg/sg10_27_cif.got.tgz:52612.got - 2010.06.27 22:07:45.
