data_PCOD8062677
_publ_section_title
;
Structure prediction by ZEFSAII (Michael W. Deem and Ramdas Pophale) SiO2 
 PCOD8062677
Probable space group: P 2/M
;
_chemical_formula_sum "Si O2"
_cell_formula_units_Z 28
_cell_length_a 12.037541
_cell_length_b 8.441565
_cell_length_c 15.289029
_cell_angle_alpha 90.000000
_cell_angle_beta 119.591300
_cell_angle_gamma 90.000000
_cell_volume 1350.968310
_symmetry_space_group_name_H-M "P 2/M"
_symmetry_group_IT_number 10
_symmetry_cell_setting 'monoclinic'
loop_
_space_group_symop_operation_xyz
x,y,z
-x,y,-z
-x,-y,-z
x,-y,z
loop_
_atom_site_type_symbol
_atom_site_label
_atom_site_fract_x
_atom_site_fract_y
_atom_site_fract_z
Si Si1 0.644842 0.181268 0.812528
Si Si2 0.366832 0.812207 0.686352
Si Si3 0.014651 0.313046 0.279755
Si Si4 0.247858 0.816269 0.815279
Si Si5 0.878731 0.188344 0.512045
Si Si6 0.616593 0.680690 0.983013
Si Si7 0.916870 0.684703 0.886247
O O1 0.511632 0.237448 0.713407
O O2 0.765419 0.287571 0.835218
O O3 0.676155 0.000000 0.801466
O O4 0.618679 0.196698 0.905144
O O5 0.342201 0.751624 0.775977
O O6 0.255159 0.746852 0.580438
O O7 0.355962 0.000000 0.684437
O O8 0.991263 0.500000 0.269111
O O9 0.123051 0.268484 0.392470
O O10 0.044102 0.246975 0.193435
O O11 0.895443 0.215478 0.272244
O O12 0.260515 0.712291 0.908444
O O13 0.271394 0.000000 0.844359
O O14 0.000000 0.243257 0.500000
O O15 0.877802 0.000000 0.520829
O O16 0.616204 0.500000 0.948863
O O17 0.500000 0.724560 0.000000
O O18 0.943014 0.500000 0.897608
O O19 0.000000 0.759956 0.000000
#
# Coordination Sequence:
#
# PCOD8062677 Si02
#       7
#     4   4   4   4   4   4   4
#     4  11  22  38  61  87 117 154 202 254 298 352
#     4   9  19  35  56  86 120 151 190 243 299 349
#     4  11  23  38  59  90 122 154 200 254 306 357
#     4  11  20  35  58  84 118 156 197 243 293 353
#     4  10  19  37  62  87 119 163 202 241 299 360
#     4  11  22  34  51  82 121 157 191 232 295 365
#     4  10  23  44  64  82 117 162 201 248 303 361
#
# _framework density 20.725874999999998
#
# number of rings (size 3 to 8) (size 9 to 14) (size 15 to 20)
#    0.000    1.571    2.857    2.571    0.000    3.429 
#    0.000    2.143    0.000    4.286    0.000    0.000 
#    0.000    0.000    0.000    0.000    0.000    0.000 
#
# Total GULP energy -347040.517649 kJ/mol
# GULP energy per Si atom -12394.304202 kJ/mol
# Density = 2.067870 g / cm^3
# Si number density = 20.725875 Si / 1000 Ang^3
#
#
#
# Elastic Constant Matrix: (Units=GPa)
#
#
# Indices 1 2 3 4 5 6 
#
# 1 97.9852 8.1477 43.0496 0.0000 12.1923 0.0000
# 2 8.1477 26.5298 9.1798 0.0000 -4.0867 0.0000
# 3 43.0496 9.1798 128.8807 0.0000 6.8954 0.0000
# 4 0.0000 0.0000 0.0000 27.9484 0.0000 0.1807
# 5 12.1923 -4.0867 6.8954 0.0000 35.5318 0.0000
# 6 0.0000 0.0000 0.0000 0.1807 0.0000 26.5616
#
#
#
# Elastic Compliance Matrix: (Units=1/GPa)
#
#
# Indices 1 2 3 4 5 6 
#
# 1 0.012623 -0.003180 -0.003778 0.000000 -0.003964 0.000000
# 2 -0.003180 0.040358 -0.002141 0.000000 0.006149 0.000000
# 3 -0.003778 -0.002141 0.009213 0.000000 -0.000738 0.000000
# 4 0.000000 0.000000 0.000000 0.035782 0.000000 -0.000243
# 5 -0.003964 0.006149 -0.000738 0.000000 0.030354 0.000000
# 6 0.000000 0.000000 0.000000 -0.000243 0.000000 0.037650
#
#
# Mechanical properties :
#
#
# Convention : Reuss Voigt Hill
#
# Bulk Modulus (GPa) = 22.72949 41.57220 32.15084
# Shear Modulus (GPa) = 25.14528 30.87627 28.01077
#
# Velocity S-wave (km/s) = 3.48693 3.86391 3.68025
# Velocity P-wave (km/s) = 5.21556 6.32519 5.79699
#
# Compressibility (1/GPa) = 0.04399571
#
# Stress axis : x y z
#
# Youngs Moduli (GPa) = 79.21981 24.77807 108.54216
#
# Poissons Ratio (x) = 0.07880 0.41006
# Poissons Ratio (y) = 0.25194 0.23242
# Poissons Ratio (z) = 0.29928 0.05306
#
# Static dielectric constant tensor:
#      x y z
#    x 3.770270 0.000000 0.223560 
#    y 0.000000 3.329170 0.000000 
#    z 0.223560 0.000000 4.098420 
# 
# 
# High freq. dielectric constant tensor:
#      x y z
#    x 1.800090 0.000000 0.017410 
#    y 0.000000 1.786300 0.000000 
#    z 0.017410 0.000000 1.818850 
# 
# From -- ./inp_files/49114.got.cif
#   From: 2010.06.25/outbox.cif.g09.slc.cpg/sg10_25_cif.got.tgz:49114.got - 2010.06.27 22:07:45.
