data_PCOD8062302
_publ_section_title
;
Structure prediction by ZEFSAII (Michael W. Deem and Ramdas Pophale) SiO2 
 PCOD8062302
Probable space group: P 2/M
;
_chemical_formula_sum "Si O2"
_cell_formula_units_Z 32
_cell_length_a 26.752177
_cell_length_b 9.213287
_cell_length_c 21.075741
_cell_angle_alpha 90.000000
_cell_angle_beta 160.766699
_cell_angle_gamma 90.000000
_cell_volume 1711.199238
_symmetry_space_group_name_H-M "P 2/M"
_symmetry_group_IT_number 10
_symmetry_cell_setting 'monoclinic'
loop_
_space_group_symop_operation_xyz
x,y,z
-x,y,-z
-x,-y,-z
x,-y,z
loop_
_atom_site_type_symbol
_atom_site_label
_atom_site_fract_x
_atom_site_fract_y
_atom_site_fract_z
Si Si1 0.510730 0.332733 0.212313
Si Si2 0.802479 0.166982 0.589606
Si Si3 0.229423 0.329068 0.799021
Si Si4 0.151348 0.171923 0.213676
Si Si5 0.664016 0.332103 0.868410
Si Si6 0.975247 0.832105 0.255137
Si Si7 0.468352 0.832339 0.535382
Si Si8 0.934552 0.328756 0.520285
O O1 0.543069 0.500000 0.235890
O O2 0.666604 0.247752 0.391150
O O3 0.451089 0.311015 0.211869
O O4 0.388876 0.266516 0.015985
O O5 0.833568 0.233558 0.696672
O O6 0.953507 0.186332 0.729129
O O7 0.754374 0.000000 0.538009
O O8 0.230597 0.500000 0.810380
O O9 0.202999 0.291097 0.693225
O O10 0.090518 0.272237 0.675298
O O11 0.297646 0.218139 0.347794
O O12 0.134641 0.000000 0.196538
O O13 0.000000 0.238885 0.000000
O O14 0.700244 0.500000 0.899250
O O15 0.590328 0.263635 0.717964
O O16 0.818385 0.252126 0.070092
O O17 0.088717 0.761385 0.443082
O O18 0.948605 0.000000 0.239481
O O19 0.500000 0.806337 0.500000
O O20 0.492081 0.000000 0.583043
O O21 0.938331 0.500000 0.539725
#
# Coordination Sequence:
#
# PCOD8062302 Si02
#       8
#     4   4   4   4   4   4   4   4
#     4  10  19  35  58  83 108 141 187 231 274 328
#     4  10  22  38  56  79 110 148 185 225 275 330
#     4   8  15  30  55  82 107 142 184 228 274 330
#     4   9  18  34  56  79 106 142 183 222 265 322
#     4  11  22  37  59  83 113 148 186 231 280 327
#     4  11  23  36  54  82 116 148 187 230 274 332
#     4  10  21  36  59  87 113 143 184 230 277 328
#     4   9  16  32  56  80 110 144 183 230 279 324
#
# _framework density 18.700334999999999
#
# number of rings (size 3 to 8) (size 9 to 14) (size 15 to 20)
#    0.000    2.250    2.500    1.500    1.750    1.750 
#    0.000    2.500    0.000    4.500    0.000    0.000 
#    0.000    0.000    0.000    0.000    0.000    0.000 
#
# Total GULP energy -396781.178239 kJ/mol
# GULP energy per Si atom -12399.411820 kJ/mol
# Density = 1.865777 g / cm^3
# Si number density = 18.700335 Si / 1000 Ang^3
#
#
#
# Elastic Constant Matrix: (Units=GPa)
#
#
# Indices 1 2 3 4 5 6 
#
# 1 81.3812 31.3212 25.5359 0.0000 -14.0356 0.0000
# 2 31.3212 67.5726 32.4581 0.0000 -7.4737 0.0000
# 3 25.5359 32.4581 97.2258 0.0000 -24.3422 0.0000
# 4 0.0000 0.0000 0.0000 28.4664 0.0000 -2.4367
# 5 -14.0356 -7.4737 -24.3422 0.0000 27.2128 0.0000
# 6 0.0000 0.0000 0.0000 -2.4367 0.0000 23.6574
#
#
#
# Elastic Compliance Matrix: (Units=1/GPa)
#
#
# Indices 1 2 3 4 5 6 
#
# 1 0.015986 -0.006492 -0.000533 0.000000 0.005986 0.000000
# 2 -0.006492 0.020268 -0.005806 0.000000 -0.002976 0.000000
# 3 -0.000533 -0.005806 0.015329 0.000000 0.011842 0.000000
# 4 0.000000 0.000000 0.000000 0.035442 0.000000 0.003650
# 5 0.005986 -0.002976 0.011842 0.000000 0.049610 0.000000
# 6 0.000000 0.000000 0.000000 0.003650 0.000000 0.042646
#
#
# Mechanical properties :
#
#
# Convention : Reuss Voigt Hill
#
# Bulk Modulus (GPa) = 38.57937 47.20110 42.89024
# Shear Modulus (GPa) = 23.41018 26.32495 24.86757
#
# Velocity S-wave (km/s) = 3.54200 3.75604 3.65059
# Velocity P-wave (km/s) = 6.11578 6.64123 6.38392
#
# Compressibility (1/GPa) = 0.02592059
#
# Stress axis : x y z
#
# Youngs Moduli (GPa) = 62.55531 49.33925 65.23773
#
# Poissons Ratio (x) = 0.32030 0.03476
# Poissons Ratio (y) = 0.40610 0.37879
# Poissons Ratio (z) = 0.03333 0.28648
#
# Static dielectric constant tensor:
#      x y z
#    x 3.409160 0.000000 -0.226230 
#    y 0.000000 3.177730 0.000000 
#    z -0.226230 0.000000 3.638240 
# 
# 
# High freq. dielectric constant tensor:
#      x y z
#    x 1.722400 0.000000 -0.013310 
#    y 0.000000 1.695810 0.000000 
#    z -0.013310 0.000000 1.732880 
# 
# From -- ./inp_files/86924.got.cif
#   From: 2010.06.25/outbox.cif.g09.slc.cpg/sg10_44_cif.got.tgz:86924.got - 2010.06.27 22:07:45.
