data_PCOD8062623
_publ_section_title
;
Structure prediction by ZEFSAII (Michael W. Deem and Ramdas Pophale) SiO2 
 PCOD8062623
Probable space group: P 2/M
;
_chemical_formula_sum "Si O2"
_cell_formula_units_Z 18
_cell_length_a 10.013777
_cell_length_b 7.505943
_cell_length_c 25.076688
_cell_angle_alpha 90.000000
_cell_angle_beta 152.169575
_cell_angle_gamma 90.000000
_cell_volume 879.947131
_symmetry_space_group_name_H-M "P 2/M"
_symmetry_group_IT_number 10
_symmetry_cell_setting 'monoclinic'
loop_
_space_group_symop_operation_xyz
x,y,z
-x,y,-z
-x,-y,-z
x,-y,z
loop_
_atom_site_type_symbol
_atom_site_label
_atom_site_fract_x
_atom_site_fract_y
_atom_site_fract_z
Si Si1 0.216481 0.500000 0.936657
Si Si2 0.378842 0.500000 0.311073
Si Si3 0.252405 0.500000 0.453387
Si Si4 0.697876 0.197511 0.373248
Si Si5 0.786998 0.209935 0.973471
Si Si6 0.200478 0.196090 0.712750
O O1 0.963490 0.500000 0.802383
O O2 0.500000 0.500000 0.000000
O O3 0.173524 0.326032 0.959009
O O4 0.587028 0.500000 0.434390
O O5 0.441657 0.321916 0.300412
O O6 0.500000 0.500000 0.500000
O O7 0.064840 0.326601 0.377068
O O8 0.675907 0.191790 0.302582
O O9 0.000000 0.277555 0.500000
O O10 0.657190 0.000000 0.383632
O O11 0.461898 0.254522 0.842185
O O12 0.829607 0.000000 0.001794
O O13 0.000000 0.264916 0.000000
O O14 0.088932 0.000000 0.689764
#
# Coordination Sequence:
#
# PCOD8062623 Si02
#       6
#     2   2   2   4   4   4
#     4  12  28  43  63  92 133 172 216 259 316 376
#     4  12  24  39  60  91 123 166 199 246 307 374
#     4  12  26  39  59  84 126 167 206 244 296 367
#     4  10  19  36  62  94 126 150 188 251 315 370
#     4  10  22  44  71  96 124 165 218 269 315 370
#     4  10  21  39  66  94 120 154 201 257 310 364
#
# _framework density 20.455772
#
# number of rings (size 3 to 8) (size 9 to 14) (size 15 to 20)
#    0.000    1.333    2.222    3.333    3.111    3.556 
#    0.000    0.000    0.000    0.000    0.000    0.000 
#    0.000    0.000    0.000    0.000    0.000    0.000 
#
# Total GULP energy -223106.274964 kJ/mol
# GULP energy per Si atom -12394.793054 kJ/mol
# Density = 2.040921 g / cm^3
# Si number density = 20.455772 Si / 1000 Ang^3
#
#
#
# Elastic Constant Matrix: (Units=GPa)
#
#
# Indices 1 2 3 4 5 6 
#
# 1 88.0387 53.4346 28.1025 0.0000 25.7766 0.0000
# 2 53.4346 125.1084 62.0368 0.0000 18.5604 0.0000
# 3 28.1025 62.0368 140.1398 0.0000 17.3719 0.0000
# 4 0.0000 0.0000 0.0000 -8.7119 0.0000 -33.5610
# 5 25.7766 18.5604 17.3719 0.0000 33.1611 0.0000
# 6 0.0000 0.0000 0.0000 -33.5610 0.0000 -13.4237
#
#
#
# Elastic Compliance Matrix: (Units=1/GPa)
#
#
# Indices 1 2 3 4 5 6 
#
# 1 0.018300 -0.006471 0.000544 0.000000 -0.010889 0.000000
# 2 -0.006471 0.012945 -0.004447 0.000000 0.000114 0.000000
# 3 0.000544 -0.004447 0.009346 0.000000 -0.002830 0.000000
# 4 0.000000 0.000000 0.000000 0.013299 0.000000 -0.033249
# 5 -0.010889 0.000114 -0.002830 0.000000 0.040038 0.000000
# 6 0.000000 0.000000 0.000000 -0.033249 0.000000 0.008631
#
#
# Mechanical properties :
#
#
# Convention : Reuss Voigt Hill
#
# Bulk Modulus (GPa) = 50.39165 71.15942 60.77554
# Shear Modulus (GPa) = 38.48504 16.18597 27.33551
#
# Velocity S-wave (km/s) = 4.34219 2.81600 3.65954
# Velocity P-wave (km/s) = 7.05885 6.74059 6.90156
#
# Compressibility (1/GPa) = 0.01984456
#
# Stress axis : x y z
#
# Youngs Moduli (GPa) = 54.64399 77.25015 106.99782
#
# Poissons Ratio (x) = 0.49987 -0.05825
# Poissons Ratio (y) = 0.35359 0.47582
# Poissons Ratio (z) = -0.02975 0.34353
#
# Static dielectric constant tensor:
#      x y z
#    x 3.383490 0.000000 -0.012020 
#    y 0.000000 4.113090 0.000000 
#    z -0.012020 0.000000 3.845750 
# 
# 
# High freq. dielectric constant tensor:
#      x y z
#    x 1.766740 0.000000 -0.006350 
#    y 0.000000 1.814490 0.000000 
#    z -0.006350 0.000000 1.821000 
# 
# From -- ./inp_files/76275.got.cif
#   From: 2010.06.25/outbox.cif.g09.slc.cpg/sg10_39_cif.got.tgz:76275.got - 2010.06.27 22:07:45.
