data_PCOD8062865
_publ_section_title
;
Structure prediction by ZEFSAII (Michael W. Deem and Ramdas Pophale) SiO2 
 PCOD8062865
Probable space group: P 2/M
;
_chemical_formula_sum "Si O2"
_cell_formula_units_Z 32
_cell_length_a 26.614024
_cell_length_b 18.008998
_cell_length_c 26.996129
_cell_angle_alpha 90.000000
_cell_angle_beta 168.919208
_cell_angle_gamma 90.000000
_cell_volume 2486.790040
_symmetry_space_group_name_H-M "P 2/M"
_symmetry_group_IT_number 10
_symmetry_cell_setting 'monoclinic'
loop_
_space_group_symop_operation_xyz
x,y,z
-x,y,-z
-x,-y,-z
x,-y,z
loop_
_atom_site_type_symbol
_atom_site_label
_atom_site_fract_x
_atom_site_fract_y
_atom_site_fract_z
Si Si1 0.874379 0.588514 0.731908
Si Si2 0.902060 0.914975 0.460882
Si Si3 0.532863 0.588123 0.219505
Si Si4 0.400572 0.156671 0.957504
Si Si5 0.914647 0.588142 0.287304
Si Si6 0.775498 0.588562 0.746542
Si Si7 0.574689 0.411417 0.775042
Si Si8 0.769036 0.684157 0.237030
O O1 0.873963 0.500000 0.732302
O O2 0.825502 0.619442 0.739826
O O3 0.149461 0.618961 0.977946
O O4 0.648738 0.618936 0.477665
O O5 0.000000 0.899801 0.500000
O O6 0.151147 0.890791 0.735207
O O7 0.825268 0.000000 0.396149
O O8 0.653798 0.863014 0.236273
O O9 0.527079 0.500000 0.216210
O O10 0.813333 0.616428 0.472360
O O11 0.313437 0.617032 0.969384
O O12 0.476066 0.620512 0.219131
O O13 0.317282 0.242657 0.876620
O O14 0.500000 0.129793 0.000000
O O15 0.910080 0.500000 0.289377
O O16 0.882144 0.622567 0.309989
O O17 0.500000 0.618955 0.500000
O O18 0.775887 0.500000 0.746496
O O19 0.000000 0.618967 0.000000
O O20 0.573692 0.500000 0.774790
O O21 0.000000 0.702538 0.500000
O O22 0.500000 0.651697 0.000000
#
# Coordination Sequence:
#
# PCOD8062865 Si02
#       8
#     4   4   4   4   4   4   4   4
#     4   9  15  21  30  44  58  74  96 116 138 173
#     4   9  15  23  37  55  73  91 109 127 144 165
#     4   9  17  29  42  54  66  77  92 123 165 201
#     4   9  16  26  37  52  72  91 109 126 147 173
#     4  10  20  32  44  56  67  81 104 131 162 200
#     4   9  15  21  27  36  54  78  99 117 134 155
#     4   9  15  23  35  48  60  72  88 115 151 187
#     4  11  21  32  44  55  70  90 108 129 155 186
#
# _framework density 12.867993999999999
#
# number of rings (size 3 to 8) (size 9 to 14) (size 15 to 20)
#    0.000    2.625    0.000    4.500    0.000    8.000 
#    0.000    0.000    0.000    0.000    0.000    0.000 
#    0.000    0.000    0.000    0.000    0.000    0.000 
#
# Total GULP energy -396624.517447 kJ/mol
# GULP energy per Si atom -12394.516170 kJ/mol
# Density = 1.283871 g / cm^3
# Si number density = 12.867994 Si / 1000 Ang^3
#
#
#
# Elastic Constant Matrix: (Units=GPa)
#
#
# Indices 1 2 3 4 5 6 
#
# 1 75.8599 19.6519 43.1835 0.0000 7.9686 0.0000
# 2 19.6519 23.2302 22.7730 0.0000 1.8111 0.0000
# 3 43.1835 22.7730 126.5559 0.0000 9.6000 0.0000
# 4 0.0000 0.0000 0.0000 10.2176 0.0000 0.6777
# 5 7.9686 1.8111 9.6000 0.0000 22.1057 0.0000
# 6 0.0000 0.0000 0.0000 0.6777 0.0000 0.2688
#
#
#
# Elastic Compliance Matrix: (Units=1/GPa)
#
#
# Indices 1 2 3 4 5 6 
#
# 1 0.018961 -0.011757 -0.004042 0.000000 -0.004116 0.000000
# 2 -0.011757 0.059558 -0.006884 0.000000 0.002348 0.000000
# 3 -0.004042 -0.006884 0.010719 0.000000 -0.002634 0.000000
# 4 0.000000 0.000000 0.000000 0.117519 0.000000 -0.296252
# 5 -0.004116 0.002348 -0.002634 0.000000 0.047673 0.000000
# 6 0.000000 0.000000 0.000000 -0.296252 0.000000 4.466713
#
#
# Mechanical properties :
#
#
# Convention : Reuss Voigt Hill
#
# Bulk Modulus (GPa) = 22.79274 44.09587 33.44431
# Shear Modulus (GPa) = 1.04578 15.85427 8.45002
#
# Velocity S-wave (km/s) = 0.90247 3.51389 2.56534
# Velocity P-wave (km/s) = 4.34018 7.12780 5.90096
#
# Compressibility (1/GPa) = 0.04387362
#
# Stress axis : x y z
#
# Youngs Moduli (GPa) = 52.73889 16.79026 93.28904
#
# Poissons Ratio (x) = 0.19740 0.37709
# Poissons Ratio (y) = 0.62005 0.64216
# Poissons Ratio (z) = 0.21318 0.11558
#
# Static dielectric constant tensor:
#      x y z
#    x 2.505390 0.000000 0.059530 
#    y 0.000000 2.076620 0.000000 
#    z 0.059530 0.000000 3.017410 
# 
# 
# High freq. dielectric constant tensor:
#      x y z
#    x 1.462400 0.000000 0.006610 
#    y 0.000000 1.417460 0.000000 
#    z 0.006610 0.000000 1.520710 
# 
# From -- ./inp_files/94162.got.cif
#   From: 2010.06.25/outbox.cif.g09.slc.cpg/sg10_48_cif.got.tgz:94162.got - 2010.06.27 22:07:45.
