data_PCOD8062548
_publ_section_title
;
Structure prediction by ZEFSAII (Michael W. Deem and Ramdas Pophale) SiO2 
 PCOD8062548
Probable space group: P 2/M
;
_chemical_formula_sum "Si O2"
_cell_formula_units_Z 28
_cell_length_a 7.904262
_cell_length_b 8.762738
_cell_length_c 27.709889
_cell_angle_alpha 90.000000
_cell_angle_beta 134.678781
_cell_angle_gamma 90.000000
_cell_volume 1364.715552
_symmetry_space_group_name_H-M "P 2/M"
_symmetry_group_IT_number 10
_symmetry_cell_setting 'monoclinic'
loop_
_space_group_symop_operation_xyz
x,y,z
-x,y,-z
-x,-y,-z
x,-y,z
loop_
_atom_site_type_symbol
_atom_site_label
_atom_site_fract_x
_atom_site_fract_y
_atom_site_fract_z
Si Si1 0.211100 0.180613 0.648814
Si Si2 0.265458 0.824803 0.068142
Si Si3 0.027716 0.819666 0.791552
Si Si4 0.279817 0.677115 0.421071
Si Si5 0.620311 0.323115 0.072171
Si Si6 0.579825 0.319715 0.657634
Si Si7 0.603397 0.824258 0.214582
O O1 0.323537 0.255194 0.623215
O O2 0.361485 0.246545 0.725254
O O3 0.938141 0.227721 0.600959
O O4 0.227866 0.000000 0.646468
O O5 0.424182 0.701397 0.073507
O O6 0.334607 0.802260 0.138944
O O7 0.329074 0.000000 0.066168
O O8 0.000000 0.784816 0.000000
O O9 0.139464 0.767378 0.865353
O O10 0.201274 0.758705 0.783803
O O11 0.773262 0.742000 0.734267
O O12 0.994760 0.000000 0.785508
O O13 0.500000 0.705683 0.500000
O O14 0.206895 0.500000 0.404424
O O15 0.353899 0.737705 0.382824
O O16 0.683750 0.500000 0.078868
O O17 0.500000 0.254739 0.000000
O O18 0.567774 0.500000 0.656463
O O19 0.666333 0.000000 0.233032
#
# Coordination Sequence:
#
# PCOD8062548 Si02
#       7
#     4   4   4   4   4   4   4
#     4  11  22  38  62  92 126 161 205 254 303 363
#     4   9  18  33  53  77 107 147 196 245 294 350
#     4  10  19  36  60  83 111 151 202 252 302 359
#     4  10  23  44  67  90 123 166 206 251 307 366
#     4  10  21  35  51  77 114 152 193 243 300 360
#     4  11  23  39  62  93 126 160 203 250 305 368
#     4   8  16  32  54  80 110 147 192 246 299 351
#
# _framework density 20.517095999999999
#
# number of rings (size 3 to 8) (size 9 to 14) (size 15 to 20)
#    0.000    2.143    1.429    2.571    0.000    4.000 
#    0.000    5.000    0.000    0.000    0.000    0.000 
#    0.000    0.000    0.000    0.000    0.000    0.000 
#
# Total GULP energy -347039.155001 kJ/mol
# GULP energy per Si atom -12394.255536 kJ/mol
# Density = 2.047040 g / cm^3
# Si number density = 20.517096 Si / 1000 Ang^3
#
#
#
# Elastic Constant Matrix: (Units=GPa)
#
#
# Indices 1 2 3 4 5 6 
#
# 1 105.6668 36.6348 42.9112 0.0000 8.0704 0.0000
# 2 36.6348 60.6292 30.9311 0.0000 2.7853 0.0000
# 3 42.9112 30.9311 115.9346 0.0000 4.6576 0.0000
# 4 0.0000 0.0000 0.0000 24.4362 0.0000 3.8500
# 5 8.0704 2.7853 4.6576 0.0000 24.3309 0.0000
# 6 0.0000 0.0000 0.0000 3.8500 0.0000 30.4095
#
#
#
# Elastic Compliance Matrix: (Units=1/GPa)
#
#
# Indices 1 2 3 4 5 6 
#
# 1 0.013094 -0.006207 -0.003068 0.000000 -0.003045 0.000000
# 2 -0.006207 0.022071 -0.003600 0.000000 0.000221 0.000000
# 3 -0.003068 -0.003600 0.010747 0.000000 -0.000627 0.000000
# 4 0.000000 0.000000 0.000000 0.041756 0.000000 -0.005287
# 5 -0.003045 0.000221 -0.000627 0.000000 0.042205 0.000000
# 6 0.000000 0.000000 0.000000 -0.005287 0.000000 0.033554
#
#
# Mechanical properties :
#
#
# Convention : Reuss Voigt Hill
#
# Bulk Modulus (GPa) = 49.59934 55.90944 52.75439
# Shear Modulus (GPa) = 25.52365 27.28557 26.40461
#
# Velocity S-wave (km/s) = 3.53089 3.65073 3.59131
# Velocity P-wave (km/s) = 6.39140 6.71415 6.55476
#
# Compressibility (1/GPa) = 0.02016156
#
# Stress axis : x y z
#
# Youngs Moduli (GPa) = 76.36926 45.30927 93.05032
#
# Poissons Ratio (x) = 0.28123 0.28551
# Poissons Ratio (y) = 0.47402 0.33497
# Poissons Ratio (z) = 0.23432 0.16311
#
# Static dielectric constant tensor:
#      x y z
#    x 3.642380 0.000000 -0.157870 
#    y 0.000000 3.460460 0.000000 
#    z -0.157870 0.000000 4.070860 
# 
# 
# High freq. dielectric constant tensor:
#      x y z
#    x 1.785520 0.000000 -0.000650 
#    y 0.000000 1.785540 0.000000 
#    z -0.000650 0.000000 1.814870 
# 
# From -- ./inp_files/94532.got.cif
#   From: 2010.06.25/outbox.cif.g09.slc.cpg/sg10_48_cif.got.tgz:94532.got - 2010.06.27 22:07:45.
