data_PCOD8062565
_publ_section_title
;
Structure prediction by ZEFSAII (Michael W. Deem and Ramdas Pophale) SiO2 
 PCOD8062565
Probable space group: P 2/M
;
_chemical_formula_sum "Si O2"
_cell_formula_units_Z 20
_cell_length_a 9.652848
_cell_length_b 8.859536
_cell_length_c 25.004911
_cell_angle_alpha 90.000000
_cell_angle_beta 27.751186
_cell_angle_gamma 90.000000
_cell_volume 995.715711
_symmetry_space_group_name_H-M "P 2/M"
_symmetry_group_IT_number 10
_symmetry_cell_setting 'monoclinic'
loop_
_space_group_symop_operation_xyz
x,y,z
-x,y,-z
-x,-y,-z
x,-y,z
loop_
_atom_site_type_symbol
_atom_site_label
_atom_site_fract_x
_atom_site_fract_y
_atom_site_fract_z
Si Si1 0.877057 0.820951 0.204687
Si Si2 0.845191 0.830867 0.393623
Si Si3 0.231385 0.676346 0.174957
Si Si4 0.897665 0.322190 0.976160
Si Si5 0.236086 0.820317 0.461065
O O1 0.566345 0.759833 0.335259
O O2 0.147121 0.759604 0.148686
O O3 0.890682 0.000000 0.199944
O O4 0.899033 0.761374 0.136778
O O5 0.500000 0.838019 0.500000
O O6 0.880817 0.766671 0.441301
O O7 0.005102 0.717437 0.299244
O O8 0.980186 0.000000 0.341105
O O9 0.215538 0.500000 0.168753
O O10 0.557669 0.726391 0.082412
O O11 0.943146 0.500000 0.954118
O O12 0.000000 0.268283 0.000000
O O13 0.000000 0.753069 0.500000
O O14 0.245418 0.000000 0.455924
#
# Coordination Sequence:
#
# PCOD8062565 Si02
#       5
#     4   4   4   4   4
#     4  11  22  39  63  90 117 150 198 244 288 344
#     4  10  19  36  60  86 118 151 189 237 289 340
#     4  11  23  39  61  86 117 157 197 237 289 349
#     4  10  24  44  61  82 118 157 193 241 298 347
#     4   9  19  35  56  85 120 153 183 232 295 343
#
# _framework density 20.086053
#
# number of rings (size 3 to 8) (size 9 to 14) (size 15 to 20)
#    0.000    1.800    2.000    1.800    2.800    4.800 
#    0.000    0.000    0.000    3.000    0.000    0.000 
#    0.000    0.000    0.000    0.000    0.000    0.000 
#
# Total GULP energy -248049.311164 kJ/mol
# GULP energy per Si atom -12402.465558 kJ/mol
# Density = 2.004034 g / cm^3
# Si number density = 20.086053 Si / 1000 Ang^3
#
#
#
# Elastic Constant Matrix: (Units=GPa)
#
#
# Indices 1 2 3 4 5 6 
#
# 1 163.5791 30.0300 35.3150 0.0000 10.5871 0.0000
# 2 30.0300 42.7718 24.5020 0.0000 2.5829 0.0000
# 3 35.3150 24.5020 74.1966 0.0000 9.0187 0.0000
# 4 0.0000 0.0000 0.0000 11.3788 0.0000 15.7181
# 5 10.5871 2.5829 9.0187 0.0000 39.5050 0.0000
# 6 0.0000 0.0000 0.0000 15.7181 0.0000 27.3949
#
#
#
# Elastic Compliance Matrix: (Units=1/GPa)
#
#
# Indices 1 2 3 4 5 6 
#
# 1 0.007356 -0.003910 -0.002059 0.000000 -0.001246 0.000000
# 2 -0.003910 0.030917 -0.008465 0.000000 0.000959 0.000000
# 3 -0.002059 -0.008465 0.017607 0.000000 -0.002914 0.000000
# 4 0.000000 0.000000 0.000000 0.423662 0.000000 -0.243080
# 5 -0.001246 0.000959 -0.002914 0.000000 0.026250 0.000000
# 6 0.000000 0.000000 0.000000 -0.243080 0.000000 0.175973
#
#
# Mechanical properties :
#
#
# Convention : Reuss Voigt Hill
#
# Bulk Modulus (GPa) = 37.02029 51.13796 44.07913
# Shear Modulus (GPa) = 6.94795 28.36910 17.65853
#
# Velocity S-wave (km/s) = 1.86188 3.76224 2.96825
# Velocity P-wave (km/s) = 4.80552 6.66238 5.80863
#
# Compressibility (1/GPa) = 0.02701221
#
# Stress axis : x y z
#
# Youngs Moduli (GPa) = 135.94062 32.34507 56.79502
#
# Poissons Ratio (x) = 0.12648 0.11692
# Poissons Ratio (y) = 0.53156 0.48077
# Poissons Ratio (z) = 0.27984 0.27380
#
# Static dielectric constant tensor:
#      x y z
#    x 4.089300 0.000000 0.105610 
#    y 0.000000 3.373910 0.000000 
#    z 0.105610 0.000000 3.766090 
# 
# 
# High freq. dielectric constant tensor:
#      x y z
#    x 1.801740 0.000000 0.006400 
#    y 0.000000 1.757550 0.000000 
#    z 0.006400 0.000000 1.788890 
# 
# From -- ./inp_files/22154.got.cif
#   From: 2010.06.25/outbox.cif.g09.slc.cpg/sg10_12_cif.got.tgz:22154.got - 2010.06.27 22:07:45.
