data_PCOD8062470
_publ_section_title
;
Structure prediction by ZEFSAII (Michael W. Deem and Ramdas Pophale) SiO2 
 PCOD8062470
Probable space group: P 2/M
;
_chemical_formula_sum "Si O2"
_cell_formula_units_Z 28
_cell_length_a 9.916183
_cell_length_b 8.772520
_cell_length_c 27.813912
_cell_angle_alpha 90.000000
_cell_angle_beta 142.041860
_cell_angle_gamma 90.000000
_cell_volume 1488.217928
_symmetry_space_group_name_H-M "P 2/M"
_symmetry_group_IT_number 10
_symmetry_cell_setting 'monoclinic'
loop_
_space_group_symop_operation_xyz
x,y,z
-x,y,-z
-x,-y,-z
x,-y,z
loop_
_atom_site_type_symbol
_atom_site_label
_atom_site_fract_x
_atom_site_fract_y
_atom_site_fract_z
Si Si1 0.520065 0.179261 0.278218
Si Si2 0.299567 0.318894 0.474583
Si Si3 0.855187 0.680683 0.301703
Si Si4 0.371799 0.166275 0.013410
Si Si5 0.028612 0.182070 0.152977
Si Si6 0.212246 0.817606 0.819490
Si Si7 0.259102 0.326110 0.570516
O O1 0.638754 0.259130 0.267103
O O2 0.634650 0.216309 0.360719
O O3 0.271355 0.242011 0.209881
O O4 0.526083 0.000000 0.271484
O O5 0.500000 0.250624 0.500000
O O6 0.294632 0.500000 0.469858
O O7 0.335903 0.268289 0.539780
O O8 0.069103 0.255783 0.389685
O O9 0.849498 0.500000 0.300278
O O10 0.869279 0.740206 0.251719
O O11 0.140832 0.250253 0.935365
O O12 0.315515 0.000000 0.019014
O O13 0.500000 0.145052 0.000000
O O14 0.540547 0.245765 0.098373
O O15 0.956334 0.234257 0.186093
O O16 0.015924 0.000000 0.147211
O O17 0.216285 0.000000 0.815316
O O18 0.333198 0.500000 0.601386
O O19 0.000000 0.313970 0.500000
#
# Coordination Sequence:
#
# PCOD8062470 Si02
#       7
#     4   4   4   4   4   4   4
#     4  11  22  35  53  78 108 138 172 214 258 303
#     4   9  19  35  54  74  97 131 174 213 248 301
#     4  11  22  37  53  74 106 141 174 209 258 312
#     4   7  11  25  51  78 102 132 168 207 253 305
#     4   8  16  31  53  81 108 133 169 214 257 307
#     4   9  17  32  56  82 105 131 169 217 263 303
#     4  10  19  36  57  74  98 135 176 211 250 303
#
# _framework density 18.814450000000001
#
# number of rings (size 3 to 8) (size 9 to 14) (size 15 to 20)
#    0.000    2.714    1.429    2.571    2.000    0.286 
#    0.000    1.429    0.000   12.000    0.000    0.000 
#    0.000    0.000    0.000    0.000    0.000    0.000 
#
# Total GULP energy -346975.776151 kJ/mol
# GULP energy per Si atom -12391.992005 kJ/mol
# Density = 1.877163 g / cm^3
# Si number density = 18.814450 Si / 1000 Ang^3
#
#
#
# Elastic Constant Matrix: (Units=GPa)
#
#
# Indices 1 2 3 4 5 6 
#
# 1 103.7948 17.3319 27.2582 0.0000 15.3783 0.0000
# 2 17.3319 32.5772 18.5554 0.0000 3.5901 0.0000
# 3 27.2582 18.5554 80.8085 0.0000 17.5544 0.0000
# 4 0.0000 0.0000 0.0000 7.5589 0.0000 0.9517
# 5 15.3783 3.5901 17.5544 0.0000 27.1056 0.0000
# 6 0.0000 0.0000 0.0000 0.9517 0.0000 16.7962
#
#
#
# Elastic Compliance Matrix: (Units=1/GPa)
#
#
# Indices 1 2 3 4 5 6 
#
# 1 0.011589 -0.004606 -0.001810 0.000000 -0.004792 0.000000
# 2 -0.004606 0.037156 -0.007537 0.000000 0.002573 0.000000
# 3 -0.001810 -0.007537 0.016614 0.000000 -0.008734 0.000000
# 4 0.000000 0.000000 0.000000 0.133246 0.000000 -0.007550
# 5 -0.004792 0.002573 -0.008734 0.000000 0.044927 0.000000
# 6 0.000000 0.000000 0.000000 -0.007550 0.000000 0.059965
#
#
# Mechanical properties :
#
#
# Convention : Reuss Voigt Hill
#
# Bulk Modulus (GPa) = 26.70133 38.16351 32.43242
# Shear Modulus (GPa) = 14.53956 20.56112 17.55034
#
# Velocity S-wave (km/s) = 2.78292 3.30939 3.05751
# Velocity P-wave (km/s) = 4.95469 5.91024 5.45343
#
# Compressibility (1/GPa) = 0.03745131
#
# Stress axis : x y z
#
# Youngs Moduli (GPa) = 86.28813 26.91321 60.19138
#
# Poissons Ratio (x) = 0.12397 0.10897
# Poissons Ratio (y) = 0.39748 0.45367
# Poissons Ratio (z) = 0.15622 0.20285
#
# Static dielectric constant tensor:
#      x y z
#    x 3.518290 0.000000 0.123720 
#    y 0.000000 2.990140 0.000000 
#    z 0.123720 0.000000 3.941280 
# 
# 
# High freq. dielectric constant tensor:
#      x y z
#    x 1.724090 0.000000 0.003870 
#    y 0.000000 1.681780 0.000000 
#    z 0.003870 0.000000 1.746600 
# 
# From -- ./inp_files/37312.got.cif
#   From: 2010.06.25/outbox.cif.g09.slc.cpg/sg10_19_cif.got.tgz:37312.got - 2010.06.27 22:07:45.
