data_PCOD8062187
_publ_section_title
;
Structure prediction by ZEFSAII (Michael W. Deem and Ramdas Pophale) SiO2 
 PCOD8062187
Probable space group: P 2/M
;
_chemical_formula_sum "Si O2"
_cell_formula_units_Z 28
_cell_length_a 15.015792
_cell_length_b 8.670599
_cell_length_c 12.479833
_cell_angle_alpha 90.000000
_cell_angle_beta 73.877306
_cell_angle_gamma 90.000000
_cell_volume 1560.917693
_symmetry_space_group_name_H-M "P 2/M"
_symmetry_group_IT_number 10
_symmetry_cell_setting 'monoclinic'
loop_
_space_group_symop_operation_xyz
x,y,z
-x,y,-z
-x,-y,-z
x,-y,z
loop_
_atom_site_type_symbol
_atom_site_label
_atom_site_fract_x
_atom_site_fract_y
_atom_site_fract_z
Si Si1 0.406179 0.181988 0.235464
Si Si2 0.712952 0.679485 0.307469
Si Si3 0.093686 0.818730 0.089802
Si Si4 0.592999 0.818098 0.522026
Si Si5 0.903098 0.680731 0.142267
Si Si6 0.398980 0.318361 0.864742
Si Si7 0.275163 0.680965 0.107884
O O1 0.398358 0.242702 0.359898
O O2 0.505808 0.226333 0.154518
O O3 0.326321 0.269705 0.198543
O O4 0.391464 0.000000 0.230429
O O5 0.697935 0.500000 0.331793
O O6 0.682269 0.768087 0.424263
O O7 0.820584 0.719217 0.251925
O O8 0.652220 0.734441 0.226461
O O9 0.177007 0.767792 0.138690
O O10 0.999639 0.735632 0.161856
O O11 0.078561 0.000000 0.101410
O O12 0.116311 0.770163 0.961111
O O13 0.500000 0.746669 0.500000
O O14 0.585964 0.000000 0.525184
O O15 0.905509 0.500000 0.114062
O O16 0.419632 0.500000 0.859448
O O17 0.335366 0.269007 0.985302
O O18 0.256364 0.500000 0.113694
#
# Coordination Sequence:
#
# PCOD8062187 Si02
#       7
#     4   4   4   4   4   4   4
#     4  11  23  37  53  78 110 145 186 226 269 322
#     4  10  20  34  56  82 108 140 183 225 264 315
#     4  11  21  33  53  83 112 142 180 221 268 326
#     4  10  21  37  54  76 108 145 181 224 274 318
#     4  10  19  35  55  80 112 145 178 221 273 321
#     4  10  20  35  53  78 109 145 182 220 267 321
#     4  11  22  38  56  77 110 149 183 221 273 325
#
# _framework density 17.938164
#
# number of rings (size 3 to 8) (size 9 to 14) (size 15 to 20)
#    0.000    1.571    2.857    3.857    0.000    5.429 
#    0.000    0.000    0.000    0.857    0.000    6.000 
#    0.000    0.000    0.000    0.000    0.000    0.000 
#
# Total GULP energy -347320.857576 kJ/mol
# GULP energy per Si atom -12404.316342 kJ/mol
# Density = 1.789734 g / cm^3
# Si number density = 17.938164 Si / 1000 Ang^3
#
#
#
# Elastic Constant Matrix: (Units=GPa)
#
#
# Indices 1 2 3 4 5 6 
#
# 1 123.2738 17.8209 46.8179 0.0000 -3.7231 0.0000
# 2 17.8209 35.2041 15.7625 0.0000 -0.5516 0.0000
# 3 46.8179 15.7625 81.0560 0.0000 -0.4504 0.0000
# 4 0.0000 0.0000 0.0000 23.8822 0.0000 5.4656
# 5 -3.7231 -0.5516 -0.4504 0.0000 26.6554 0.0000
# 6 0.0000 0.0000 0.0000 5.4656 0.0000 20.0143
#
#
#
# Elastic Compliance Matrix: (Units=1/GPa)
#
#
# Indices 1 2 3 4 5 6 
#
# 1 0.010701 -0.002883 -0.005613 0.000000 0.001340 0.000000
# 2 -0.002883 0.031899 -0.004537 0.000000 0.000181 0.000000
# 3 -0.005613 -0.004537 0.016458 0.000000 -0.000600 0.000000
# 4 0.000000 0.000000 0.000000 0.044664 0.000000 -0.012197
# 5 0.001340 0.000181 -0.000600 0.000000 0.037697 0.000000
# 6 0.000000 0.000000 0.000000 -0.012197 0.000000 0.053295
#
#
# Mechanical properties :
#
#
# Convention : Reuss Voigt Hill
#
# Bulk Modulus (GPa) = 30.30963 44.48184 37.39573
# Shear Modulus (GPa) = 21.57244 24.71921 23.14582
#
# Velocity S-wave (km/s) = 3.47161 3.71620 3.59599
# Velocity P-wave (km/s) = 5.74481 6.57759 6.17526
#
# Compressibility (1/GPa) = 0.03299281
#
# Stress axis : x y z
#
# Youngs Moduli (GPa) = 93.44979 31.34849 60.76037
#
# Poissons Ratio (x) = 0.09037 0.34104
# Poissons Ratio (y) = 0.26940 0.27568
# Poissons Ratio (z) = 0.52451 0.14223
#
# Static dielectric constant tensor:
#      x y z
#    x 3.462900 0.000000 -0.051250 
#    y 0.000000 3.276690 0.000000 
#    z -0.051250 0.000000 3.241310 
# 
# 
# High freq. dielectric constant tensor:
#      x y z
#    x 1.697850 0.000000 -0.007820 
#    y 0.000000 1.697920 0.000000 
#    z -0.007820 0.000000 1.674820 
# 
# From -- ./inp_files/49197.got.cif
#   From: 2010.06.25/outbox.cif.g09.slc.cpg/sg10_25_cif.got.tgz:49197.got - 2010.06.27 22:07:45.
