data_PCOD8062234
_publ_section_title
;
Structure prediction by ZEFSAII (Michael W. Deem and Ramdas Pophale) SiO2 
 PCOD8062234
Probable space group: P 2/M
;
_chemical_formula_sum "Si O2"
_cell_formula_units_Z 32
_cell_length_a 11.971027
_cell_length_b 8.575627
_cell_length_c 28.283007
_cell_angle_alpha 90.000000
_cell_angle_beta 36.853093
_cell_angle_gamma 90.000000
_cell_volume 1741.422842
_symmetry_space_group_name_H-M "P 2/M"
_symmetry_group_IT_number 10
_symmetry_cell_setting 'monoclinic'
loop_
_space_group_symop_operation_xyz
x,y,z
-x,y,-z
-x,-y,-z
x,-y,z
loop_
_atom_site_type_symbol
_atom_site_label
_atom_site_fract_x
_atom_site_fract_y
_atom_site_fract_z
Si Si1 0.546092 0.183016 0.130329
Si Si2 0.224712 0.185677 0.855695
Si Si3 0.801722 0.815715 0.396269
Si Si4 0.833322 0.681419 0.767385
Si Si5 0.337239 0.822141 0.718193
Si Si6 0.515111 0.185031 0.567508
Si Si7 0.165402 0.317939 0.035984
Si Si8 0.084106 0.177662 0.161325
O O1 0.661041 0.237162 0.137410
O O2 0.352172 0.273993 0.198020
O O3 0.506820 0.000000 0.144517
O O4 0.659616 0.227960 0.045215
O O5 0.331079 0.253096 0.772744
O O6 0.020618 0.259906 0.927228
O O7 0.197238 0.000000 0.861319
O O8 0.653496 0.754232 0.408068
O O9 0.715516 0.771119 0.477208
O O10 0.994853 0.727127 0.324293
O O11 0.837023 0.000000 0.379920
O O12 0.839739 0.500000 0.776305
O O13 0.831121 0.771985 0.817639
O O14 0.486966 0.746278 0.630567
O O15 0.137736 0.805190 0.760536
O O16 0.393619 0.000000 0.706725
O O17 0.494954 0.000000 0.575852
O O18 0.190764 0.500000 0.018708
O O19 0.164552 0.283522 0.092097
O O20 0.141476 0.000000 0.131406
#
# Coordination Sequence:
#
# PCOD8062234 Si02
#       8
#     4   4   4   4   4   4   4   4
#     4  11  23  39  56  74  99 140 189 225 258 310
#     4   9  19  35  57  81 104 135 181 226 262 305
#     4   9  16  29  50  77 106 141 175 207 252 315
#     4  12  24  36  51  75 109 142 175 218 269 324
#     4   8  13  26  52  82 105 128 164 218 264 297
#     4   8  13  24  50  82 107 132 172 213 253 306
#     4  11  22  36  56  83 111 134 166 217 272 319
#     4  10  19  35  57  78 105 141 177 212 258 313
#
# _framework density 18.375779000000001
#
# number of rings (size 3 to 8) (size 9 to 14) (size 15 to 20)
#    0.000    2.250    1.250    4.875    0.000    3.000 
#    0.000    3.750    0.000    0.750    0.000    5.250 
#    0.000    0.000    0.000    0.000    0.000    0.000 
#
# Total GULP energy -396668.032469 kJ/mol
# GULP energy per Si atom -12395.876015 kJ/mol
# Density = 1.833395 g / cm^3
# Si number density = 18.375779 Si / 1000 Ang^3
#
#
#
# Elastic Constant Matrix: (Units=GPa)
#
#
# Indices 1 2 3 4 5 6 
#
# 1 50.6336 17.0934 41.4109 0.0000 -2.0803 0.0000
# 2 17.0934 41.9898 16.0393 0.0000 0.5566 0.0000
# 3 41.4109 16.0393 127.2337 0.0000 6.7212 0.0000
# 4 0.0000 0.0000 0.0000 4.0266 0.0000 4.1334
# 5 -2.0803 0.5566 6.7212 0.0000 23.0974 0.0000
# 6 0.0000 0.0000 0.0000 4.1334 0.0000 15.8164
#
#
#
# Elastic Compliance Matrix: (Units=1/GPa)
#
#
# Indices 1 2 3 4 5 6 
#
# 1 0.030433 -0.009000 -0.009066 0.000000 0.005596 0.000000
# 2 -0.009000 0.027684 -0.000490 0.000000 -0.001335 0.000000
# 3 -0.009066 -0.000490 0.011085 0.000000 -0.004030 0.000000
# 4 0.000000 0.000000 0.000000 0.339397 0.000000 -0.088696
# 5 0.005596 -0.001335 -0.004030 0.000000 0.045004 0.000000
# 6 0.000000 0.000000 0.000000 -0.088696 0.000000 0.086405
#
#
# Mechanical properties :
#
#
# Convention : Reuss Voigt Hill
#
# Bulk Modulus (GPa) = 31.16284 40.99384 36.07834
# Shear Modulus (GPa) = 8.50606 18.27563 13.39085
#
# Velocity S-wave (km/s) = 2.15383 3.15707 2.70242
# Velocity P-wave (km/s) = 4.81464 5.97047 5.42344
#
# Compressibility (1/GPa) = 0.03208950
#
# Stress axis : x y z
#
# Youngs Moduli (GPa) = 32.85949 36.12204 90.21214
#
# Poissons Ratio (x) = 0.32509 0.81787
# Poissons Ratio (y) = 0.29573 0.04422
# Poissons Ratio (z) = 0.29790 0.01771
#
# Static dielectric constant tensor:
#      x y z
#    x 3.307470 0.000000 0.290820 
#    y 0.000000 3.109720 0.000000 
#    z 0.290820 0.000000 3.630840 
# 
# 
# High freq. dielectric constant tensor:
#      x y z
#    x 1.690210 0.000000 0.021720 
#    y 0.000000 1.688290 0.000000 
#    z 0.021720 0.000000 1.719290 
# 
# From -- ./inp_files/83589.got.cif
#   From: 2010.06.25/outbox.cif.g09.slc.cpg/sg10_42_cif.got.tgz:83589.got - 2010.06.27 22:07:45.
