data_PCOD8062695
_publ_section_title
;
Structure prediction by ZEFSAII (Michael W. Deem and Ramdas Pophale) SiO2 
 PCOD8062695
Probable space group: P 2/M
;
_chemical_formula_sum "Si O2"
_cell_formula_units_Z 32
_cell_length_a 11.103375
_cell_length_b 18.289355
_cell_length_c 8.504634
_cell_angle_alpha 90.000000
_cell_angle_beta 120.079989
_cell_angle_gamma 90.000000
_cell_volume 1494.476333
_symmetry_space_group_name_H-M "P 2/M"
_symmetry_group_IT_number 10
_symmetry_cell_setting 'monoclinic'
loop_
_space_group_symop_operation_xyz
x,y,z
-x,y,-z
-x,-y,-z
x,-y,z
loop_
_atom_site_type_symbol
_atom_site_label
_atom_site_fract_x
_atom_site_fract_y
_atom_site_fract_z
Si Si1 0.636985 0.226130 0.397999
Si Si2 0.655732 0.579201 0.558255
Si Si3 0.641227 0.415039 0.180124
Si Si4 0.862908 0.692570 0.331785
Si Si5 0.912889 0.081235 0.295602
Si Si6 0.338656 0.276501 0.259669
Si Si7 0.902252 0.212562 0.079085
Si Si8 0.601669 0.080812 0.206174
O O1 0.758413 0.256205 0.365110
O O2 0.500025 0.279305 0.308775
O O3 0.688496 0.222483 0.610984
O O4 0.590627 0.143582 0.329165
O O5 0.500000 0.563235 0.500000
O O6 0.734730 0.500000 0.631488
O O7 0.656503 0.603907 0.375783
O O8 0.712815 0.642633 0.712766
O O9 0.660395 0.500000 0.158393
O O10 0.770536 0.371021 0.189013
O O11 0.500000 0.388172 0.000000
O O12 0.942498 0.742143 0.258225
O O13 0.000000 0.656404 0.500000
O O14 0.922416 0.128109 0.141324
O O15 0.754345 0.078194 0.238289
O O16 0.000000 0.114549 0.500000
O O17 0.970657 0.000000 0.294718
O O18 0.253151 0.240176 0.062678
O O19 0.000000 0.233612 0.000000
O O20 0.562482 0.000000 0.249167
O O21 0.500000 0.103394 0.000000
#
# Coordination Sequence:
#
# PCOD8062695 Si02
#       8
#     4   4   4   4   4   4   4   4
#     4  11  22  39  65  91 130 165 221 264 324 394
#     4  10  19  37  63  90 127 163 205 267 329 378
#     4  10  23  41  68 100 125 164 224 279 323 387
#     4  12  25  41  66  92 131 176 213 269 333 391
#     4  10  22  43  70  95 123 170 220 267 328 392
#     4  11  23  40  60 100 130 168 215 269 323 392
#     4  12  27  40  63  94 136 169 217 272 324 388
#     4  10  21  38  63  92 122 162 216 267 320 381
#
# _framework density 21.412181
#
# number of rings (size 3 to 8) (size 9 to 14) (size 15 to 20)
#    0.000    1.250    3.750    1.875    5.250    0.500 
#    0.000    1.875    0.000    0.750    0.000    0.000 
#    0.000    0.000    0.000    0.000    0.000    0.000 
#
# Total GULP energy -396459.544706 kJ/mol
# GULP energy per Si atom -12389.360772 kJ/mol
# Density = 2.136345 g / cm^3
# Si number density = 21.412181 Si / 1000 Ang^3
#
#
#
# Elastic Constant Matrix: (Units=GPa)
#
#
# Indices 1 2 3 4 5 6 
#
# 1 85.6258 33.1630 29.0447 0.0000 -3.8323 0.0000
# 2 33.1630 140.4577 51.7935 0.0000 -1.3285 0.0000
# 3 29.0447 51.7935 98.0997 0.0000 17.9713 0.0000
# 4 0.0000 0.0000 0.0000 42.4239 0.0000 -4.9217
# 5 -3.8323 -1.3285 17.9713 0.0000 30.3401 0.0000
# 6 0.0000 0.0000 0.0000 -4.9217 0.0000 21.3240
#
#
#
# Elastic Compliance Matrix: (Units=1/GPa)
#
#
# Indices 1 2 3 4 5 6 
#
# 1 0.013873 -0.001807 -0.003881 0.000000 0.003972 0.000000
# 2 -0.001807 0.009428 -0.005021 0.000000 0.003159 0.000000
# 3 -0.003881 -0.005021 0.015843 0.000000 -0.010094 0.000000
# 4 0.000000 0.000000 0.000000 0.024220 0.000000 0.005590
# 5 0.003972 0.003159 -0.010094 0.000000 0.039579 0.000000
# 6 0.000000 0.000000 0.000000 0.005590 0.000000 0.048186
#
#
# Mechanical properties :
#
#
# Convention : Reuss Voigt Hill
#
# Bulk Modulus (GPa) = 56.41654 61.35397 58.88526
# Shear Modulus (GPa) = 28.01831 32.82973 30.42402
#
# Velocity S-wave (km/s) = 3.62127 3.91989 3.77354
# Velocity P-wave (km/s) = 6.62495 7.01451 6.82251
#
# Compressibility (1/GPa) = 0.01772530
#
# Stress axis : x y z
#
# Youngs Moduli (GPa) = 72.08384 106.07151 63.11898
#
# Poissons Ratio (x) = 0.19164 0.24497
# Poissons Ratio (y) = 0.13024 0.31693
# Poissons Ratio (z) = 0.27977 0.53261
#
# Static dielectric constant tensor:
#      x y z
#    x 3.738670 0.000000 -0.038050 
#    y 0.000000 4.448510 0.000000 
#    z -0.038050 0.000000 3.946110 
# 
# 
# High freq. dielectric constant tensor:
#      x y z
#    x 1.820310 0.000000 0.002110 
#    y 0.000000 1.853240 0.000000 
#    z 0.002110 0.000000 1.833750 
# 
# From -- ./inp_files/26093.got.cif
#   From: 2010.06.25/outbox.cif.g09.slc.cpg/sg10_14_cif.got.tgz:26093.got - 2010.06.27 22:07:45.
