data_PCOD8062821
_publ_section_title
;
Structure prediction by ZEFSAII (Michael W. Deem and Ramdas Pophale) SiO2 
 PCOD8062821
Probable space group: P 2/M
;
_chemical_formula_sum "Si O2"
_cell_formula_units_Z 28
_cell_length_a 26.430221
_cell_length_b 9.429932
_cell_length_c 9.579090
_cell_angle_alpha 90.000000
_cell_angle_beta 141.539124
_cell_angle_gamma 90.000000
_cell_volume 1484.944063
_symmetry_space_group_name_H-M "P 2/M"
_symmetry_group_IT_number 10
_symmetry_cell_setting 'monoclinic'
loop_
_space_group_symop_operation_xyz
x,y,z
-x,y,-z
-x,-y,-z
x,-y,z
loop_
_atom_site_type_symbol
_atom_site_label
_atom_site_fract_x
_atom_site_fract_y
_atom_site_fract_z
Si Si1 0.169241 0.843471 0.208125
Si Si2 0.020906 0.337955 0.895495
Si Si3 0.239484 0.166122 0.910337
Si Si4 0.714372 0.833269 0.299977
Si Si5 0.328235 0.158762 0.371834
Si Si6 0.594815 0.336756 0.230965
Si Si7 0.921901 0.663064 0.418051
O O1 0.204624 0.799165 0.436096
O O2 0.239873 0.837926 0.248491
O O3 0.131232 0.000000 0.134910
O O4 0.099683 0.739157 0.003906
O O5 0.046717 0.500000 0.969282
O O6 0.943748 0.320942 0.628389
O O7 0.000000 0.269329 0.000000
O O8 0.270030 0.216632 0.824547
O O9 0.158309 0.246438 0.784421
O O10 0.218377 0.000000 0.863937
O O11 0.313431 0.199844 0.177569
O O12 0.639602 0.745521 0.202652
O O13 0.692537 0.000000 0.263103
O O14 0.386859 0.268577 0.577386
O O15 0.365597 0.000000 0.464829
O O16 0.623671 0.500000 0.294923
O O17 0.500000 0.323913 0.000000
O O18 0.904037 0.500000 0.338563
O O19 0.000000 0.718916 0.500000
#
# Coordination Sequence:
#
# PCOD8062821 Si02
#       7
#     4   4   4   4   4   4   4
#     4   9  17  30  48  70  95 126 169 215 256 302
#     4  10  20  31  43  63  92 127 169 215 260 304
#     4  10  20  35  55  79 106 137 178 222 262 311
#     4   9  19  35  55  80 108 138 173 215 263 313
#     4   9  19  35  55  79 105 134 169 209 255 308
#     4  10  21  37  58  84 109 135 171 209 249 307
#     4  10  21  34  47  68 101 140 180 221 266 313
#
# _framework density 18.855927999999999
#
# number of rings (size 3 to 8) (size 9 to 14) (size 15 to 20)
#    0.000    2.429    0.000    3.000    0.000    5.714 
#    0.000    0.714    0.000    4.286    0.000    0.000 
#    0.000    0.000    0.000    0.000    0.000    0.000 
#
# Total GULP energy -347174.397630 kJ/mol
# GULP energy per Si atom -12399.085630 kJ/mol
# Density = 1.881301 g / cm^3
# Si number density = 18.855928 Si / 1000 Ang^3
#
#
#
# Elastic Constant Matrix: (Units=GPa)
#
#
# Indices 1 2 3 4 5 6 
#
# 1 54.6324 27.9658 27.1699 0.0000 -10.8156 0.0000
# 2 27.9658 79.9346 42.2320 0.0000 9.3872 0.0000
# 3 27.1699 42.2320 81.2781 0.0000 -7.0939 0.0000
# 4 0.0000 0.0000 0.0000 28.1373 0.0000 3.8451
# 5 -10.8156 9.3872 -7.0939 0.0000 33.4979 0.0000
# 6 0.0000 0.0000 0.0000 3.8451 0.0000 20.3222
#
#
#
# Elastic Compliance Matrix: (Units=1/GPa)
#
#
# Indices 1 2 3 4 5 6 
#
# 1 0.026474 -0.008628 -0.003474 0.000000 0.010230 0.000000
# 2 -0.008628 0.021754 -0.009367 0.000000 -0.010866 0.000000
# 3 -0.003474 -0.009367 0.018811 0.000000 0.005487 0.000000
# 4 0.000000 0.000000 0.000000 0.036483 0.000000 -0.006903
# 5 0.010230 -0.010866 0.005487 0.000000 0.037363 0.000000
# 6 0.000000 0.000000 0.000000 -0.006903 0.000000 0.050513
#
#
# Mechanical properties :
#
#
# Convention : Reuss Voigt Hill
#
# Bulk Modulus (GPa) = 41.49388 45.62006 43.55697
# Shear Modulus (GPa) = 20.62967 24.28997 22.45982
#
# Velocity S-wave (km/s) = 3.31126 3.59303 3.45502
# Velocity P-wave (km/s) = 6.05580 6.43892 6.25030
#
# Compressibility (1/GPa) = 0.02409994
#
# Stress axis : x y z
#
# Youngs Moduli (GPa) = 37.77355 45.96860 53.16085
#
# Poissons Ratio (x) = 0.39662 0.18466
# Poissons Ratio (y) = 0.32591 0.49798
# Poissons Ratio (z) = 0.13121 0.43061
#
# Static dielectric constant tensor:
#      x y z
#    x 3.389780 0.000000 -0.362870 
#    y 0.000000 3.460400 0.000000 
#    z -0.362870 0.000000 3.533290 
# 
# 
# High freq. dielectric constant tensor:
#      x y z
#    x 1.718820 0.000000 -0.020660 
#    y 0.000000 1.727560 0.000000 
#    z -0.020660 0.000000 1.732740 
# 
# From -- ./inp_files/37281.got.cif
#   From: 2010.06.25/outbox.cif.g09.slc.cpg/sg10_19_cif.got.tgz:37281.got - 2010.06.27 22:07:45.
