data_PCOD8062667
_publ_section_title
;
Structure prediction by ZEFSAII (Michael W. Deem and Ramdas Pophale) SiO2 
 PCOD8062667
Probable space group: P 2/M
;
_chemical_formula_sum "Si O2"
_cell_formula_units_Z 24
_cell_length_a 18.710535
_cell_length_b 8.744213
_cell_length_c 14.917767
_cell_angle_alpha 90.000000
_cell_angle_beta 150.447040
_cell_angle_gamma 90.000000
_cell_volume 1203.811084
_symmetry_space_group_name_H-M "P 2/M"
_symmetry_group_IT_number 10
_symmetry_cell_setting 'monoclinic'
loop_
_space_group_symop_operation_xyz
x,y,z
-x,y,-z
-x,-y,-z
x,-y,z
loop_
_atom_site_type_symbol
_atom_site_label
_atom_site_fract_x
_atom_site_fract_y
_atom_site_fract_z
Si Si1 0.931135 0.319679 0.019603
Si Si2 0.136582 0.818020 0.393341
Si Si3 0.620654 0.176977 0.706001
Si Si4 0.134768 0.668890 0.583465
Si Si5 0.392589 0.180839 0.956749
Si Si6 0.540028 0.817997 0.294626
O O1 0.944319 0.500000 0.047185
O O2 0.014935 0.238793 0.192091
O O3 0.763295 0.272099 0.837703
O O4 0.000000 0.267699 0.000000
O O5 0.103043 0.755628 0.455945
O O6 0.294100 0.759215 0.531268
O O7 0.131425 0.000000 0.392836
O O8 0.500000 0.198514 0.500000
O O9 0.543874 0.244937 0.710556
O O10 0.665924 0.000000 0.766499
O O11 0.196000 0.500000 0.627014
O O12 0.235958 0.764165 0.759585
O O13 0.000000 0.651465 0.500000
O O14 0.395211 0.000000 0.962832
O O15 0.500000 0.246744 0.000000
O O16 0.446676 0.246921 0.110256
O O17 0.544118 0.000000 0.301112
#
# Coordination Sequence:
#
# PCOD8062667 Si02
#       6
#     4   4   4   4   4   4
#     4  11  25  43  62  89 128 165 198 242 301 364
#     4  11  22  41  67  91 118 158 206 253 303 355
#     4  10  21  39  64  93 121 153 200 252 299 355
#     4  11  25  41  57  86 128 165 203 249 302 362
#     4  10  19  37  61  86 117 156 206 251 295 352
#     4   9  19  36  60  90 119 150 196 256 305 348
#
# _framework density 19.936682000000001
#
# number of rings (size 3 to 8) (size 9 to 14) (size 15 to 20)
#    0.000    1.667    1.667    2.500    2.333    4.667 
#    0.000    1.667    0.000    0.000    0.000    0.000 
#    0.000    0.000    0.000    0.000    0.000    0.000 
#
# Total GULP energy -297553.796037 kJ/mol
# GULP energy per Si atom -12398.074835 kJ/mol
# Density = 1.989131 g / cm^3
# Si number density = 19.936682 Si / 1000 Ang^3
#
#
#
# Elastic Constant Matrix: (Units=GPa)
#
#
# Indices 1 2 3 4 5 6 
#
# 1 150.6565 45.2899 56.4809 0.0000 -2.7537 0.0000
# 2 45.2899 13.4270 -3.5039 0.0000 -13.7827 0.0000
# 3 56.4809 -3.5039 92.2540 0.0000 -15.2280 0.0000
# 4 0.0000 0.0000 0.0000 -110.7215 0.0000 5.0245
# 5 -2.7537 -13.7827 -15.2280 0.0000 33.0163 0.0000
# 6 0.0000 0.0000 0.0000 5.0245 0.0000 30.9561
#
#
#
# Elastic Compliance Matrix: (Units=1/GPa)
#
#
# Indices 1 2 3 4 5 6 
#
# 1 -0.003621 0.028008 0.005586 0.000000 0.013967 0.000000
# 2 0.028008 -0.063558 -0.025497 0.000000 -0.035956 0.000000
# 3 0.005586 -0.025497 0.005164 0.000000 -0.007796 0.000000
# 4 0.000000 0.000000 0.000000 -0.008966 0.000000 0.001455
# 5 0.013967 -0.035956 -0.007796 0.000000 0.012847 0.000000
# 6 0.000000 0.000000 0.000000 0.001455 0.000000 0.032068
#
#
# Mechanical properties :
#
#
# Convention : Reuss Voigt Hill
#
# Bulk Modulus (GPa) = -21.82461 50.31904 14.24721
# Shear Modulus (GPa) = -86.90457 1.18823 -42.85817
#
# Velocity S-wave (km/s) = -6.60946 0.77285 -4.64153
# Velocity P-wave (km/s) = 8.31969 5.10790 4.64363
#
# Compressibility (1/GPa) = -0.04581983
#
# Stress axis : x y z
#
# Youngs Moduli (GPa) = -276.16283 -15.73354 193.63093
#
# Poissons Ratio (x) = 0.44067 -1.08164
# Poissons Ratio (y) = 7.73482 4.93694
# Poissons Ratio (z) = 1.54267 -0.40115
#
# Static dielectric constant tensor:
#      x y z
#    x 3.781010 0.000000 -0.109040 
#    y 0.000000 3.509570 0.000000 
#    z -0.109040 0.000000 3.629800 
# 
# 
# High freq. dielectric constant tensor:
#      x y z
#    x 1.793430 0.000000 -0.004710 
#    y 0.000000 1.760680 0.000000 
#    z -0.004710 0.000000 1.790940 
# 
# From -- ./inp_files/68786.got.cif
#   From: 2010.06.25/outbox.cif.g09.slc.cpg/sg10_35_cif.got.tgz:68786.got - 2010.06.27 22:07:45.
