data_PCOD8062740
_publ_section_title
;
Structure prediction by ZEFSAII (Michael W. Deem and Ramdas Pophale) SiO2 
 PCOD8062740
Probable space group: P 2/M
;
_chemical_formula_sum "Si O2"
_cell_formula_units_Z 28
_cell_length_a 9.715858
_cell_length_b 8.812472
_cell_length_c 29.276409
_cell_angle_alpha 90.000000
_cell_angle_beta 33.144425
_cell_angle_gamma 90.000000
_cell_volume 1370.523747
_symmetry_space_group_name_H-M "P 2/M"
_symmetry_group_IT_number 10
_symmetry_cell_setting 'monoclinic'
loop_
_space_group_symop_operation_xyz
x,y,z
-x,y,-z
-x,-y,-z
x,-y,z
loop_
_atom_site_type_symbol
_atom_site_label
_atom_site_fract_x
_atom_site_fract_y
_atom_site_fract_z
Si Si1 0.558405 0.820567 0.874657
Si Si2 0.875843 0.179615 0.935031
Si Si3 0.530397 0.823101 0.351883
Si Si4 0.418445 0.820327 0.813649
Si Si5 0.630773 0.321105 0.510907
Si Si6 0.967465 0.678870 0.817581
Si Si7 0.167205 0.176783 0.373289
O O1 0.491102 0.760638 0.843247
O O2 0.814496 0.734733 0.816036
O O3 0.604845 0.000000 0.863005
O O4 0.333355 0.771658 0.970565
O O5 0.816862 0.258688 0.903321
O O6 0.143668 0.243497 0.877856
O O7 0.877340 0.000000 0.927025
O O8 0.515329 0.755350 0.406596
O O9 0.271064 0.796301 0.395855
O O10 0.752850 0.746235 0.261546
O O11 0.590372 0.000000 0.339011
O O12 0.623154 0.764211 0.720338
O O13 0.403403 0.000000 0.817561
O O14 0.500000 0.267668 0.500000
O O15 0.609032 0.500000 0.522717
O O16 0.920688 0.273637 0.431883
O O17 0.984298 0.500000 0.814046
O O18 0.102293 0.000000 0.383945
#
# Coordination Sequence:
#
# PCOD8062740 Si02
#       7
#     4   4   4   4   4   4   4
#     4  10  21  36  61  91 121 162 207 255 308 357
#     4  10  19  38  63  89 120 158 209 259 302 358
#     4  11  23  43  69  93 119 156 208 255 299 355
#     4   9  18  36  62  93 122 153 202 258 307 353
#     4  11  26  44  63  94 133 163 193 238 298 364
#     4  12  25  39  58  87 126 166 205 250 307 363
#     4  10  21  40  66  94 122 157 205 254 299 355
#
# _framework density 20.430147000000002
#
# number of rings (size 3 to 8) (size 9 to 14) (size 15 to 20)
#    0.000    1.571    1.429    3.429    2.000    8.000 
#    0.000    0.714    0.000    1.714    0.000    0.000 
#    0.000    0.000    0.000    0.000    0.000    0.000 
#
# Total GULP energy -347316.580558 kJ/mol
# GULP energy per Si atom -12404.163591 kJ/mol
# Density = 2.038365 g / cm^3
# Si number density = 20.430147 Si / 1000 Ang^3
#
#
#
# Elastic Constant Matrix: (Units=GPa)
#
#
# Indices 1 2 3 4 5 6 
#
# 1 114.3734 34.3500 28.3622 0.0000 14.6955 0.0000
# 2 34.3500 70.2518 27.6051 0.0000 5.4035 0.0000
# 3 28.3622 27.6051 80.7422 0.0000 11.0093 0.0000
# 4 0.0000 0.0000 0.0000 12.5192 0.0000 -0.8359
# 5 14.6955 5.4035 11.0093 0.0000 37.4776 0.0000
# 6 0.0000 0.0000 0.0000 -0.8359 0.0000 14.7912
#
#
#
# Elastic Compliance Matrix: (Units=1/GPa)
#
#
# Indices 1 2 3 4 5 6 
#
# 1 0.010924 -0.004345 -0.001930 0.000000 -0.003090 0.000000
# 2 -0.004345 0.018192 -0.004759 0.000000 0.000479 0.000000
# 3 -0.001930 -0.004759 0.015098 0.000000 -0.002992 0.000000
# 4 0.000000 0.000000 0.000000 0.080180 0.000000 0.004531
# 5 -0.003090 0.000479 -0.002992 0.000000 0.028704 0.000000
# 6 0.000000 0.000000 0.000000 0.004531 0.000000 0.067864
#
#
# Mechanical properties :
#
#
# Convention : Reuss Voigt Hill
#
# Bulk Modulus (GPa) = 45.15526 49.55577 47.35551
# Shear Modulus (GPa) = 19.96705 24.62762 22.29733
#
# Velocity S-wave (km/s) = 3.12962 3.47573 3.30721
# Velocity P-wave (km/s) = 5.93377 6.35740 6.14923
#
# Compressibility (1/GPa) = 0.02214582
#
# Stress axis : x y z
#
# Youngs Moduli (GPa) = 91.54175 54.96865 66.23344
#
# Poissons Ratio (x) = 0.23885 0.12785
# Poissons Ratio (y) = 0.39776 0.31519
# Poissons Ratio (z) = 0.17671 0.26158
#
# Static dielectric constant tensor:
#      x y z
#    x 3.925250 0.000000 0.057940 
#    y 0.000000 3.388240 0.000000 
#    z 0.057940 0.000000 3.794490 
# 
# 
# High freq. dielectric constant tensor:
#      x y z
#    x 1.814320 0.000000 0.001150 
#    y 0.000000 1.771990 0.000000 
#    z 0.001150 0.000000 1.808620 
# 
# From -- ./inp_files/91962.got.cif
#   From: 2010.06.25/outbox.cif.g09.slc.cpg/sg10_46_cif.got.tgz:91962.got - 2010.06.27 22:07:45.
