data_PCOD8062665
_publ_section_title
;
Structure prediction by ZEFSAII (Michael W. Deem and Ramdas Pophale) SiO2 
 PCOD8062665
Probable space group: P 2/M
;
_chemical_formula_sum "Si O2"
_cell_formula_units_Z 32
_cell_length_a 23.418907
_cell_length_b 9.057702
_cell_length_c 13.973883
_cell_angle_alpha 90.000000
_cell_angle_beta 33.165875
_cell_angle_gamma 90.000000
_cell_volume 1621.587877
_symmetry_space_group_name_H-M "P 2/M"
_symmetry_group_IT_number 10
_symmetry_cell_setting 'monoclinic'
loop_
_space_group_symop_operation_xyz
x,y,z
-x,y,-z
-x,-y,-z
x,-y,z
loop_
_atom_site_type_symbol
_atom_site_label
_atom_site_fract_x
_atom_site_fract_y
_atom_site_fract_z
Si Si1 0.190399 0.325673 0.996391
Si Si2 0.299258 0.171481 0.015331
Si Si3 0.462522 0.831832 0.304547
Si Si4 0.401534 0.326423 0.201493
Si Si5 0.271498 0.169214 0.699654
Si Si6 0.951762 0.330673 0.327456
Si Si7 0.108133 0.330344 0.803161
Si Si8 0.226289 0.173154 0.329298
O O1 0.201367 0.500000 0.974719
O O2 0.231707 0.270210 0.039564
O O3 0.258336 0.257193 0.816103
O O4 0.070561 0.275118 0.152937
O O5 0.420320 0.211775 0.830918
O O6 0.277516 0.000000 0.024597
O O7 0.264910 0.215728 0.169922
O O8 0.420210 0.722627 0.283408
O O9 0.391619 0.815144 0.498366
O O10 0.459846 0.000000 0.268837
O O11 0.381832 0.500000 0.226731
O O12 0.299534 0.248338 0.304625
O O13 0.500000 0.278419 0.000000
O O14 0.200216 0.230908 0.714523
O O15 0.241331 0.000000 0.760364
O O16 0.949136 0.500000 0.364801
O O17 0.894740 0.310487 0.306203
O O18 0.891131 0.233267 0.491029
O O19 0.128309 0.500000 0.804746
O O20 0.000000 0.275274 0.000000
O O21 0.228400 0.000000 0.343539
#
# Coordination Sequence:
#
# PCOD8062665 Si02
#       8
#     4   4   4   4   4   4   4   4
#     4  11  24  43  64  86 117 159 201 247 304 357
#     4  10  23  43  63  85 117 158 202 249 298 351
#     4  10  22  41  63  88 122 162 200 242 300 357
#     4  11  22  36  60  93 126 159 198 244 295 353
#     4  11  23  38  61  92 121 154 199 248 296 354
#     4  10  22  40  62  88 121 159 197 244 300 357
#     4  10  19  37  61  85 120 160 195 236 296 360
#     4  11  23  39  63  90 121 160 199 245 300 355
#
# _framework density 19.733743
#
# number of rings (size 3 to 8) (size 9 to 14) (size 15 to 20)
#    0.000    1.500    2.500    2.250    0.000    7.750 
#    0.000    5.000    0.000    0.000    0.000    0.000 
#    0.000    0.000    0.000    0.000    0.000    0.000 
#
# Total GULP energy -397000.695066 kJ/mol
# GULP energy per Si atom -12406.271721 kJ/mol
# Density = 1.968883 g / cm^3
# Si number density = 19.733743 Si / 1000 Ang^3
#
#
#
# Elastic Constant Matrix: (Units=GPa)
#
#
# Indices 1 2 3 4 5 6 
#
# 1 73.1398 36.5464 23.1445 0.0000 -4.8138 0.0000
# 2 36.5464 79.7856 47.5469 0.0000 -0.3495 0.0000
# 3 23.1445 47.5469 116.2216 0.0000 8.7769 0.0000
# 4 0.0000 0.0000 0.0000 31.8344 0.0000 2.1194
# 5 -4.8138 -0.3495 8.7769 0.0000 10.6892 0.0000
# 6 0.0000 0.0000 0.0000 2.1194 0.0000 35.5225
#
#
#
# Elastic Compliance Matrix: (Units=1/GPa)
#
#
# Indices 1 2 3 4 5 6 
#
# 1 0.018509 -0.007714 -0.001216 0.000000 0.009082 0.000000
# 2 -0.007714 0.020226 -0.006957 0.000000 0.002900 0.000000
# 3 -0.001216 -0.006957 0.012528 0.000000 -0.011062 0.000000
# 4 0.000000 0.000000 0.000000 0.031538 0.000000 -0.001882
# 5 0.009082 0.002900 -0.011062 0.000000 0.106820 0.000000
# 6 0.000000 0.000000 0.000000 -0.001882 0.000000 0.028263
#
#
# Mechanical properties :
#
#
# Convention : Reuss Voigt Hill
#
# Bulk Modulus (GPa) = 51.31168 53.73586 52.52377
# Shear Modulus (GPa) = 19.51939 26.40316 22.96128
#
# Velocity S-wave (km/s) = 3.14847 3.66180 3.41479
# Velocity P-wave (km/s) = 6.26702 6.72071 6.49783
#
# Compressibility (1/GPa) = 0.01948874
#
# Stress axis : x y z
#
# Youngs Moduli (GPa) = 54.02636 49.44163 79.82064
#
# Poissons Ratio (x) = 0.38139 0.09706
# Poissons Ratio (y) = 0.41676 0.55534
# Poissons Ratio (z) = 0.06570 0.34398
#
# Static dielectric constant tensor:
#      x y z
#    x 3.417180 0.000000 -0.023870 
#    y 0.000000 3.574820 0.000000 
#    z -0.023870 0.000000 3.803060 
# 
# 
# High freq. dielectric constant tensor:
#      x y z
#    x 1.760270 0.000000 0.001240 
#    y 0.000000 1.770060 0.000000 
#    z 0.001240 0.000000 1.787080 
# 
# From -- ./inp_files/71407.got.cif
#   From: 2010.06.25/outbox.cif.g09.slc.cpg/sg10_36_cif.got.tgz:71407.got - 2010.06.27 22:07:45.
