data_PCOD8062747
_publ_section_title
;
Structure prediction by ZEFSAII (Michael W. Deem and Ramdas Pophale) SiO2 
 PCOD8062747
Probable space group: P 2/M
;
_chemical_formula_sum "Si O2"
_cell_formula_units_Z 28
_cell_length_a 15.443940
_cell_length_b 8.902686
_cell_length_c 18.168390
_cell_angle_alpha 90.000000
_cell_angle_beta 144.400602
_cell_angle_gamma 90.000000
_cell_volume 1454.132457
_symmetry_space_group_name_H-M "P 2/M"
_symmetry_group_IT_number 10
_symmetry_cell_setting 'monoclinic'
loop_
_space_group_symop_operation_xyz
x,y,z
-x,y,-z
-x,-y,-z
x,-y,z
loop_
_atom_site_type_symbol
_atom_site_label
_atom_site_fract_x
_atom_site_fract_y
_atom_site_fract_z
Si Si1 0.763629 0.330013 0.814352
Si Si2 0.213270 0.822426 0.480692
Si Si3 0.518052 0.822964 0.430317
Si Si4 0.828139 0.822767 0.383730
Si Si5 0.332777 0.677422 0.864877
Si Si6 0.041344 0.329298 0.909723
Si Si7 0.905967 0.823783 0.202048
O O1 0.708414 0.500000 0.763765
O O2 0.627067 0.216619 0.716560
O O3 0.882131 0.286459 0.833641
O O4 0.833023 0.312566 0.942303
O O5 0.339834 0.753156 0.514563
O O6 0.240398 0.777177 0.584367
O O7 0.052584 0.762597 0.344690
O O8 0.214857 0.000000 0.473718
O O9 0.500000 0.754027 0.500000
O O10 0.536012 0.000000 0.447668
O O11 0.725272 0.745739 0.251771
O O12 0.000000 0.768126 0.500000
O O13 0.822772 0.000000 0.365727
O O14 0.321968 0.500000 0.850798
O O15 0.233920 0.734548 0.863855
O O16 0.500000 0.729200 0.000000
O O17 0.039343 0.500000 0.877921
O O18 0.078695 0.209751 0.873253
O O19 0.882176 0.000000 0.198568
#
# Coordination Sequence:
#
# PCOD8062747 Si02
#       7
#     4   4   4   4   4   4   4
#     4   9  19  36  55  76 110 153 191 229 281 342
#     4   9  19  35  56  83 113 147 187 236 295 346
#     4  10  20  34  53  80 116 149 184 237 289 333
#     4  10  19  38  64  86 114 152 195 248 297 349
#     4  11  25  42  59  85 122 156 190 241 298 354
#     4   9  19  36  56  79 111 150 188 233 286 339
#     4  11  21  37  61  86 111 145 192 239 288 350
#
# _framework density 19.255466999999999
#
# number of rings (size 3 to 8) (size 9 to 14) (size 15 to 20)
#    0.000    2.143    1.429    2.571    0.000    5.143 
#    0.000    6.429    0.000    0.000    0.000    0.000 
#    0.000    0.000    0.000    0.000    0.000    0.000 
#
# Total GULP energy -347206.400212 kJ/mol
# GULP energy per Si atom -12400.228579 kJ/mol
# Density = 1.921164 g / cm^3
# Si number density = 19.255467 Si / 1000 Ang^3
#
#
#
# Elastic Constant Matrix: (Units=GPa)
#
#
# Indices 1 2 3 4 5 6 
#
# 1 130.0742 31.1098 71.5577 0.0000 -3.4906 0.0000
# 2 31.1098 32.6601 38.8662 0.0000 -0.2028 0.0000
# 3 71.5577 38.8662 129.3949 0.0000 10.5528 0.0000
# 4 0.0000 0.0000 0.0000 30.2405 0.0000 0.3274
# 5 -3.4906 -0.2028 10.5528 0.0000 33.2706 0.0000
# 6 0.0000 0.0000 0.0000 0.3274 0.0000 25.0955
#
#
#
# Elastic Compliance Matrix: (Units=1/GPa)
#
#
# Indices 1 2 3 4 5 6 
#
# 1 0.011877 -0.004976 -0.005310 0.000000 0.002900 0.000000
# 2 -0.004976 0.050546 -0.012743 0.000000 0.003828 0.000000
# 3 -0.005310 -0.012743 0.014930 0.000000 -0.005370 0.000000
# 4 0.000000 0.000000 0.000000 0.033073 0.000000 -0.000431
# 5 0.002900 0.003828 -0.005370 0.000000 0.032088 0.000000
# 6 0.000000 0.000000 0.000000 -0.000431 0.000000 0.039853
#
#
# Mechanical properties :
#
#
# Convention : Reuss Voigt Hill
#
# Bulk Modulus (GPa) = 31.95333 63.91075 47.93204
# Shear Modulus (GPa) = 20.93297 27.76103 24.34700
#
# Velocity S-wave (km/s) = 3.30072 3.80112 3.55973
# Velocity P-wave (km/s) = 5.58183 7.24760 6.46856
#
# Compressibility (1/GPa) = 0.03129564
#
# Stress axis : x y z
#
# Youngs Moduli (GPa) = 84.19531 19.78382 66.97770
#
# Poissons Ratio (x) = 0.09845 0.35566
# Poissons Ratio (y) = 0.41898 0.85348
# Poissons Ratio (z) = 0.44708 0.25210
#
# Static dielectric constant tensor:
#      x y z
#    x 3.739080 0.000000 0.031070 
#    y 0.000000 3.315750 0.000000 
#    z 0.031070 0.000000 3.519820 
# 
# 
# High freq. dielectric constant tensor:
#      x y z
#    x 1.760700 0.000000 -0.003400 
#    y 0.000000 1.726950 0.000000 
#    z -0.003400 0.000000 1.753180 
# 
# From -- ./inp_files/77806.got.cif
#   From: 2010.06.25/outbox.cif.g09.slc.cpg/sg10_39_cif.got.tgz:77806.got - 2010.06.27 22:07:45.
