data_PCOD8062563
_publ_section_title
;
Structure prediction by ZEFSAII (Michael W. Deem and Ramdas Pophale) SiO2 
 PCOD8062563
Probable space group: P 2/M
;
_chemical_formula_sum "Si O2"
_cell_formula_units_Z 32
_cell_length_a 12.801912
_cell_length_b 8.570259
_cell_length_c 14.584026
_cell_angle_alpha 90.000000
_cell_angle_beta 99.630082
_cell_angle_gamma 90.000000
_cell_volume 1577.548630
_symmetry_space_group_name_H-M "P 2/M"
_symmetry_group_IT_number 10
_symmetry_cell_setting 'monoclinic'
loop_
_space_group_symop_operation_xyz
x,y,z
-x,y,-z
-x,-y,-z
x,-y,z
loop_
_atom_site_type_symbol
_atom_site_label
_atom_site_fract_x
_atom_site_fract_y
_atom_site_fract_z
Si Si1 0.018827 0.817901 0.218141
Si Si2 0.821553 0.813516 0.064617
Si Si3 0.534222 0.320317 0.401761
Si Si4 0.427419 0.185149 0.216441
Si Si5 0.045064 0.679845 0.603416
Si Si6 0.796092 0.317817 0.867828
Si Si7 0.631328 0.172741 0.150042
Si Si8 0.262023 0.172661 0.640950
O O1 0.914551 0.762654 0.147695
O O2 0.004792 0.783803 0.323396
O O3 0.121023 0.723573 0.199138
O O4 0.040038 0.000000 0.206148
O O5 0.706490 0.748055 0.083579
O O6 0.819028 0.000000 0.054423
O O7 0.846636 0.734067 0.971599
O O8 0.500000 0.293661 0.500000
O O9 0.556778 0.500000 0.382913
O O10 0.443433 0.259812 0.319110
O O11 0.640574 0.222123 0.407521
O O12 0.312713 0.224942 0.161961
O O13 0.518530 0.253438 0.159413
O O14 0.442782 0.000000 0.227603
O O15 0.017394 0.500000 0.618184
O O16 0.170591 0.701193 0.615997
O O17 0.000000 0.737761 0.500000
O O18 0.771491 0.500000 0.862417
O O19 0.705037 0.166989 0.249245
O O20 0.604617 0.000000 0.110493
O O21 0.223460 0.000000 0.605052
#
# Coordination Sequence:
#
# PCOD8062563 Si02
#       8
#     4   4   4   4   4   4   4   4
#     4  11  23  42  67  90 118 159 209 258 305 364
#     4  10  20  39  65  91 119 155 203 253 308 367
#     4  10  21  37  59  88 122 159 197 246 311 369
#     4  10  21  39  62  87 119 159 206 253 304 361
#     4  11  24  40  60  90 126 161 197 247 315 370
#     4  12  26  41  58  87 128 166 204 252 310 370
#     4   8  16  34  61  89 114 147 192 248 299 349
#     4  10  19  36  60  86 115 154 203 249 295 354
#
# _framework density 20.284635999999999
#
# number of rings (size 3 to 8) (size 9 to 14) (size 15 to 20)
#    0.000    1.750    1.250    4.125    0.000    6.000 
#    0.000    5.000    0.000    0.000    0.000    0.000 
#    0.000    0.000    0.000    0.000    0.000    0.000 
#
# Total GULP energy -396772.193926 kJ/mol
# GULP energy per Si atom -12399.131060 kJ/mol
# Density = 2.023847 g / cm^3
# Si number density = 20.284636 Si / 1000 Ang^3
#
#
#
# Elastic Constant Matrix: (Units=GPa)
#
#
# Indices 1 2 3 4 5 6 
#
# 1 104.8278 13.8555 40.4864 0.0000 -0.9142 0.0000
# 2 13.8555 52.8777 23.3865 0.0000 -5.9503 0.0000
# 3 40.4864 23.3865 95.8033 0.0000 -7.2101 0.0000
# 4 0.0000 0.0000 0.0000 25.6553 0.0000 -0.6234
# 5 -0.9142 -5.9503 -7.2101 0.0000 20.0595 0.0000
# 6 0.0000 0.0000 0.0000 -0.6234 0.0000 29.8256
#
#
#
# Elastic Compliance Matrix: (Units=1/GPa)
#
#
# Indices 1 2 3 4 5 6 
#
# 1 0.011486 -0.001100 -0.004698 0.000000 -0.001491 0.000000
# 2 -0.001100 0.021718 -0.004477 0.000000 0.004783 0.000000
# 3 -0.004698 -0.004477 0.013773 0.000000 0.003408 0.000000
# 4 0.000000 0.000000 0.000000 0.038998 0.000000 0.000815
# 5 -0.001491 0.004783 0.003408 0.000000 0.052428 0.000000
# 6 0.000000 0.000000 0.000000 0.000815 0.000000 0.033545
#
#
# Mechanical properties :
#
#
# Convention : Reuss Voigt Hill
#
# Bulk Modulus (GPa) = 37.83872 45.44062 41.63967
# Shear Modulus (GPa) = 24.83779 26.82677 25.83228
#
# Velocity S-wave (km/s) = 3.50303 3.64059 3.57247
# Velocity P-wave (km/s) = 5.92081 6.33419 6.13099
#
# Compressibility (1/GPa) = 0.02642795
#
# Stress axis : x y z
#
# Youngs Moduli (GPa) = 87.06094 46.04485 72.60733
#
# Poissons Ratio (x) = 0.05064 0.34110
# Poissons Ratio (y) = 0.09575 0.32505
# Poissons Ratio (z) = 0.40900 0.20613
#
# Static dielectric constant tensor:
#      x y z
#    x 3.797570 0.000000 -0.124410 
#    y 0.000000 3.584750 0.000000 
#    z -0.124410 0.000000 3.670830 
# 
# 
# High freq. dielectric constant tensor:
#      x y z
#    x 1.800970 0.000000 -0.009940 
#    y 0.000000 1.780570 0.000000 
#    z -0.009940 0.000000 1.789830 
# 
# From -- ./inp_files/63806.got.cif
#   From: 2010.06.25/outbox.cif.g09.slc.cpg/sg10_32_cif.got.tgz:63806.got - 2010.06.27 22:07:45.
