data_PCOD8062626
_publ_section_title
;
Structure prediction by ZEFSAII (Michael W. Deem and Ramdas Pophale) SiO2 
 PCOD8062626
Probable space group: P 2/M
;
_chemical_formula_sum "Si O2"
_cell_formula_units_Z 32
_cell_length_a 30.293989
_cell_length_b 8.950351
_cell_length_c 13.001465
_cell_angle_alpha 90.000000
_cell_angle_beta 152.117887
_cell_angle_gamma 90.000000
_cell_volume 1648.592706
_symmetry_space_group_name_H-M "P 2/M"
_symmetry_group_IT_number 10
_symmetry_cell_setting 'monoclinic'
loop_
_space_group_symop_operation_xyz
x,y,z
-x,y,-z
-x,-y,-z
x,-y,z
loop_
_atom_site_type_symbol
_atom_site_label
_atom_site_fract_x
_atom_site_fract_y
_atom_site_fract_z
Si Si1 0.593915 0.332577 0.948168
Si Si2 0.795339 0.177831 0.084263
Si Si3 0.566982 0.328348 0.229122
Si Si4 0.784472 0.327099 0.450036
Si Si5 0.113378 0.822733 0.935922
Si Si6 0.404121 0.176138 0.256981
Si Si7 0.764134 0.176860 0.619455
Si Si8 0.898560 0.177465 0.502550
O O1 0.605038 0.500000 0.926587
O O2 0.490721 0.311492 0.784078
O O3 0.607845 0.215272 0.886593
O O4 0.673465 0.304131 0.198321
O O5 0.841219 0.244624 0.075117
O O6 0.852219 0.235251 0.301091
O O7 0.799259 0.000000 0.090548
O O8 0.686957 0.234865 0.867875
O O9 0.597984 0.500000 0.272720
O O10 0.657568 0.224494 0.423452
O O11 0.500000 0.271315 0.000000
O O12 0.811905 0.500000 0.513346
O O13 0.806031 0.250527 0.603196
O O14 0.846808 0.251240 0.491453
O O15 0.006322 0.767117 0.725014
O O16 0.116830 0.000000 0.936564
O O17 0.171858 0.765643 0.154406
O O18 0.500000 0.249156 0.500000
O O19 0.409665 0.000000 0.277307
O O20 0.768610 0.000000 0.616335
O O21 0.890269 0.000000 0.496266
#
# Coordination Sequence:
#
# PCOD8062626 Si02
#       8
#     4   4   4   4   4   4   4   4
#     4  10  21  37  57  78 109 152 192 228 276 339
#     4   9  17  33  57  85 114 147 185 227 283 344
#     4  10  20  38  58  78 109 150 187 224 274 333
#     4  11  22  39  60  82 115 154 191 238 287 336
#     4   9  20  36  56  85 119 149 183 236 297 342
#     4  10  21  34  54  86 119 145 179 235 288 332
#     4  11  23  37  57  87 118 150 189 237 285 340
#     4  10  19  36  63  88 108 143 196 243 281 340
#
# _framework density 19.410494
#
# number of rings (size 3 to 8) (size 9 to 14) (size 15 to 20)
#    0.000    2.000    2.500    1.125    1.750    3.500 
#    0.000    3.750    0.000    3.750    0.000    0.000 
#    0.000    0.000    0.000    0.000    0.000    0.000 
#
# Total GULP energy -396853.100745 kJ/mol
# GULP energy per Si atom -12401.659398 kJ/mol
# Density = 1.936631 g / cm^3
# Si number density = 19.410494 Si / 1000 Ang^3
#
#
#
# Elastic Constant Matrix: (Units=GPa)
#
#
# Indices 1 2 3 4 5 6 
#
# 1 158.4134 37.7142 81.6283 0.0000 -5.5714 0.0000
# 2 37.7142 39.2147 36.2595 0.0000 0.7013 0.0000
# 3 81.6283 36.2595 150.6225 0.0000 1.9938 0.0000
# 4 0.0000 0.0000 0.0000 14.4772 0.0000 1.5605
# 5 -5.5714 0.7013 1.9938 0.0000 31.9850 0.0000
# 6 0.0000 0.0000 0.0000 1.5605 0.0000 16.7053
#
#
#
# Elastic Compliance Matrix: (Units=1/GPa)
#
#
# Indices 1 2 3 4 5 6 
#
# 1 0.009801 -0.005822 -0.003937 0.000000 0.002080 0.000000
# 2 -0.005822 0.036263 -0.005555 0.000000 -0.001463 0.000000
# 3 -0.003937 -0.005555 0.010126 0.000000 -0.001195 0.000000
# 4 0.000000 0.000000 0.000000 0.069777 0.000000 -0.006518
# 5 0.002080 -0.001463 -0.001195 0.000000 0.031734 0.000000
# 6 0.000000 0.000000 0.000000 -0.006518 0.000000 0.060470
#
#
# Mechanical properties :
#
#
# Convention : Reuss Voigt Hill
#
# Bulk Modulus (GPa) = 39.12318 73.27274 56.19796
# Shear Modulus (GPa) = 19.43116 25.47673 22.45395
#
# Velocity S-wave (km/s) = 3.16739 3.62681 3.40486
# Velocity P-wave (km/s) = 5.79448 7.44105 6.66878
#
# Compressibility (1/GPa) = 0.02556030
#
# Stress axis : x y z
#
# Youngs Moduli (GPa) = 102.03275 27.57669 98.75605
#
# Poissons Ratio (x) = 0.16056 0.38884
# Poissons Ratio (y) = 0.59407 0.54857
# Poissons Ratio (z) = 0.40174 0.15318
#
# Static dielectric constant tensor:
#      x y z
#    x 3.669620 0.000000 0.088480 
#    y 0.000000 3.197130 0.000000 
#    z 0.088480 0.000000 3.739180 
# 
# 
# High freq. dielectric constant tensor:
#      x y z
#    x 1.770620 0.000000 0.003020 
#    y 0.000000 1.721630 0.000000 
#    z 0.003020 0.000000 1.760090 
# 
# From -- ./inp_files/49807.got.cif
#   From: 2010.06.25/outbox.cif.g09.slc.cpg/sg10_25_cif.got.tgz:49807.got - 2010.06.27 22:07:45.
