data_PCOD8062498
_publ_section_title
;
Structure prediction by ZEFSAII (Michael W. Deem and Ramdas Pophale) SiO2 
 PCOD8062498
Probable space group: P 2/M
;
_chemical_formula_sum "Si O2"
_cell_formula_units_Z 32
_cell_length_a 20.085470
_cell_length_b 8.684051
_cell_length_c 25.083990
_cell_angle_alpha 90.000000
_cell_angle_beta 23.203556
_cell_angle_gamma 90.000000
_cell_volume 1723.836419
_symmetry_space_group_name_H-M "P 2/M"
_symmetry_group_IT_number 10
_symmetry_cell_setting 'monoclinic'
loop_
_space_group_symop_operation_xyz
x,y,z
-x,y,-z
-x,-y,-z
x,-y,z
loop_
_atom_site_type_symbol
_atom_site_label
_atom_site_fract_x
_atom_site_fract_y
_atom_site_fract_z
Si Si1 0.455471 0.682131 0.117316
Si Si2 0.755590 0.821345 0.173283
Si Si3 0.032726 0.681223 0.895680
Si Si4 0.756629 0.681523 0.822377
Si Si5 0.952367 0.818168 0.846933
Si Si6 0.430186 0.818467 0.862735
Si Si7 0.920282 0.319481 0.354354
Si Si8 0.577120 0.821033 0.642455
O O1 0.457208 0.500000 0.123871
O O2 0.295258 0.737370 0.199044
O O3 0.445092 0.758485 0.182944
O O4 0.624739 0.743893 0.963455
O O5 0.560426 0.794238 0.302627
O O6 0.799934 0.727831 0.194244
O O7 0.794137 0.000000 0.154464
O O8 0.869689 0.765080 0.040178
O O9 0.006333 0.500000 0.918444
O O10 0.055339 0.735917 0.818490
O O11 0.737521 0.500000 0.836638
O O12 0.944796 0.733955 0.699769
O O13 0.045886 0.775296 0.723861
O O14 0.958879 0.000000 0.850887
O O15 0.759839 0.754911 0.988536
O O16 0.501813 0.760534 0.753667
O O17 0.425779 0.000000 0.867126
O O18 0.938138 0.500000 0.328986
O O19 0.736852 0.282693 0.511545
O O20 0.629085 0.000000 0.607668
#
# Coordination Sequence:
#
# PCOD8062498 Si02
#       8
#     4   4   4   4   4   4   4   4
#     4   9  16  31  55  80 108 142 181 228 278 326
#     4  10  19  36  58  80 112 152 188 223 275 336
#     4  11  21  33  55  88 117 140 181 237 280 320
#     4   8  16  31  52  79 111 144 178 222 278 335
#     4  11  21  37  58  82 112 149 186 227 277 333
#     4  10  20  35  55  82 111 141 187 234 270 320
#     4  11  22  37  57  84 113 145 185 232 281 331
#     4  10  22  40  57  78 112 153 188 222 272 337
#
# _framework density 18.563245999999999
#
# number of rings (size 3 to 8) (size 9 to 14) (size 15 to 20)
#    0.000    2.000    2.500    3.750    0.000    2.000 
#    0.000    3.750    0.000    7.500    0.000    0.000 
#    0.000    0.000    0.000    0.000    0.000    0.000 
#
# Total GULP energy -396795.780075 kJ/mol
# GULP energy per Si atom -12399.868127 kJ/mol
# Density = 1.852100 g / cm^3
# Si number density = 18.563246 Si / 1000 Ang^3
#
#
#
# Elastic Constant Matrix: (Units=GPa)
#
#
# Indices 1 2 3 4 5 6 
#
# 1 134.3943 23.7069 46.6118 0.0000 -6.8303 0.0000
# 2 23.7069 43.2959 21.2999 0.0000 -2.8190 0.0000
# 3 46.6118 21.2999 87.1553 0.0000 -7.7012 0.0000
# 4 0.0000 0.0000 0.0000 23.1339 0.0000 2.4818
# 5 -6.8303 -2.8190 -7.7012 0.0000 26.5902 0.0000
# 6 0.0000 0.0000 0.0000 2.4818 0.0000 30.2256
#
#
#
# Elastic Compliance Matrix: (Units=1/GPa)
#
#
# Indices 1 2 3 4 5 6 
#
# 1 0.009500 -0.003050 -0.004257 0.000000 0.000884 0.000000
# 2 -0.003050 0.027256 -0.004971 0.000000 0.000666 0.000000
# 3 -0.004257 -0.004971 0.015212 0.000000 0.002785 0.000000
# 4 0.000000 0.000000 0.000000 0.043611 0.000000 -0.003581
# 5 0.000884 0.000666 0.002785 0.000000 0.038712 0.000000
# 6 0.000000 0.000000 0.000000 -0.003581 0.000000 0.033379
#
#
# Mechanical properties :
#
#
# Convention : Reuss Voigt Hill
#
# Bulk Modulus (GPa) = 36.48161 49.78698 43.13429
# Shear Modulus (GPa) = 24.83079 27.53841 26.18460
#
# Velocity S-wave (km/s) = 3.66133 3.85579 3.75982
# Velocity P-wave (km/s) = 6.12936 6.83383 6.49116
#
# Compressibility (1/GPa) = 0.02741107
#
# Stress axis : x y z
#
# Youngs Moduli (GPa) = 105.25970 36.68943 65.73908
#
# Poissons Ratio (x) = 0.11190 0.27988
# Poissons Ratio (y) = 0.32103 0.32679
# Poissons Ratio (z) = 0.44813 0.18238
#
# Static dielectric constant tensor:
#      x y z
#    x 3.714230 0.000000 -0.187260 
#    y 0.000000 3.218570 0.000000 
#    z -0.187260 0.000000 3.196730 
# 
# 
# High freq. dielectric constant tensor:
#      x y z
#    x 1.737660 0.000000 -0.011290 
#    y 0.000000 1.711130 0.000000 
#    z -0.011290 0.000000 1.688950 
# 
# From -- ./inp_files/93573.got.cif
#   From: 2010.06.25/outbox.cif.g09.slc.cpg/sg10_47_cif.got.tgz:93573.got - 2010.06.27 22:07:45.
