data_PCOD8062158
_publ_section_title
;
Structure prediction by ZEFSAII (Michael W. Deem and Ramdas Pophale) SiO2 
 PCOD8062158
Probable space group: P 2/M
;
_chemical_formula_sum "Si O2"
_cell_formula_units_Z 32
_cell_length_a 8.852253
_cell_length_b 13.564700
_cell_length_c 23.838498
_cell_angle_alpha 90.000000
_cell_angle_beta 140.736538
_cell_angle_gamma 90.000000
_cell_volume 1811.628950
_symmetry_space_group_name_H-M "P 2/M"
_symmetry_group_IT_number 10
_symmetry_cell_setting 'monoclinic'
loop_
_space_group_symop_operation_xyz
x,y,z
-x,y,-z
-x,-y,-z
x,-y,z
loop_
_atom_site_type_symbol
_atom_site_label
_atom_site_fract_x
_atom_site_fract_y
_atom_site_fract_z
Si Si1 0.254851 0.109107 0.453696
Si Si2 0.796167 0.616426 0.981856
Si Si3 0.012123 0.614544 0.160694
Si Si4 0.927605 0.701173 0.361109
Si Si5 0.262583 0.893765 0.580109
Si Si6 0.394583 0.612918 0.528801
Si Si7 0.496873 0.290755 0.677807
Si Si8 0.731250 0.615664 0.193068
O O1 0.500000 0.154936 0.500000
O O2 0.347533 0.089152 0.542302
O O3 0.031616 0.186188 0.388490
O O4 0.184570 0.000000 0.407817
O O5 0.789665 0.500000 0.973037
O O6 0.537644 0.657606 0.889717
O O7 0.000000 0.661793 0.000000
O O8 0.847938 0.644647 0.061029
O O9 0.088084 0.500000 0.179656
O O10 0.248072 0.680622 0.224630
O O11 0.866216 0.638447 0.174289
O O12 0.702547 0.675176 0.335497
O O13 0.868351 0.674466 0.280358
O O14 0.113779 0.625628 0.441621
O O15 0.459580 0.827286 0.667371
O O16 0.000000 0.841550 0.500000
O O17 0.239550 0.000000 0.605246
O O18 0.500000 0.653914 0.500000
O O19 0.470308 0.500000 0.559465
O O20 0.477814 0.670341 0.608365
O O21 0.734647 0.500000 0.207889
#
# Coordination Sequence:
#
# PCOD8062158 Si02
#       8
#     4   4   4   4   4   4   4   4
#     4  10  21  36  55  76 100 134 175 219 263 307
#     4   9  17  33  55  77 100 129 168 216 260 301
#     4  10  21  35  52  74 104 139 175 212 254 306
#     4  12  22  33  50  75 103 135 173 213 258 305
#     4  10  19  35  54  73 100 134 172 216 264 307
#     4  11  23  36  48  65  98 140 176 210 253 303
#     4  12  22  33  50  76 101 136 173 213 258 305
#     4  10  21  35  52  74 104 140 174 211 255 305
#
# _framework density 17.663661999999999
#
# number of rings (size 3 to 8) (size 9 to 14) (size 15 to 20)
#    0.000    1.500    2.500    3.375    1.750    7.000 
#    0.000    0.000    0.000    0.000    0.000    0.875 
#    0.000    5.000    0.000    0.000    0.000    0.000 
#
# Total GULP energy -396448.491185 kJ/mol
# GULP energy per Si atom -12389.015350 kJ/mol
# Density = 1.762346 g / cm^3
# Si number density = 17.663662 Si / 1000 Ang^3
#
#
#
# Elastic Constant Matrix: (Units=GPa)
#
#
# Indices 1 2 3 4 5 6 
#
# 1 82.7796 10.5325 3.3810 0.0000 1.1460 0.0000
# 2 10.5325 62.2540 15.6445 0.0000 4.3718 0.0000
# 3 3.3810 15.6445 66.7751 0.0000 1.9609 0.0000
# 4 0.0000 0.0000 0.0000 9.3233 0.0000 4.8683
# 5 1.1460 4.3718 1.9609 0.0000 36.9159 0.0000
# 6 0.0000 0.0000 0.0000 4.8683 0.0000 19.8024
#
#
#
# Elastic Compliance Matrix: (Units=1/GPa)
#
#
# Indices 1 2 3 4 5 6 
#
# 1 0.012348 -0.002044 -0.000142 0.000000 -0.000134 0.000000
# 2 -0.002044 0.017528 -0.003950 0.000000 -0.001803 0.000000
# 3 -0.000142 -0.003950 0.015919 0.000000 -0.000373 0.000000
# 4 0.000000 0.000000 0.000000 0.123055 0.000000 -0.030253
# 5 -0.000134 -0.001803 -0.000373 0.000000 0.027326 0.000000
# 6 0.000000 0.000000 0.000000 -0.030253 0.000000 0.057936
#
#
# Mechanical properties :
#
#
# Convention : Reuss Voigt Hill
#
# Bulk Modulus (GPa) = 29.83072 30.10273 29.96673
# Shear Modulus (GPa) = 18.01409 25.35836 21.68623
#
# Velocity S-wave (km/s) = 3.19696 3.79307 3.50770
# Velocity P-wave (km/s) = 5.52741 6.02182 5.77990
#
# Compressibility (1/GPa) = 0.03352248
#
# Stress axis : x y z
#
# Youngs Moduli (GPa) = 80.98475 57.05057 62.81682
#
# Poissons Ratio (x) = 0.11661 0.00895
# Poissons Ratio (y) = 0.16553 0.24814
# Poissons Ratio (z) = 0.01153 0.22536
#
# Static dielectric constant tensor:
#      x y z
#    x 3.595520 0.000000 -0.016040 
#    y 0.000000 3.307090 0.000000 
#    z -0.016040 0.000000 3.199980 
# 
# 
# High freq. dielectric constant tensor:
#      x y z
#    x 1.711320 0.000000 -0.004650 
#    y 0.000000 1.654490 0.000000 
#    z -0.004650 0.000000 1.660810 
# 
# From -- ./inp_files/29138.got.cif
#   From: 2010.06.25/outbox.cif.g09.slc.cpg/sg10_15_cif.got.tgz:29138.got - 2010.06.27 22:07:45.
