data_PCOD8062792
_publ_section_title
;
Structure prediction by ZEFSAII (Michael W. Deem and Ramdas Pophale) SiO2 
 PCOD8062792
Probable space group: P 2/M
;
_chemical_formula_sum "Si O2"
_cell_formula_units_Z 28
_cell_length_a 23.877505
_cell_length_b 13.922735
_cell_length_c 20.229178
_cell_angle_alpha 90.000000
_cell_angle_beta 163.384755
_cell_angle_gamma 90.000000
_cell_volume 1922.966544
_symmetry_space_group_name_H-M "P 2/M"
_symmetry_group_IT_number 10
_symmetry_cell_setting 'monoclinic'
loop_
_space_group_symop_operation_xyz
x,y,z
-x,y,-z
-x,-y,-z
x,-y,z
loop_
_atom_site_type_symbol
_atom_site_label
_atom_site_fract_x
_atom_site_fract_y
_atom_site_fract_z
Si Si1 0.916303 0.606263 0.832585
Si Si2 0.374504 0.759805 0.458541
Si Si3 0.280431 0.114253 0.858646
Si Si4 0.684063 0.885467 0.368228
Si Si5 0.793516 0.240195 0.877553
Si Si6 0.875665 0.885745 0.453810
Si Si7 0.844617 0.113882 0.689185
O O1 0.881376 0.500000 0.762709
O O2 0.709761 0.663160 0.602362
O O3 0.000000 0.596169 0.000000
O O4 0.075511 0.663155 0.968115
O O5 0.284196 0.773069 0.284196
O O6 0.611100 0.755091 0.722233
O O7 0.302834 0.850033 0.420684
O O8 0.273412 0.146377 0.773463
O O9 0.090743 0.154901 0.681632
O O10 0.283052 0.000000 0.864149
O O11 0.467316 0.155523 0.108738
O O12 0.814991 0.844445 0.456292
O O13 0.764074 0.846496 0.528089
O O14 0.684669 0.000000 0.369414
O O15 0.932790 0.149970 0.050647
O O16 0.878767 0.000000 0.459824
O O17 0.848115 0.000000 0.696201
#
# Coordination Sequence:
#
# PCOD8062792 Si02
#       7
#     4   4   4   4   4   4   4
#     4   8  14  26  45  67  85  96 111 144 192 246
#     4   9  18  31  44  58  77 101 130 164 201 240
#     4   8  13  21  33  48  65  85 111 147 191 235
#     4   9  16  24  34  48  66  90 122 161 200 230
#     4   9  18  31  44  58  77 101 130 164 201 240
#     4   8  13  21  33  48  65  85 111 147 191 235
#     4  10  20  30  39  53  74 103 141 180 207 225
#
# _framework density 14.560836
#
# number of rings (size 3 to 8) (size 9 to 14) (size 15 to 20)
#    0.000    3.286    0.000    2.571    0.000    5.143 
#    0.000    7.143    0.000    0.000    0.000    0.000 
#    0.000    0.000    0.000    0.000    0.000   45.714 
#
# Total GULP energy -346942.024754 kJ/mol
# GULP energy per Si atom -12390.786598 kJ/mol
# Density = 1.452769 g / cm^3
# Si number density = 14.560836 Si / 1000 Ang^3
#
#
#
# Elastic Constant Matrix: (Units=GPa)
#
#
# Indices 1 2 3 4 5 6 
#
# 1 72.5966 28.3914 61.1120 0.0000 14.0182 0.0000
# 2 28.3914 63.2171 31.9597 0.0000 7.6113 0.0000
# 3 61.1120 31.9597 89.4201 0.0000 21.4929 0.0000
# 4 0.0000 0.0000 0.0000 6.0229 0.0000 4.3329
# 5 14.0182 7.6113 21.4929 0.0000 25.2238 0.0000
# 6 0.0000 0.0000 0.0000 4.3329 0.0000 4.0247
#
#
#
# Elastic Compliance Matrix: (Units=1/GPa)
#
#
# Indices 1 2 3 4 5 6 
#
# 1 0.033354 -0.004216 -0.021553 0.000000 0.001100 0.000000
# 2 -0.004216 0.019840 -0.004193 0.000000 -0.000071 0.000000
# 3 -0.021553 -0.004193 0.030468 0.000000 -0.012719 0.000000
# 4 0.000000 0.000000 0.000000 0.736256 0.000000 -0.792638
# 5 0.001100 -0.000071 -0.012719 0.000000 0.049892 0.000000
# 6 0.000000 0.000000 0.000000 -0.792638 0.000000 1.101806
#
#
# Mechanical properties :
#
#
# Convention : Reuss Voigt Hill
#
# Bulk Modulus (GPa) = 42.12310 52.01778 47.07044
# Shear Modulus (GPa) = 2.45164 13.97232 8.21198
#
# Velocity S-wave (km/s) = 1.29899 3.10107 2.37740
# Velocity P-wave (km/s) = 5.58943 6.97311 6.31925
#
# Compressibility (1/GPa) = 0.02373994
#
# Stress axis : x y z
#
# Youngs Moduli (GPa) = 29.98105 50.40285 32.82083
#
# Poissons Ratio (x) = 0.21250 0.70738
# Poissons Ratio (y) = 0.12640 0.13760
# Poissons Ratio (z) = 0.64618 0.21132
#
# Static dielectric constant tensor:
#      x y z
#    x 2.992920 0.000000 0.131400 
#    y 0.000000 2.514920 0.000000 
#    z 0.131400 0.000000 3.053610 
# 
# 
# High freq. dielectric constant tensor:
#      x y z
#    x 1.554430 0.000000 0.013700 
#    y 0.000000 1.495750 0.000000 
#    z 0.013700 0.000000 1.560740 
# 
# From -- ./inp_files/79640.got.cif
#   From: 2010.06.25/outbox.cif.g09.slc.cpg/sg10_40_cif.got.tgz:79640.got - 2010.06.27 22:07:45.
