data_PCOD8062954
_publ_section_title
;
Structure prediction by ZEFSAII (Michael W. Deem and Ramdas Pophale) SiO2 
 PCOD8062954
Probable space group: P 2/M
;
_chemical_formula_sum "Si O2"
_cell_formula_units_Z 28
_cell_length_a 20.441616
_cell_length_b 9.016923
_cell_length_c 17.992320
_cell_angle_alpha 90.000000
_cell_angle_beta 151.317941
_cell_angle_gamma 90.000000
_cell_volume 1591.679694
_symmetry_space_group_name_H-M "P 2/M"
_symmetry_group_IT_number 10
_symmetry_cell_setting 'monoclinic'
loop_
_space_group_symop_operation_xyz
x,y,z
-x,y,-z
-x,-y,-z
x,-y,z
loop_
_atom_site_type_symbol
_atom_site_label
_atom_site_fract_x
_atom_site_fract_y
_atom_site_fract_z
Si Si1 0.162823 0.834112 0.161935
Si Si2 0.636445 0.174593 0.057838
Si Si3 0.354483 0.676163 0.780361
Si Si4 0.838915 0.664015 0.697835
Si Si5 0.865434 0.325702 0.562026
Si Si6 0.147930 0.172846 0.854949
Si Si7 0.162786 0.665355 0.018377
O O1 0.220432 0.769150 0.296988
O O2 0.222403 0.742371 0.151802
O O3 0.218203 0.000000 0.209794
O O4 0.000000 0.829816 0.000000
O O5 0.691254 0.252630 0.187213
O O6 0.744020 0.206467 0.101110
O O7 0.615266 0.000000 0.050756
O O8 0.494443 0.249585 0.892473
O O9 0.373845 0.500000 0.808118
O O10 0.239438 0.717260 0.606412
O O11 0.779341 0.500000 0.652485
O O12 0.799563 0.721639 0.576017
O O13 0.001217 0.660023 0.863420
O O14 0.899442 0.500000 0.597894
O O15 0.005223 0.240467 0.686047
O O16 0.126857 0.000000 0.848591
O O17 0.205836 0.244487 0.988150
O O18 0.223857 0.500000 0.074005
#
# Coordination Sequence:
#
# PCOD8062954 Si02
#       7
#     4   4   4   4   4   4   4
#     4   9  15  22  35  58  88 121 157 192 227 274
#     4  10  21  36  52  72  98 127 159 197 241 287
#     4  10  20  35  55  75  94 123 163 201 237 283
#     4   8  14  25  39  58  88 122 153 188 232 278
#     4   9  19  33  49  72 100 127 158 199 243 284
#     4  10  20  32  48  71  99 129 160 196 240 288
#     4   9  16  26  41  61  89 124 158 194 236 278
#
# _framework density 17.591479
#
# number of rings (size 3 to 8) (size 9 to 14) (size 15 to 20)
#    0.000    2.714    0.000    3.857    0.000    9.143 
#    0.000    2.857    0.000    0.000    0.000    1.000 
#    0.000    8.000    0.000    0.000    0.000    0.000 
#
# Total GULP energy -347122.701112 kJ/mol
# GULP energy per Si atom -12397.239325 kJ/mol
# Density = 1.755144 g / cm^3
# Si number density = 17.591479 Si / 1000 Ang^3
#
#
#
# Elastic Constant Matrix: (Units=GPa)
#
#
# Indices 1 2 3 4 5 6 
#
# 1 131.0735 80.8429 77.9132 0.0000 -30.0842 0.0000
# 2 80.8429 130.1340 50.7679 0.0000 -14.4135 0.0000
# 3 77.9132 50.7679 48.1591 0.0000 -9.9711 0.0000
# 4 0.0000 0.0000 0.0000 13.8817 0.0000 -6.9690
# 5 -30.0842 -14.4135 -9.9711 0.0000 13.5736 0.0000
# 6 0.0000 0.0000 0.0000 -6.9690 0.0000 29.4273
#
#
#
# Elastic Compliance Matrix: (Units=1/GPa)
#
#
# Indices 1 2 3 4 5 6 
#
# 1 -0.080817 -0.006464 0.116823 0.000000 -0.100167 0.000000
# 2 -0.006464 0.012765 -0.003725 0.000000 -0.003508 0.000000
# 3 0.116823 -0.003725 -0.131522 0.000000 0.158352 0.000000
# 4 0.000000 0.000000 0.000000 0.081757 0.000000 0.019362
# 5 -0.100167 -0.003508 0.158352 0.000000 -0.035736 0.000000
# 6 0.000000 0.000000 0.000000 0.019362 0.000000 0.038567
#
#
# Mechanical properties :
#
#
# Convention : Reuss Voigt Hill
#
# Bulk Modulus (GPa) = 73.02743 80.93498 76.98120
# Shear Modulus (GPa) = -15.44686 18.03271 1.29293
#
# Velocity S-wave (km/s) = -2.96647 3.20516 0.85824
# Velocity P-wave (km/s) = 5.46533 7.73339 6.69609
#
# Compressibility (1/GPa) = 0.01369349
#
# Stress axis : x y z
#
# Youngs Moduli (GPa) = -12.37361 78.34204 -7.60328
#
# Poissons Ratio (x) = 0.50637 0.88824
# Poissons Ratio (y) = -0.07998 -0.02833
# Poissons Ratio (z) = 1.44552 0.29185
#
# Static dielectric constant tensor:
#      x y z
#    x 3.301070 0.000000 -0.385040 
#    y 0.000000 3.464660 0.000000 
#    z -0.385040 0.000000 3.007800 
# 
# 
# High freq. dielectric constant tensor:
#      x y z
#    x 1.677020 0.000000 -0.034580 
#    y 0.000000 1.694540 0.000000 
#    z -0.034580 0.000000 1.640290 
# 
# From -- ./inp_files/38065.got.cif
#   From: 2010.06.25/outbox.cif.g09.slc.cpg/sg10_20_cif.got.tgz:38065.got - 2010.06.27 22:07:45.
