data_PCOD8062514
_publ_section_title
;
Structure prediction by ZEFSAII (Michael W. Deem and Ramdas Pophale) SiO2 
 PCOD8062514
Probable space group: P 2/M
;
_chemical_formula_sum "Si O2"
_cell_formula_units_Z 26
_cell_length_a 11.657052
_cell_length_b 7.372674
_cell_length_c 22.684044
_cell_angle_alpha 90.000000
_cell_angle_beta 40.859305
_cell_angle_gamma 90.000000
_cell_volume 1275.402620
_symmetry_space_group_name_H-M "P 2/M"
_symmetry_group_IT_number 10
_symmetry_cell_setting 'monoclinic'
loop_
_space_group_symop_operation_xyz
x,y,z
-x,y,-z
-x,-y,-z
x,-y,z
loop_
_atom_site_type_symbol
_atom_site_label
_atom_site_fract_x
_atom_site_fract_y
_atom_site_fract_z
Si Si1 0.089759 0.784939 0.602498
Si Si2 0.616812 0.791286 0.592541
Si Si3 0.529251 0.500000 0.814846
Si Si4 0.238021 0.787132 0.772891
Si Si5 0.174555 0.500000 0.895545
Si Si6 0.749376 0.791465 0.667924
Si Si7 0.334738 0.500000 0.106650
Si Si8 0.039613 0.788551 0.221033
O O1 0.274060 0.705705 0.504999
O O2 0.933521 0.716748 0.620885
O O3 0.055019 0.718120 0.682411
O O4 0.100206 0.000000 0.595770
O O5 0.424092 0.705797 0.676934
O O6 0.740797 0.764157 0.601191
O O7 0.582224 0.000000 0.592417
O O8 0.321133 0.500000 0.889233
O O9 0.594080 0.681253 0.757976
O O10 0.587255 0.500000 0.859064
O O11 0.184392 0.680556 0.852153
O O12 0.092784 0.749794 0.780227
O O13 0.252824 0.000000 0.782990
O O14 0.000000 0.500000 0.000000
O O15 0.720675 0.000000 0.696848
O O16 0.218150 0.678984 0.140930
O O17 0.500000 0.500000 0.000000
O O18 0.089393 0.000000 0.206645
#
# Coordination Sequence:
#
# PCOD8062514 Si02
#       8
#     4   4   2   4   2   4   2   4
#     4   9  17  32  58  90 123 162 203 243 293 354
#     4   9  17  32  58  90 123 162 203 243 293 354
#     4  12  24  40  65  94 112 160 203 244 316 366
#     4  10  22  42  65  90 124 164 203 249 303 357
#     4  12  27  44  67  90 121 154 203 259 312 366
#     4  10  19  36  58  86 128 162 198 249 296 352
#     4  12  27  44  67  90 121 154 203 259 312 366
#     4  10  22  42  65  90 124 164 203 249 303 357
#
# _framework density 20.385719000000002
#
# number of rings (size 3 to 8) (size 9 to 14) (size 15 to 20)
#    0.000    1.846    3.077    0.923    2.154    3.077 
#    0.000    6.923    0.000    1.846    0.000    0.000 
#    0.000    0.000    0.000    0.000    0.000    0.000 
#
# Total GULP energy -322331.246409 kJ/mol
# GULP energy per Si atom -12397.355631 kJ/mol
# Density = 2.033932 g / cm^3
# Si number density = 20.385719 Si / 1000 Ang^3
#
#
#
# Elastic Constant Matrix: (Units=GPa)
#
#
# Indices 1 2 3 4 5 6 
#
# 1 118.6665 36.0145 48.1972 0.0000 -18.4237 0.0000
# 2 36.0145 80.3779 44.1751 0.0000 -5.4541 0.0000
# 3 48.1972 44.1751 159.0355 0.0000 -28.5965 0.0000
# 4 0.0000 0.0000 0.0000 22.0838 0.0000 -20.0450
# 5 -18.4237 -5.4541 -28.5965 0.0000 25.6321 0.0000
# 6 0.0000 0.0000 0.0000 -20.0450 0.0000 54.1167
#
#
#
# Elastic Compliance Matrix: (Units=1/GPa)
#
#
# Indices 1 2 3 4 5 6 
#
# 1 0.010983 -0.003857 -0.001232 0.000000 0.005698 0.000000
# 2 -0.003857 0.016103 -0.003986 0.000000 -0.003793 0.000000
# 3 -0.001232 -0.003986 0.009328 0.000000 0.008673 0.000000
# 4 0.000000 0.000000 0.000000 0.068217 0.000000 0.025268
# 5 0.005698 -0.003793 0.008673 0.000000 0.051978 0.000000
# 6 0.000000 0.000000 0.000000 0.025268 0.000000 0.027838
#
#
# Mechanical properties :
#
#
# Convention : Reuss Voigt Hill
#
# Bulk Modulus (GPa) = 54.75598 68.31707 61.53653
# Shear Modulus (GPa) = 23.95955 35.67941 29.81948
#
# Velocity S-wave (km/s) = 3.43200 4.18810 3.82876
# Velocity P-wave (km/s) = 6.52864 7.54797 7.05673
#
# Compressibility (1/GPa) = 0.01826285
#
# Stress axis : x y z
#
# Youngs Moduli (GPa) = 91.05113 62.10145 107.20361
#
# Poissons Ratio (x) = 0.23953 0.13212
# Poissons Ratio (y) = 0.35119 0.42730
# Poissons Ratio (z) = 0.11221 0.24753
#
# Static dielectric constant tensor:
#      x y z
#    x 3.949750 0.000000 0.145180 
#    y 0.000000 3.571570 0.000000 
#    z 0.145180 0.000000 4.039730 
# 
# 
# High freq. dielectric constant tensor:
#      x y z
#    x 1.804100 0.000000 -0.003360 
#    y 0.000000 1.791920 0.000000 
#    z -0.003360 0.000000 1.786730 
# 
# From -- ./inp_files/83509.got.cif
#   From: 2010.06.25/outbox.cif.g09.slc.cpg/sg10_42_cif.got.tgz:83509.got - 2010.06.27 22:07:45.
