data_PCOD8062895
_publ_section_title
;
Structure prediction by ZEFSAII (Michael W. Deem and Ramdas Pophale) SiO2 
 PCOD8062895
Probable space group: P 2/M
;
_chemical_formula_sum "Si O2"
_cell_formula_units_Z 32
_cell_length_a 20.117936
_cell_length_b 9.293425
_cell_length_c 12.204123
_cell_angle_alpha 90.000000
_cell_angle_beta 56.123992
_cell_angle_gamma 90.000000
_cell_volume 1894.403399
_symmetry_space_group_name_H-M "P 2/M"
_symmetry_group_IT_number 10
_symmetry_cell_setting 'monoclinic'
loop_
_space_group_symop_operation_xyz
x,y,z
-x,y,-z
-x,-y,-z
x,-y,z
loop_
_atom_site_type_symbol
_atom_site_label
_atom_site_fract_x
_atom_site_fract_y
_atom_site_fract_z
Si Si1 0.367797 0.831562 0.309363
Si Si2 0.942200 0.668811 0.908881
Si Si3 0.552267 0.166347 0.137228
Si Si4 0.272012 0.832628 0.611678
Si Si5 0.887003 0.670371 0.195609
Si Si6 0.789795 0.667627 0.937639
Si Si7 0.678874 0.164608 0.196175
Si Si8 0.666839 0.329682 0.872699
O O1 0.460540 0.788484 0.232563
O O2 0.326373 0.785168 0.460084
O O3 0.325736 0.740769 0.252687
O O4 0.357184 0.000000 0.294432
O O5 0.948748 0.500000 0.918941
O O6 0.884511 0.709845 0.858586
O O7 0.033578 0.722314 0.808941
O O8 0.901163 0.725808 0.058476
O O9 0.593145 0.195010 0.217913
O O10 0.561531 0.000000 0.093046
O O11 0.591947 0.263487 0.006889
O O12 0.189271 0.747067 0.682258
O O13 0.323837 0.796231 0.672848
O O14 0.250708 0.000000 0.625730
O O15 0.872712 0.500000 0.216280
O O16 0.778250 0.500000 0.968629
O O17 0.749975 0.710939 0.858646
O O18 0.746643 0.741417 0.078436
O O19 0.703833 0.000000 0.155694
O O20 0.654373 0.500000 0.874343
#
# Coordination Sequence:
#
# PCOD8062895 Si02
#       8
#     4   4   4   4   4   4   4   4
#     4  10  21  35  49  65  91 130 165 191 228 278
#     4   8  14  26  47  73  96 120 153 186 224 277
#     4   9  18  33  52  70  90 121 158 195 236 280
#     4  10  20  32  46  68  99 128 155 191 231 274
#     4   9  16  28  48  71  95 125 155 184 224 279
#     4   9  16  29  49  71  96 122 149 188 236 279
#     4   9  17  29  46  70  96 120 152 192 232 275
#     4  10  20  32  50  74  95 117 153 202 242 270
#
# _framework density 16.891860000000001
#
# number of rings (size 3 to 8) (size 9 to 14) (size 15 to 20)
#    0.000    2.750    1.250    1.500    0.000    3.500 
#    0.000    4.375    0.000    0.750    0.000   10.500 
#    0.000    0.000    0.000    0.000    0.000    0.000 
#
# Total GULP energy -396607.099374 kJ/mol
# GULP energy per Si atom -12393.971855 kJ/mol
# Density = 1.685341 g / cm^3
# Si number density = 16.891860 Si / 1000 Ang^3
#
#
#
# Elastic Constant Matrix: (Units=GPa)
#
#
# Indices 1 2 3 4 5 6 
#
# 1 130.2754 36.4127 50.2590 0.0000 8.6858 0.0000
# 2 36.4127 37.1472 27.7555 0.0000 7.2776 0.0000
# 3 50.2590 27.7555 70.7268 0.0000 17.6244 0.0000
# 4 0.0000 0.0000 0.0000 -45.2025 0.0000 -45.3347
# 5 8.6858 7.2776 17.6244 0.0000 21.0512 0.0000
# 6 0.0000 0.0000 0.0000 -45.3347 0.0000 -5.1554
#
#
#
# Elastic Compliance Matrix: (Units=1/GPa)
#
#
# Indices 1 2 3 4 5 6 
#
# 1 0.012054 -0.007703 -0.006277 0.000000 0.002944 0.000000
# 2 -0.007703 0.043022 -0.010735 0.000000 -0.002707 0.000000
# 3 -0.006277 -0.010735 0.026841 0.000000 -0.016171 0.000000
# 4 0.000000 0.000000 0.000000 0.002829 0.000000 -0.024879
# 5 0.002944 -0.002707 -0.016171 0.000000 0.060763 0.000000
# 6 0.000000 0.000000 0.000000 -0.024879 0.000000 0.024807
#
#
# Mechanical properties :
#
#
# Convention : Reuss Voigt Hill
#
# Bulk Modulus (GPa) = 30.77966 51.88931 41.33449
# Shear Modulus (GPa) = 21.68494 2.38679 12.03586
#
# Velocity S-wave (km/s) = 3.58683 1.18998 2.67221
# Velocity P-wave (km/s) = 5.95105 5.71605 5.83474
#
# Compressibility (1/GPa) = 0.03248898
#
# Stress axis : x y z
#
# Youngs Moduli (GPa) = 82.95845 23.24409 37.25575
#
# Poissons Ratio (x) = 0.17905 0.23384
# Poissons Ratio (y) = 0.63903 0.39993
# Poissons Ratio (z) = 0.52070 0.24952
#
# Static dielectric constant tensor:
#      x y z
#    x 3.627070 0.000000 -0.021430 
#    y 0.000000 3.039840 0.000000 
#    z -0.021430 0.000000 2.932760 
# 
# 
# High freq. dielectric constant tensor:
#      x y z
#    x 1.670950 0.000000 -0.000430 
#    y 0.000000 1.638230 0.000000 
#    z -0.000430 0.000000 1.615700 
# 
# From -- ./inp_files/52795.got.cif
#   From: 2010.06.25/outbox.cif.g09.slc.cpg/sg10_27_cif.got.tgz:52795.got - 2010.06.27 22:07:45.
