data_PCOD8062866
_publ_section_title
;
Structure prediction by ZEFSAII (Michael W. Deem and Ramdas Pophale) SiO2 
 PCOD8062866
Probable space group: P 2/M
;
_chemical_formula_sum "Si O2"
_cell_formula_units_Z 28
_cell_length_a 25.907977
_cell_length_b 18.026148
_cell_length_c 23.607108
_cell_angle_alpha 90.000000
_cell_angle_beta 10.774399
_cell_angle_gamma 90.000000
_cell_volume 2061.042796
_symmetry_space_group_name_H-M "P 2/M"
_symmetry_group_IT_number 10
_symmetry_cell_setting 'monoclinic'
loop_
_space_group_symop_operation_xyz
x,y,z
-x,y,-z
-x,-y,-z
x,-y,z
loop_
_atom_site_type_symbol
_atom_site_label
_atom_site_fract_x
_atom_site_fract_y
_atom_site_fract_z
Si Si1 0.561519 0.411975 0.713286
Si Si2 0.569335 0.084895 0.859659
Si Si3 0.612278 0.411544 0.319275
Si Si4 0.054338 0.588036 0.599149
Si Si5 0.062462 0.843098 0.368827
Si Si6 0.178265 0.315814 0.360406
Si Si7 0.225880 0.411482 0.635591
O O1 0.562871 0.500000 0.708670
O O2 0.763802 0.383771 0.544346
O O3 0.664775 0.379555 0.541964
O O4 0.255015 0.383084 0.056899
O O5 0.890028 0.109260 0.508607
O O6 0.527296 0.000000 0.886846
O O7 0.500000 0.099565 0.000000
O O8 0.388229 0.137023 0.012316
O O9 0.500000 0.380602 0.500000
O O10 0.610398 0.500000 0.322109
O O11 0.420006 0.381203 0.476314
O O12 0.919289 0.381216 0.977682
O O13 0.068701 0.500000 0.576632
O O14 0.178345 0.622604 0.408647
O O15 0.000000 0.869721 0.500000
O O16 0.986097 0.757215 0.442117
O O17 0.000000 0.348214 0.500000
O O18 0.500000 0.297173 0.000000
O O19 0.226923 0.500000 0.633641
#
# Coordination Sequence:
#
# PCOD8062866 Si02
#       7
#     4   4   4   4   4   4   4
#     4   9  17  29  42  54  66  81 106 141 177 209
#     4   9  15  23  37  55  73  91 109 127 144 171
#     4   9  15  21  30  47  69  89 107 124 145 184
#     4  10  20  32  44  56  67  81 109 148 183 219
#     4   9  16  26  37  52  72  91 109 126 152 196
#     4  11  21  32  44  55  70  90 108 134 178 227
#     4   9  15  23  35  48  64  86 106 127 159 194
#
# _framework density 13.585356000000001
#
# number of rings (size 3 to 8) (size 9 to 14) (size 15 to 20)
#    0.000    2.571    0.000    4.714    0.000    7.429 
#    0.000    0.000    0.000    0.000    0.000    0.000 
#    0.000    0.000    0.000    0.000    0.000    0.000 
#
# Total GULP energy -347036.483517 kJ/mol
# GULP energy per Si atom -12394.160126 kJ/mol
# Density = 1.355443 g / cm^3
# Si number density = 13.585356 Si / 1000 Ang^3
#
#
#
# Elastic Constant Matrix: (Units=GPa)
#
#
# Indices 1 2 3 4 5 6 
#
# 1 98.1773 26.0034 48.2124 0.0000 -15.0016 0.0000
# 2 26.0034 29.1453 23.2874 0.0000 -3.1044 0.0000
# 3 48.2124 23.2874 87.9651 0.0000 -20.0383 0.0000
# 4 0.0000 0.0000 0.0000 8.0254 0.0000 -5.6512
# 5 -15.0016 -3.1044 -20.0383 0.0000 29.2457 0.0000
# 6 0.0000 0.0000 0.0000 -5.6512 0.0000 4.4216
#
#
#
# Elastic Compliance Matrix: (Units=1/GPa)
#
#
# Indices 1 2 3 4 5 6 
#
# 1 0.015877 -0.009476 -0.005412 0.000000 0.003430 0.000000
# 2 -0.009476 0.049546 -0.009280 0.000000 -0.005960 0.000000
# 3 -0.005412 -0.009280 0.018882 0.000000 0.009176 0.000000
# 4 0.000000 0.000000 0.000000 1.245816 0.000000 1.592262
# 5 0.003430 -0.005960 0.009176 0.000000 0.041607 0.000000
# 6 0.000000 0.000000 0.000000 1.592262 0.000000 2.261212
#
#
# Mechanical properties :
#
#
# Convention : Reuss Voigt Hill
#
# Bulk Modulus (GPa) = 27.80308 45.58824 36.69566
# Shear Modulus (GPa) = 1.35382 16.19085 8.77233
#
# Velocity S-wave (km/s) = 0.99934 3.45597 2.54386
# Velocity P-wave (km/s) = 4.67349 7.03951 5.97479
#
# Compressibility (1/GPa) = 0.03596723
#
# Stress axis : x y z
#
# Youngs Moduli (GPa) = 62.98251 20.18340 52.96172
#
# Poissons Ratio (x) = 0.19126 0.28664
# Poissons Ratio (y) = 0.59683 0.49151
# Poissons Ratio (z) = 0.34087 0.18731
#
# Static dielectric constant tensor:
#      x y z
#    x 2.771750 0.000000 -0.309100 
#    y 0.000000 2.219980 0.000000 
#    z -0.309100 0.000000 2.909660 
# 
# 
# High freq. dielectric constant tensor:
#      x y z
#    x 1.507820 0.000000 -0.034690 
#    y 0.000000 1.455750 0.000000 
#    z -0.034690 0.000000 1.523560 
# 
# From -- ./inp_files/91318.got.cif
#   From: 2010.06.25/outbox.cif.g09.slc.cpg/sg10_46_cif.got.tgz:91318.got - 2010.06.27 22:07:45.
