data_PCOD8062612
_publ_section_title
;
Structure prediction by ZEFSAII (Michael W. Deem and Ramdas Pophale) SiO2 
 PCOD8062612
Probable space group: P 2/M
;
_chemical_formula_sum "Si O2"
_cell_formula_units_Z 28
_cell_length_a 27.119784
_cell_length_b 9.215751
_cell_length_c 9.173741
_cell_angle_alpha 90.000000
_cell_angle_beta 38.889231
_cell_angle_gamma 90.000000
_cell_volume 1439.449213
_symmetry_space_group_name_H-M "P 2/M"
_symmetry_group_IT_number 10
_symmetry_cell_setting 'monoclinic'
loop_
_space_group_symop_operation_xyz
x,y,z
-x,y,-z
-x,-y,-z
x,-y,z
loop_
_atom_site_type_symbol
_atom_site_label
_atom_site_fract_x
_atom_site_fract_y
_atom_site_fract_z
Si Si1 0.277081 0.328060 0.021986
Si Si2 0.145711 0.332470 0.837622
Si Si3 0.440256 0.338561 0.768793
Si Si4 0.011521 0.828376 0.304696
Si Si5 0.302408 0.667867 0.639995
Si Si6 0.126924 0.328445 0.543140
Si Si7 0.540583 0.159453 0.753975
O O1 0.277389 0.500000 0.028280
O O2 0.358071 0.269363 0.904345
O O3 0.270524 0.275481 0.869707
O O4 0.203734 0.268260 0.283066
O O5 0.121869 0.500000 0.919233
O O6 0.236563 0.307103 0.669006
O O7 0.133640 0.288778 0.697627
O O8 0.095252 0.230752 0.059318
O O9 0.500000 0.349107 0.500000
O O10 0.426878 0.500000 0.865067
O O11 0.475410 0.235049 0.807221
O O12 0.947011 0.753186 0.352580
O O13 0.000000 0.785623 0.500000
O O14 0.007481 0.000000 0.291387
O O15 0.326273 0.500000 0.598277
O O16 0.379506 0.752018 0.415007
O O17 0.115870 0.500000 0.546052
O O18 0.560141 0.000000 0.645189
O O19 0.500000 0.143768 0.000000
#
# Coordination Sequence:
#
# PCOD8062612 Si02
#       7
#     4   4   4   4   4   4   4
#     4   9  18  34  58  88 117 146 187 242 293 341
#     4  10  22  38  62  93 120 149 189 238 291 345
#     4  10  19  36  62  88 113 147 196 248 294 340
#     4  11  24  41  61  86 118 157 199 234 278 342
#     4  10  20  38  61  86 115 151 196 242 289 341
#     4  10  21  38  61  91 122 149 187 238 291 346
#     4  11  25  40  54  80 120 160 198 239 290 348
#
# _framework density 19.451884
#
# number of rings (size 3 to 8) (size 9 to 14) (size 15 to 20)
#    0.000    1.857    1.429    2.143    2.000    6.571 
#    0.000    1.429    0.000    0.000    0.000    0.000 
#    0.000    0.000    0.000    0.000    0.000    0.000 
#
# Total GULP energy -347242.905835 kJ/mol
# GULP energy per Si atom -12401.532351 kJ/mol
# Density = 1.940761 g / cm^3
# Si number density = 19.451884 Si / 1000 Ang^3
#
#
#
# Elastic Constant Matrix: (Units=GPa)
#
#
# Indices 1 2 3 4 5 6 
#
# 1 133.0968 47.8256 25.7985 0.0000 5.3586 0.0000
# 2 47.8256 71.9411 29.7794 0.0000 5.7016 0.0000
# 3 25.7985 29.7794 83.7534 0.0000 4.4709 0.0000
# 4 0.0000 0.0000 0.0000 21.0322 0.0000 8.5880
# 5 5.3586 5.7016 4.4709 0.0000 33.2379 0.0000
# 6 0.0000 0.0000 0.0000 8.5880 0.0000 9.0601
#
#
#
# Elastic Compliance Matrix: (Units=1/GPa)
#
#
# Indices 1 2 3 4 5 6 
#
# 1 0.009927 -0.006226 -0.000822 0.000000 -0.000422 0.000000
# 2 -0.006226 0.020341 -0.005220 0.000000 -0.001783 0.000000
# 3 -0.000822 -0.005220 0.014095 0.000000 -0.000868 0.000000
# 4 0.000000 0.000000 0.000000 0.077569 0.000000 -0.073527
# 5 -0.000422 -0.001783 -0.000868 0.000000 0.030577 0.000000
# 6 0.000000 0.000000 0.000000 -0.073527 0.000000 0.180070
#
#
# Mechanical properties :
#
#
# Convention : Reuss Voigt Hill
#
# Bulk Modulus (GPa) = 50.43077 55.06647 52.74862
# Shear Modulus (GPa) = 13.74677 25.02523 19.38600
#
# Velocity S-wave (km/s) = 2.66128 3.59070 3.16034
# Velocity P-wave (km/s) = 5.95192 6.74992 6.36344
#
# Compressibility (1/GPa) = 0.01982916
#
# Stress axis : x y z
#
# Youngs Moduli (GPa) = 100.73955 49.16212 70.94669
#
# Poissons Ratio (x) = 0.30606 0.05829
# Poissons Ratio (y) = 0.62716 0.37031
# Poissons Ratio (z) = 0.08277 0.25660
#
# Static dielectric constant tensor:
#      x y z
#    x 3.619820 0.000000 -0.032750 
#    y 0.000000 3.539910 0.000000 
#    z -0.032750 0.000000 3.679770 
# 
# 
# High freq. dielectric constant tensor:
#      x y z
#    x 1.772560 0.000000 -0.003080 
#    y 0.000000 1.735250 0.000000 
#    z -0.003080 0.000000 1.765320 
# 
# From -- ./inp_files/36693.got.cif
#   From: 2010.06.25/outbox.cif.g09.slc.cpg/sg10_19_cif.got.tgz:36693.got - 2010.06.27 22:07:45.
