data_PCOD8062986
_publ_section_title
;
Structure prediction by ZEFSAII (Michael W. Deem and Ramdas Pophale) SiO2 
 PCOD8062986
Probable space group: P 2/M
;
_chemical_formula_sum "Si O2"
_cell_formula_units_Z 28
_cell_length_a 9.364408
_cell_length_b 9.525134
_cell_length_c 27.110552
_cell_angle_alpha 90.000000
_cell_angle_beta 38.972361
_cell_angle_gamma 90.000000
_cell_volume 1520.907309
_symmetry_space_group_name_H-M "P 2/M"
_symmetry_group_IT_number 10
_symmetry_cell_setting 'monoclinic'
loop_
_space_group_symop_operation_xyz
x,y,z
-x,y,-z
-x,-y,-z
x,-y,z
loop_
_atom_site_type_symbol
_atom_site_label
_atom_site_fract_x
_atom_site_fract_y
_atom_site_fract_z
Si Si1 0.640557 0.162904 0.308230
Si Si2 0.750618 0.657623 0.433167
Si Si3 0.468692 0.166773 0.862758
Si Si4 0.017847 0.837547 0.285493
Si Si5 0.684802 0.167412 0.989715
Si Si6 0.770737 0.658383 0.540519
Si Si7 0.194925 0.166971 0.841544
O O1 0.445030 0.249343 0.387555
O O2 0.674576 0.216023 0.242998
O O3 0.876108 0.188138 0.273744
O O4 0.570984 0.000000 0.328267
O O5 0.500000 0.724364 0.500000
O O6 0.745371 0.500000 0.411663
O O7 0.829790 0.655434 0.467521
O O8 0.919020 0.753211 0.357569
O O9 0.727918 0.218000 0.790725
O O10 0.325621 0.227136 0.854632
O O11 0.455384 0.000000 0.865628
O O12 0.368356 0.224272 0.941097
O O13 0.016422 0.000000 0.300921
O O14 0.936269 0.223152 0.908819
O O15 0.676440 0.000000 0.991186
O O16 0.500000 0.226124 0.000000
O O17 0.728549 0.500000 0.571595
O O18 0.000000 0.726231 0.500000
O O19 0.189554 0.000000 0.845090
#
# Coordination Sequence:
#
# PCOD8062986 Si02
#       7
#     4   4   4   4   4   4   4
#     4  10  20  33  49  73 103 132 164 205 251 297
#     4  10  20  36  55  73  95 128 169 209 248 295
#     4   9  17  28  43  67  98 131 165 202 244 292
#     4  10  20  32  49  74 103 131 164 206 251 296
#     4   9  15  25  43  65  94 132 168 200 240 291
#     4  10  22  38  54  72  97 129 167 209 251 298
#     4   9  17  28  43  66  98 132 165 202 244 292
#
# _framework density 18.410063999999998
#
# number of rings (size 3 to 8) (size 9 to 14) (size 15 to 20)
#    0.000    2.429    1.429    1.286    2.000    6.286 
#    0.000    0.000    0.000    0.000    0.000    1.000 
#    0.000    5.714    0.000    0.000    0.000    0.000 
#
# Total GULP energy -347130.657591 kJ/mol
# GULP energy per Si atom -12397.523485 kJ/mol
# Density = 1.836816 g / cm^3
# Si number density = 18.410064 Si / 1000 Ang^3
#
#
#
# Elastic Constant Matrix: (Units=GPa)
#
#
# Indices 1 2 3 4 5 6 
#
# 1 123.4364 18.6975 39.9056 0.0000 0.2083 0.0000
# 2 18.6975 29.7894 32.0969 0.0000 -0.1277 0.0000
# 3 39.9056 32.0969 106.3824 0.0000 6.5282 0.0000
# 4 0.0000 0.0000 0.0000 29.4489 0.0000 -17.7033
# 5 0.2083 -0.1277 6.5282 0.0000 37.0316 0.0000
# 6 0.0000 0.0000 0.0000 -17.7033 0.0000 24.3195
#
#
#
# Elastic Compliance Matrix: (Units=1/GPa)
#
#
# Indices 1 2 3 4 5 6 
#
# 1 0.009416 -0.003076 -0.002629 0.000000 0.000400 0.000000
# 2 -0.003076 0.051042 -0.014414 0.000000 0.002734 0.000000
# 3 -0.002629 -0.014414 0.014898 0.000000 -0.002661 0.000000
# 4 0.000000 0.000000 0.000000 0.060380 0.000000 0.043953
# 5 0.000400 0.002734 -0.002661 0.000000 0.027480 0.000000
# 6 0.000000 0.000000 0.000000 0.043953 0.000000 0.073115
#
#
# Mechanical properties :
#
#
# Convention : Reuss Voigt Hill
#
# Bulk Modulus (GPa) = 28.47457 49.00091 38.73774
# Shear Modulus (GPa) = 17.34451 29.42054 23.38253
#
# Velocity S-wave (km/s) = 3.07273 4.00192 3.56771
# Velocity P-wave (km/s) = 5.29994 6.93022 6.16917
#
# Compressibility (1/GPa) = 0.03511906
#
# Stress axis : x y z
#
# Youngs Moduli (GPa) = 106.19704 19.59173 67.12205
#
# Poissons Ratio (x) = 0.06027 0.17644
# Poissons Ratio (y) = 0.32670 0.96749
# Poissons Ratio (z) = 0.27915 0.28239
#
# Static dielectric constant tensor:
#      x y z
#    x 3.678780 0.000000 0.005950 
#    y 0.000000 2.919830 0.000000 
#    z 0.005950 0.000000 3.477580 
# 
# 
# High freq. dielectric constant tensor:
#      x y z
#    x 1.734220 0.000000 -0.000280 
#    y 0.000000 1.650400 0.000000 
#    z -0.000280 0.000000 1.722220 
# 
# From -- ./inp_files/28476.got.cif
#   From: 2010.06.25/outbox.cif.g09.slc.cpg/sg10_15_cif.got.tgz:28476.got - 2010.06.27 22:07:45.
