data_PCOD8062704
_publ_section_title
;
Structure prediction by ZEFSAII (Michael W. Deem and Ramdas Pophale) SiO2 
 PCOD8062704
Probable space group: P 2/M
;
_chemical_formula_sum "Si O2"
_cell_formula_units_Z 28
_cell_length_a 25.329916
_cell_length_b 8.787768
_cell_length_c 10.004579
_cell_angle_alpha 90.000000
_cell_angle_beta 39.549327
_cell_angle_gamma 90.000000
_cell_volume 1417.995477
_symmetry_space_group_name_H-M "P 2/M"
_symmetry_group_IT_number 10
_symmetry_cell_setting 'monoclinic'
loop_
_space_group_symop_operation_xyz
x,y,z
-x,y,-z
-x,-y,-z
x,-y,z
loop_
_atom_site_type_symbol
_atom_site_label
_atom_site_fract_x
_atom_site_fract_y
_atom_site_fract_z
Si Si1 0.255718 0.180418 0.000431
Si Si2 0.571595 0.322487 0.255978
Si Si3 0.738208 0.824186 0.539832
Si Si4 0.974022 0.177868 0.901239
Si Si5 0.197909 0.678269 0.839277
Si Si6 0.146138 0.820969 0.454704
Si Si7 0.557615 0.175701 0.007226
O O1 0.346866 0.228493 0.867250
O O2 0.233205 0.245727 0.902004
O O3 0.252600 0.000000 0.999594
O O4 0.187716 0.245037 0.239110
O O5 0.500000 0.280745 0.500000
O O6 0.593192 0.500000 0.216870
O O7 0.538485 0.275192 0.174897
O O8 0.741449 0.727084 0.398704
O O9 0.808237 0.757623 0.502327
O O10 0.754383 0.000000 0.471056
O O11 0.651809 0.801042 0.781297
O O12 0.048870 0.219230 0.653433
O O13 0.951594 0.000000 0.939413
O O14 0.895805 0.272384 0.006204
O O15 0.000000 0.224493 0.000000
O O16 0.201464 0.500000 0.851769
O O17 0.160734 0.000000 0.427772
O O18 0.537762 0.000000 0.078438
O O19 0.500000 0.235576 0.000000
#
# Coordination Sequence:
#
# PCOD8062704 Si02
#       7
#     4   4   4   4   4   4   4
#     4  11  23  43  67  90 119 162 212 257 301 358
#     4  11  25  43  62  91 131 168 200 245 310 373
#     4  10  19  39  64  90 121 159 208 255 302 359
#     4  10  19  37  64  90 119 157 205 258 307 358
#     4  12  26  40  57  91 131 164 202 249 310 373
#     4   9  18  36  65  92 115 151 205 260 306 355
#     4  10  22  40  65  97 124 156 210 260 296 353
#
# _framework density 19.746182999999998
#
# number of rings (size 3 to 8) (size 9 to 14) (size 15 to 20)
#    0.000    1.571    2.857    2.143    2.000    2.857 
#    0.000    4.286    0.000    0.000    0.000    0.000 
#    0.000    0.000    0.000    0.000    0.000    0.000 
#
# Total GULP energy -347280.387119 kJ/mol
# GULP energy per Si atom -12402.870969 kJ/mol
# Density = 1.970124 g / cm^3
# Si number density = 19.746183 Si / 1000 Ang^3
#
#
#
# Elastic Constant Matrix: (Units=GPa)
#
#
# Indices 1 2 3 4 5 6 
#
# 1 99.2686 34.1457 37.0199 0.0000 20.0746 0.0000
# 2 34.1457 74.1188 44.7750 0.0000 5.6905 0.0000
# 3 37.0199 44.7750 116.3622 0.0000 22.3504 0.0000
# 4 0.0000 0.0000 0.0000-1090.6312 0.0000 981.7069
# 5 20.0746 5.6905 22.3504 0.0000 33.7019 0.0000
# 6 0.0000 0.0000 0.0000 981.7069 0.0000 -865.2417
#
#
#
# Elastic Compliance Matrix: (Units=1/GPa)
#
#
# Indices 1 2 3 4 5 6 
#
# 1 0.013541 -0.005068 -0.001115 0.000000 -0.006471 0.000000
# 2 -0.005068 0.019564 -0.006717 0.000000 0.004170 0.000000
# 3 -0.001115 -0.006717 0.012821 0.000000 -0.006704 0.000000
# 4 0.000000 0.000000 0.000000 0.043071 0.000000 0.048868
# 5 -0.006471 0.004170 -0.006704 0.000000 0.037268 0.000000
# 6 0.000000 0.000000 0.000000 0.048868 0.000000 0.054290
#
#
# Mechanical properties :
#
#
# Convention : Reuss Voigt Hill
#
# Bulk Modulus (GPa) = 49.68497 57.95898 53.82197
# Shear Modulus (GPa) = 23.46722 -372.84693 -174.68986
#
# Velocity S-wave (km/s) = 3.45112 -13.75608 -9.41593
# Velocity P-wave (km/s) = 6.41067 14.92952 9.53399
#
# Compressibility (1/GPa) = 0.02012681
#
# Stress axis : x y z
#
# Youngs Moduli (GPa) = 73.84828 51.11456 77.99810
#
# Poissons Ratio (x) = 0.25904 0.08698
# Poissons Ratio (y) = 0.37425 0.52388
# Poissons Ratio (z) = 0.08235 0.34331
#
# Static dielectric constant tensor:
#      x y z
#    x 5.376780 0.000000 -0.464090 
#    y 0.000000 3.402650 0.000000 
#    z -0.464090 0.000000 4.007400 
# 
# 
# High freq. dielectric constant tensor:
#      x y z
#    x 1.776060 0.000000 0.000620 
#    y 0.000000 1.746940 0.000000 
#    z 0.000620 0.000000 1.787440 
# 
# From -- ./inp_files/37006.got.cif
#   From: 2010.06.25/outbox.cif.g09.slc.cpg/sg10_19_cif.got.tgz:37006.got - 2010.06.27 22:07:45.
