data_PCOD8062594
_publ_section_title
;
Structure prediction by ZEFSAII (Michael W. Deem and Ramdas Pophale) SiO2 
 PCOD8062594
Probable space group: P 2/M
;
_chemical_formula_sum "Si O2"
_cell_formula_units_Z 28
_cell_length_a 12.478142
_cell_length_b 8.663607
_cell_length_c 13.724192
_cell_angle_alpha 90.000000
_cell_angle_beta 116.983757
_cell_angle_gamma 90.000000
_cell_volume 1322.144878
_symmetry_space_group_name_H-M "P 2/M"
_symmetry_group_IT_number 10
_symmetry_cell_setting 'monoclinic'
loop_
_space_group_symop_operation_xyz
x,y,z
-x,y,-z
-x,-y,-z
x,-y,z
loop_
_atom_site_type_symbol
_atom_site_label
_atom_site_fract_x
_atom_site_fract_y
_atom_site_fract_z
Si Si1 0.456508 0.333442 0.085630
Si Si2 0.868584 0.181002 0.685074
Si Si3 0.119750 0.330088 0.108276
Si Si4 0.891369 0.317382 0.266236
Si Si5 0.777507 0.176491 0.029243
Si Si6 0.373121 0.316619 0.493895
Si Si7 0.672548 0.316887 0.306710
O O1 0.408027 0.500000 0.110806
O O2 0.561015 0.260906 0.195750
O O3 0.500000 0.386721 0.000000
O O4 0.364489 0.196733 0.023458
O O5 0.906285 0.223321 0.809949
O O6 0.739075 0.257500 0.614639
O O7 0.976276 0.244234 0.659950
O O8 0.857363 0.000000 0.665390
O O9 0.169988 0.500000 0.159783
O O10 0.207536 0.239329 0.073754
O O11 0.000000 0.354729 0.000000
O O12 0.905551 0.500000 0.277059
O O13 0.844720 0.274925 0.139327
O O14 0.797942 0.255691 0.310435
O O15 0.818280 0.000000 0.057298
O O16 0.500000 0.256053 0.500000
O O17 0.373878 0.500000 0.493747
O O18 0.350894 0.252456 0.594244
O O19 0.679016 0.500000 0.309501
#
# Coordination Sequence:
#
# PCOD8062594 Si02
#       7
#     4   4   4   4   4   4   4
#     4  10  19  36  61  89 124 168 217 261 310 375
#     4  12  26  43  64  95 132 166 206 264 330 381
#     4  11  23  40  65  92 122 168 216 253 304 379
#     4  11  21  40  66  92 125 168 218 265 312 377
#     4  12  24  36  55  92 135 169 203 258 325 382
#     4  10  23  45  70  95 123 164 219 267 312 376
#     4   9  20  39  65  95 123 164 221 274 311 359
#
# _framework density 21.177710000000001
#
# number of rings (size 3 to 8) (size 9 to 14) (size 15 to 20)
#    0.000    1.286    2.857    3.429    2.000    1.714 
#    0.000    5.000    0.000    0.000    0.000    0.000 
#    0.000    0.000    0.000    0.000    0.000    0.000 
#
# Total GULP energy -346974.785151 kJ/mol
# GULP energy per Si atom -12391.956613 kJ/mol
# Density = 2.112951 g / cm^3
# Si number density = 21.177710 Si / 1000 Ang^3
#
#
#
# Elastic Constant Matrix: (Units=GPa)
#
#
# Indices 1 2 3 4 5 6 
#
# 1 140.3491 26.0970 51.5005 0.0000 7.3202 0.0000
# 2 26.0970 58.0658 11.2986 0.0000 1.7813 0.0000
# 3 51.5005 11.2986 86.6048 0.0000 1.2110 0.0000
# 4 0.0000 0.0000 0.0000 16.5011 0.0000 3.3688
# 5 7.3202 1.7813 1.2110 0.0000 40.4407 0.0000
# 6 0.0000 0.0000 0.0000 3.3688 0.0000 17.5197
#
#
#
# Elastic Compliance Matrix: (Units=1/GPa)
#
#
# Indices 1 2 3 4 5 6 
#
# 1 0.009786 -0.003309 -0.005367 0.000000 -0.001465 0.000000
# 2 -0.003309 0.018810 -0.000483 0.000000 -0.000215 0.000000
# 3 -0.005367 -0.000483 0.014794 0.000000 0.000550 0.000000
# 4 0.000000 0.000000 0.000000 0.063078 0.000000 -0.012129
# 5 -0.001465 -0.000215 0.000550 0.000000 0.024986 0.000000
# 6 0.000000 0.000000 0.000000 -0.012129 0.000000 0.059411
#
#
# Mechanical properties :
#
#
# Convention : Reuss Voigt Hill
#
# Bulk Modulus (GPa) = 39.88723 51.42353 45.65538
# Shear Modulus (GPa) = 22.98423 27.96722 25.47572
#
# Velocity S-wave (km/s) = 3.29797 3.63794 3.47212
# Velocity P-wave (km/s) = 5.77733 6.47926 6.13834
#
# Compressibility (1/GPa) = 0.02507068
#
# Stress axis : x y z
#
# Youngs Moduli (GPa) = 102.18355 53.16415 67.59586
#
# Poissons Ratio (x) = 0.17592 0.36281
# Poissons Ratio (y) = 0.33813 0.03266
# Poissons Ratio (z) = 0.54845 0.02569
#
# Static dielectric constant tensor:
#      x y z
#    x 4.141000 0.000000 -0.110640 
#    y 0.000000 3.520220 0.000000 
#    z -0.110640 0.000000 3.955820 
# 
# 
# High freq. dielectric constant tensor:
#      x y z
#    x 1.843990 0.000000 0.002120 
#    y 0.000000 1.808390 0.000000 
#    z 0.002120 0.000000 1.819780 
# 
# From -- ./inp_files/63909.got.cif
#   From: 2010.06.25/outbox.cif.g09.slc.cpg/sg10_32_cif.got.tgz:63909.got - 2010.06.27 22:07:45.
