data_PCOD8062217
_publ_section_title
;
Structure prediction by ZEFSAII (Michael W. Deem and Ramdas Pophale) SiO2 
 PCOD8062217
Probable space group: P 2/M
;
_chemical_formula_sum "Si O2"
_cell_formula_units_Z 32
_cell_length_a 24.029633
_cell_length_b 9.219409
_cell_length_c 19.616847
_cell_angle_alpha 90.000000
_cell_angle_beta 23.033083
_cell_angle_gamma 90.000000
_cell_volume 1700.386810
_symmetry_space_group_name_H-M "P 2/M"
_symmetry_group_IT_number 10
_symmetry_cell_setting 'monoclinic'
loop_
_space_group_symop_operation_xyz
x,y,z
-x,y,-z
-x,-y,-z
x,-y,z
loop_
_atom_site_type_symbol
_atom_site_label
_atom_site_fract_x
_atom_site_fract_y
_atom_site_fract_z
Si Si1 0.426470 0.328400 0.782292
Si Si2 0.163317 0.165669 0.123534
Si Si3 0.064433 0.167323 0.729925
Si Si4 0.618800 0.831829 0.662533
Si Si5 0.627431 0.672271 0.310125
Si Si6 0.868713 0.833521 0.687495
Si Si7 0.443922 0.827094 0.990601
Si Si8 0.942540 0.671677 0.991207
O O1 0.438692 0.500000 0.772266
O O2 0.567434 0.258037 0.654655
O O3 0.402687 0.273105 0.732173
O O4 0.296545 0.272294 0.974006
O O5 0.091932 0.179952 0.277631
O O6 0.053686 0.218947 0.190374
O O7 0.213167 0.000000 0.054554
O O8 0.213022 0.193957 0.524368
O O9 0.048281 0.260437 0.816466
O O10 0.045751 0.000000 0.771020
O O11 0.548107 0.773396 0.812329
O O12 0.579688 0.000000 0.695590
O O13 0.500000 0.736079 0.500000
O O14 0.627220 0.500000 0.313957
O O15 0.780900 0.729803 0.163019
O O16 0.000000 0.756403 0.500000
O O17 0.859715 0.000000 0.674009
O O18 0.714927 0.763630 0.843100
O O19 0.442568 0.000000 0.991866
O O20 0.500000 0.767534 0.000000
O O21 0.948624 0.500000 0.975625
O O22 0.000000 0.720433 0.000000
#
# Coordination Sequence:
#
# PCOD8062217 Si02
#       8
#     4   4   4   4   4   4   4   4
#     4  11  21  35  59  83 105 141 185 229 268 320
#     4  10  19  35  56  80 111 144 178 226 278 321
#     4  10  22  36  55  80 113 148 177 220 276 332
#     4  10  21  37  54  80 114 146 180 223 275 323
#     4   9  19  35  54  79 106 134 176 227 271 310
#     4   9  17  28  48  78 106 136 178 225 267 313
#     4   9  17  29  48  75 107 140 176 222 267 312
#     4  10  21  37  58  80 107 142 181 225 267 316
#
# _framework density 18.819248999999999
#
# number of rings (size 3 to 8) (size 9 to 14) (size 15 to 20)
#    0.000    2.250    2.500    0.375    3.500    0.750 
#    0.000    0.000    0.000    2.625    0.000    0.000 
#    0.000    0.000    0.000    0.000    0.000    0.000 
#
# Total GULP energy -396771.935883 kJ/mol
# GULP energy per Si atom -12399.122996 kJ/mol
# Density = 1.877642 g / cm^3
# Si number density = 18.819249 Si / 1000 Ang^3
#
#
#
# Elastic Constant Matrix: (Units=GPa)
#
#
# Indices 1 2 3 4 5 6 
#
# 1 123.2825 23.7124 37.3060 0.0000 4.4679 0.0000
# 2 23.7124 28.3044 17.5355 0.0000 0.3139 0.0000
# 3 37.3060 17.5355 116.0703 0.0000 9.1657 0.0000
# 4 0.0000 0.0000 0.0000 14.3858 0.0000 -6.1429
# 5 4.4679 0.3139 9.1657 0.0000 29.7486 0.0000
# 6 0.0000 0.0000 0.0000 -6.1429 0.0000 17.6038
#
#
#
# Elastic Compliance Matrix: (Units=1/GPa)
#
#
# Indices 1 2 3 4 5 6 
#
# 1 0.010165 -0.007195 -0.002117 0.000000 -0.000798 0.000000
# 2 -0.007195 0.044132 -0.004513 0.000000 0.002005 0.000000
# 3 -0.002117 -0.004513 0.010197 0.000000 -0.002776 0.000000
# 4 0.000000 0.000000 0.000000 0.081685 0.000000 0.028504
# 5 -0.000798 0.002005 -0.002776 0.000000 0.034569 0.000000
# 6 0.000000 0.000000 0.000000 0.028504 0.000000 0.066752
#
#
# Mechanical properties :
#
#
# Convention : Reuss Voigt Hill
#
# Bulk Modulus (GPa) = 27.14218 47.19610 37.16914
# Shear Modulus (GPa) = 17.39543 24.95453 21.17498
#
# Velocity S-wave (km/s) = 3.04360 3.64539 3.35800
# Velocity P-wave (km/s) = 5.17737 6.54611 5.90156
#
# Compressibility (1/GPa) = 0.03684302
#
# Stress axis : x y z
#
# Youngs Moduli (GPa) = 98.37692 22.65931 98.06883
#
# Poissons Ratio (x) = 0.16304 0.20761
# Poissons Ratio (y) = 0.70787 0.44258
# Poissons Ratio (z) = 0.20826 0.10226
#
# Static dielectric constant tensor:
#      x y z
#    x 3.630160 0.000000 -0.049870 
#    y 0.000000 3.009550 0.000000 
#    z -0.049870 0.000000 3.613990 
# 
# 
# High freq. dielectric constant tensor:
#      x y z
#    x 1.743900 0.000000 -0.001510 
#    y 0.000000 1.678600 0.000000 
#    z -0.001510 0.000000 1.740590 
# 
# From -- ./inp_files/86816.got.cif
#   From: 2010.06.25/outbox.cif.g09.slc.cpg/sg10_44_cif.got.tgz:86816.got - 2010.06.27 22:07:45.
