data_PCOD8062304
_publ_section_title
;
Structure prediction by ZEFSAII (Michael W. Deem and Ramdas Pophale) SiO2 
 PCOD8062304
Probable space group: P 2/M
;
_chemical_formula_sum "Si O2"
_cell_formula_units_Z 32
_cell_length_a 20.206146
_cell_length_b 8.941242
_cell_length_c 26.011560
_cell_angle_alpha 90.000000
_cell_angle_beta 158.599017
_cell_angle_gamma 90.000000
_cell_volume 1714.798043
_symmetry_space_group_name_H-M "P 2/M"
_symmetry_group_IT_number 10
_symmetry_cell_setting 'monoclinic'
loop_
_space_group_symop_operation_xyz
x,y,z
-x,y,-z
-x,-y,-z
x,-y,z
loop_
_atom_site_type_symbol
_atom_site_label
_atom_site_fract_x
_atom_site_fract_y
_atom_site_fract_z
Si Si1 0.699252 0.177469 0.155169
Si Si2 0.794751 0.175108 0.337661
Si Si3 0.349979 0.176795 0.576373
Si Si4 0.854818 0.323912 0.072043
Si Si5 0.985799 0.177116 0.906726
Si Si6 0.278922 0.823376 0.200016
Si Si7 0.553611 0.676279 0.248161
Si Si8 0.038931 0.176955 0.745144
O O1 0.764779 0.232209 0.258100
O O2 0.838362 0.236793 0.212971
O O3 0.695333 0.000000 0.150624
O O4 0.500000 0.243731 0.000000
O O5 0.660130 0.267413 0.275693
O O6 0.000000 0.212328 0.500000
O O7 0.751153 0.000000 0.312580
O O8 0.516365 0.233847 0.660858
O O9 0.358827 0.250662 0.638389
O O10 0.167286 0.224994 0.415480
O O11 0.357088 0.000000 0.590362
O O12 0.875680 0.500000 0.090636
O O13 0.003776 0.259730 0.140209
O O14 0.655531 0.275067 0.908946
O O15 0.891502 0.255763 0.153841
O O16 0.151981 0.235548 0.062130
O O17 0.993021 0.000000 0.902512
O O18 0.799267 0.226258 0.800851
O O19 0.269212 0.000000 0.190803
O O20 0.573372 0.500000 0.266882
O O21 0.056704 0.000000 0.765158
#
# Coordination Sequence:
#
# PCOD8062304 Si02
#       8
#     4   4   4   4   4   4   4   4
#     4   9  17  31  51  75 100 129 171 219 263 309
#     4  10  20  35  56  80 105 135 175 226 276 320
#     4  10  19  35  58  83 109 139 180 229 277 325
#     4  11  23  37  52  78 113 148 185 222 262 317
#     4   9  16  31  56  82 107 138 178 224 274 319
#     4   8  15  29  54  85 109 133 173 227 277 320
#     4  11  23  36  53  80 112 146 183 220 266 325
#     4  10  21  36  57  81 105 139 181 224 275 326
#
# _framework density 18.661090999999999
#
# number of rings (size 3 to 8) (size 9 to 14) (size 15 to 20)
#    0.000    2.250    1.250    3.000    0.000    5.250 
#    0.000    3.125    0.000    6.000    0.000    0.000 
#    0.000    0.000    0.000    0.000    0.000    0.000 
#
# Total GULP energy -396799.256956 kJ/mol
# GULP energy per Si atom -12399.976780 kJ/mol
# Density = 1.861862 g / cm^3
# Si number density = 18.661091 Si / 1000 Ang^3
#
#
#
# Elastic Constant Matrix: (Units=GPa)
#
#
# Indices 1 2 3 4 5 6 
#
# 1 127.2021 30.6541 44.7708 0.0000 11.1339 0.0000
# 2 30.6541 34.4055 30.0943 0.0000 -2.8730 0.0000
# 3 44.7708 30.0943 95.0170 0.0000 5.3970 0.0000
# 4 0.0000 0.0000 0.0000 15.9006 0.0000 0.3061
# 5 11.1339 -2.8730 5.3970 0.0000 36.0111 0.0000
# 6 0.0000 0.0000 0.0000 0.3061 0.0000 -2.1424
#
#
#
# Elastic Compliance Matrix: (Units=1/GPa)
#
#
# Indices 1 2 3 4 5 6 
#
# 1 0.010951 -0.007925 -0.002442 0.000000 -0.003652 0.000000
# 2 -0.007925 0.046912 -0.011574 0.000000 0.007928 0.000000
# 3 -0.002442 -0.011574 0.015482 0.000000 -0.002489 0.000000
# 4 0.000000 0.000000 0.000000 0.062718 0.000000 0.008961
# 5 -0.003652 0.007928 -0.002489 0.000000 0.029904 0.000000
# 6 0.000000 0.000000 0.000000 0.008961 0.000000 -0.465481
#
#
# Mechanical properties :
#
#
# Convention : Reuss Voigt Hill
#
# Bulk Modulus (GPa) = 33.94246 51.96255 42.95251
# Shear Modulus (GPa) = -20.34099 20.02756 -0.15672
#
# Velocity S-wave (km/s) = -3.30513 3.27957 -0.29011
# Velocity P-wave (km/s) = 1.91395 6.49974 4.79113
#
# Compressibility (1/GPa) = 0.02946162
#
# Stress axis : x y z
#
# Youngs Moduli (GPa) = 91.31863 21.31635 64.58960
#
# Poissons Ratio (x) = 0.16894 0.15774
# Poissons Ratio (y) = 0.72374 0.74758
# Poissons Ratio (z) = 0.22302 0.24672
#
# Static dielectric constant tensor:
#      x y z
#    x 3.690250 0.000000 0.258380 
#    y 0.000000 3.073690 0.000000 
#    z 0.258380 0.000000 3.651040 
# 
# 
# High freq. dielectric constant tensor:
#      x y z
#    x 1.740900 0.000000 0.009170 
#    y 0.000000 1.690480 0.000000 
#    z 0.009170 0.000000 1.722280 
# 
# From -- ./inp_files/93752.got.cif
#   From: 2010.06.25/outbox.cif.g09.slc.cpg/sg10_47_cif.got.tgz:93752.got - 2010.06.27 22:07:45.
