data_PCOD8062044
_publ_section_title
;
Structure prediction by ZEFSAII (Michael W. Deem and Ramdas Pophale) SiO2 
 PCOD8062044
Probable space group: P 2/M
;
_chemical_formula_sum "Si O2"
_cell_formula_units_Z 20
_cell_length_a 8.995289
_cell_length_b 9.029080
_cell_length_c 25.842414
_cell_angle_alpha 90.000000
_cell_angle_beta 29.926788
_cell_angle_gamma 90.000000
_cell_volume 1047.126392
_symmetry_space_group_name_H-M "P 2/M"
_symmetry_group_IT_number 10
_symmetry_cell_setting 'monoclinic'
loop_
_space_group_symop_operation_xyz
x,y,z
-x,y,-z
-x,-y,-z
x,-y,z
loop_
_atom_site_type_symbol
_atom_site_label
_atom_site_fract_x
_atom_site_fract_y
_atom_site_fract_z
Si Si1 0.150996 0.174368 0.208632
Si Si2 0.846005 0.673121 0.396682
Si Si3 0.860839 0.829235 0.597569
Si Si4 0.827704 0.827744 0.201344
Si Si5 0.670428 0.666960 0.002524
O O1 0.479974 0.243003 0.102133
O O2 0.011090 0.237227 0.302568
O O3 0.937251 0.218711 0.225450
O O4 0.186882 0.000000 0.203393
O O5 0.500000 0.714059 0.500000
O O6 0.900733 0.500000 0.371524
O O7 0.974037 0.721672 0.413019
O O8 0.515449 0.785310 0.700209
O O9 0.000000 0.799635 0.500000
O O10 0.904385 0.000000 0.601137
O O11 0.888086 0.000000 0.174110
O O12 0.006251 0.740537 0.102879
O O13 0.713432 0.500000 0.009513
O O14 0.500000 0.672728 0.000000
#
# Coordination Sequence:
#
# PCOD8062044 Si02
#       5
#     4   4   4   4   4
#     4  10  19  34  58  83 109 143 182 224 267 314
#     4  11  24  39  55  79 111 144 179 221 270 324
#     4  10  21  38  59  82 108 140 181 226 270 320
#     4   9  18  33  55  83 111 141 181 225 267 315
#     4   9  17  30  51  80 113 146 179 217 264 319
#
# _framework density 19.099889999999998
#
# number of rings (size 3 to 8) (size 9 to 14) (size 15 to 20)
#    0.000    2.200    0.000    3.000    0.000    7.600 
#    0.000    1.000    0.000    6.000    0.000    0.000 
#    0.000    0.000    0.000    0.000    0.000    0.000 
#
# Total GULP energy -248069.649028 kJ/mol
# GULP energy per Si atom -12403.482451 kJ/mol
# Density = 1.905642 g / cm^3
# Si number density = 19.099890 Si / 1000 Ang^3
#
#
#
# Elastic Constant Matrix: (Units=GPa)
#
#
# Indices 1 2 3 4 5 6 
#
# 1 72.4225 35.7315 50.5671 0.0000 -8.1202 0.0000
# 2 35.7315 87.0118 70.8600 0.0000 -2.4314 0.0000
# 3 50.5671 70.8600 166.6825 0.0000 -8.0616 0.0000
# 4 0.0000 0.0000 0.0000 32.7939 0.0000 1.9074
# 5 -8.1202 -2.4314 -8.0616 0.0000 28.6410 0.0000
# 6 0.0000 0.0000 0.0000 1.9074 0.0000 24.8106
#
#
#
# Elastic Compliance Matrix: (Units=1/GPa)
#
#
# Indices 1 2 3 4 5 6 
#
# 1 0.019129 -0.004857 -0.003544 0.000000 0.004013 0.000000
# 2 -0.004857 0.018822 -0.006608 0.000000 -0.001639 0.000000
# 3 -0.003544 -0.006608 0.009943 0.000000 0.001233 0.000000
# 4 0.000000 0.000000 0.000000 0.030630 0.000000 -0.002355
# 5 0.004013 -0.001639 0.001233 0.000000 0.036261 0.000000
# 6 0.000000 0.000000 0.000000 -0.002355 0.000000 0.040486
#
#
# Mechanical properties :
#
#
# Convention : Reuss Voigt Hill
#
# Bulk Modulus (GPa) = 55.93736 71.15933 63.54835
# Shear Modulus (GPa) = 26.14398 28.51298 27.32848
#
# Velocity S-wave (km/s) = 3.70375 3.86791 3.78672
# Velocity P-wave (km/s) = 6.90222 7.56868 7.24312
#
# Compressibility (1/GPa) = 0.01787714
#
# Stress axis : x y z
#
# Youngs Moduli (GPa) = 52.27719 53.12827 100.56941
#
# Poissons Ratio (x) = 0.25803 0.35646
# Poissons Ratio (y) = 0.25389 0.66453
# Poissons Ratio (z) = 0.18529 0.35105
#
# Static dielectric constant tensor:
#      x y z
#    x 3.272910 0.000000 -0.091510 
#    y 0.000000 3.556930 0.000000 
#    z -0.091510 0.000000 3.694190 
# 
# 
# High freq. dielectric constant tensor:
#      x y z
#    x 1.718040 0.000000 -0.002940 
#    y 0.000000 1.747940 0.000000 
#    z -0.002940 0.000000 1.761990 
# 
# From -- ./inp_files/22107.got.cif
#   From: 2010.06.25/outbox.cif.g09.slc.cpg/sg10_12_cif.got.tgz:22107.got - 2010.06.27 22:07:45.
