data_PCOD8062855
_publ_section_title
;
Structure prediction by ZEFSAII (Michael W. Deem and Ramdas Pophale) SiO2 
 PCOD8062855
Probable space group: P 2/M
;
_chemical_formula_sum "Si O2"
_cell_formula_units_Z 18
_cell_length_a 12.880640
_cell_length_b 10.489507
_cell_length_c 15.794814
_cell_angle_alpha 90.000000
_cell_angle_beta 152.521311
_cell_angle_gamma 90.000000
_cell_volume 984.696035
_symmetry_space_group_name_H-M "P 2/M"
_symmetry_group_IT_number 10
_symmetry_cell_setting 'monoclinic'
loop_
_space_group_symop_operation_xyz
x,y,z
-x,y,-z
-x,-y,-z
x,-y,z
loop_
_atom_site_type_symbol
_atom_site_label
_atom_site_fract_x
_atom_site_fract_y
_atom_site_fract_z
Si Si1 0.879408 0.149252 0.166309
Si Si2 0.500000 0.720786 0.000000
Si Si3 0.255660 0.639655 0.664948
Si Si4 0.328342 0.145784 0.585249
Si Si5 0.826868 0.853639 0.940774
O O1 0.132331 0.185743 0.378830
O O2 0.845696 0.000000 0.135815
O O3 0.699254 0.195239 0.104330
O O4 0.843669 0.210189 0.046758
O O5 0.604454 0.631997 0.147418
O O6 0.281915 0.500000 0.639448
O O7 0.342027 0.757358 0.672882
O O8 0.000000 0.668682 0.500000
O O9 0.574190 0.156961 0.719759
O O10 0.291083 0.000000 0.591370
O O11 0.900930 0.000000 0.004708
O O12 0.000000 0.786743 0.000000
#
# Coordination Sequence:
#
# PCOD8062855 Si02
#       5
#     4   2   4   4   4
#     4  10  20  31  51  83 112 141 177 222 270 316
#     4  12  20  34  54  78 107 144 183 218 263 330
#     4  11  23  37  53  79 112 145 181 221 269 323
#     4  10  20  35  55  81 109 142 181 221 270 320
#     4   9  18  33  53  79 111 142 178 225 272 316
#
# _framework density 18.279752999999999
#
# number of rings (size 3 to 8) (size 9 to 14) (size 15 to 20)
#    0.000    1.778    4.444    0.667    0.000    2.222 
#    0.000    4.444    0.000    0.667    0.000    1.556 
#    0.000    0.000    0.000    0.000    0.000    0.000 
#
# Total GULP energy -223072.000860 kJ/mol
# GULP energy per Si atom -12392.888937 kJ/mol
# Density = 1.823815 g / cm^3
# Si number density = 18.279753 Si / 1000 Ang^3
#
#
#
# Elastic Constant Matrix: (Units=GPa)
#
#
# Indices 1 2 3 4 5 6 
#
# 1 106.9440 32.6973 49.1373 0.0000 16.0920 0.0000
# 2 32.6973 50.5641 23.8417 0.0000 6.1365 0.0000
# 3 49.1373 23.8417 132.3482 0.0000 12.9042 0.0000
# 4 0.0000 0.0000 0.0000 20.5972 0.0000 -4.2548
# 5 16.0920 6.1365 12.9042 0.0000 28.1173 0.0000
# 6 0.0000 0.0000 0.0000 -4.2548 0.0000 5.7087
#
#
#
# Elastic Compliance Matrix: (Units=1/GPa)
#
#
# Indices 1 2 3 4 5 6 
#
# 1 0.013675 -0.006651 -0.003410 0.000000 -0.004810 0.000000
# 2 -0.006651 0.025103 -0.001978 0.000000 -0.000764 0.000000
# 3 -0.003410 -0.001978 0.009365 0.000000 -0.001915 0.000000
# 4 0.000000 0.000000 0.000000 0.057386 0.000000 0.042771
# 5 -0.004810 -0.000764 -0.001915 0.000000 0.039363 0.000000
# 6 0.000000 0.000000 0.000000 0.042771 0.000000 0.207050
#
#
# Mechanical properties :
#
#
# Convention : Reuss Voigt Hill
#
# Bulk Modulus (GPa) = 41.55557 55.68986 48.62271
# Shear Modulus (GPa) = 13.01940 23.16331 18.09135
#
# Velocity S-wave (km/s) = 2.67166 3.56358 3.14935
# Velocity P-wave (km/s) = 5.68326 6.88938 6.31518
#
# Compressibility (1/GPa) = 0.02406416
#
# Stress axis : x y z
#
# Youngs Moduli (GPa) = 73.12764 39.83524 106.78182
#
# Poissons Ratio (x) = 0.26495 0.36412
# Poissons Ratio (y) = 0.48639 0.21125
# Poissons Ratio (z) = 0.24936 0.07881
#
# Static dielectric constant tensor:
#      x y z
#    x 3.456750 0.000000 -0.022200 
#    y 0.000000 3.042120 0.000000 
#    z -0.022200 0.000000 3.679010 
# 
# 
# High freq. dielectric constant tensor:
#      x y z
#    x 1.689790 0.000000 0.007850 
#    y 0.000000 1.670500 0.000000 
#    z 0.007850 0.000000 1.734420 
# 
# From -- ./inp_files/23404.got.cif
#   From: 2010.06.25/outbox.cif.g09.slc.cpg/sg10_12_cif.got.tgz:23404.got - 2010.06.27 22:07:45.
