data_PCOD8062864
_publ_section_title
;
Structure prediction by ZEFSAII (Michael W. Deem and Ramdas Pophale) SiO2 
 PCOD8062864
Probable space group: P 2/M
;
_chemical_formula_sum "Si O2"
_cell_formula_units_Z 26
_cell_length_a 5.284232
_cell_length_b 16.482357
_cell_length_c 21.175463
_cell_angle_alpha 90.000000
_cell_angle_beta 109.243914
_cell_angle_gamma 90.000000
_cell_volume 1741.258149
_symmetry_space_group_name_H-M "P 2/M"
_symmetry_group_IT_number 10
_symmetry_cell_setting 'monoclinic'
loop_
_space_group_symop_operation_xyz
x,y,z
-x,y,-z
-x,-y,-z
x,-y,z
loop_
_atom_site_type_symbol
_atom_site_label
_atom_site_fract_x
_atom_site_fract_y
_atom_site_fract_z
Si Si1 0.596588 0.903775 0.699184
Si Si2 0.400623 0.903326 0.924325
Si Si3 0.164185 0.592720 0.421337
Si Si4 0.802268 0.903199 0.849873
Si Si5 0.000000 0.191791 0.500000
Si Si6 0.006386 0.096367 0.377546
Si Si7 0.681062 0.660067 0.434165
O O1 0.702237 0.869029 0.774383
O O2 0.790626 0.872200 0.659565
O O3 0.293524 0.873739 0.663581
O O4 0.604815 0.000000 0.701673
O O5 0.602117 0.870191 0.887325
O O6 0.101559 0.870210 0.887023
O O7 0.399741 0.000000 0.923767
O O8 0.500000 0.870352 0.000000
O O9 0.165475 0.500000 0.399084
O O10 0.366440 0.645908 0.393585
O O11 0.252514 0.600862 0.501511
O O12 0.865773 0.631424 0.390314
O O13 0.801797 0.000000 0.849836
O O14 0.098105 0.135527 0.450900
O O15 0.252831 0.247369 0.541395
O O16 0.019700 0.000000 0.386001
#
# Coordination Sequence:
#
# PCOD8062864 Si02
#       7
#     4   4   4   4   2   4   4
#     4   9  18  30  42  54  62  79 111 143 175 212
#     4   9  15  21  32  51  71  89 102 113 142 190
#     4   9  14  24  38  54  72  90 108 122 138 188
#     4   9  15  24  36  48  67  85 101 129 155 185
#     4  10  21  32  41  54  72  86 106 148 195 232
#     4  10  20  32  44  53  63  82 114 150 190 232
#     4   9  17  24  36  54  71  90 105 124 166 208
#
# _framework density 14.931730999999999
#
# number of rings (size 3 to 8) (size 9 to 14) (size 15 to 20)
#    0.000    2.923    0.000    3.923    0.000   11.077 
#    0.000    2.308    0.000    0.000    0.000    0.000 
#    0.000    0.000    0.000    0.000    0.000    0.000 
#
# Total GULP energy -322215.547258 kJ/mol
# GULP energy per Si atom -12392.905664 kJ/mol
# Density = 1.489775 g / cm^3
# Si number density = 14.931731 Si / 1000 Ang^3
#
#
#
# Elastic Constant Matrix: (Units=GPa)
#
#
# Indices 1 2 3 4 5 6 
#
# 1 147.4494 21.4646 37.5051 0.0000 -20.8391 0.0000
# 2 21.4646 29.7101 20.7894 0.0000 -1.4994 0.0000
# 3 37.5051 20.7894 77.0085 0.0000 -17.1088 0.0000
# 4 0.0000 0.0000 0.0000 0.4582 0.0000 -1.3001
# 5 -20.8391 -1.4994 -17.1088 0.0000 21.7522 0.0000
# 6 0.0000 0.0000 0.0000 -1.3001 0.0000 3.7171
#
#
#
# Elastic Compliance Matrix: (Units=1/GPa)
#
#
# Indices 1 2 3 4 5 6 
#
# 1 0.008872 -0.005089 -0.001377 0.000000 0.007065 0.000000
# 2 -0.005089 0.045372 -0.012309 0.000000 -0.011430 0.000000
# 3 -0.001377 -0.012309 0.019991 0.000000 0.013556 0.000000
# 4 0.000000 0.000000 0.000000286.700182 0.000000100.276354
# 5 0.007065 -0.011430 0.013556 0.000000 0.062615 0.000000
# 6 0.000000 0.000000 0.000000100.276354 0.000000 35.341719
#
#
# Mechanical properties :
#
#
# Convention : Reuss Voigt Hill
#
# Bulk Modulus (GPa) = 27.26065 45.96515 36.61290
# Shear Modulus (GPa) = 0.01552 16.81276 8.41414
#
# Velocity S-wave (km/s) = 0.10205 3.35920 2.37641
# Velocity P-wave (km/s) = 4.27906 6.77466 5.66597
#
# Compressibility (1/GPa) = 0.03668291
#
# Stress axis : x y z
#
# Youngs Moduli (GPa) = 112.71833 22.04002 50.02240
#
# Poissons Ratio (x) = 0.11217 0.06889
# Poissons Ratio (y) = 0.57366 0.61575
# Poissons Ratio (z) = 0.15523 0.27130
#
# Static dielectric constant tensor:
#      x y z
#    x 3.769510 0.000000 -0.201170 
#    y 0.000000 2.403400 0.000000 
#    z -0.201170 0.000000 2.702410 
# 
# 
# High freq. dielectric constant tensor:
#      x y z
#    x 1.602300 0.000000 -0.014130 
#    y 0.000000 1.507820 0.000000 
#    z -0.014130 0.000000 1.528220 
# 
# From -- ./inp_files/73363.got.cif
#   From: 2010.06.25/outbox.cif.g09.slc.cpg/sg10_37_cif.got.tgz:73363.got - 2010.06.27 22:07:45.
