data_PCOD8062820
_publ_section_title
;
Structure prediction by ZEFSAII (Michael W. Deem and Ramdas Pophale) SiO2 
 PCOD8062820
Probable space group: P 2/M
;
_chemical_formula_sum "Si O2"
_cell_formula_units_Z 28
_cell_length_a 18.899199
_cell_length_b 9.777747
_cell_length_c 11.397092
_cell_angle_alpha 90.000000
_cell_angle_beta 52.610686
_cell_angle_gamma 90.000000
_cell_volume 1673.344621
_symmetry_space_group_name_H-M "P 2/M"
_symmetry_group_IT_number 10
_symmetry_cell_setting 'monoclinic'
loop_
_space_group_symop_operation_xyz
x,y,z
-x,y,-z
-x,-y,-z
x,-y,z
loop_
_atom_site_type_symbol
_atom_site_label
_atom_site_fract_x
_atom_site_fract_y
_atom_site_fract_z
Si Si1 0.805887 0.157368 0.790339
Si Si2 0.708338 0.652628 0.050545
Si Si3 0.402506 0.662765 0.625106
Si Si4 0.971179 0.157296 0.788258
Si Si5 0.122101 0.349222 0.953605
Si Si6 0.756415 0.339040 0.378285
Si Si7 0.833516 0.840767 0.493244
O O1 0.898549 0.189656 0.761699
O O2 0.817567 0.197188 0.643882
O O3 0.779118 0.000000 0.833172
O O4 0.724871 0.246551 0.924833
O O5 0.687107 0.500000 0.024147
O O6 0.628043 0.709454 0.213481
O O7 0.794755 0.647873 0.043953
O O8 0.500000 0.724284 0.500000
O O9 0.403082 0.500000 0.623291
O O10 0.333544 0.712604 0.595100
O O11 0.065514 0.198554 0.639436
O O12 0.967996 0.000000 0.829745
O O13 0.952505 0.244570 0.924865
O O14 0.078532 0.500000 0.992664
O O15 0.157950 0.306062 0.789556
O O16 0.751598 0.500000 0.412709
O O17 0.765765 0.251213 0.486730
O O18 0.814721 0.000000 0.487181
#
# Coordination Sequence:
#
# PCOD8062820 Si02
#       7
#     4   4   4   4   4   4   4
#     4   9  17  30  46  62  85 119 155 187 218 251
#     4   8  14  26  46  70  90 109 139 179 219 259
#     4   8  14  28  52  76  93 110 136 175 221 265
#     4   9  17  29  45  63  82 112 157 196 219 247
#     4   8  15  28  43  61  88 116 141 177 224 265
#     4   9  18  31  46  66  91 117 144 175 218 270
#     4  10  20  31  43  61  88 121 153 186 220 253
#
# _framework density 16.732955
#
# number of rings (size 3 to 8) (size 9 to 14) (size 15 to 20)
#    0.000    3.286    0.000    2.143    0.000    4.000 
#    0.000    5.000    0.000    6.857    0.000    6.000 
#    0.000    0.000    0.000    0.000    0.000    0.000 
#
# Total GULP energy -347090.112739 kJ/mol
# GULP energy per Si atom -12396.075455 kJ/mol
# Density = 1.669487 g / cm^3
# Si number density = 16.732955 Si / 1000 Ang^3
#
#
#
# Elastic Constant Matrix: (Units=GPa)
#
#
# Indices 1 2 3 4 5 6 
#
# 1 61.6165 33.7006 48.9581 0.0000 -1.3497 0.0000
# 2 33.7006 55.9359 48.2286 0.0000 0.0024 0.0000
# 3 48.9581 48.2286 109.5206 0.0000 -12.3149 0.0000
# 4 0.0000 0.0000 0.0000 77.0028 0.0000 14.5731
# 5 -1.3497 0.0024 -12.3149 0.0000 21.9264 0.0000
# 6 0.0000 0.0000 0.0000 14.5731 0.0000 20.6668
#
#
#
# Elastic Compliance Matrix: (Units=1/GPa)
#
#
# Indices 1 2 3 4 5 6 
#
# 1 0.028390 -0.009425 -0.008906 0.000000 -0.003253 0.000000
# 2 -0.009425 0.033191 -0.011174 0.000000 -0.006860 0.000000
# 3 -0.008906 -0.011174 0.019182 0.000000 0.010227 0.000000
# 4 0.000000 0.000000 0.000000 0.014987 0.000000 -0.010568
# 5 -0.003253 -0.006860 0.010227 0.000000 0.051151 0.000000
# 6 0.000000 0.000000 0.000000 -0.010568 0.000000 0.055839
#
#
# Mechanical properties :
#
#
# Convention : Reuss Voigt Hill
#
# Bulk Modulus (GPa) = 45.97229 54.31639 50.14434
# Shear Modulus (GPa) = 18.58731 30.33158 24.45944
#
# Velocity S-wave (km/s) = 3.33651 4.26218 3.82744
# Velocity P-wave (km/s) = 6.50975 7.53345 7.04023
#
# Compressibility (1/GPa) = 0.02175223
#
# Stress axis : x y z
#
# Youngs Moduli (GPa) = 35.22406 30.12884 52.13112
#
# Poissons Ratio (x) = 0.28397 0.46428
# Poissons Ratio (y) = 0.33200 0.58251
# Poissons Ratio (z) = 0.31371 0.33666
#
# Static dielectric constant tensor:
#      x y z
#    x 2.922460 0.000000 -0.057380 
#    y 0.000000 3.113540 0.000000 
#    z -0.057380 0.000000 3.386900 
# 
# 
# High freq. dielectric constant tensor:
#      x y z
#    x 1.616430 0.000000 0.005680 
#    y 0.000000 1.629480 0.000000 
#    z 0.005680 0.000000 1.644780 
# 
# From -- ./inp_files/48794.got.cif
#   From: 2010.06.25/outbox.cif.g09.slc.cpg/sg10_25_cif.got.tgz:48794.got - 2010.06.27 22:07:45.
