data_PCOD8062562
_publ_section_title
;
Structure prediction by ZEFSAII (Michael W. Deem and Ramdas Pophale) SiO2 
 PCOD8062562
Probable space group: P 2/M
;
_chemical_formula_sum "Si O2"
_cell_formula_units_Z 28
_cell_length_a 21.072412
_cell_length_b 8.666179
_cell_length_c 15.564630
_cell_angle_alpha 90.000000
_cell_angle_beta 151.172755
_cell_angle_gamma 90.000000
_cell_volume 1370.506741
_symmetry_space_group_name_H-M "P 2/M"
_symmetry_group_IT_number 10
_symmetry_cell_setting 'monoclinic'
loop_
_space_group_symop_operation_xyz
x,y,z
-x,y,-z
-x,-y,-z
x,-y,z
loop_
_atom_site_type_symbol
_atom_site_label
_atom_site_fract_x
_atom_site_fract_y
_atom_site_fract_z
Si Si1 0.107700 0.317221 0.061310
Si Si2 0.457295 0.175676 0.064917
Si Si3 0.860594 0.679700 0.091477
Si Si4 0.604353 0.318833 0.550736
Si Si5 0.306081 0.680050 0.734427
Si Si6 0.030398 0.818786 0.438798
Si Si7 0.408000 0.175869 0.202373
O O1 0.113047 0.500000 0.076695
O O2 0.251708 0.251003 0.256447
O O3 0.070971 0.275209 0.918683
O O4 0.000000 0.247726 0.000000
O O5 0.608167 0.232346 0.236153
O O6 0.403739 0.192141 0.095864
O O7 0.446932 0.000000 0.020180
O O8 0.363598 0.282063 0.896204
O O9 0.880802 0.500000 0.136103
O O10 0.913142 0.779886 0.233715
O O11 0.706276 0.715387 0.895218
O O12 0.500000 0.274966 0.500000
O O13 0.610966 0.500000 0.541855
O O14 0.550710 0.234759 0.402082
O O15 0.314272 0.500000 0.725819
O O16 0.156247 0.732539 0.550334
O O17 0.000000 0.761422 0.500000
O O18 0.056410 0.000000 0.470863
O O19 0.384323 0.000000 0.203207
#
# Coordination Sequence:
#
# PCOD8062562 Si02
#       7
#     4   4   4   4   4   4   4
#     4   9  19  37  60  87 120 156 194 242 304 363
#     4  10  21  38  58  82 117 157 193 239 300 361
#     4  11  22  38  61  88 118 153 201 253 298 354
#     4  10  19  36  60  86 115 151 194 242 297 353
#     4  11  22  37  59  86 115 150 198 249 295 348
#     4  11  24  41  60  84 120 162 198 239 299 365
#     4  11  23  37  58  88 118 153 198 243 298 358
#
# _framework density 20.430401
#
# number of rings (size 3 to 8) (size 9 to 14) (size 15 to 20)
#    0.000    1.571    1.429    4.714    0.000    8.286 
#    0.000    1.429    0.000    3.000    0.000    0.000 
#    0.000    0.000    0.000    0.000    0.000    0.000 
#
# Total GULP energy -347227.537742 kJ/mol
# GULP energy per Si atom -12400.983491 kJ/mol
# Density = 2.038390 g / cm^3
# Si number density = 20.430401 Si / 1000 Ang^3
#
#
#
# Elastic Constant Matrix: (Units=GPa)
#
#
# Indices 1 2 3 4 5 6 
#
# 1 105.7706 27.3820 38.7143 0.0000 2.5020 0.0000
# 2 27.3820 55.2286 11.0064 0.0000 -0.1130 0.0000
# 3 38.7143 11.0064 100.7263 0.0000 6.4931 0.0000
# 4 0.0000 0.0000 0.0000 17.2697 0.0000 -1.9119
# 5 2.5020 -0.1130 6.4931 0.0000 32.5780 0.0000
# 6 0.0000 0.0000 0.0000 -1.9119 0.0000 22.9375
#
#
#
# Elastic Compliance Matrix: (Units=1/GPa)
#
#
# Indices 1 2 3 4 5 6 
#
# 1 0.012351 -0.005295 -0.004160 0.000000 -0.000138 0.000000
# 2 -0.005295 0.020787 -0.000271 0.000000 0.000533 0.000000
# 3 -0.004160 -0.000271 0.011686 0.000000 -0.002011 0.000000
# 4 0.000000 0.000000 0.000000 0.058444 0.000000 0.004871
# 5 -0.000138 0.000533 -0.002011 0.000000 0.031109 0.000000
# 6 0.000000 0.000000 0.000000 0.004871 0.000000 0.044003
#
#
# Mechanical properties :
#
#
# Convention : Reuss Voigt Hill
#
# Bulk Modulus (GPa) = 39.41153 46.21453 42.81303
# Shear Modulus (GPa) = 24.23806 26.86522 25.55164
#
# Velocity S-wave (km/s) = 3.44811 3.63018 3.54031
# Velocity P-wave (km/s) = 5.93171 6.34354 6.14108
#
# Compressibility (1/GPa) = 0.02537328
#
# Stress axis : x y z
#
# Youngs Moduli (GPa) = 80.96552 48.10765 85.57361
#
# Poissons Ratio (x) = 0.25472 0.35596
# Poissons Ratio (y) = 0.42870 0.02316
# Poissons Ratio (z) = 0.33679 0.01302
#
# Static dielectric constant tensor:
#      x y z
#    x 3.830550 0.000000 0.086020 
#    y 0.000000 3.547130 0.000000 
#    z 0.086020 0.000000 3.770050 
# 
# 
# High freq. dielectric constant tensor:
#      x y z
#    x 1.801870 0.000000 0.000290 
#    y 0.000000 1.787290 0.000000 
#    z 0.000290 0.000000 1.800560 
# 
# From -- ./inp_files/70083.got.cif
#   From: 2010.06.25/outbox.cif.g09.slc.cpg/sg10_36_cif.got.tgz:70083.got - 2010.06.27 22:07:45.
