data_PCOD8062982
_publ_section_title
;
Structure prediction by ZEFSAII (Michael W. Deem and Ramdas Pophale) SiO2 
 PCOD8062982
Probable space group: P 2/M
;
_chemical_formula_sum "Si O2"
_cell_formula_units_Z 28
_cell_length_a 9.436935
_cell_length_b 12.153114
_cell_length_c 15.636602
_cell_angle_alpha 90.000000
_cell_angle_beta 64.805744
_cell_angle_gamma 90.000000
_cell_volume 1622.732668
_symmetry_space_group_name_H-M "P 2/M"
_symmetry_group_IT_number 10
_symmetry_cell_setting 'monoclinic'
loop_
_space_group_symop_operation_xyz
x,y,z
-x,y,-z
-x,-y,-z
x,-y,z
loop_
_atom_site_type_symbol
_atom_site_label
_atom_site_fract_x
_atom_site_fract_y
_atom_site_fract_z
Si Si1 0.741853 0.710557 0.883198
Si Si2 0.407261 0.288884 0.893399
Si Si3 0.889786 0.130961 0.452618
Si Si4 0.996287 0.869771 0.240078
Si Si5 0.562269 0.878860 0.577907
Si Si6 0.764356 0.500000 0.109734
Si Si7 0.083197 0.500000 0.114784
Si Si8 0.684108 0.130590 0.226060
O O1 0.593927 0.697812 0.857744
O O2 0.856724 0.605505 0.847755
O O3 0.840543 0.817128 0.831137
O O4 0.679717 0.724282 0.994706
O O5 0.345222 0.392879 0.855139
O O6 0.362437 0.179656 0.853136
O O7 0.949716 0.175661 0.346091
O O8 0.725781 0.185654 0.524956
O O9 0.000000 0.168586 0.500000
O O10 0.870418 0.000000 0.449108
O O11 0.859750 0.835921 0.208686
O O12 0.022523 0.000000 0.235355
O O13 0.500000 0.892640 0.500000
O O14 0.437340 0.820163 0.672209
O O15 0.593282 0.000000 0.609620
O O16 0.894096 0.500000 0.152375
O O17 0.844271 0.500000 0.997387
O O18 0.673252 0.000000 0.222788
#
# Coordination Sequence:
#
# PCOD8062982 Si02
#       8
#     4   4   4   4   4   2   2   4
#     4  10  21  35  51  73 103 132 164 207 252 295
#     4  10  21  35  51  74 101 132 167 206 249 295
#     4   9  17  28  45  69  96 127 164 207 250 289
#     4  10  20  33  48  72 104 137 171 205 245 297
#     4   9  15  28  47  67  94 127 164 208 248 285
#     4   9  17  33  57  77  93 119 165 211 249 294
#     4   9  17  33  57  77  93 121 161 211 255 289
#     4  10  20  32  49  73 102 137 173 204 244 298
#
# _framework density 17.254845
#
# number of rings (size 3 to 8) (size 9 to 14) (size 15 to 20)
#    0.000    2.429    1.429    1.286    2.000    4.571 
#    0.000    2.857    0.000    0.000    0.000    2.000 
#    0.000    0.000    0.000    0.000    0.000    0.000 
#
# Total GULP energy -347034.301214 kJ/mol
# GULP energy per Si atom -12394.082186 kJ/mol
# Density = 1.721557 g / cm^3
# Si number density = 17.254845 Si / 1000 Ang^3
#
#
#
# Elastic Constant Matrix: (Units=GPa)
#
#
# Indices 1 2 3 4 5 6 
#
# 1 164.2480 48.5741 49.2310 0.0000 -5.1303 0.0000
# 2 48.5741 50.2689 29.0215 0.0000 -1.8970 0.0000
# 3 49.2310 29.0215 50.8577 0.0000 -2.9814 0.0000
# 4 0.0000 0.0000 0.0000 2.8165 0.0000 0.6837
# 5 -5.1303 -1.8970 -2.9814 0.0000 32.3240 0.0000
# 6 0.0000 0.0000 0.0000 0.6837 0.0000 28.3986
#
#
#
# Elastic Compliance Matrix: (Units=1/GPa)
#
#
# Indices 1 2 3 4 5 6 
#
# 1 0.009615 -0.005838 -0.005938 0.000000 0.000636 0.000000
# 2 -0.005838 0.033213 -0.013313 0.000000 -0.000205 0.000000
# 3 -0.005938 -0.013313 0.033086 0.000000 0.001328 0.000000
# 4 0.000000 0.000000 0.000000 0.357135 0.000000 -0.008598
# 5 0.000636 -0.000205 0.001328 0.000000 0.031148 0.000000
# 6 0.000000 0.000000 0.000000 -0.008598 0.000000 0.035420
#
#
# Mechanical properties :
#
#
# Convention : Reuss Voigt Hill
#
# Bulk Modulus (GPa) = 38.85911 57.66976 48.26444
# Shear Modulus (GPa) = 8.95458 21.94437 15.44947
#
# Velocity S-wave (km/s) = 2.28054 3.57007 2.99552
# Velocity P-wave (km/s) = 5.43177 7.10555 6.32427
#
# Compressibility (1/GPa) = 0.02573399
#
# Stress axis : x y z
#
# Youngs Moduli (GPa) = 104.00709 30.10913 30.22428
#
# Poissons Ratio (x) = 0.17578 0.17948
# Poissons Ratio (y) = 0.60721 0.40238
# Poissons Ratio (z) = 0.61764 0.40084
#
# Static dielectric constant tensor:
#      x y z
#    x 3.402730 0.000000 -0.072970 
#    y 0.000000 2.896310 0.000000 
#    z -0.072970 0.000000 3.117410 
# 
# 
# High freq. dielectric constant tensor:
#      x y z
#    x 1.688620 0.000000 -0.003660 
#    y 0.000000 1.621530 0.000000 
#    z -0.003660 0.000000 1.652490 
# 
# From -- ./inp_files/60955.got.cif
#   From: 2010.06.25/outbox.cif.g09.slc.cpg/sg10_31_cif.got.tgz:60955.got - 2010.06.27 22:07:45.
