data_PCOD8062077
_publ_section_title
;
Structure prediction by ZEFSAII (Michael W. Deem and Ramdas Pophale) SiO2 
 PCOD8062077
Probable space group: P 2/M
;
_chemical_formula_sum "Si O2"
_cell_formula_units_Z 24
_cell_length_a 7.906242
_cell_length_b 18.596749
_cell_length_c 14.166439
_cell_angle_alpha 90.000000
_cell_angle_beta 33.160116
_cell_angle_gamma 90.000000
_cell_volume 1139.304368
_symmetry_space_group_name_H-M "P 2/M"
_symmetry_group_IT_number 10
_symmetry_cell_setting 'monoclinic'
loop_
_space_group_symop_operation_xyz
x,y,z
-x,y,-z
-x,-y,-z
x,-y,z
loop_
_atom_site_type_symbol
_atom_site_label
_atom_site_fract_x
_atom_site_fract_y
_atom_site_fract_z
Si Si1 0.990182 0.825224 0.298844
Si Si2 0.691384 0.919324 0.705744
Si Si3 0.698232 0.583087 0.500000
Si Si4 0.718200 0.676036 0.817335
Si Si5 0.613285 0.174776 0.298844
Si Si6 0.670205 0.323964 0.182665
O O1 0.721719 0.811849 0.499999
O O2 0.850777 0.857362 0.266148
O O3 0.242618 0.879507 0.225379
O O4 0.135686 0.748200 0.208032
O O5 0.418755 0.879506 0.774621
O O6 0.000000 0.921376 0.500000
O O7 0.578714 0.000000 0.780856
O O8 0.500000 0.596086 0.500000
O O9 0.748397 0.500000 0.499999
O O10 0.519282 0.617612 0.670696
O O11 0.031365 0.617613 0.329305
O O12 0.525724 0.698692 0.816184
O O13 0.500000 0.641522 0.000000
O O14 0.740215 0.251800 0.208034
O O15 0.000000 0.358478 0.000000
#
# Coordination Sequence:
#
# PCOD8062077 Si02
#       6
#     4   4   4   4   4   4
#     4  10  19  34  58  88 124 164 211 267 319 379
#     4   9  18  32  54  88 124 165 212 261 323 384
#     4  11  25  45  67  95 133 170 209 263 327 387
#     4  12  24  40  65  96 127 167 222 268 317 383
#     4  10  19  34  58  88 124 164 211 267 319 379
#     4  12  24  40  65  96 127 167 222 268 317 383
#
# _framework density 21.065484000000001
#
# number of rings (size 3 to 8) (size 9 to 14) (size 15 to 20)
#    0.000    1.333    3.333    3.500    0.000    2.667 
#    0.000    3.333    0.000    1.000    0.000    0.000 
#    0.000    0.000    0.000    0.000    0.000    0.000 
#
# Total GULP energy -297679.890460 kJ/mol
# GULP energy per Si atom -12403.328769 kJ/mol
# Density = 2.101754 g / cm^3
# Si number density = 21.065484 Si / 1000 Ang^3
#
#
#
# Elastic Constant Matrix: (Units=GPa)
#
#
# Indices 1 2 3 4 5 6 
#
# 1 158.5733 58.1028 36.2382 0.0000 2.2500 0.0000
# 2 58.1028 117.4161 46.0043 0.0000 0.3780 0.0000
# 3 36.2382 46.0043 106.7740 0.0000 -0.6317 0.0000
# 4 0.0000 0.0000 0.0000 5.5386 0.0000 0.7896
# 5 2.2500 0.3780 -0.6317 0.0000 25.2610 0.0000
# 6 0.0000 0.0000 0.0000 0.7896 0.0000 30.8116
#
#
#
# Elastic Compliance Matrix: (Units=1/GPa)
#
#
# Indices 1 2 3 4 5 6 
#
# 1 0.007838 -0.003408 -0.001196 0.000000 -0.000677 0.000000
# 2 -0.003408 0.011730 -0.003897 0.000000 0.000031 0.000000
# 3 -0.001196 -0.003897 0.011453 0.000000 0.000451 0.000000
# 4 0.000000 0.000000 0.000000 0.181214 0.000000 -0.004644
# 5 -0.000677 0.000031 0.000451 0.000000 0.039658 0.000000
# 6 0.000000 0.000000 0.000000 -0.004644 0.000000 0.032574
#
#
# Mechanical properties :
#
#
# Convention : Reuss Voigt Hill
#
# Bulk Modulus (GPa) = 71.32985 73.71711 72.52348
# Shear Modulus (GPa) = 16.33231 28.48344 22.40788
#
# Velocity S-wave (km/s) = 2.78746 3.68113 3.26502
# Velocity P-wave (km/s) = 6.65541 7.28957 6.97970
#
# Compressibility (1/GPa) = 0.01401938
#
# Stress axis : x y z
#
# Youngs Moduli (GPa) = 127.58762 85.25245 87.31178
#
# Poissons Ratio (x) = 0.29052 0.10441
# Poissons Ratio (y) = 0.43479 0.34027
# Poissons Ratio (z) = 0.15257 0.33224
#
# Static dielectric constant tensor:
#      x y z
#    x 4.043760 0.000000 0.010450 
#    y 0.000000 3.683660 0.000000 
#    z 0.010450 0.000000 3.709590 
# 
# 
# High freq. dielectric constant tensor:
#      x y z
#    x 1.846770 0.000000 0.001040 
#    y 0.000000 1.806320 0.000000 
#    z 0.001040 0.000000 1.813510 
# 
# From -- ./inp_files/62263.got.cif
#   From: 2010.06.25/outbox.cif.g09.slc.cpg/sg10_32_cif.got.tgz:62263.got - 2010.06.27 22:07:45.
