data_PCOD8062361
_publ_section_title
;
Structure prediction by ZEFSAII (Michael W. Deem and Ramdas Pophale) SiO2 
 PCOD8062361
Probable space group: P 2/M
;
_chemical_formula_sum "Si O2"
_cell_formula_units_Z 22
_cell_length_a 11.528943
_cell_length_b 9.523235
_cell_length_c 10.631755
_cell_angle_alpha 90.000000
_cell_angle_beta 69.043442
_cell_angle_gamma 90.000000
_cell_volume 1090.076428
_symmetry_space_group_name_H-M "P 2/M"
_symmetry_group_IT_number 10
_symmetry_cell_setting 'monoclinic'
loop_
_space_group_symop_operation_xyz
x,y,z
-x,y,-z
-x,-y,-z
x,-y,z
loop_
_atom_site_type_symbol
_atom_site_label
_atom_site_fract_x
_atom_site_fract_y
_atom_site_fract_z
Si Si1 0.132179 0.660112 0.571829
Si Si2 0.000000 0.240310 0.000000
Si Si3 0.779693 0.154716 0.243020
Si Si4 0.494481 0.161333 0.642773
Si Si5 0.736386 0.167127 0.685519
Si Si6 0.120452 0.346639 0.201054
O O1 0.178142 0.500000 0.529092
O O2 0.197862 0.719038 0.670905
O O3 0.165330 0.766267 0.448234
O O4 0.984484 0.662187 0.649701
O O5 0.943361 0.332230 0.909906
O O6 0.115270 0.147988 0.905334
O O7 0.641137 0.181809 0.241320
O O8 0.780157 0.000000 0.309160
O O9 0.500000 0.230509 0.500000
O O10 0.599415 0.221614 0.696644
O O11 0.530981 0.000000 0.611725
O O12 0.773527 0.230811 0.808404
O O13 0.750050 0.000000 0.687227
O O14 0.183193 0.500000 0.181140
#
# Coordination Sequence:
#
# PCOD8062361 Si02
#       6
#     4   2   4   4   4   4
#     4  10  20  34  54  82 116 151 184 225 283 340
#     4  10  22  38  62  84 106 144 194 238 278 326
#     4  10  19  35  59  85 113 146 189 235 275 325
#     4   9  17  33  56  82 116 152 180 218 281 341
#     4  11  21  34  56  85 114 147 187 232 280 329
#     4  10  22  39  57  78 111 152 188 229 282 338
#
# _framework density 20.182071000000001
#
# number of rings (size 3 to 8) (size 9 to 14) (size 15 to 20)
#    0.000    2.000    1.818    2.182    0.000    7.273 
#    0.000    3.636    0.000    4.364    0.000    0.000 
#    0.000    0.000    0.000    0.000    0.000    0.000 
#
# Total GULP energy -272564.515074 kJ/mol
# GULP energy per Si atom -12389.296140 kJ/mol
# Density = 2.013614 g / cm^3
# Si number density = 20.182071 Si / 1000 Ang^3
#
#
#
# Elastic Constant Matrix: (Units=GPa)
#
#
# Indices 1 2 3 4 5 6 
#
# 1 156.9447 62.6810 50.4681 0.0000 11.4250 0.0000
# 2 62.6810 120.5647 23.5681 0.0000 8.2762 0.0000
# 3 50.4681 23.5681 67.8569 0.0000 -0.8636 0.0000
# 4 0.0000 0.0000 0.0000 6.5221 0.0000 6.1029
# 5 11.4250 8.2762 -0.8636 0.0000 27.5906 0.0000
# 6 0.0000 0.0000 0.0000 6.1029 0.0000 18.6634
#
#
#
# Elastic Compliance Matrix: (Units=1/GPa)
#
#
# Indices 1 2 3 4 5 6 
#
# 1 0.010152 -0.003831 -0.006261 0.000000 -0.003251 0.000000
# 2 -0.003831 0.010560 -0.000839 0.000000 -0.001608 0.000000
# 3 -0.006261 -0.000839 0.019729 0.000000 0.003462 0.000000
# 4 0.000000 0.000000 0.000000 0.220923 0.000000 -0.072241
# 5 -0.003251 -0.001608 0.003462 0.000000 0.038181 0.000000
# 6 0.000000 0.000000 0.000000 -0.072241 0.000000 0.077204
#
#
# Mechanical properties :
#
#
# Convention : Reuss Voigt Hill
#
# Bulk Modulus (GPa) = 53.82429 68.75564 61.28996
# Shear Modulus (GPa) = 12.35169 24.46515 18.40842
#
# Velocity S-wave (km/s) = 2.47657 3.48547 3.02340
# Velocity P-wave (km/s) = 5.90806 7.09505 6.52858
#
# Compressibility (1/GPa) = 0.01857897
#
# Stress axis : x y z
#
# Youngs Moduli (GPa) = 98.50707 94.69449 50.68675
#
# Poissons Ratio (x) = 0.36275 0.31735
# Poissons Ratio (y) = 0.37735 0.04254
# Poissons Ratio (z) = 0.61676 0.07947
#
# Static dielectric constant tensor:
#      x y z
#    x 3.904500 0.000000 0.029940 
#    y 0.000000 3.543430 0.000000 
#    z 0.029940 0.000000 3.579560 
# 
# 
# High freq. dielectric constant tensor:
#      x y z
#    x 1.797800 0.000000 0.007020 
#    y 0.000000 1.773840 0.000000 
#    z 0.007020 0.000000 1.758930 
# 
# From -- ./inp_files/45021.got.cif
#   From: 2010.06.25/outbox.cif.g09.slc.cpg/sg10_23_cif.got.tgz:45021.got - 2010.06.27 22:07:45.
