data_PCOD8062085
_publ_section_title
;
Structure prediction by ZEFSAII (Michael W. Deem and Ramdas Pophale) SiO2 
 PCOD8062085
Probable space group: P 2/M
;
_chemical_formula_sum "Si O2"
_cell_formula_units_Z 28
_cell_length_a 9.812739
_cell_length_b 15.863635
_cell_length_c 11.573376
_cell_angle_alpha 90.000000
_cell_angle_beta 124.210768
_cell_angle_gamma 90.000000
_cell_volume 1489.859655
_symmetry_space_group_name_H-M "P 2/M"
_symmetry_group_IT_number 10
_symmetry_cell_setting 'monoclinic'
loop_
_space_group_symop_operation_xyz
x,y,z
-x,y,-z
-x,-y,-z
x,-y,z
loop_
_atom_site_type_symbol
_atom_site_label
_atom_site_fract_x
_atom_site_fract_y
_atom_site_fract_z
Si Si1 0.404267 0.000000 0.571496
Si Si2 0.189394 0.402957 0.078857
Si Si3 0.377798 0.170155 0.683726
Si Si4 0.894374 0.282264 0.560142
Si Si5 0.623961 0.740766 0.953554
Si Si6 0.974103 0.000000 0.628147
Si Si7 0.681972 0.597214 0.605552
Si Si8 0.147223 0.837836 0.785907
O O1 0.500000 0.000000 0.500000
O O2 0.449113 0.915592 0.663583
O O3 0.217201 0.000000 0.444995
O O4 0.205440 0.500000 0.045882
O O5 0.279121 0.345422 0.026632
O O6 0.274223 0.387777 0.241513
O O7 0.000000 0.376147 0.000000
O O8 0.252208 0.217115 0.538278
O O9 0.529688 0.230047 0.792644
O O10 0.280091 0.145636 0.750767
O O11 0.816406 0.361954 0.585646
O O12 0.000000 0.312671 0.500000
O O13 0.024212 0.239433 0.707104
O O14 0.500000 0.721012 0.000000
O O15 0.752808 0.815264 0.049748
O O16 0.000000 0.000000 0.500000
O O17 0.043047 0.077406 0.735074
O O18 0.500000 0.636180 0.500000
O O19 0.682905 0.500000 0.571036
#
# Coordination Sequence:
#
# PCOD8062085 Si02
#       8
#     2   4   4   4   4   2   4   4
#     4  12  24  37  57  87 115 147 193 232 273 343
#     4  10  21  39  59  80 113 157 194 226 281 353
#     4  10  20  37  56  82 114 146 183 234 285 335
#     4  10  19  34  59  84 107 145 196 237 278 334
#     4  10  22  37  57  88 117 142 190 243 286 331
#     4  12  18  39  65  81 111 155 190 231 280 340
#     4  10  21  36  55  82 115 151 187 228 289 348
#     4  10  19  35  61  84 105 146 191 230 279 334
#
# _framework density 18.793717000000001
#
# number of rings (size 3 to 8) (size 9 to 14) (size 15 to 20)
#    0.000    1.714    2.857    2.143    0.000    2.857 
#    2.571    2.143    0.000   11.143    0.000    0.000 
#    0.000    0.000    0.000    0.000    0.000    0.000 
#
# Total GULP energy -347118.869109 kJ/mol
# GULP energy per Si atom -12397.102468 kJ/mol
# Density = 1.875094 g / cm^3
# Si number density = 18.793717 Si / 1000 Ang^3
#
#
#
# Elastic Constant Matrix: (Units=GPa)
#
#
# Indices 1 2 3 4 5 6 
#
# 1 110.0485 68.0670 41.0255 0.0000 9.9054 0.0000
# 2 68.0670 99.2780 28.0253 0.0000 -5.0219 0.0000
# 3 41.0255 28.0253 85.0042 0.0000 17.1966 0.0000
# 4 0.0000 0.0000 0.0000 -44.3965 0.0000 0.0366
# 5 9.9054 -5.0219 17.1966 0.0000 23.7066 0.0000
# 6 0.0000 0.0000 0.0000 0.0366 0.0000 39.3624
#
#
#
# Elastic Compliance Matrix: (Units=1/GPa)
#
#
# Indices 1 2 3 4 5 6 
#
# 1 0.018600 -0.012208 -0.003348 0.000000 -0.007930 0.000000
# 2 -0.012208 0.019864 -0.002977 0.000000 0.011468 0.000000
# 3 -0.003348 -0.002977 0.016649 0.000000 -0.011309 0.000000
# 4 0.000000 0.000000 0.000000 -0.022524 0.000000 0.000021
# 5 -0.007930 0.011468 -0.011309 0.000000 0.056129 0.000000
# 6 0.000000 0.000000 0.000000 0.000021 0.000000 0.025405
#
#
# Mechanical properties :
#
#
# Convention : Reuss Voigt Hill
#
# Bulk Modulus (GPa) = 55.41190 63.17404 59.29297
# Shear Modulus (GPa) = 31.80607 14.21536 23.01071
#
# Velocity S-wave (km/s) = 4.11831 2.75324 3.50291
# Velocity P-wave (km/s) = 7.22235 6.61774 6.92664
#
# Compressibility (1/GPa) = 0.01804666
#
# Stress axis : x y z
#
# Youngs Moduli (GPa) = 53.76412 50.34347 60.06365
#
# Poissons Ratio (x) = 0.61462 0.20107
# Poissons Ratio (y) = 0.65638 0.17880
# Poissons Ratio (z) = 0.17998 0.14986
#
# Static dielectric constant tensor:
#      x y z
#    x 3.334050 0.000000 0.220910 
#    y 0.000000 3.420980 0.000000 
#    z 0.220910 0.000000 3.773330 
# 
# 
# High freq. dielectric constant tensor:
#      x y z
#    x 1.723260 0.000000 0.020670 
#    y 0.000000 1.727350 0.000000 
#    z 0.020670 0.000000 1.735570 
# 
# From -- ./inp_files/25149.got.cif
#   From: 2010.06.25/outbox.cif.g09.slc.cpg/sg10_13_cif.got.tgz:25149.got - 2010.06.27 22:07:45.
