data_PCOD8062268
_publ_section_title
;
Structure prediction by ZEFSAII (Michael W. Deem and Ramdas Pophale) SiO2 
 PCOD8062268
Probable space group: P 2/M
;
_chemical_formula_sum "Si O2"
_cell_formula_units_Z 28
_cell_length_a 14.035986
_cell_length_b 8.610717
_cell_length_c 17.476640
_cell_angle_alpha 90.000000
_cell_angle_beta 43.456453
_cell_angle_gamma 90.000000
_cell_volume 1452.794841
_symmetry_space_group_name_H-M "P 2/M"
_symmetry_group_IT_number 10
_symmetry_cell_setting 'monoclinic'
loop_
_space_group_symop_operation_xyz
x,y,z
-x,y,-z
-x,-y,-z
x,-y,z
loop_
_atom_site_type_symbol
_atom_site_label
_atom_site_fract_x
_atom_site_fract_y
_atom_site_fract_z
Si Si1 0.385342 0.680219 0.356466
Si Si2 0.677802 0.819238 0.160911
Si Si3 0.858970 0.681446 0.928050
Si Si4 0.149561 0.182018 0.793065
Si Si5 0.918301 0.818288 0.736875
Si Si6 0.793272 0.319599 0.396018
Si Si7 0.144819 0.682335 0.379922
O O1 0.425157 0.500000 0.323974
O O2 0.516289 0.787408 0.265045
O O3 0.332110 0.714492 0.473205
O O4 0.267632 0.728722 0.365120
O O5 0.757853 0.762947 0.190029
O O6 0.703053 0.000000 0.131316
O O7 0.732543 0.723575 0.056822
O O8 0.859937 0.500000 0.910952
O O9 0.836200 0.769725 0.861159
O O10 0.003399 0.730350 0.882932
O O11 0.231121 0.224075 0.667660
O O12 0.119266 0.000000 0.813016
O O13 0.828413 0.771320 0.715413
O O14 0.063778 0.728322 0.647048
O O15 0.947696 0.000000 0.721831
O O16 0.802188 0.500000 0.369883
O O17 0.141012 0.500000 0.365980
O O18 0.000000 0.739458 0.500000
#
# Coordination Sequence:
#
# PCOD8062268 Si02
#       7
#     4   4   4   4   4   4   4
#     4  10  22  38  58  83 115 153 192 233 280 336
#     4  11  24  40  57  80 117 155 188 234 288 339
#     4  11  22  38  62  86 111 147 194 239 280 332
#     4  10  21  37  58  85 115 150 189 234 288 337
#     4  11  21  34  57  89 119 146 185 235 286 337
#     4  10  19  35  57  84 115 150 191 236 282 331
#     4  10  19  37  61  85 116 150 188 233 281 334
#
# _framework density 19.273195999999999
#
# number of rings (size 3 to 8) (size 9 to 14) (size 15 to 20)
#    0.000    1.571    1.429    6.000    0.000    6.571 
#    0.000    3.571    0.000    4.286    0.000    0.000 
#    0.000    0.000    0.000    0.000    0.000    0.000 
#
# Total GULP energy -347337.535351 kJ/mol
# GULP energy per Si atom -12404.911977 kJ/mol
# Density = 1.922933 g / cm^3
# Si number density = 19.273196 Si / 1000 Ang^3
#
#
#
# Elastic Constant Matrix: (Units=GPa)
#
#
# Indices 1 2 3 4 5 6 
#
# 1 61.5959 14.1925 40.3318 0.0000 13.0171 0.0000
# 2 14.1925 45.5557 22.5912 0.0000 1.1575 0.0000
# 3 40.3318 22.5912 111.1390 0.0000 4.5058 0.0000
# 4 0.0000 0.0000 0.0000 26.1190 0.0000 1.6797
# 5 13.0171 1.1575 4.5058 0.0000 24.6659 0.0000
# 6 0.0000 0.0000 0.0000 1.6797 0.0000 31.4201
#
#
#
# Elastic Compliance Matrix: (Units=1/GPa)
#
#
# Indices 1 2 3 4 5 6 
#
# 1 0.024496 -0.003518 -0.007714 0.000000 -0.011353 0.000000
# 2 -0.003518 0.024918 -0.003845 0.000000 0.001389 0.000000
# 3 -0.007714 -0.003845 0.012499 0.000000 0.001968 0.000000
# 4 0.000000 0.000000 0.000000 0.038418 0.000000 -0.002054
# 5 -0.011353 0.001389 0.001968 0.000000 0.046108 0.000000
# 6 0.000000 0.000000 0.000000 -0.002054 0.000000 0.031937
#
#
# Mechanical properties :
#
#
# Convention : Reuss Voigt Hill
#
# Bulk Modulus (GPa) = 31.48636 41.39129 36.43882
# Shear Modulus (GPa) = 22.81895 25.85266 24.33581
#
# Velocity S-wave (km/s) = 3.44462 3.66646 3.55727
# Velocity P-wave (km/s) = 5.67388 6.28065 5.98496
#
# Compressibility (1/GPa) = 0.03175978
#
# Stress axis : x y z
#
# Youngs Moduli (GPa) = 40.82375 40.13085 80.00705
#
# Poissons Ratio (x) = 0.14116 0.61718
# Poissons Ratio (y) = 0.14360 0.30763
# Poissons Ratio (z) = 0.31492 0.15430
#
# Static dielectric constant tensor:
#      x y z
#    x 3.498230 0.000000 0.223170 
#    y 0.000000 3.485350 0.000000 
#    z 0.223170 0.000000 3.486430 
# 
# 
# High freq. dielectric constant tensor:
#      x y z
#    x 1.742470 0.000000 0.019620 
#    y 0.000000 1.755780 0.000000 
#    z 0.019620 0.000000 1.748660 
# 
# From -- ./inp_files/77696.got.cif
#   From: 2010.06.25/outbox.cif.g09.slc.cpg/sg10_39_cif.got.tgz:77696.got - 2010.06.27 22:07:45.
