data_PCOD8062762
_publ_section_title
;
Structure prediction by ZEFSAII (Michael W. Deem and Ramdas Pophale) SiO2 
 PCOD8062762
Probable space group: P 2/M
;
_chemical_formula_sum "Si O2"
_cell_formula_units_Z 32
_cell_length_a 11.388435
_cell_length_b 17.399132
_cell_length_c 14.711732
_cell_angle_alpha 90.000000
_cell_angle_beta 147.579399
_cell_angle_gamma 90.000000
_cell_volume 1562.880680
_symmetry_space_group_name_H-M "P 2/M"
_symmetry_group_IT_number 10
_symmetry_cell_setting 'monoclinic'
loop_
_space_group_symop_operation_xyz
x,y,z
-x,y,-z
-x,-y,-z
x,-y,z
loop_
_atom_site_type_symbol
_atom_site_label
_atom_site_fract_x
_atom_site_fract_y
_atom_site_fract_z
Si Si1 0.401306 0.087192 0.535271
Si Si2 0.247308 0.583706 0.682617
Si Si3 0.004999 0.816580 0.214072
Si Si4 0.920078 0.583816 0.143433
Si Si5 0.784875 0.911236 0.919902
Si Si6 0.735590 0.701219 0.149673
Si Si7 0.726618 0.312163 0.688906
Si Si8 0.383897 0.415429 0.218463
O O1 0.500000 0.091213 0.500000
O O2 0.175253 0.133362 0.383622
O O3 0.575141 0.119572 0.724268
O O4 0.344381 0.000000 0.524157
O O5 0.341479 0.500000 0.781941
O O6 0.228706 0.659316 0.731991
O O7 0.394734 0.605754 0.691392
O O8 0.000000 0.565240 0.500000
O O9 0.117037 0.762597 0.209924
O O10 0.904009 0.766675 0.230157
O O11 0.821982 0.865209 0.038984
O O12 0.947612 0.500000 0.206375
O O13 0.159911 0.622960 0.300316
O O14 0.738319 0.631759 0.078877
O O15 0.831745 0.578905 0.984122
O O16 0.748073 0.000000 0.921920
O O17 0.000000 0.902534 0.000000
O O18 0.500000 0.741331 0.000000
O O19 0.500000 0.283597 0.500000
O O20 0.672747 0.345871 0.751864
O O21 0.412400 0.500000 0.284435
#
# Coordination Sequence:
#
# PCOD8062762 Si02
#       8
#     4   4   4   4   4   4   4   4
#     4  10  19  38  65  95 130 166 205 243 290 362
#     4  10  22  40  62  84 110 154 218 275 310 356
#     4  11  24  40  59  93 134 166 199 253 309 379
#     4  10  21  38  61  80 106 154 207 262 308 367
#     4  10  20  37  66  97 126 165 206 243 292 361
#     4  11  23  42  58  86 119 159 208 256 323 368
#     4  11  25  38  51  86 126 161 193 240 325 388
#     4  10  21  39  60  79 109 157 210 264 308 358
#
# _framework density 20.475010999999999
#
# number of rings (size 3 to 8) (size 9 to 14) (size 15 to 20)
#    0.000    1.625    2.500    1.875    3.500    4.500 
#    2.250    0.000    0.000    1.500    0.000    1.750 
#    0.000    0.000    0.000    0.000    0.000    0.000 
#
# Total GULP energy -396449.861549 kJ/mol
# GULP energy per Si atom -12389.058173 kJ/mol
# Density = 2.042841 g / cm^3
# Si number density = 20.475011 Si / 1000 Ang^3
#
#
#
# Elastic Constant Matrix: (Units=GPa)
#
#
# Indices 1 2 3 4 5 6 
#
# 1 91.2139 46.4727 30.6497 0.0000 11.5957 0.0000
# 2 46.4727 106.0317 50.9370 0.0000 3.8255 0.0000
# 3 30.6497 50.9370 112.5952 0.0000 5.5901 0.0000
# 4 0.0000 0.0000 0.0000 28.4424 0.0000 -4.9980
# 5 11.5957 3.8255 5.5901 0.0000 25.0967 0.0000
# 6 0.0000 0.0000 0.0000 -4.9980 0.0000 23.5184
#
#
#
# Elastic Compliance Matrix: (Units=1/GPa)
#
#
# Indices 1 2 3 4 5 6 
#
# 1 0.015067 -0.005829 -0.001176 0.000000 -0.005811 0.000000
# 2 -0.005829 0.014315 -0.004970 0.000000 0.001618 0.000000
# 3 -0.001176 -0.004970 0.011512 0.000000 -0.001264 0.000000
# 4 0.000000 0.000000 0.000000 0.036523 0.000000 0.007762
# 5 -0.005811 0.001618 -0.001264 0.000000 0.042566 0.000000
# 6 0.000000 0.000000 0.000000 0.007762 0.000000 0.044169
#
#
# Mechanical properties :
#
#
# Convention : Reuss Voigt Hill
#
# Bulk Modulus (GPa) = 59.01372 62.88440 60.94906
# Shear Modulus (GPa) = 25.80652 27.53026 26.66839
#
# Velocity S-wave (km/s) = 3.55405 3.67083 3.61291
# Velocity P-wave (km/s) = 6.76214 6.98184 6.87287
#
# Compressibility (1/GPa) = 0.01694521
#
# Stress axis : x y z
#
# Youngs Moduli (GPa) = 66.37014 69.85690 86.86323
#
# Poissons Ratio (x) = 0.40721 0.10214
# Poissons Ratio (y) = 0.38689 0.43167
# Poissons Ratio (z) = 0.07804 0.34716
#
# Static dielectric constant tensor:
#      x y z
#    x 3.488780 0.000000 0.137140 
#    y 0.000000 3.838540 0.000000 
#    z 0.137140 0.000000 3.701410 
# 
# 
# High freq. dielectric constant tensor:
#      x y z
#    x 1.775980 0.000000 0.015270 
#    y 0.000000 1.801370 0.000000 
#    z 0.015270 0.000000 1.798180 
# 
# From -- ./inp_files/65419.got.cif
#   From: 2010.06.25/outbox.cif.g09.slc.cpg/sg10_33_cif.got.tgz:65419.got - 2010.06.27 22:07:45.
