data_PCOD8062143
_publ_section_title
;
Structure prediction by ZEFSAII (Michael W. Deem and Ramdas Pophale) SiO2 
 PCOD8062143
Probable space group: P 2/M
;
_chemical_formula_sum "Si O2"
_cell_formula_units_Z 26
_cell_length_a 13.595928
_cell_length_b 11.337658
_cell_length_c 9.379308
_cell_angle_alpha 90.000000
_cell_angle_beta 61.516781
_cell_angle_gamma 90.000000
_cell_volume 1270.780522
_symmetry_space_group_name_H-M "P 2/M"
_symmetry_group_IT_number 10
_symmetry_cell_setting 'monoclinic'
loop_
_space_group_symop_operation_xyz
x,y,z
-x,y,-z
-x,-y,-z
x,-y,z
loop_
_atom_site_type_symbol
_atom_site_label
_atom_site_fract_x
_atom_site_fract_y
_atom_site_fract_z
Si Si1 0.769606 0.743276 0.111404
Si Si2 0.195415 0.365452 0.619870
Si Si3 0.211659 0.230115 0.341071
Si Si4 0.509348 0.000000 0.220792
Si Si5 0.402608 0.229737 0.987112
Si Si6 0.268056 0.000000 0.786502
Si Si7 0.932896 0.362350 0.780487
Si Si8 0.247294 0.000000 0.470969
O O1 0.751519 0.706016 0.286314
O O2 0.658006 0.702587 0.101190
O O3 0.780909 0.885517 0.096904
O O4 0.877037 0.681174 0.966675
O O5 0.224985 0.500000 0.625445
O O6 0.251441 0.324111 0.433303
O O7 0.063618 0.341511 0.704889
O O8 0.107845 0.285648 0.326108
O O9 0.182805 0.110997 0.446466
O O10 0.308358 0.196522 0.165777
O O11 0.532979 0.113962 0.109667
O O12 0.381149 0.000000 0.358682
O O13 0.595944 0.000000 0.295567
O O14 0.500000 0.306719 0.000000
O O15 0.225349 0.000000 0.654617
O O16 0.904063 0.500000 0.774456
#
# Coordination Sequence:
#
# PCOD8062143 Si02
#       8
#     4   4   4   2   4   2   4   2
#     4  10  21  37  62  91 122 155 200 247 302 351
#     4  11  22  41  64  85 113 158 213 258 293 346
#     4  11  22  35  60  91 125 153 196 247 309 350
#     4  10  19  34  63  87 113 164 209 235 281 345
#     4  10  19  35  57  90 119 151 194 242 287 356
#     4  10  21  37  55  97 130 154 191 248 302 362
#     4  10  22  41  64  88 113 156 216 258 287 343
#     4  12  20  36  59  93 128 157 195 245 298 366
#
# _framework density 20.459865000000001
#
# number of rings (size 3 to 8) (size 9 to 14) (size 15 to 20)
#    0.000    1.538    3.077    2.769    0.000    4.308 
#    0.000    5.385    0.000   17.538    0.000    0.000 
#    0.000    0.000    0.000    0.000    0.000    0.000 
#
# Total GULP energy -322289.157643 kJ/mol
# GULP energy per Si atom -12395.736832 kJ/mol
# Density = 2.041330 g / cm^3
# Si number density = 20.459865 Si / 1000 Ang^3
#
#
#
# Elastic Constant Matrix: (Units=GPa)
#
#
# Indices 1 2 3 4 5 6 
#
# 1 83.0675 43.8676 27.3201 0.0000 26.6258 0.0000
# 2 43.8676 95.8863 14.3284 0.0000 4.6089 0.0000
# 3 27.3201 14.3284 67.7732 0.0000 24.4290 0.0000
# 4 0.0000 0.0000 0.0000 25.5798 0.0000 2.6090
# 5 26.6258 4.6089 24.4290 0.0000 37.1497 0.0000
# 6 0.0000 0.0000 0.0000 2.6090 0.0000 17.0526
#
#
#
# Elastic Compliance Matrix: (Units=1/GPa)
#
#
# Indices 1 2 3 4 5 6 
#
# 1 0.021634 -0.008952 -0.002149 0.000000 -0.012982 0.000000
# 2 -0.008952 0.014475 -0.001464 0.000000 0.005583 0.000000
# 3 -0.002149 -0.001464 0.020067 0.000000 -0.011474 0.000000
# 4 0.000000 0.000000 0.000000 0.039713 0.000000 -0.006076
# 5 -0.012982 0.005583 -0.011474 0.000000 0.043075 0.000000
# 6 0.000000 0.000000 0.000000 -0.006076 0.000000 0.059572
#
#
# Mechanical properties :
#
#
# Convention : Reuss Voigt Hill
#
# Bulk Modulus (GPa) = 32.21122 46.41771 39.31447
# Shear Modulus (GPa) = 21.36628 26.70380 24.03504
#
# Velocity S-wave (km/s) = 3.23507 3.61665 3.43117
# Velocity P-wave (km/s) = 5.45271 6.33850 5.91222
#
# Compressibility (1/GPa) = 0.03104508
#
# Stress axis : x y z
#
# Youngs Moduli (GPa) = 46.22372 69.08425 49.83425
#
# Poissons Ratio (x) = 0.61847 0.10709
# Poissons Ratio (y) = 0.41381 0.07295
# Poissons Ratio (z) = 0.09933 0.10114
#
# Static dielectric constant tensor:
#      x y z
#    x 3.915790 0.000000 0.315180 
#    y 0.000000 3.683200 0.000000 
#    z 0.315180 0.000000 3.712280 
# 
# 
# High freq. dielectric constant tensor:
#      x y z
#    x 1.802220 0.000000 0.028100 
#    y 0.000000 1.787160 0.000000 
#    z 0.028100 0.000000 1.802550 
# 
# From -- ./inp_files/28176.got.cif
#   From: 2010.06.25/outbox.cif.g09.slc.cpg/sg10_15_cif.got.tgz:28176.got - 2010.06.27 22:07:45.
