data_PCOD8062873
_publ_section_title
;
Structure prediction by ZEFSAII (Michael W. Deem and Ramdas Pophale) SiO2 
 PCOD8062873
Probable space group: P 2/M
;
_chemical_formula_sum "Si O2"
_cell_formula_units_Z 32
_cell_length_a 15.811221
_cell_length_b 15.116605
_cell_length_c 15.811199
_cell_angle_alpha 90.000000
_cell_angle_beta 147.535654
_cell_angle_gamma 90.000000
_cell_volume 2028.506948
_symmetry_space_group_name_H-M "P 2/M"
_symmetry_group_IT_number 10
_symmetry_cell_setting 'monoclinic'
loop_
_space_group_symop_operation_xyz
x,y,z
-x,y,-z
-x,-y,-z
x,-y,z
loop_
_atom_site_type_symbol
_atom_site_label
_atom_site_fract_x
_atom_site_fract_y
_atom_site_fract_z
Si Si1 0.281718 0.394969 0.878216
Si Si2 0.307977 0.395496 0.537488
Si Si3 0.974831 0.904093 0.879409
Si Si4 0.379410 0.904093 0.474833
Si Si5 0.880403 0.730788 0.976539
Si Si6 0.378213 0.605031 0.781716
Si Si7 0.523461 0.269213 0.619597
Si Si8 0.962511 0.604504 0.192021
O O1 0.280934 0.500000 0.876942
O O2 0.274378 0.360803 0.774379
O O3 0.134020 0.360007 0.807741
O O4 0.442639 0.360638 0.057363
O O5 0.335750 0.500000 0.557979
O O6 0.307738 0.360007 0.634018
O O7 0.449463 0.352251 0.605059
O O8 0.143278 0.368172 0.356721
O O9 0.793476 0.883943 0.706523
O O10 0.025284 0.000000 0.882294
O O11 0.000000 0.909592 0.000000
O O12 0.079750 0.821010 0.936574
O O13 0.500000 0.909592 0.500000
O O14 0.436575 0.821009 0.579751
O O15 0.382296 0.000000 0.525286
O O16 0.706503 0.736188 0.793497
O O17 0.894941 0.647749 0.050536
O O18 0.000000 0.718016 0.000000
O O19 0.376940 0.500000 0.780935
O O20 0.500000 0.281986 0.500000
O O21 0.942020 0.500000 0.164249
#
# Coordination Sequence:
#
# PCOD8062873 Si02
#       8
#     4   4   4   4   4   4   4   4
#     4   8  14  26  44  64  85 109 138 174 217 261
#     4  10  20  32  45  62  86 116 150 185 218 255
#     4   9  16  27  44  64  85 108 136 173 216 259
#     4   9  16  27  44  64  85 108 136 173 216 259
#     4  11  21  32  46  62  85 116 149 184 218 256
#     4   8  14  26  44  64  85 109 138 174 217 261
#     4  11  21  32  46  62  85 116 149 184 218 256
#     4  10  20  32  45  62  86 116 150 185 218 255
#
# _framework density 15.775149000000001
#
# number of rings (size 3 to 8) (size 9 to 14) (size 15 to 20)
#    0.000    2.500    0.000    6.000    0.000    4.000 
#    0.000    2.500    0.000    0.000    0.000    0.000 
#    0.000    1.000    0.000   10.500    0.000    5.000 
#
# Total GULP energy -396498.817448 kJ/mol
# GULP energy per Si atom -12390.588045 kJ/mol
# Density = 1.573924 g / cm^3
# Si number density = 15.775149 Si / 1000 Ang^3
#
#
#
# Elastic Constant Matrix: (Units=GPa)
#
#
# Indices 1 2 3 4 5 6 
#
# 1 78.4016 35.6599 42.7337 0.0000 4.5458 0.0000
# 2 35.6599 54.8767 40.0558 0.0000 1.2693 0.0000
# 3 42.7337 40.0558 116.0810 0.0000 6.3307 0.0000
# 4 0.0000 0.0000 0.0000 22.6533 0.0000 5.8254
# 5 4.5458 1.2693 6.3307 0.0000 26.2236 0.0000
# 6 0.0000 0.0000 0.0000 5.8254 0.0000 2.4730
#
#
#
# Elastic Compliance Matrix: (Units=1/GPa)
#
#
# Indices 1 2 3 4 5 6 
#
# 1 0.019328 -0.009891 -0.003593 0.000000 -0.002004 0.000000
# 2 -0.009891 0.029438 -0.006620 0.000000 0.001888 0.000000
# 3 -0.003593 -0.006620 0.012333 0.000000 -0.002034 0.000000
# 4 0.000000 0.000000 0.000000 0.111971 0.000000 -0.263760
# 5 -0.002004 0.001888 -0.002034 0.000000 0.038881 0.000000
# 6 0.000000 0.000000 0.000000 -0.263760 0.000000 1.025689
#
#
# Mechanical properties :
#
#
# Convention : Reuss Voigt Hill
#
# Bulk Modulus (GPa) = 47.86650 54.02867 50.94758
# Shear Modulus (GPa) = 3.89162 18.99731 11.44447
#
# Velocity S-wave (km/s) = 1.57235 3.47400 2.69639
# Velocity P-wave (km/s) = 5.80562 7.10036 6.48538
#
# Compressibility (1/GPa) = 0.02089144
#
# Stress axis : x y z
#
# Youngs Moduli (GPa) = 51.73779 33.96931 81.08511
#
# Poissons Ratio (x) = 0.33598 0.29135
# Poissons Ratio (y) = 0.51173 0.53678
# Poissons Ratio (z) = 0.18590 0.22488
#
# Static dielectric constant tensor:
#      x y z
#    x 2.972180 0.000000 0.054020 
#    y 0.000000 3.338210 0.000000 
#    z 0.054020 0.000000 3.159280 
# 
# 
# High freq. dielectric constant tensor:
#      x y z
#    x 1.575910 0.000000 0.012410 
#    y 0.000000 1.582720 0.000000 
#    z 0.012410 0.000000 1.618890 
# 
# From -- ./inp_files/67758.got.cif
#   From: 2010.06.25/outbox.cif.g09.slc.cpg/sg10_34_cif.got.tgz:67758.got - 2010.06.27 22:07:45.
