data_PCOD8062253
_publ_section_title
;
Structure prediction by ZEFSAII (Michael W. Deem and Ramdas Pophale) SiO2 
 PCOD8062253
Probable space group: P 2/M
;
_chemical_formula_sum "Si O2"
_cell_formula_units_Z 28
_cell_length_a 7.751857
_cell_length_b 9.086730
_cell_length_c 27.604270
_cell_angle_alpha 90.000000
_cell_angle_beta 134.909789
_cell_angle_gamma 90.000000
_cell_volume 1377.074249
_symmetry_space_group_name_H-M "P 2/M"
_symmetry_group_IT_number 10
_symmetry_cell_setting 'monoclinic'
loop_
_space_group_symop_operation_xyz
x,y,z
-x,y,-z
-x,-y,-z
x,-y,z
loop_
_atom_site_type_symbol
_atom_site_label
_atom_site_fract_x
_atom_site_fract_y
_atom_site_fract_z
Si Si1 0.776735 0.174221 0.339020
Si Si2 0.363982 0.836562 0.927266
Si Si3 0.677339 0.830912 0.579922
Si Si4 0.233370 0.835265 0.073726
Si Si5 0.437686 0.327923 0.793796
Si Si6 0.042080 0.669777 0.796194
Si Si7 0.539026 0.325854 0.649627
O O1 0.603005 0.240557 0.263557
O O2 0.696621 0.245849 0.374296
O O3 0.054389 0.219244 0.383415
O O4 0.743500 0.000000 0.335244
O O5 0.544766 0.842437 0.918675
O O6 0.124118 0.750699 0.861890
O O7 0.280865 0.000000 0.926744
O O8 0.500000 0.759671 0.000000
O O9 0.500000 0.807870 0.500000
O O10 0.580845 0.728757 0.603598
O O11 0.679754 0.000000 0.598051
O O12 0.308624 0.729600 0.132918
O O13 0.171927 0.000000 0.080731
O O14 0.000000 0.767252 0.000000
O O15 0.462448 0.500000 0.787173
O O16 0.213130 0.292174 0.784589
O O17 0.058179 0.500000 0.811960
O O18 0.770914 0.718300 0.728465
O O19 0.497551 0.500000 0.640221
#
# Coordination Sequence:
#
# PCOD8062253 Si02
#       7
#     4   4   4   4   4   4   4
#     4  11  23  39  63  93 123 159 205 251 302 362
#     4   9  18  31  48  72 103 143 190 241 293 347
#     4  10  23  44  68  93 125 164 204 251 305 362
#     4   9  18  32  49  72 106 147 194 245 299 359
#     4  10  19  35  57  81 113 152 199 250 304 362
#     4   9  19  35  55  79 110 151 194 242 297 355
#     4  11  23  40  63  93 127 161 203 250 303 365
#
# _framework density 20.332964
#
# number of rings (size 3 to 8) (size 9 to 14) (size 15 to 20)
#    0.000    2.143    1.429    1.286    0.000    4.857 
#    0.000    4.286    0.000    0.000    0.000    0.000 
#    0.000    0.000    0.000    0.000    0.000    0.000 
#
# Total GULP energy -347216.941281 kJ/mol
# GULP energy per Si atom -12400.605046 kJ/mol
# Density = 2.028669 g / cm^3
# Si number density = 20.332964 Si / 1000 Ang^3
#
#
#
# Elastic Constant Matrix: (Units=GPa)
#
#
# Indices 1 2 3 4 5 6 
#
# 1 86.6392 45.7366 46.0939 0.0000 -5.4757 0.0000
# 2 45.7366 85.7957 47.4834 0.0000 -8.9438 0.0000
# 3 46.0939 47.4834 105.7437 0.0000 -3.8240 0.0000
# 4 0.0000 0.0000 0.0000 28.2059 0.0000 -2.5109
# 5 -5.4757 -8.9438 -3.8240 0.0000 22.0163 0.0000
# 6 0.0000 0.0000 0.0000 -2.5109 0.0000 26.1946
#
#
#
# Elastic Compliance Matrix: (Units=1/GPa)
#
#
# Indices 1 2 3 4 5 6 
#
# 1 0.017613 -0.006746 -0.004618 0.000000 0.000838 0.000000
# 2 -0.006746 0.018690 -0.005271 0.000000 0.004999 0.000000
# 3 -0.004618 -0.005271 0.013805 0.000000 -0.000892 0.000000
# 4 0.000000 0.000000 0.000000 0.035759 0.000000 0.003428
# 5 0.000838 0.004999 -0.000892 0.000000 0.047505 0.000000
# 6 0.000000 0.000000 0.000000 0.003428 0.000000 0.038504
#
#
# Mechanical properties :
#
#
# Convention : Reuss Voigt Hill
#
# Bulk Modulus (GPa) = 59.39226 61.86738 60.62982
# Shear Modulus (GPa) = 23.72365 24.54102 24.13233
#
# Velocity S-wave (km/s) = 3.41949 3.47790 3.44882
# Velocity P-wave (km/s) = 6.69804 6.82795 6.76331
#
# Compressibility (1/GPa) = 0.01683721
#
# Stress axis : x y z
#
# Youngs Moduli (GPa) = 56.77537 53.50322 72.43954
#
# Poissons Ratio (x) = 0.36094 0.33453
# Poissons Ratio (y) = 0.38302 0.38185
# Poissons Ratio (z) = 0.26219 0.28203
#
# Static dielectric constant tensor:
#      x y z
#    x 3.667220 0.000000 0.141530 
#    y 0.000000 3.739250 0.000000 
#    z 0.141530 0.000000 3.953330 
# 
# 
# High freq. dielectric constant tensor:
#      x y z
#    x 1.791020 0.000000 -0.000150 
#    y 0.000000 1.787370 0.000000 
#    z -0.000150 0.000000 1.797620 
# 
# From -- ./inp_files/90362.got.cif
#   From: 2010.06.25/outbox.cif.g09.slc.cpg/sg10_46_cif.got.tgz:90362.got - 2010.06.27 22:07:45.
