data_PCOD8062953
_publ_section_title
;
Structure prediction by ZEFSAII (Michael W. Deem and Ramdas Pophale) SiO2 
 PCOD8062953
Probable space group: P 2/M
;
_chemical_formula_sum "Si O2"
_cell_formula_units_Z 32
_cell_length_a 16.568508
_cell_length_b 13.614332
_cell_length_c 23.064510
_cell_angle_alpha 90.000000
_cell_angle_beta 22.394538
_cell_angle_gamma 90.000000
_cell_volume 1982.114323
_symmetry_space_group_name_H-M "P 2/M"
_symmetry_group_IT_number 10
_symmetry_cell_setting 'monoclinic'
loop_
_space_group_symop_operation_xyz
x,y,z
-x,y,-z
-x,-y,-z
x,-y,z
loop_
_atom_site_type_symbol
_atom_site_label
_atom_site_fract_x
_atom_site_fract_y
_atom_site_fract_z
Si Si1 0.269102 0.113420 0.159806
Si Si2 0.067432 0.388642 0.863515
Si Si3 0.392608 0.798126 0.380638
Si Si4 0.213688 0.885927 0.830806
Si Si5 0.950717 0.883698 0.467320
Si Si6 0.656950 0.388401 0.206354
Si Si7 0.738346 0.784416 0.323109
Si Si8 0.111777 0.113947 0.664979
O O1 0.140825 0.156123 0.300221
O O2 0.133227 0.127855 0.191198
O O3 0.307835 0.000000 0.147645
O O4 0.500000 0.165360 0.000000
O O5 0.096416 0.500000 0.822713
O O6 0.225150 0.366276 0.811832
O O7 0.130718 0.317084 0.768781
O O8 0.824410 0.370742 0.043373
O O9 0.603932 0.863587 0.243804
O O10 0.265802 0.830050 0.407509
O O11 0.455620 0.683388 0.334022
O O12 0.255193 0.817273 0.529385
O O13 0.268452 0.838074 0.733504
O O14 0.187023 0.000000 0.837562
O O15 0.000000 0.840502 0.000000
O O16 0.000000 0.853839 0.500000
O O17 0.918438 0.000000 0.480742
O O18 0.571984 0.500000 0.261087
O O19 0.500000 0.760954 0.500000
O O20 0.860015 0.853968 0.287612
O O21 0.180626 0.000000 0.611562
#
# Coordination Sequence:
#
# PCOD8062953 Si02
#       8
#     4   4   4   4   4   4   4   4
#     4   8  15  31  50  65  90 126 164 201 237 285
#     4   9  18  33  50  69  97 131 167 211 258 290
#     4  11  18  32  53  71  98 132 171 203 246 306
#     4  11  22  33  45  67 102 139 170 202 238 286
#     4   9  18  32  50  73 100 127 161 207 253 291
#     4   9  17  32  53  72  94 128 168 211 256 302
#     4  12  21  31  48  71 101 135 168 205 235 297
#     4  10  20  32  48  71 101 139 170 198 243 293
#
# _framework density 16.144376999999999
#
# number of rings (size 3 to 8) (size 9 to 14) (size 15 to 20)
#    0.000    2.125    2.500    3.750    0.000    0.750 
#    4.500    0.625    0.000    0.375    0.000    0.000 
#    0.000    3.000    0.000    0.000    0.000    0.000 
#
# Total GULP energy -396741.586229 kJ/mol
# GULP energy per Si atom -12398.174570 kJ/mol
# Density = 1.610763 g / cm^3
# Si number density = 16.144377 Si / 1000 Ang^3
#
#
#
# Elastic Constant Matrix: (Units=GPa)
#
#
# Indices 1 2 3 4 5 6 
#
# 1 97.4332 39.7089 49.4905 0.0000 -5.6461 0.0000
# 2 39.7089 87.1113 46.3992 0.0000 -1.3290 0.0000
# 3 49.4905 46.3992 105.9301 0.0000 -9.4371 0.0000
# 4 0.0000 0.0000 0.0000 27.3690 0.0000 1.7038
# 5 -5.6461 -1.3290 -9.4371 0.0000 23.8684 0.0000
# 6 0.0000 0.0000 0.0000 1.7038 0.0000 11.0832
#
#
#
# Elastic Compliance Matrix: (Units=1/GPa)
#
#
# Indices 1 2 3 4 5 6 
#
# 1 0.014436 -0.003950 -0.004902 0.000000 0.001257 0.000000
# 2 -0.003950 0.016131 -0.005414 0.000000 -0.002177 0.000000
# 3 -0.004902 -0.005414 0.014482 0.000000 0.004265 0.000000
# 4 0.000000 0.000000 0.000000 0.036891 0.000000 -0.005671
# 5 0.001257 -0.002177 0.004265 0.000000 0.043759 0.000000
# 6 0.000000 0.000000 0.000000 -0.005671 0.000000 0.091098
#
#
# Mechanical properties :
#
#
# Convention : Reuss Voigt Hill
#
# Bulk Modulus (GPa) = 60.54806 62.40800 61.47803
# Shear Modulus (GPa) = 19.93340 22.78917 21.36128
#
# Velocity S-wave (km/s) = 3.51764 3.76118 3.64145
# Velocity P-wave (km/s) = 7.35417 7.58961 7.47282
#
# Compressibility (1/GPa) = 0.01651581
#
# Stress axis : x y z
#
# Youngs Moduli (GPa) = 69.26962 61.99345 69.05158
#
# Poissons Ratio (x) = 0.24489 0.33852
# Poissons Ratio (y) = 0.27363 0.37384
# Poissons Ratio (z) = 0.33959 0.33563
#
# Static dielectric constant tensor:
#      x y z
#    x 2.947400 0.000000 -0.033170 
#    y 0.000000 3.009200 0.000000 
#    z -0.033170 0.000000 3.249320 
# 
# 
# High freq. dielectric constant tensor:
#      x y z
#    x 1.600570 0.000000 0.000970 
#    y 0.000000 1.603790 0.000000 
#    z 0.000970 0.000000 1.623540 
# 
# From -- ./inp_files/90249.got.cif
#   From: 2010.06.25/outbox.cif.g09.slc.cpg/sg10_46_cif.got.tgz:90249.got - 2010.06.27 22:07:45.
