data_PCOD8062703
_publ_section_title
;
Structure prediction by ZEFSAII (Michael W. Deem and Ramdas Pophale) SiO2 
 PCOD8062703
Probable space group: P 2/M
;
_chemical_formula_sum "Si O2"
_cell_formula_units_Z 16
_cell_length_a 19.154496
_cell_length_b 9.001347
_cell_length_c 13.915571
_cell_angle_alpha 90.000000
_cell_angle_beta 19.707016
_cell_angle_gamma 90.000000
_cell_volume 809.059398
_symmetry_space_group_name_H-M "P 2/M"
_symmetry_group_IT_number 10
_symmetry_cell_setting 'monoclinic'
loop_
_space_group_symop_operation_xyz
x,y,z
-x,y,-z
-x,-y,-z
x,-y,z
loop_
_atom_site_type_symbol
_atom_site_label
_atom_site_fract_x
_atom_site_fract_y
_atom_site_fract_z
Si Si1 0.682235 0.170852 0.834167
Si Si2 0.946417 0.171124 0.788052
Si Si3 0.590518 0.675346 0.148521
Si Si4 0.842814 0.172958 0.288975
O O1 0.901526 0.192455 0.499044
O O2 0.646231 0.000000 0.911447
O O3 0.500000 0.223659 0.000000
O O4 0.678620 0.270829 0.932713
O O5 0.057187 0.228180 0.741003
O O6 0.880706 0.000000 0.884744
O O7 0.741325 0.267373 0.037276
O O8 0.584805 0.500000 0.157562
O O9 0.363347 0.736063 0.464223
O O10 0.784369 0.000000 0.371767
O O11 0.000000 0.206438 0.000000
#
# Coordination Sequence:
#
# PCOD8062703 Si02
#       4
#     4   4   4   4
#     4  10  19  37  64  90 118 155 201 248 294 347
#     4  10  21  39  64  90 118 155 200 250 296 347
#     4  12  25  38  58  90 129 162 191 238 301 368
#     4  10  22  43  68  89 112 152 209 259 294 340
#
# _framework density 19.776050000000001
#
# number of rings (size 3 to 8) (size 9 to 14) (size 15 to 20)
#    0.000    1.500    2.500    3.000    0.000    7.000 
#    0.000    5.000    0.000    0.000    0.000    0.000 
#    0.000    0.000    0.000    0.000    0.000    0.000 
#
# Total GULP energy -198500.052944 kJ/mol
# GULP energy per Si atom -12406.253309 kJ/mol
# Density = 1.973104 g / cm^3
# Si number density = 19.776050 Si / 1000 Ang^3
#
#
#
# Elastic Constant Matrix: (Units=GPa)
#
#
# Indices 1 2 3 4 5 6 
#
# 1 55.5227 40.7178 59.1087 0.0000 -20.8560 0.0000
# 2 40.7178 100.3969 60.7042 0.0000 -16.7550 0.0000
# 3 59.1087 60.7042 111.4294 0.0000 -15.0814 0.0000
# 4 0.0000 0.0000 0.0000 17.6616 0.0000 -2.3429
# 5 -20.8560 -16.7550 -15.0814 0.0000 40.5412 0.0000
# 6 0.0000 0.0000 0.0000 -2.3429 0.0000 -0.7156
#
#
#
# Elastic Compliance Matrix: (Units=1/GPa)
#
#
# Indices 1 2 3 4 5 6 
#
# 1 0.051587 -0.004467 -0.022734 0.000000 0.016235 0.000000
# 2 -0.004467 0.015670 -0.005899 0.000000 0.001984 0.000000
# 3 -0.022734 -0.005899 0.023519 0.000000 -0.005384 0.000000
# 4 0.000000 0.000000 0.000000 0.039475 0.000000 -0.129244
# 5 0.016235 0.001984 -0.005384 0.000000 0.031835 0.000000
# 6 0.000000 0.000000 0.000000 -0.129244 0.000000 -0.974273
#
#
# Mechanical properties :
#
#
# Convention : Reuss Voigt Hill
#
# Bulk Modulus (GPa) = 40.68912 65.37892 53.03402
# Shear Modulus (GPa) = -6.77694 18.61866 5.92086
#
# Velocity S-wave (km/s) = -1.85318 3.07168 1.73218
# Velocity P-wave (km/s) = 4.00507 6.76104 5.55663
#
# Compressibility (1/GPa) = 0.02457659
#
# Stress axis : x y z
#
# Youngs Moduli (GPa) = 19.38464 63.81783 42.51965
#
# Poissons Ratio (x) = 0.28505 0.96665
# Poissons Ratio (y) = 0.08658 0.25081
# Poissons Ratio (z) = 0.44069 0.37644
#
# Static dielectric constant tensor:
#      x y z
#    x 3.733360 0.000000 -0.101040 
#    y 0.000000 3.395290 0.000000 
#    z -0.101040 0.000000 3.591500 
# 
# 
# High freq. dielectric constant tensor:
#      x y z
#    x 1.781160 0.000000 -0.010340 
#    y 0.000000 1.749450 0.000000 
#    z -0.010340 0.000000 1.778270 
# 
# From -- ./inp_files/21311.got.cif
#   From: 2010.06.25/outbox.cif.g09.slc.cpg/sg10_11_cif.got.tgz:21311.got - 2010.06.27 22:07:45.
