data_PCOD8062487
_publ_section_title
;
Structure prediction by ZEFSAII (Michael W. Deem and Ramdas Pophale) SiO2 
 PCOD8062487
Probable space group: P 2/M
;
_chemical_formula_sum "Si O2"
_cell_formula_units_Z 32
_cell_length_a 20.590316
_cell_length_b 8.648430
_cell_length_c 25.403786
_cell_angle_alpha 90.000000
_cell_angle_beta 158.937412
_cell_angle_gamma 90.000000
_cell_volume 1625.779928
_symmetry_space_group_name_H-M "P 2/M"
_symmetry_group_IT_number 10
_symmetry_cell_setting 'monoclinic'
loop_
_space_group_symop_operation_xyz
x,y,z
-x,y,-z
-x,-y,-z
x,-y,z
loop_
_atom_site_type_symbol
_atom_site_label
_atom_site_fract_x
_atom_site_fract_y
_atom_site_fract_z
Si Si1 0.397493 0.815732 0.871858
Si Si2 0.324165 0.316114 0.513467
Si Si3 0.983906 0.315757 0.189851
Si Si4 0.396119 0.817090 0.075043
Si Si5 0.716363 0.316063 0.784814
Si Si6 0.999951 0.683783 0.916378
Si Si7 0.999326 0.827233 0.561466
Si Si8 0.337824 0.319613 0.643161
O O1 0.489007 0.752527 0.887662
O O2 0.192695 0.757663 0.724174
O O3 0.399573 0.000000 0.871385
O O4 0.500000 0.749455 0.000000
O O5 0.320726 0.500000 0.509154
O O6 0.511501 0.252394 0.630083
O O7 0.313905 0.257803 0.565753
O O8 0.154631 0.251137 0.352134
O O9 0.980300 0.500000 0.187303
O O10 0.998539 0.248945 0.141503
O O11 0.802642 0.254101 0.079605
O O12 0.494294 0.767018 0.202988
O O13 0.380556 0.000000 0.061583
O O14 0.715171 0.500000 0.784734
O O15 0.819791 0.257517 0.810615
O O16 0.823229 0.258489 0.917900
O O17 0.998598 0.500000 0.912994
O O18 0.000000 0.838450 0.500000
O O19 0.847123 0.711406 0.466100
O O20 0.965595 0.000000 0.559202
O O21 0.383418 0.500000 0.678596
#
# Coordination Sequence:
#
# PCOD8062487 Si02
#       8
#     4   4   4   4   4   4   4   4
#     4   9  19  35  55  77 101 132 171 216 263 306
#     4   9  19  32  48  75 113 145 172 212 264 314
#     4  10  20  34  51  77 111 142 171 214 268 314
#     4  11  22  38  57  78 102 137 181 219 259 315
#     4   8  13  25  45  73 105 139 177 213 251 305
#     4   8  14  25  47  75 104 138 176 214 255 303
#     4  10  19  36  58  79 103 133 174 220 260 308
#     4  11  22  36  55  79 108 141 175 217 265 312
#
# _framework density 19.682860000000002
#
# number of rings (size 3 to 8) (size 9 to 14) (size 15 to 20)
#    0.000    2.500    1.250    2.250    1.750    2.750 
#    0.000    3.125    0.000    1.875    0.000    9.625 
#    0.000    0.000    0.000    0.000    0.000    0.000 
#
# Total GULP energy -396717.896708 kJ/mol
# GULP energy per Si atom -12397.434272 kJ/mol
# Density = 1.963806 g / cm^3
# Si number density = 19.682860 Si / 1000 Ang^3
#
#
#
# Elastic Constant Matrix: (Units=GPa)
#
#
# Indices 1 2 3 4 5 6 
#
# 1 88.4795 12.6541 51.5465 0.0000 -1.7488 0.0000
# 2 12.6541 17.7071 13.9306 0.0000 0.3275 0.0000
# 3 51.5465 13.9306 174.2603 0.0000 3.6747 0.0000
# 4 0.0000 0.0000 0.0000 17.1866 0.0000 -6.5432
# 5 -1.7488 0.3275 3.6747 0.0000 37.3411 0.0000
# 6 0.0000 0.0000 0.0000 -6.5432 0.0000 10.7277
#
#
#
# Elastic Compliance Matrix: (Units=1/GPa)
#
#
# Indices 1 2 3 4 5 6 
#
# 1 0.014572 -0.007496 -0.003735 0.000000 0.001116 0.000000
# 2 -0.007496 0.064121 -0.002895 0.000000 -0.000628 0.000000
# 3 -0.003735 -0.002895 0.007093 0.000000 -0.000847 0.000000
# 4 0.000000 0.000000 0.000000 0.075782 0.000000 0.046222
# 5 0.001116 -0.000628 -0.000847 0.000000 0.026921 0.000000
# 6 0.000000 0.000000 0.000000 0.046222 0.000000 0.121409
#
#
# Mechanical properties :
#
#
# Convention : Reuss Voigt Hill
#
# Bulk Modulus (GPa) = 17.38122 48.52325 32.95224
# Shear Modulus (GPa) = 13.99277 26.53879 20.26578
#
# Velocity S-wave (km/s) = 2.66918 3.67593 3.21224
# Velocity P-wave (km/s) = 4.28360 6.53626 5.52593
#
# Compressibility (1/GPa) = 0.05753336
#
# Stress axis : x y z
#
# Youngs Moduli (GPa) = 68.62509 15.59554 140.99202
#
# Poissons Ratio (x) = 0.11690 0.52656
# Poissons Ratio (y) = 0.51442 0.40822
# Poissons Ratio (z) = 0.25629 0.04515
#
# Static dielectric constant tensor:
#      x y z
#    x 3.844560 0.000000 0.093600 
#    y 0.000000 3.013330 0.000000 
#    z 0.093600 0.000000 4.315030 
# 
# 
# High freq. dielectric constant tensor:
#      x y z
#    x 1.773840 0.000000 0.003940 
#    y 0.000000 1.707610 0.000000 
#    z 0.003940 0.000000 1.781810 
# 
# From -- ./inp_files/93811.got.cif
#   From: 2010.06.25/outbox.cif.g09.slc.cpg/sg10_47_cif.got.tgz:93811.got - 2010.06.27 22:07:45.
