data_PCOD8062698
_publ_section_title
;
Structure prediction by ZEFSAII (Michael W. Deem and Ramdas Pophale) SiO2 
 PCOD8062698
Probable space group: P 2/M
;
_chemical_formula_sum "Si O2"
_cell_formula_units_Z 26
_cell_length_a 12.838378
_cell_length_b 7.970938
_cell_length_c 30.484557
_cell_angle_alpha 90.000000
_cell_angle_beta 154.357859
_cell_angle_gamma 90.000000
_cell_volume 1350.005319
_symmetry_space_group_name_H-M "P 2/M"
_symmetry_group_IT_number 10
_symmetry_cell_setting 'monoclinic'
loop_
_space_group_symop_operation_xyz
x,y,z
-x,y,-z
-x,-y,-z
x,-y,z
loop_
_atom_site_type_symbol
_atom_site_label
_atom_site_fract_x
_atom_site_fract_y
_atom_site_fract_z
Si Si1 0.488005 0.314124 0.311809
Si Si2 0.974657 0.180868 0.324572
Si Si3 0.599724 0.000000 0.774473
Si Si4 0.058889 0.689275 0.865185
Si Si5 0.356606 0.306066 0.533980
Si Si6 0.850571 0.000000 0.046291
Si Si7 0.866900 0.309511 0.703829
Si Si8 0.524220 0.000000 0.173161
O O1 0.557576 0.500000 0.319491
O O2 0.535386 0.167578 0.294401
O O3 0.210978 0.317043 0.219784
O O4 0.647569 0.274069 0.415439
O O5 0.121409 0.223749 0.423866
O O6 0.015887 0.305391 0.299743
O O7 0.691971 0.166452 0.230464
O O8 0.064562 0.000000 0.341027
O O9 0.595706 0.000000 0.825054
O O10 0.872984 0.000000 0.862558
O O11 0.173672 0.500000 0.913191
O O12 0.048837 0.757008 0.810728
O O13 0.209040 0.829612 0.948989
O O14 0.340918 0.500000 0.516040
O O15 0.600660 0.225640 0.605199
O O16 0.689300 0.000000 0.942264
O O17 0.822072 0.500000 0.701026
#
# Coordination Sequence:
#
# PCOD8062698 Si02
#       8
#     4   4   2   4   4   2   4   2
#     4   8  16  31  55  87 109 126 167 223 271 316
#     4  10  22  33  45  70 110 153 171 210 250 301
#     4  10  19  37  64  77  98 135 173 228 284 322
#     4   8  16  31  55  87 109 126 167 223 271 316
#     4   9  17  32  54  80 110 142 178 214 250 304
#     4  10  19  37  64  77  98 135 173 228 284 322
#     4   9  17  32  54  80 110 142 178 214 250 304
#     4  10  25  40  47  74 108 136 178 226 267 318
#
# _framework density 19.259184999999999
#
# number of rings (size 3 to 8) (size 9 to 14) (size 15 to 20)
#    0.462    2.462    0.000    3.000    2.154    2.462 
#    0.000    6.923    0.000    7.385    0.000    0.000 
#    0.000    0.000    0.000    0.000    0.000    0.000 
#
# Total GULP energy -322096.792938 kJ/mol
# GULP energy per Si atom -12388.338190 kJ/mol
# Density = 1.921535 g / cm^3
# Si number density = 19.259185 Si / 1000 Ang^3
#
#
#
# Elastic Constant Matrix: (Units=GPa)
#
#
# Indices 1 2 3 4 5 6 
#
# 1 46.3186 29.6542 44.4214 0.0000 -22.7292 0.0000
# 2 29.6542 95.9124 45.1462 0.0000 -19.7646 0.0000
# 3 44.4214 45.1462 75.2659 0.0000 -32.6713 0.0000
# 4 0.0000 0.0000 0.0000 16.5646 0.0000 -6.4165
# 5 -22.7292 -19.7646 -32.6713 0.0000 29.2098 0.0000
# 6 0.0000 0.0000 0.0000 -6.4165 0.0000 20.5231
#
#
#
# Elastic Compliance Matrix: (Units=1/GPa)
#
#
# Indices 1 2 3 4 5 6 
#
# 1 0.052130 -0.002250 -0.024238 0.000000 0.011932 0.000000
# 2 -0.002250 0.014626 -0.007598 0.000000 -0.000353 0.000000
# 3 -0.024238 -0.007598 0.042237 0.000000 0.023241 0.000000
# 4 0.000000 0.000000 0.000000 0.068688 0.000000 0.021475
# 5 0.011932 -0.000353 0.023241 0.000000 0.069276 0.000000
# 6 0.000000 0.000000 0.000000 0.021475 0.000000 0.055440
#
#
# Mechanical properties :
#
#
# Convention : Reuss Voigt Hill
#
# Bulk Modulus (GPa) = 24.49725 50.66005 37.57865
# Shear Modulus (GPa) = 13.01488 19.81118 16.41303
#
# Velocity S-wave (km/s) = 2.60239 3.21075 2.92244
# Velocity P-wave (km/s) = 4.66661 6.33299 5.56255
#
# Compressibility (1/GPa) = 0.04082091
#
# Stress axis : x y z
#
# Youngs Moduli (GPa) = 19.18266 68.37373 23.67588
#
# Poissons Ratio (x) = 0.15384 0.57386
# Poissons Ratio (y) = 0.04316 0.17989
# Poissons Ratio (z) = 0.46495 0.51950
#
# Static dielectric constant tensor:
#      x y z
#    x 3.094860 0.000000 -0.210570 
#    y 0.000000 3.694910 0.000000 
#    z -0.210570 0.000000 3.332990 
# 
# 
# High freq. dielectric constant tensor:
#      x y z
#    x 1.718960 0.000000 -0.024580 
#    y 0.000000 1.745800 0.000000 
#    z -0.024580 0.000000 1.734330 
# 
# From -- ./inp_files/92708.got.cif
#   From: 2010.06.25/outbox.cif.g09.slc.cpg/sg10_47_cif.got.tgz:92708.got - 2010.06.27 22:07:45.
