data_PCOD8062202
_publ_section_title
;
Structure prediction by ZEFSAII (Michael W. Deem and Ramdas Pophale) SiO2 
 PCOD8062202
Probable space group: P 2/M
;
_chemical_formula_sum "Si O2"
_cell_formula_units_Z 24
_cell_length_a 10.097019
_cell_length_b 8.462139
_cell_length_c 21.186043
_cell_angle_alpha 90.000000
_cell_angle_beta 135.294824
_cell_angle_gamma 90.000000
_cell_volume 1273.391404
_symmetry_space_group_name_H-M "P 2/M"
_symmetry_group_IT_number 10
_symmetry_cell_setting 'monoclinic'
loop_
_space_group_symop_operation_xyz
x,y,z
-x,y,-z
-x,-y,-z
x,-y,z
loop_
_atom_site_type_symbol
_atom_site_label
_atom_site_fract_x
_atom_site_fract_y
_atom_site_fract_z
Si Si1 0.788407 0.185800 0.597352
Si Si2 0.498808 0.682655 0.593064
Si Si3 0.217084 0.315868 0.075446
Si Si4 0.514991 0.186962 0.933249
Si Si5 0.505367 0.184405 0.731924
Si Si6 0.208359 0.186461 0.731570
O O1 0.674751 0.218715 0.494547
O O2 0.692157 0.270060 0.624212
O O3 0.998494 0.257876 0.661818
O O4 0.791886 0.000000 0.611731
O O5 0.457833 0.500000 0.567100
O O6 0.519203 0.715009 0.673526
O O7 0.244340 0.500000 0.099198
O O8 0.307786 0.272912 0.038676
O O9 0.312497 0.215373 0.163422
O O10 0.000000 0.267309 0.000000
O O11 0.323200 0.238837 0.832751
O O12 0.547184 0.000000 0.939134
O O13 0.500000 0.244510 0.000000
O O14 0.319806 0.243078 0.706883
O O15 0.495609 0.000000 0.711801
O O16 0.193716 0.000000 0.724299
#
# Coordination Sequence:
#
# PCOD8062202 Si02
#       6
#     4   4   4   4   4   4
#     4  10  19  35  56  77 103 139 180 218 260 310
#     4  11  22  36  52  77 110 139 172 216 264 312
#     4  10  21  36  53  78 111 141 172 214 262 309
#     4   9  18  34  55  79 106 138 178 219 258 306
#     4  10  20  37  58  79 103 136 177 217 260 311
#     4   8  17  33  54  79 104 131 173 225 263 299
#
# _framework density 18.847308000000002
#
# number of rings (size 3 to 8) (size 9 to 14) (size 15 to 20)
#    0.000    2.333    0.000    5.000    0.000    3.667 
#    0.000   13.333    0.000    0.000    0.000    0.000 
#    0.000    0.000    0.000    0.000    0.000    0.000 
#
# Total GULP energy -297630.562469 kJ/mol
# GULP energy per Si atom -12401.273436 kJ/mol
# Density = 1.880441 g / cm^3
# Si number density = 18.847308 Si / 1000 Ang^3
#
#
#
# Elastic Constant Matrix: (Units=GPa)
#
#
# Indices 1 2 3 4 5 6 
#
# 1 138.0572 20.0874 93.3645 0.0000 6.6855 0.0000
# 2 20.0874 44.1550 12.3840 0.0000 2.1384 0.0000
# 3 93.3645 12.3840 100.0114 0.0000 5.8504 0.0000
# 4 0.0000 0.0000 0.0000 20.4045 0.0000 -4.7836
# 5 6.6855 2.1384 5.8504 0.0000 45.5939 0.0000
# 6 0.0000 0.0000 0.0000 -4.7836 0.0000 15.1519
#
#
#
# Elastic Compliance Matrix: (Units=1/GPa)
#
#
# Indices 1 2 3 4 5 6 
#
# 1 0.020337 -0.004054 -0.018458 0.000000 -0.000423 0.000000
# 2 -0.004054 0.024295 0.000815 0.000000 -0.000649 0.000000
# 3 -0.018458 0.000815 0.027177 0.000000 -0.000819 0.000000
# 4 0.000000 0.000000 0.000000 0.052926 0.000000 0.016710
# 5 -0.000423 -0.000649 -0.000819 0.000000 0.022130 0.000000
# 6 0.000000 0.000000 0.000000 0.016710 0.000000 0.071274
#
#
# Mechanical properties :
#
#
# Convention : Reuss Voigt Hill
#
# Bulk Modulus (GPa) = 35.19529 59.32170 47.25850
# Shear Modulus (GPa) = 18.44975 26.65590 22.55283
#
# Velocity S-wave (km/s) = 3.13214 3.76481 3.46295
# Velocity P-wave (km/s) = 5.63869 7.10223 6.41235
#
# Compressibility (1/GPa) = 0.02841289
#
# Stress axis : x y z
#
# Youngs Moduli (GPa) = 49.17240 41.16083 36.79530
#
# Poissons Ratio (x) = 0.16688 0.67918
# Poissons Ratio (y) = 0.19936 -0.02997
# Poissons Ratio (z) = 0.90764 -0.03353
#
# Static dielectric constant tensor:
#      x y z
#    x 3.650430 0.000000 0.145830 
#    y 0.000000 3.300450 0.000000 
#    z 0.145830 0.000000 3.518700 
# 
# 
# High freq. dielectric constant tensor:
#      x y z
#    x 1.737090 0.000000 0.000560 
#    y 0.000000 1.723530 0.000000 
#    z 0.000560 0.000000 1.730910 
# 
# From -- ./inp_files/33970.got.cif
#   From: 2010.06.25/outbox.cif.g09.slc.cpg/sg10_17_cif.got.tgz:33970.got - 2010.06.27 22:07:45.
