data_PCOD8062693
_publ_section_title
;
Structure prediction by ZEFSAII (Michael W. Deem and Ramdas Pophale) SiO2 
 PCOD8062693
Probable space group: P 2/M
;
_chemical_formula_sum "Si O2"
_cell_formula_units_Z 32
_cell_length_a 28.786926
_cell_length_b 8.484060
_cell_length_c 12.124450
_cell_angle_alpha 90.000000
_cell_angle_beta 147.702401
_cell_angle_gamma 90.000000
_cell_volume 1582.194983
_symmetry_space_group_name_H-M "P 2/M"
_symmetry_group_IT_number 10
_symmetry_cell_setting 'monoclinic'
loop_
_space_group_symop_operation_xyz
x,y,z
-x,y,-z
-x,-y,-z
x,-y,z
loop_
_atom_site_type_symbol
_atom_site_label
_atom_site_fract_x
_atom_site_fract_y
_atom_site_fract_z
Si Si1 0.901789 0.319051 0.838726
Si Si2 0.098639 0.321387 0.732805
Si Si3 0.245310 0.815472 0.612995
Si Si4 0.658949 0.318971 0.566028
Si Si5 0.839361 0.178470 0.929453
Si Si6 0.400696 0.312785 0.785786
Si Si7 0.752390 0.314129 0.138500
Si Si8 0.596236 0.312027 0.669651
O O1 0.883007 0.500000 0.831619
O O2 0.833615 0.270681 0.607537
O O3 0.894952 0.210492 0.932344
O O4 0.000000 0.293984 0.000000
O O5 0.122763 0.500000 0.815526
O O6 0.104714 0.206245 0.849046
O O7 0.163402 0.267898 0.765083
O O8 0.000000 0.308537 0.500000
O O9 0.339007 0.763055 0.754237
O O10 0.241313 0.775843 0.733837
O O11 0.233678 0.000000 0.571884
O O12 0.631332 0.500000 0.509576
O O13 0.624300 0.241636 0.383914
O O14 0.620092 0.239227 0.598061
O O15 0.761678 0.302420 0.775665
O O16 0.804702 0.000000 0.857609
O O17 0.388247 0.500000 0.767855
O O18 0.500000 0.261874 0.000000
O O19 0.749052 0.500000 0.155301
O O20 0.665453 0.255330 0.900278
O O21 0.500000 0.247814 0.500000
O O22 0.599139 0.500000 0.671372
#
# Coordination Sequence:
#
# PCOD8062693 Si02
#       8
#     4   4   4   4   4   4   4   4
#     4  11  25  45  69  92 118 160 213 261 306 367
#     4  10  22  41  65  91 119 160 212 257 298 355
#     4  12  26  42  61  90 131 167 200 252 321 383
#     4  10  19  37  63  89 120 159 206 256 302 357
#     4  12  24  39  63  93 128 162 197 251 316 372
#     4  10  22  39  65  95 122 162 216 263 303 362
#     4  10  21  39  62  87 120 162 209 254 300 360
#     4   9  18  33  60  93 118 149 200 258 302 344
#
# _framework density 20.225068
#
# number of rings (size 3 to 8) (size 9 to 14) (size 15 to 20)
#    0.000    1.500    2.500    2.625    3.500    2.000 
#    0.000    0.000    0.000    0.750    0.000    0.000 
#    0.000    0.000    0.000    0.000    0.000    0.000 
#
# Total GULP energy -396812.599121 kJ/mol
# GULP energy per Si atom -12400.393723 kJ/mol
# Density = 2.017903 g / cm^3
# Si number density = 20.225068 Si / 1000 Ang^3
#
#
#
# Elastic Constant Matrix: (Units=GPa)
#
#
# Indices 1 2 3 4 5 6 
#
# 1 150.4082 31.5243 77.5677 0.0000 -7.9267 0.0000
# 2 31.5243 42.3944 25.7156 0.0000 -0.8177 0.0000
# 3 77.5677 25.7156 125.0442 0.0000 4.8835 0.0000
# 4 0.0000 0.0000 0.0000 0.1172 0.0000 10.7756
# 5 -7.9267 -0.8177 4.8835 0.0000 43.0709 0.0000
# 6 0.0000 0.0000 0.0000 10.7756 0.0000 -5.7689
#
#
#
# Elastic Compliance Matrix: (Units=1/GPa)
#
#
# Indices 1 2 3 4 5 6 
#
# 1 0.010715 -0.004371 -0.005847 0.000000 0.002552 0.000000
# 2 -0.004371 0.028790 -0.003213 0.000000 0.000106 0.000000
# 3 -0.005847 -0.003213 0.012384 0.000000 -0.002541 0.000000
# 4 0.000000 0.000000 0.000000 0.049396 0.000000 0.092265
# 5 0.002552 0.000106 -0.002541 0.000000 0.023977 0.000000
# 6 0.000000 0.000000 0.000000 0.092265 0.000000 -0.001003
#
#
# Mechanical properties :
#
#
# Convention : Reuss Voigt Hill
#
# Bulk Modulus (GPa) = 39.95972 65.27356 52.61664
# Shear Modulus (GPa) = 31.35489 19.68645 25.52067
#
# Velocity S-wave (km/s) = 3.94165 3.12327 3.55608
# Velocity P-wave (km/s) = 6.36521 6.73425 6.55233
#
# Compressibility (1/GPa) = 0.02502520
#
# Stress axis : x y z
#
# Youngs Moduli (GPa) = 93.32863 34.73474 80.74655
#
# Poissons Ratio (x) = 0.15184 0.47215
# Poissons Ratio (y) = 0.40798 0.25945
# Poissons Ratio (z) = 0.54572 0.11161
#
# Static dielectric constant tensor:
#      x y z
#    x 3.713730 0.000000 0.025470 
#    y 0.000000 3.405380 0.000000 
#    z 0.025470 0.000000 3.681730 
# 
# 
# High freq. dielectric constant tensor:
#      x y z
#    x 1.805210 0.000000 -0.003720 
#    y 0.000000 1.762800 0.000000 
#    z -0.003720 0.000000 1.800100 
# 
# From -- ./inp_files/58361.got.cif
#   From: 2010.06.25/outbox.cif.g09.slc.cpg/sg10_30_cif.got.tgz:58361.got - 2010.06.27 22:07:45.
