data_PCOD8062536
_publ_section_title
;
Structure prediction by ZEFSAII (Michael W. Deem and Ramdas Pophale) SiO2 
 PCOD8062536
Probable space group: P 2/M
;
_chemical_formula_sum "Si O2"
_cell_formula_units_Z 32
_cell_length_a 21.059124
_cell_length_b 9.050643
_cell_length_c 26.302951
_cell_angle_alpha 90.000000
_cell_angle_beta 20.311545
_cell_angle_gamma 90.000000
_cell_volume 1740.241972
_symmetry_space_group_name_H-M "P 2/M"
_symmetry_group_IT_number 10
_symmetry_cell_setting 'monoclinic'
loop_
_space_group_symop_operation_xyz
x,y,z
-x,y,-z
-x,-y,-z
x,-y,z
loop_
_atom_site_type_symbol
_atom_site_label
_atom_site_fract_x
_atom_site_fract_y
_atom_site_fract_z
Si Si1 0.093271 0.325525 0.580363
Si Si2 0.847184 0.824729 0.845264
Si Si3 0.945356 0.832916 0.122007
Si Si4 0.898338 0.675264 0.625265
Si Si5 0.507922 0.333364 0.054171
Si Si6 0.490049 0.671465 0.721875
Si Si7 0.840524 0.325671 0.958631
Si Si8 0.707710 0.834889 0.211132
O O1 0.060783 0.500000 0.612324
O O2 0.306536 0.286882 0.413095
O O3 0.017156 0.241650 0.686606
O O4 0.988856 0.263811 0.609022
O O5 0.863243 0.000000 0.834835
O O6 0.658170 0.779813 0.960624
O O7 0.851032 0.760920 0.898568
O O8 0.769429 0.777776 0.221005
O O9 0.912518 0.000000 0.166782
O O10 0.982969 0.722406 0.140511
O O11 0.118353 0.831404 0.955619
O O12 0.918179 0.500000 0.611314
O O13 0.687429 0.722009 0.778626
O O14 0.000000 0.743255 0.500000
O O15 0.552302 0.500000 0.040378
O O16 0.500000 0.333839 0.000000
O O17 0.465094 0.500000 0.732568
O O18 0.347157 0.724649 0.872327
O O19 0.451996 0.739444 0.694683
O O20 0.846884 0.500000 0.944050
O O21 0.631388 0.000000 0.273929
#
# Coordination Sequence:
#
# PCOD8062536 Si02
#       8
#     4   4   4   4   4   4   4   4
#     4  10  20  38  57  78 107 141 180 220 265 319
#     4  12  25  38  54  77 108 146 182 220 265 317
#     4   8  14  27  47  74 107 143 178 215 258 311
#     4   9  18  32  57  85 105 132 171 217 266 314
#     4  10  19  36  60  81 102 135 178 220 261 312
#     4   9  19  32  53  82 110 137 176 227 271 314
#     4  10  20  34  54  82 109 139 178 224 270 315
#     4   8  14  26  47  73 107 146 178 209 258 320
#
# _framework density 18.388248999999998
#
# number of rings (size 3 to 8) (size 9 to 14) (size 15 to 20)
#    0.000    2.500    1.250    2.250    1.750    1.750 
#    0.000    2.500    0.000    1.500    0.000    5.250 
#    0.000    0.000    0.000    0.000    0.000    0.000 
#
# Total GULP energy -396680.380243 kJ/mol
# GULP energy per Si atom -12396.261883 kJ/mol
# Density = 1.834640 g / cm^3
# Si number density = 18.388249 Si / 1000 Ang^3
#
#
#
# Elastic Constant Matrix: (Units=GPa)
#
#
# Indices 1 2 3 4 5 6 
#
# 1 116.9124 50.6235 40.7413 0.0000 0.6340 0.0000
# 2 50.6235 69.4185 31.9648 0.0000 2.3563 0.0000
# 3 40.7413 31.9648 66.3361 0.0000 15.4398 0.0000
# 4 0.0000 0.0000 0.0000 18.9516 0.0000 2.7230
# 5 0.6340 2.3563 15.4398 0.0000 19.6991 0.0000
# 6 0.0000 0.0000 0.0000 2.7230 0.0000 52.9850
#
#
#
# Elastic Compliance Matrix: (Units=1/GPa)
#
#
# Indices 1 2 3 4 5 6 
#
# 1 0.013916 -0.007487 -0.006169 0.000000 0.005283 0.000000
# 2 -0.007487 0.023108 -0.007277 0.000000 0.003180 0.000000
# 3 -0.006169 -0.007277 0.027057 0.000000 -0.020138 0.000000
# 4 0.000000 0.000000 0.000000 0.053159 0.000000 -0.002732
# 5 0.005283 0.003180 -0.020138 0.000000 0.065997 0.000000
# 6 0.000000 0.000000 0.000000 -0.002732 0.000000 0.019014
#
#
# Mechanical properties :
#
#
# Convention : Reuss Voigt Hill
#
# Bulk Modulus (GPa) = 45.01262 55.48070 50.24666
# Shear Modulus (GPa) = 19.87904 26.94963 23.41434
#
# Velocity S-wave (km/s) = 3.29153 3.83246 3.57225
# Velocity P-wave (km/s) = 6.24322 7.05840 6.66328
#
# Compressibility (1/GPa) = 0.02221599
#
# Stress axis : x y z
#
# Youngs Moduli (GPa) = 71.85718 43.27440 36.95947
#
# Poissons Ratio (x) = 0.32402 0.22799
# Poissons Ratio (y) = 0.53803 0.26894
# Poissons Ratio (z) = 0.44326 0.31489
#
# Static dielectric constant tensor:
#      x y z
#    x 3.889550 0.000000 -0.293310 
#    y 0.000000 3.277240 0.000000 
#    z -0.293310 0.000000 3.583290 
# 
# 
# High freq. dielectric constant tensor:
#      x y z
#    x 1.723370 0.000000 -0.010660 
#    y 0.000000 1.690190 0.000000 
#    z -0.010660 0.000000 1.692660 
# 
# From -- ./inp_files/93678.got.cif
#   From: 2010.06.25/outbox.cif.g09.slc.cpg/sg10_47_cif.got.tgz:93678.got - 2010.06.27 22:07:45.
