data_PCOD8062322
_publ_section_title
;
Structure prediction by ZEFSAII (Michael W. Deem and Ramdas Pophale) SiO2 
 PCOD8062322
Probable space group: P 2/M
;
_chemical_formula_sum "Si O2"
_cell_formula_units_Z 26
_cell_length_a 11.918654
_cell_length_b 15.516882
_cell_length_c 7.869983
_cell_angle_alpha 90.000000
_cell_angle_beta 63.030645
_cell_angle_gamma 90.000000
_cell_volume 1297.193086
_symmetry_space_group_name_H-M "P 2/M"
_symmetry_group_IT_number 10
_symmetry_cell_setting 'monoclinic'
loop_
_space_group_symop_operation_xyz
x,y,z
-x,y,-z
-x,-y,-z
x,-y,z
loop_
_atom_site_type_symbol
_atom_site_label
_atom_site_fract_x
_atom_site_fract_y
_atom_site_fract_z
Si Si1 0.103880 0.294755 0.052957
Si Si2 0.578717 0.098033 0.106827
Si Si3 0.066592 0.404482 0.632124
Si Si4 0.873353 0.095515 0.375197
Si Si5 0.243356 0.732511 0.651009
Si Si6 0.500000 0.801563 0.500000
Si Si7 0.153076 0.864301 0.220708
O O1 0.227637 0.308223 0.851752
O O2 0.134022 0.237186 0.197045
O O3 0.000000 0.249116 0.000000
O O4 0.042971 0.384630 0.155274
O O5 0.547349 0.144085 0.306124
O O6 0.536217 0.000000 0.160587
O O7 0.500000 0.137463 0.000000
O O8 0.728160 0.101922 0.967699
O O9 0.122079 0.500000 0.628631
O O10 0.175526 0.331487 0.564329
O O11 0.000000 0.399856 0.500000
O O12 0.814680 0.170363 0.300113
O O13 0.824978 0.120122 0.596469
O O14 0.024298 0.088429 0.254844
O O15 0.820077 0.000000 0.364003
O O16 0.389861 0.739121 0.507559
#
# Coordination Sequence:
#
# PCOD8062322 Si02
#       7
#     4   4   4   4   4   2   4
#     4  10  19  35  58  86 118 148 186 246 310 371
#     4  11  24  40  58  83 120 174 233 275 312 366
#     4  10  21  40  70 100 122 150 192 255 328 390
#     4  11  22  35  58  87 118 161 207 260 321 372
#     4  11  23  40  59  88 126 161 207 255 312 373
#     4  12  25  42  59  86 124 180 220 264 310 372
#     4  11  19  37  56  82 118 159 203 263 315 368
#
# _framework density 20.043275000000001
#
# number of rings (size 3 to 8) (size 9 to 14) (size 15 to 20)
#    0.000    1.231    4.615    3.923    0.000    5.231 
#    0.000    1.154    0.000    0.000    0.000    2.154 
#    0.000    0.000    0.000    0.000    0.000    0.000 
#
# Total GULP energy -322158.487686 kJ/mol
# GULP energy per Si atom -12390.711065 kJ/mol
# Density = 1.999766 g / cm^3
# Si number density = 20.043275 Si / 1000 Ang^3
#
#
#
# Elastic Constant Matrix: (Units=GPa)
#
#
# Indices 1 2 3 4 5 6 
#
# 1 80.4790 52.9912 47.1031 0.0000 -14.8949 0.0000
# 2 52.9912 121.0663 30.2776 0.0000 -0.8091 0.0000
# 3 47.1031 30.2776 122.4862 0.0000 -15.7613 0.0000
# 4 0.0000 0.0000 0.0000 11.4084 0.0000 -10.0012
# 5 -14.8949 -0.8091 -15.7613 0.0000 32.4980 0.0000
# 6 0.0000 0.0000 0.0000 -10.0012 0.0000 -2.0393
#
#
#
# Elastic Compliance Matrix: (Units=1/GPa)
#
#
# Indices 1 2 3 4 5 6 
#
# 1 0.022701 -0.008466 -0.005680 0.000000 0.007439 0.000000
# 2 -0.008466 0.011986 -0.000179 0.000000 -0.003669 0.000000
# 3 -0.005680 -0.000179 0.010727 0.000000 0.002595 0.000000
# 4 0.000000 0.000000 0.000000 0.016540 0.000000 -0.081120
# 5 0.007439 -0.003669 0.002595 0.000000 0.035348 0.000000
# 6 0.000000 0.000000 0.000000 -0.081120 0.000000 -0.092534
#
#
# Mechanical properties :
#
#
# Convention : Reuss Voigt Hill
#
# Bulk Modulus (GPa) = 59.65442 64.97500 62.31471
# Shear Modulus (GPa) = 128.18367 21.28408 74.73388
#
# Velocity S-wave (km/s) = 8.00577 3.26223 6.11287
# Velocity P-wave (km/s) = 10.73703 6.83207 8.99892
#
# Compressibility (1/GPa) = 0.01676322
#
# Stress axis : x y z
#
# Youngs Moduli (GPa) = 44.05005 83.43102 93.22612
#
# Poissons Ratio (x) = 0.70635 0.52952
# Poissons Ratio (y) = 0.37294 0.01670
# Poissons Ratio (z) = 0.25020 0.01495
#
# Static dielectric constant tensor:
#      x y z
#    x 3.672190 0.000000 0.031640 
#    y 0.000000 3.625370 0.000000 
#    z 0.031640 0.000000 4.123780 
# 
# 
# High freq. dielectric constant tensor:
#      x y z
#    x 1.765790 0.000000 0.006620 
#    y 0.000000 1.755350 0.000000 
#    z 0.006620 0.000000 1.793500 
# 
# From -- ./inp_files/24802.got.cif
#   From: 2010.06.25/outbox.cif.g09.slc.cpg/sg10_13_cif.got.tgz:24802.got - 2010.06.27 22:07:45.
