data_PCOD8062102
_publ_section_title
;
Structure prediction by ZEFSAII (Michael W. Deem and Ramdas Pophale) SiO2 
 PCOD8062102
Probable space group: P 2/M
;
_chemical_formula_sum "Si O2"
_cell_formula_units_Z 20
_cell_length_a 11.848188
_cell_length_b 11.652320
_cell_length_c 9.922474
_cell_angle_alpha 90.000000
_cell_angle_beta 43.239862
_cell_angle_gamma 90.000000
_cell_volume 938.445766
_symmetry_space_group_name_H-M "P 2/M"
_symmetry_group_IT_number 10
_symmetry_cell_setting 'monoclinic'
loop_
_space_group_symop_operation_xyz
x,y,z
-x,y,-z
-x,-y,-z
x,-y,z
loop_
_atom_site_type_symbol
_atom_site_label
_atom_site_fract_x
_atom_site_fract_y
_atom_site_fract_z
Si Si1 0.643784 0.241533 0.657540
Si Si2 0.172595 0.632320 0.276062
Si Si3 0.693797 0.372659 0.356301
Si Si4 0.334950 0.000000 0.469778
Si Si5 0.742492 0.758354 0.055910
Si Si6 0.277994 0.000000 0.822328
O O1 0.693421 0.295362 0.756806
O O2 0.734028 0.313232 0.462406
O O3 0.448278 0.250872 0.817200
O O4 0.706170 0.110582 0.586133
O O5 0.231420 0.500000 0.205290
O O6 0.000000 0.636414 0.500000
O O7 0.151324 0.696917 0.152104
O O8 0.500000 0.371922 0.500000
O O9 0.766199 0.500000 0.299771
O O10 0.783708 0.306386 0.158388
O O11 0.234177 0.000000 0.699874
O O12 0.526004 0.000000 0.340537
O O13 0.795487 0.890150 0.035184
#
# Coordination Sequence:
#
# PCOD8062102 Si02
#       6
#     4   4   4   2   4   2
#     4  10  19  34  59  86 113 145 183 228 278 334
#     4  11  25  42  55  74 112 155 192 233 280 329
#     4   9  16  27  50  84 111 135 178 231 274 318
#     4   9  16  31  57  90 120 142 173 226 285 332
#     4  10  19  34  59  86 113 145 183 228 278 334
#     4   9  16  31  57  90 120 142 173 226 285 332
#
# _framework density 21.311834999999999
#
# number of rings (size 3 to 8) (size 9 to 14) (size 15 to 20)
#    0.000    2.200    2.000    1.800    0.000    4.000 
#    0.000    6.000    0.000    4.800    0.000    0.000 
#    0.000    0.000    0.000    0.000    0.000    0.000 
#
# Total GULP energy -247984.104426 kJ/mol
# GULP energy per Si atom -12399.205221 kJ/mol
# Density = 2.126333 g / cm^3
# Si number density = 21.311835 Si / 1000 Ang^3
#
#
#
# Elastic Constant Matrix: (Units=GPa)
#
#
# Indices 1 2 3 4 5 6 
#
# 1 10.6015 12.7844 8.5567 0.0000 7.6334 0.0000
# 2 12.7844 204.3447 59.4460 0.0000 19.6114 0.0000
# 3 8.5567 59.4460 100.6806 0.0000 31.4930 0.0000
# 4 0.0000 0.0000 0.0000 34.2892 0.0000 14.5788
# 5 7.6334 19.6114 31.4930 0.0000 25.8997 0.0000
# 6 0.0000 0.0000 0.0000 14.5788 0.0000 17.6197
#
#
#
# Elastic Compliance Matrix: (Units=1/GPa)
#
#
# Indices 1 2 3 4 5 6 
#
# 1 0.124718 -0.005469 0.004570 0.000000 -0.038174 0.000000
# 2 -0.005469 0.006151 -0.003573 0.000000 0.001299 0.000000
# 3 0.004570 -0.003573 0.018121 0.000000 -0.020676 0.000000
# 4 0.000000 0.000000 0.000000 0.044991 0.000000 -0.037226
# 5 -0.038174 0.001299 -0.020676 0.000000 0.074019 0.000000
# 6 0.000000 0.000000 0.000000 -0.037226 0.000000 0.087557
#
#
# Mechanical properties :
#
#
# Convention : Reuss Voigt Hill
#
# Bulk Modulus (GPa) = 7.14047 53.02234 30.08140
# Shear Modulus (GPa) = 12.16005 31.21770 21.68888
#
# Velocity S-wave (km/s) = 2.39127 3.83143 3.19359
# Velocity P-wave (km/s) = 3.31390 6.67132 5.26728
#
# Compressibility (1/GPa) = 0.14004683
#
# Stress axis : x y z
#
# Youngs Moduli (GPa) = 8.01807 162.58548 55.18387
#
# Poissons Ratio (x) = 0.88911 -0.25220
# Poissons Ratio (y) = 0.04385 0.19719
# Poissons Ratio (z) = -0.03664 0.58096
#
# Static dielectric constant tensor:
#      x y z
#    x 3.452820 0.000000 0.354490 
#    y 0.000000 4.241510 0.000000 
#    z 0.354490 0.000000 3.690980 
# 
# 
# High freq. dielectric constant tensor:
#      x y z
#    x 1.801600 0.000000 0.024100 
#    y 0.000000 1.853260 0.000000 
#    z 0.024100 0.000000 1.824780 
# 
# From -- ./inp_files/17881.got.cif
#   From: 2010.06.25/outbox.cif.g09.slc.cpg/sg10_9_cif.got.tgz:17881.got - 2010.06.27 22:07:45.
