data_PCOD8062446
_publ_section_title
;
Structure prediction by ZEFSAII (Michael W. Deem and Ramdas Pophale) SiO2 
 PCOD8062446
Probable space group: P 2/M
;
_chemical_formula_sum "Si O2"
_cell_formula_units_Z 16
_cell_length_a 8.717375
_cell_length_b 7.831128
_cell_length_c 11.794667
_cell_angle_alpha 90.000000
_cell_angle_beta 90.897126
_cell_angle_gamma 90.000000
_cell_volume 805.086410
_symmetry_space_group_name_H-M "P 2/M"
_symmetry_group_IT_number 10
_symmetry_cell_setting 'monoclinic'
loop_
_space_group_symop_operation_xyz
x,y,z
-x,y,-z
-x,-y,-z
x,-y,z
loop_
_atom_site_type_symbol
_atom_site_label
_atom_site_fract_x
_atom_site_fract_y
_atom_site_fract_z
Si Si1 0.673026 0.811360 0.745871
Si Si2 0.154536 0.500000 0.649452
Si Si3 0.355558 0.688748 0.811164
Si Si4 0.828263 0.703012 0.975256
Si Si5 0.197879 0.500000 0.384899
O O1 0.492185 0.807759 0.771038
O O2 0.770099 0.787166 0.860230
O O3 0.714136 0.669460 0.653526
O O4 0.709255 0.000000 0.697068
O O5 0.225296 0.668497 0.711268
O O6 0.199060 0.500000 0.519532
O O7 0.972901 0.500000 0.667762
O O8 0.424872 0.500000 0.839946
O O9 0.278498 0.767013 0.922669
O O10 0.822892 0.500000 0.963863
O O11 0.000000 0.767149 0.000000
#
# Coordination Sequence:
#
# PCOD8062446 Si02
#       5
#     4   2   4   4   2
#     4  12  24  37  61  92 125 162 195 243 301 360
#     4   9  21  40  71  86 109 165 199 253 310 339
#     4   9  19  37  60  89 116 155 201 239 299 353
#     4  10  19  35  62  90 121 157 199 247 296 353
#     4  11  21  44  65  88 119 151 209 253 296 359
#
# _framework density 19.873645
#
# number of rings (size 3 to 8) (size 9 to 14) (size 15 to 20)
#    0.750    1.000    2.500    2.250    0.000    6.500 
#    0.000    8.750    0.000    0.000    0.000    0.000 
#    0.000    0.000    0.000    0.000    0.000    0.000 
#
# Total GULP energy -198373.649728 kJ/mol
# GULP energy per Si atom -12398.353108 kJ/mol
# Density = 1.982841 g / cm^3
# Si number density = 19.873645 Si / 1000 Ang^3
#
#
#
# Elastic Constant Matrix: (Units=GPa)
#
#
# Indices 1 2 3 4 5 6 
#
# 1 70.4151 17.4683 -1.5536 0.0000 -15.2997 0.0000
# 2 17.4683 91.2351 23.3394 0.0000 -16.7361 0.0000
# 3 -1.5536 23.3394 60.5966 0.0000 -15.4937 0.0000
# 4 0.0000 0.0000 0.0000 4.5148 0.0000 2.6439
# 5 -15.2997 -16.7361 -15.4937 0.0000 35.3561 0.0000
# 6 0.0000 0.0000 0.0000 2.6439 0.0000 7.3684
#
#
#
# Elastic Compliance Matrix: (Units=1/GPa)
#
#
# Indices 1 2 3 4 5 6 
#
# 1 0.016535 -0.002670 0.003332 0.000000 0.007351 0.000000
# 2 -0.002670 0.013161 -0.004325 0.000000 0.003180 0.000000
# 3 0.003332 -0.004325 0.020383 0.000000 0.008327 0.000000
# 4 0.000000 0.000000 0.000000 0.280413 0.000000 -0.100615
# 5 0.007351 0.003180 0.008327 0.000000 0.036619 0.000000
# 6 0.000000 0.000000 0.000000 -0.100615 0.000000 0.171815
#
#
# Mechanical properties :
#
#
# Convention : Reuss Voigt Hill
#
# Bulk Modulus (GPa) = 23.38978 33.41724 28.40351
# Shear Modulus (GPa) = 8.92057 21.64739 15.28398
#
# Velocity S-wave (km/s) = 2.12094 3.30396 2.77620
# Velocity P-wave (km/s) = 4.21813 5.60413 4.95978
#
# Compressibility (1/GPa) = 0.04275372
#
# Stress axis : x y z
#
# Youngs Moduli (GPa) = 60.47932 75.97961 49.06121
#
# Poissons Ratio (x) = 0.20283 -0.16346
# Poissons Ratio (y) = 0.16145 0.21217
# Poissons Ratio (z) = -0.20150 0.32859
#
# Static dielectric constant tensor:
#      x y z
#    x 3.720910 0.000000 -0.032640 
#    y 0.000000 3.329400 0.000000 
#    z -0.032640 0.000000 3.499830 
# 
# 
# High freq. dielectric constant tensor:
#      x y z
#    x 1.788210 0.000000 -0.003690 
#    y 0.000000 1.743780 0.000000 
#    z -0.003690 0.000000 1.770260 
# 
# From -- ./inp_files/40443.got.cif
#   From: 2010.06.25/outbox.cif.g09.slc.cpg/sg10_21_cif.got.tgz:40443.got - 2010.06.27 22:07:45.
