data_PCOD8062032
_publ_section_title
;
Structure prediction by ZEFSAII (Michael W. Deem and Ramdas Pophale) SiO2 
 PCOD8062032
Probable space group: P 2/M
;
_chemical_formula_sum "Si O2"
_cell_formula_units_Z 28
_cell_length_a 15.272639
_cell_length_b 11.020089
_cell_length_c 9.503721
_cell_angle_alpha 90.000000
_cell_angle_beta 56.373524
_cell_angle_gamma 90.000000
_cell_volume 1331.874803
_symmetry_space_group_name_H-M "P 2/M"
_symmetry_group_IT_number 10
_symmetry_cell_setting 'monoclinic'
loop_
_space_group_symop_operation_xyz
x,y,z
-x,y,-z
-x,-y,-z
x,-y,z
loop_
_atom_site_type_symbol
_atom_site_label
_atom_site_fract_x
_atom_site_fract_y
_atom_site_fract_z
Si Si1 0.544020 0.863050 0.313690
Si Si2 0.759655 0.862830 0.250184
Si Si3 0.428101 0.287508 0.184716
Si Si4 0.094510 0.859350 0.121683
Si Si5 0.075681 0.736493 0.558313
Si Si6 0.239646 0.861725 0.237211
Si Si7 0.259136 0.629885 0.534882
O O1 0.500000 0.809007 0.500000
O O2 0.670309 0.859692 0.209473
O O3 0.506021 0.786207 0.216174
O O4 0.501278 0.000000 0.332767
O O5 0.737408 0.754543 0.379405
O O6 0.759406 0.000000 0.319513
O O7 0.870385 0.840018 0.071733
O O8 0.348992 0.201728 0.171141
O O9 0.359066 0.377979 0.341019
O O10 0.500000 0.352728 0.000000
O O11 0.187409 0.810964 0.140546
O O12 0.988433 0.785632 0.249545
O O13 0.072113 0.000000 0.173996
O O14 0.153167 0.843660 0.437271
O O15 0.150379 0.627295 0.543300
O O16 0.000000 0.690980 0.500000
O O17 0.269460 0.000000 0.194497
O O18 0.261924 0.500000 0.616878
#
# Coordination Sequence:
#
# PCOD8062032 Si02
#       7
#     4   4   4   4   4   4   4
#     4  10  19  34  57  87 124 163 197 237 293 352
#     4  10  21  38  60  86 121 161 199 238 287 350
#     4  11  22  36  58  86 115 154 203 250 295 349
#     4   9  17  32  56  88 123 157 194 241 293 346
#     4   9  19  36  58  83 112 151 193 240 297 356
#     4   9  17  30  53  88 126 155 191 244 296 343
#     4  11  25  43  61  84 116 152 195 246 300 359
#
# _framework density 21.022998000000001
#
# number of rings (size 3 to 8) (size 9 to 14) (size 15 to 20)
#    0.000    2.143    1.429    1.714    0.000    8.000 
#    0.000    4.286    0.000    8.571    0.000    0.000 
#    0.000    0.000    0.000    0.000    0.000    0.000 
#
# Total GULP energy -346897.082980 kJ/mol
# GULP energy per Si atom -12389.181535 kJ/mol
# Density = 2.097515 g / cm^3
# Si number density = 21.022998 Si / 1000 Ang^3
#
#
#
# Elastic Constant Matrix: (Units=GPa)
#
#
# Indices 1 2 3 4 5 6 
#
# 1 75.3954 30.2138 22.8847 0.0000 -5.7344 0.0000
# 2 30.2138 105.3347 42.5508 0.0000 3.5726 0.0000
# 3 22.8847 42.5508 129.8693 0.0000 -18.8023 0.0000
# 4 0.0000 0.0000 0.0000 7.1351 0.0000 8.5907
# 5 -5.7344 3.5726 -18.8023 0.0000 29.3863 0.0000
# 6 0.0000 0.0000 0.0000 8.5907 0.0000 -0.2416
#
#
#
# Elastic Compliance Matrix: (Units=1/GPa)
#
#
# Indices 1 2 3 4 5 6 
#
# 1 0.015431 -0.004146 -0.000939 0.000000 0.002915 0.000000
# 2 -0.004146 0.012498 -0.004079 0.000000 -0.004939 0.000000
# 3 -0.000939 -0.004079 0.010191 0.000000 0.006834 0.000000
# 4 0.000000 0.000000 0.000000 0.003199 0.000000 0.113748
# 5 0.002915 -0.004939 0.006834 0.000000 0.039571 0.000000
# 6 0.000000 0.000000 0.000000 0.113748 0.000000 -0.094475
#
#
# Mechanical properties :
#
#
# Convention : Reuss Voigt Hill
#
# Bulk Modulus (GPa) = 50.52357 55.76643 53.14500
# Shear Modulus (GPa) = 440.84670 21.58599 231.21634
#
# Velocity S-wave (km/s) = 14.49664 3.20782 10.49863
# Velocity P-wave (km/s) = 17.44386 6.34855 13.12616
#
# Compressibility (1/GPa) = 0.01979274
#
# Stress axis : x y z
#
# Youngs Moduli (GPa) = 64.80263 80.01200 98.12178
#
# Poissons Ratio (x) = 0.33172 0.09213
# Poissons Ratio (y) = 0.26866 0.40027
# Poissons Ratio (z) = 0.06084 0.32640
#
# Static dielectric constant tensor:
#      x y z
#    x 3.980200 0.000000 -0.163630 
#    y 0.000000 3.290190 0.000000 
#    z -0.163630 0.000000 3.855160 
# 
# 
# High freq. dielectric constant tensor:
#      x y z
#    x 1.835510 0.000000 -0.013880 
#    y 0.000000 1.773860 0.000000 
#    z -0.013880 0.000000 1.828720 
# 
# From -- ./inp_files/28484.got.cif
#   From: 2010.06.25/outbox.cif.g09.slc.cpg/sg10_15_cif.got.tgz:28484.got - 2010.06.27 22:07:45.
