data_PCOD8062543
_publ_section_title
;
Structure prediction by ZEFSAII (Michael W. Deem and Ramdas Pophale) SiO2 
 PCOD8062543
Probable space group: P 2/M
;
_chemical_formula_sum "Si O2"
_cell_formula_units_Z 24
_cell_length_a 14.490724
_cell_length_b 9.259571
_cell_length_c 29.294865
_cell_angle_alpha 90.000000
_cell_angle_beta 19.959047
_cell_angle_gamma 90.000000
_cell_volume 1341.746031
_symmetry_space_group_name_H-M "P 2/M"
_symmetry_group_IT_number 10
_symmetry_cell_setting 'monoclinic'
loop_
_space_group_symop_operation_xyz
x,y,z
-x,y,-z
-x,-y,-z
x,-y,z
loop_
_atom_site_type_symbol
_atom_site_label
_atom_site_fract_x
_atom_site_fract_y
_atom_site_fract_z
Si Si1 0.448130 0.836319 0.665323
Si Si2 0.303825 0.169901 0.631676
Si Si3 0.227528 0.331217 0.099807
Si Si4 0.308265 0.334633 0.369899
Si Si5 0.831088 0.162888 0.962366
Si Si6 0.707493 0.167436 0.120620
O O1 0.449105 0.790323 0.611766
O O2 0.648351 0.734272 0.600340
O O3 0.148702 0.818152 0.825244
O O4 0.550897 0.000000 0.622881
O O5 0.500000 0.220999 0.500000
O O6 0.019549 0.252303 0.759775
O O7 0.241141 0.000000 0.658290
O O8 0.162954 0.500000 0.127946
O O9 0.268937 0.274084 0.029198
O O10 0.500000 0.296814 0.000000
O O11 0.398806 0.500000 0.330166
O O12 0.478108 0.256731 0.252022
O O13 0.000000 0.316542 0.500000
O O14 0.780367 0.000000 0.967914
O O15 0.669599 0.191747 0.084047
O O16 0.675046 0.000000 0.149207
O O17 0.000000 0.224461 0.000000
#
# Coordination Sequence:
#
# PCOD8062543 Si02
#       6
#     4   4   4   4   4   4
#     4   9  17  34  58  80 105 138 178 225 270 315
#     4   9  19  37  60  83 106 136 181 230 270 316
#     4  10  21  36  54  80 115 148 176 214 267 323
#     4  11  24  38  51  76 114 150 180 215 264 320
#     4   9  18  34  58  84 106 135 179 227 269 313
#     4  10  19  36  60  83 106 134 178 229 268 314
#
# _framework density 17.887142000000001
#
# number of rings (size 3 to 8) (size 9 to 14) (size 15 to 20)
#    0.000    2.333    1.667    2.000    0.000    6.667 
#    3.000    0.000    0.000    0.000    0.000    0.000 
#    0.000    0.000    0.000    0.000    0.000    0.000 
#
# Total GULP energy -297648.079033 kJ/mol
# GULP energy per Si atom -12402.003293 kJ/mol
# Density = 1.784643 g / cm^3
# Si number density = 17.887142 Si / 1000 Ang^3
#
#
#
# Elastic Constant Matrix: (Units=GPa)
#
#
# Indices 1 2 3 4 5 6 
#
# 1 104.4418 60.5190 60.3986 0.0000 5.9331 0.0000
# 2 60.5190 95.3278 60.8274 0.0000 -2.7482 0.0000
# 3 60.3986 60.8274 97.6293 0.0000 16.0507 0.0000
# 4 0.0000 0.0000 0.0000 17.8754 0.0000 -12.2496
# 5 5.9331 -2.7482 16.0507 0.0000 27.7151 0.0000
# 6 0.0000 0.0000 0.0000 -12.2496 0.0000 18.5219
#
#
#
# Elastic Compliance Matrix: (Units=1/GPa)
#
#
# Indices 1 2 3 4 5 6 
#
# 1 0.017271 -0.007070 -0.006141 0.000000 -0.000842 0.000000
# 2 -0.007070 0.022522 -0.011355 0.000000 0.010323 0.000000
# 3 -0.006141 -0.011355 0.023305 0.000000 -0.013308 0.000000
# 4 0.000000 0.000000 0.000000 0.102312 0.000000 0.067665
# 5 -0.000842 0.010323 -0.013308 0.000000 0.044992 0.000000
# 6 0.000000 0.000000 0.000000 0.067665 0.000000 0.098740
#
#
# Mechanical properties :
#
#
# Convention : Reuss Voigt Hill
#
# Bulk Modulus (GPa) = 71.61171 73.43208 72.52190
# Shear Modulus (GPa) = 13.77675 20.53274 17.15475
#
# Velocity S-wave (km/s) = 2.77827 3.39175 3.10022
# Velocity P-wave (km/s) = 7.10027 7.51537 7.31077
#
# Compressibility (1/GPa) = 0.01396420
#
# Stress axis : x y z
#
# Youngs Moduli (GPa) = 57.90144 44.40141 42.90928
#
# Poissons Ratio (x) = 0.31391 0.26352
# Poissons Ratio (y) = 0.40936 0.48725
# Poissons Ratio (z) = 0.35559 0.50420
#
# Static dielectric constant tensor:
#      x y z
#    x 3.348630 0.000000 0.139430 
#    y 0.000000 3.299340 0.000000 
#    z 0.139430 0.000000 3.189020 
# 
# 
# High freq. dielectric constant tensor:
#      x y z
#    x 1.698600 0.000000 0.010950 
#    y 0.000000 1.690390 0.000000 
#    z 0.010950 0.000000 1.678010 
# 
# From -- ./inp_files/72497.got.cif
#   From: 2010.06.25/outbox.cif.g09.slc.cpg/sg10_37_cif.got.tgz:72497.got - 2010.06.27 22:07:45.
