data_PCOD8062151
_publ_section_title
;
Structure prediction by ZEFSAII (Michael W. Deem and Ramdas Pophale) SiO2 
 PCOD8062151
Probable space group: P 2/M
;
_chemical_formula_sum "Si O2"
_cell_formula_units_Z 24
_cell_length_a 9.723516
_cell_length_b 7.427329
_cell_length_c 21.415542
_cell_angle_alpha 90.000000
_cell_angle_beta 53.753156
_cell_angle_gamma 90.000000
_cell_volume 1247.317872
_symmetry_space_group_name_H-M "P 2/M"
_symmetry_group_IT_number 10
_symmetry_cell_setting 'monoclinic'
loop_
_space_group_symop_operation_xyz
x,y,z
-x,y,-z
-x,-y,-z
x,-y,z
loop_
_atom_site_type_symbol
_atom_site_label
_atom_site_fract_x
_atom_site_fract_y
_atom_site_fract_z
Si Si1 0.397964 0.710344 0.717134
Si Si2 0.466721 0.000000 0.111091
Si Si3 0.371103 0.284937 0.585690
Si Si4 0.775504 0.000000 0.942915
Si Si5 0.013554 0.710102 0.835046
Si Si6 0.999619 0.289435 0.301487
Si Si7 0.634119 0.713468 0.763157
O O1 0.422835 0.500000 0.704240
O O2 0.420736 0.790538 0.641233
O O3 0.541389 0.785881 0.725630
O O4 0.211978 0.753474 0.795354
O O5 0.340610 0.000000 0.086981
O O6 0.440228 0.181504 0.157835
O O7 0.661497 0.000000 0.035488
O O8 0.500000 0.202055 0.500000
O O9 0.380462 0.500000 0.581992
O O10 0.178053 0.215735 0.621711
O O11 0.894718 0.177222 0.913488
O O12 0.972127 0.500000 0.855553
O O13 0.971999 0.781296 0.776373
O O14 0.974859 0.500000 0.301282
O O15 0.164205 0.239293 0.298943
O O16 0.606502 0.500000 0.781910
#
# Coordination Sequence:
#
# PCOD8062151 Si02
#       7
#     4   2   4   2   4   4   4
#     4   8  16  30  51  75 103 139 174 208 252 304
#     4  11  24  35  51  81 104 128 170 216 264 309
#     4   8  13  24  45  77 110 134 168 217 252 287
#     4  11  22  35  53  79 102 127 172 216 262 312
#     4   9  17  33  53  74 100 134 174 212 249 301
#     4   8  14  26  47  70  97 137 174 203 245 298
#     4  10  19  35  53  74 105 138 173 211 251 305
#
# _framework density 19.241285999999999
#
# number of rings (size 3 to 8) (size 9 to 14) (size 15 to 20)
#    0.000    3.000    1.667    2.000    0.000    1.333 
#    0.000    4.167    0.000    8.000    0.000   22.167 
#    0.000    0.000    0.000    0.000    0.000    0.000 
#
# Total GULP energy -297383.492915 kJ/mol
# GULP energy per Si atom -12390.978871 kJ/mol
# Density = 1.919749 g / cm^3
# Si number density = 19.241286 Si / 1000 Ang^3
#
#
#
# Elastic Constant Matrix: (Units=GPa)
#
#
# Indices 1 2 3 4 5 6 
#
# 1 148.5712 22.4071 64.2638 0.0000 -12.8896 0.0000
# 2 22.4071 62.9221 37.6581 0.0000 -6.9825 0.0000
# 3 64.2638 37.6581 149.3848 0.0000 -22.0547 0.0000
# 4 0.0000 0.0000 0.0000 -13.9646 0.0000 8.1012
# 5 -12.8896 -6.9825 -22.0547 0.0000 24.8213 0.0000
# 6 0.0000 0.0000 0.0000 8.1012 0.0000 6.3725
#
#
#
# Elastic Compliance Matrix: (Units=1/GPa)
#
#
# Indices 1 2 3 4 5 6 
#
# 1 0.008353 -0.000937 -0.003172 0.000000 0.001256 0.000000
# 2 -0.000937 0.018854 -0.004188 0.000000 0.001096 0.000000
# 3 -0.003172 -0.004188 0.010010 0.000000 0.006069 0.000000
# 4 0.000000 0.000000 0.000000 -0.041214 0.000000 0.052395
# 5 0.001256 0.001096 0.006069 0.000000 0.046641 0.000000
# 6 0.000000 0.000000 0.000000 0.052395 0.000000 0.090317
#
#
# Mechanical properties :
#
#
# Convention : Reuss Voigt Hill
#
# Bulk Modulus (GPa) = 48.48652 67.72623 58.10638
# Shear Modulus (GPa) = 31.96312 19.21577 25.58945
#
# Velocity S-wave (km/s) = 4.08017 3.16361 3.65077
# Velocity P-wave (km/s) = 6.88847 6.97276 6.93074
#
# Compressibility (1/GPa) = 0.02062429
#
# Stress axis : x y z
#
# Youngs Moduli (GPa) = 119.71783 53.03777 99.89591
#
# Poissons Ratio (x) = 0.04969 0.31685
# Poissons Ratio (y) = 0.11217 0.41837
# Poissons Ratio (z) = 0.37972 0.22213
#
# Static dielectric constant tensor:
#      x y z
#    x 3.952540 0.000000 -0.096920 
#    y 0.000000 3.223500 0.000000 
#    z -0.096920 0.000000 3.606250 
# 
# 
# High freq. dielectric constant tensor:
#      x y z
#    x 1.747190 0.000000 -0.020480 
#    y 0.000000 1.736600 0.000000 
#    z -0.020480 0.000000 1.723750 
# 
# From -- ./inp_files/33524.got.cif
#   From: 2010.06.25/outbox.cif.g09.slc.cpg/sg10_17_cif.got.tgz:33524.got - 2010.06.27 22:07:45.
