data_PCOD8062806
_publ_section_title
;
Structure prediction by ZEFSAII (Michael W. Deem and Ramdas Pophale) SiO2 
 PCOD8062806
Probable space group: P 2/M
;
_chemical_formula_sum "Si O2"
_cell_formula_units_Z 28
_cell_length_a 22.790501
_cell_length_b 13.993660
_cell_length_c 9.794265
_cell_angle_alpha 90.000000
_cell_angle_beta 27.134551
_cell_angle_gamma 90.000000
_cell_volume 1424.621971
_symmetry_space_group_name_H-M "P 2/M"
_symmetry_group_IT_number 10
_symmetry_cell_setting 'monoclinic'
loop_
_space_group_symop_operation_xyz
x,y,z
-x,y,-z
-x,-y,-z
x,-y,z
loop_
_atom_site_type_symbol
_atom_site_label
_atom_site_fract_x
_atom_site_fract_y
_atom_site_fract_z
Si Si1 0.793591 0.265852 0.699577
Si Si2 0.434938 0.000000 0.992274
Si Si3 0.615378 0.000000 0.361692
Si Si4 0.356549 0.204472 0.743047
Si Si5 0.210069 0.763225 0.800208
Si Si6 0.006772 0.111160 0.645853
Si Si7 0.639430 0.201850 0.779047
Si Si8 0.984734 0.389044 0.691490
O O1 0.880437 0.170062 0.511861
O O2 0.683565 0.271700 0.810467
O O3 0.882806 0.359846 0.506971
O O4 0.727508 0.268341 0.983787
O O5 0.352684 0.097907 0.161663
O O6 0.500000 0.000000 0.000000
O O7 0.552355 0.000000 0.642379
O O8 0.500000 0.000000 0.500000
O O9 0.697216 0.905372 0.157094
O O10 0.500000 0.206338 0.500000
O O11 0.339857 0.245185 0.624440
O O12 0.251410 0.780432 0.559650
O O13 0.128356 0.856415 0.010089
O O14 0.129463 0.667069 0.995397
O O15 0.000000 0.136026 0.500000
O O16 0.029520 0.000000 0.627764
O O17 0.500000 0.223956 0.000000
O O18 0.956934 0.500000 0.769114
O O19 0.000000 0.361227 0.500000
#
# Coordination Sequence:
#
# PCOD8062806 Si02
#       8
#     4   2   2   4   4   4   4   4
#     4  11  21  38  59  89 119 156 202 247 308 358
#     4  10  20  38  48  75 122 178 212 233 269 328
#     4  10  20  30  48  79 112 162 220 237 269 332
#     4  11  20  32  56  84 118 159 208 247 287 354
#     4  11  21  38  59  87 117 158 201 244 306 358
#     4  10  21  35  54  83 115 153 199 260 304 339
#     4  11  24  38  57  85 132 168 204 244 287 351
#     4  10  21  43  71  95 114 142 198 267 318 370
#
# _framework density 19.654337000000002
#
# number of rings (size 3 to 8) (size 9 to 14) (size 15 to 20)
#    0.000    1.429    2.857    5.143    4.000    2.286 
#    0.000    2.143    0.000    5.143    0.000    0.000 
#    0.000    0.000    0.000    0.000    0.000    0.000 
#
# Total GULP energy -346902.491854 kJ/mol
# GULP energy per Si atom -12389.374709 kJ/mol
# Density = 1.960960 g / cm^3
# Si number density = 19.654337 Si / 1000 Ang^3
#
#
#
# Elastic Constant Matrix: (Units=GPa)
#
#
# Indices 1 2 3 4 5 6 
#
# 1 87.2673 -2.5700 0.9915 0.0000 -12.1834 0.0000
# 2 -2.5700 60.4550 5.5470 0.0000 -12.8339 0.0000
# 3 0.9915 5.5470 55.3381 0.0000 2.0421 0.0000
# 4 0.0000 0.0000 0.0000 17.0515 0.0000 0.3593
# 5 -12.1834 -12.8339 2.0421 0.0000 36.2838 0.0000
# 6 0.0000 0.0000 0.0000 0.3593 0.0000 19.0085
#
#
#
# Elastic Compliance Matrix: (Units=1/GPa)
#
#
# Indices 1 2 3 4 5 6 
#
# 1 0.012162 0.001558 -0.000546 0.000000 0.004666 0.000000
# 2 0.001558 0.018314 -0.002126 0.000000 0.007121 0.000000
# 3 -0.000546 -0.002126 0.018366 0.000000 -0.001969 0.000000
# 4 0.000000 0.000000 0.000000 0.058669 0.000000 -0.001109
# 5 0.004666 0.007121 -0.001969 0.000000 0.031757 0.000000
# 6 0.000000 0.000000 0.000000 -0.001109 0.000000 0.052629
#
#
# Mechanical properties :
#
#
# Convention : Reuss Voigt Hill
#
# Bulk Modulus (GPa) = 21.45331 23.44415 22.44873
# Shear Modulus (GPa) = 23.84751 27.74155 25.79453
#
# Velocity S-wave (km/s) = 3.48709 3.76103 3.62665
# Velocity P-wave (km/s) = 5.21076 5.55109 5.38362
#
# Compressibility (1/GPa) = 0.04661285
#
# Stress axis : x y z
#
# Youngs Moduli (GPa) = 82.21999 54.60259 54.44738
#
# Poissons Ratio (x) = -0.08505 0.02974
# Poissons Ratio (y) = -0.12807 0.11578
# Poissons Ratio (z) = 0.04491 0.11611
#
# Static dielectric constant tensor:
#      x y z
#    x 3.681980 0.000000 -0.067850 
#    y 0.000000 3.412440 0.000000 
#    z -0.067850 0.000000 3.552700 
# 
# 
# High freq. dielectric constant tensor:
#      x y z
#    x 1.774850 0.000000 -0.004000 
#    y 0.000000 1.728790 0.000000 
#    z -0.004000 0.000000 1.764990 
# 
# From -- ./inp_files/35277.got.cif
#   From: 2010.06.25/outbox.cif.g09.slc.cpg/sg10_18_cif.got.tgz:35277.got - 2010.06.27 22:07:45.
