data_PCOD8062600
_publ_section_title
;
Structure prediction by ZEFSAII (Michael W. Deem and Ramdas Pophale) SiO2 
 PCOD8062600
Probable space group: P 2/M
;
_chemical_formula_sum "Si O2"
_cell_formula_units_Z 32
_cell_length_a 21.237454
_cell_length_b 8.915129
_cell_length_c 27.375588
_cell_angle_alpha 90.000000
_cell_angle_beta 18.774094
_cell_angle_gamma 90.000000
_cell_volume 1668.131846
_symmetry_space_group_name_H-M "P 2/M"
_symmetry_group_IT_number 10
_symmetry_cell_setting 'monoclinic'
loop_
_space_group_symop_operation_xyz
x,y,z
-x,y,-z
-x,-y,-z
x,-y,z
loop_
_atom_site_type_symbol
_atom_site_label
_atom_site_fract_x
_atom_site_fract_y
_atom_site_fract_z
Si Si1 0.681306 0.178466 0.399831
Si Si2 0.202128 0.168816 0.878824
Si Si3 0.429589 0.324727 0.420715
Si Si4 0.193217 0.322801 0.222888
Si Si5 0.247882 0.322156 0.450804
Si Si6 0.505135 0.322524 0.917086
Si Si7 0.900734 0.823005 0.940669
Si Si8 0.513861 0.822988 0.172813
O O1 0.500000 0.237920 0.500000
O O2 0.678184 0.239506 0.456805
O O3 0.885364 0.242422 0.228583
O O4 0.677497 0.000000 0.404421
O O5 0.344779 0.275924 0.743849
O O6 0.290380 0.000000 0.816964
O O7 0.172563 0.241449 0.953854
O O8 0.000000 0.164101 0.000000
O O9 0.408685 0.500000 0.445144
O O10 0.338454 0.274605 0.436086
O O11 0.186232 0.500000 0.225004
O O12 0.310029 0.274896 0.185558
O O13 0.973900 0.258297 0.386584
O O14 0.307619 0.267918 0.090053
O O15 0.254061 0.500000 0.438723
O O16 0.366398 0.247407 0.320065
O O17 0.501320 0.500000 0.910279
O O18 0.532939 0.237522 0.846151
O O19 0.921690 0.000000 0.930574
O O20 0.738608 0.777968 0.019672
O O21 0.484687 0.000000 0.195790
#
# Coordination Sequence:
#
# PCOD8062600 Si02
#       8
#     4   4   4   4   4   4   4   4
#     4  10  21  39  61  81 105 143 191 232 272 331
#     4  10  19  36  62  82 103 145 194 231 266 320
#     4  11  23  36  54  85 119 145 176 228 286 332
#     4   8  17  36  61  85 109 142 188 230 265 323
#     4  10  21  38  57  80 112 150 188 223 269 331
#     4   9  18  36  62  86 108 142 186 230 274 322
#     4   9  19  35  54  80 109 140 182 230 273 319
#     4  11  22  36  54  81 117 149 182 228 277 328
#
# _framework density 19.183136999999999
#
# number of rings (size 3 to 8) (size 9 to 14) (size 15 to 20)
#    0.000    2.250    1.250    2.250    1.750    3.500 
#    0.000    6.250    0.000    0.000    0.000    0.000 
#    0.000    0.000    0.000    0.000    0.000    0.000 
#
# Total GULP energy -396765.989398 kJ/mol
# GULP energy per Si atom -12398.937169 kJ/mol
# Density = 1.913948 g / cm^3
# Si number density = 19.183137 Si / 1000 Ang^3
#
#
#
# Elastic Constant Matrix: (Units=GPa)
#
#
# Indices 1 2 3 4 5 6 
#
# 1 111.8650 32.2952 43.7038 0.0000 10.9186 0.0000
# 2 32.2952 30.6676 28.3899 0.0000 0.6036 0.0000
# 3 43.7038 28.3899 131.7272 0.0000 -2.2706 0.0000
# 4 0.0000 0.0000 0.0000 15.2401 0.0000 6.6791
# 5 10.9186 0.6036 -2.2706 0.0000 32.7424 0.0000
# 6 0.0000 0.0000 0.0000 6.6791 0.0000 29.0690
#
#
#
# Elastic Compliance Matrix: (Units=1/GPa)
#
#
# Indices 1 2 3 4 5 6 
#
# 1 0.013779 -0.012640 -0.001925 0.000000 -0.004495 0.000000
# 2 -0.012640 0.052391 -0.007050 0.000000 0.002760 0.000000
# 3 -0.001925 -0.007050 0.009774 0.000000 0.001450 0.000000
# 4 0.000000 0.000000 0.000000 0.072964 0.000000 -0.016765
# 5 -0.004495 0.002760 0.001450 0.000000 0.032090 0.000000
# 6 0.000000 0.000000 0.000000 -0.016765 0.000000 0.038253
#
#
# Mechanical properties :
#
#
# Convention : Reuss Voigt Hill
#
# Bulk Modulus (GPa) = 30.56760 53.67083 42.11921
# Shear Modulus (GPa) = 18.28911 26.73502 22.51207
#
# Velocity S-wave (km/s) = 3.09106 3.73724 3.42940
# Velocity P-wave (km/s) = 5.35805 6.83092 6.13882
#
# Compressibility (1/GPa) = 0.03271438
#
# Stress axis : x y z
#
# Youngs Moduli (GPa) = 72.57221 19.08733 102.30720
#
# Poissons Ratio (x) = 0.24127 0.19693
# Poissons Ratio (y) = 0.91733 0.72126
# Poissons Ratio (z) = 0.13970 0.13457
#
# Static dielectric constant tensor:
#      x y z
#    x 3.651590 0.000000 -0.107760 
#    y 0.000000 3.206810 0.000000 
#    z -0.107760 0.000000 3.862350 
# 
# 
# High freq. dielectric constant tensor:
#      x y z
#    x 1.755880 0.000000 0.001660 
#    y 0.000000 1.713510 0.000000 
#    z 0.001660 0.000000 1.758560 
# 
# From -- ./inp_files/93564.got.cif
#   From: 2010.06.25/outbox.cif.g09.slc.cpg/sg10_47_cif.got.tgz:93564.got - 2010.06.27 22:07:45.
