data_PCOD8062207
_publ_section_title
;
Structure prediction by ZEFSAII (Michael W. Deem and Ramdas Pophale) SiO2 
 PCOD8062207
Probable space group: P 2/M
;
_chemical_formula_sum "Si O2"
_cell_formula_units_Z 28
_cell_length_a 25.504188
_cell_length_b 8.748130
_cell_length_c 19.877904
_cell_angle_alpha 90.000000
_cell_angle_beta 160.302673
_cell_angle_gamma 90.000000
_cell_volume 1494.835389
_symmetry_space_group_name_H-M "P 2/M"
_symmetry_group_IT_number 10
_symmetry_cell_setting 'monoclinic'
loop_
_space_group_symop_operation_xyz
x,y,z
-x,y,-z
-x,-y,-z
x,-y,z
loop_
_atom_site_type_symbol
_atom_site_label
_atom_site_fract_x
_atom_site_fract_y
_atom_site_fract_z
Si Si1 0.650469 0.678914 0.722667
Si Si2 0.032325 0.333108 0.961880
Si Si3 0.087860 0.322523 0.401585
Si Si4 0.599354 0.181829 0.184057
Si Si5 0.477104 0.171975 0.177450
Si Si6 0.183070 0.830638 0.387114
Si Si7 0.752176 0.182578 0.988289
O O1 0.500000 0.742465 0.500000
O O2 0.629280 0.500000 0.711646
O O3 0.682870 0.757321 0.833974
O O4 0.792946 0.716045 0.845047
O O5 0.999815 0.500000 0.889273
O O6 0.914622 0.201637 0.797003
O O7 0.000000 0.347844 0.000000
O O8 0.067476 0.500000 0.394129
O O9 0.227707 0.252100 0.615502
O O10 0.135332 0.299373 0.381906
O O11 0.925054 0.237002 0.215112
O O12 0.510710 0.246172 0.144118
O O13 0.618360 0.000000 0.212661
O O14 0.500000 0.233011 0.000000
O O15 0.635885 0.179061 0.412170
O O16 0.348785 0.249927 0.070576
O O17 0.421715 0.000000 0.096786
O O18 0.143491 0.000000 0.367975
O O19 0.745444 0.000000 0.977166
#
# Coordination Sequence:
#
# PCOD8062207 Si02
#       7
#     4   4   4   4   4   4   4
#     4  10  22  38  53  74 109 148 186 231 280 334
#     4  10  21  35  51  74 106 142 182 227 279 335
#     4  11  21  35  56  82 112 146 183 224 273 331
#     4   9  18  37  64  89 114 145 182 225 272 325
#     4   8  18  34  54  83 112 138 178 226 272 323
#     4  10  19  35  56  78 104 139 185 234 277 323
#     4  11  21  36  57  80 111 148 187 232 275 327
#
# _framework density 18.731159000000002
#
# number of rings (size 3 to 8) (size 9 to 14) (size 15 to 20)
#    0.000    2.143    1.429    3.000    2.000    0.857 
#    0.000    7.143    0.000    4.286    0.000    0.000 
#    0.000    0.000    0.000    0.000    0.000    0.000 
#
# Total GULP energy -346916.352628 kJ/mol
# GULP energy per Si atom -12389.869737 kJ/mol
# Density = 1.868853 g / cm^3
# Si number density = 18.731159 Si / 1000 Ang^3
#
#
#
# Elastic Constant Matrix: (Units=GPa)
#
#
# Indices 1 2 3 4 5 6 
#
# 1 113.2422 28.9042 78.2963 0.0000 10.7995 0.0000
# 2 28.9042 57.7086 45.7292 0.0000 -1.0014 0.0000
# 3 78.2963 45.7292 156.2602 0.0000 -6.3969 0.0000
# 4 0.0000 0.0000 0.0000 39.0518 0.0000 -32.5191
# 5 10.7995 -1.0014 -6.3969 0.0000 29.7488 0.0000
# 6 0.0000 0.0000 0.0000 -32.5191 0.0000 77.8279
#
#
#
# Elastic Compliance Matrix: (Units=1/GPa)
#
#
# Indices 1 2 3 4 5 6 
#
# 1 0.015002 -0.001889 -0.007254 0.000000 -0.007069 0.000000
# 2 -0.001889 0.022811 -0.005720 0.000000 0.000224 0.000000
# 3 -0.007254 -0.005720 0.011913 0.000000 0.005002 0.000000
# 4 0.000000 0.000000 0.000000 0.039271 0.000000 0.016409
# 5 -0.007069 0.000224 0.005002 0.000000 0.037264 0.000000
# 6 0.000000 0.000000 0.000000 0.016409 0.000000 0.019705
#
#
# Mechanical properties :
#
#
# Convention : Reuss Voigt Hill
#
# Bulk Modulus (GPa) = 49.99748 70.34116 60.16932
# Shear Modulus (GPa) = 27.41858 40.94445 34.18152
#
# Velocity S-wave (km/s) = 3.83011 4.68043 4.27646
# Velocity P-wave (km/s) = 6.80513 8.17577 7.52173
#
# Compressibility (1/GPa) = 0.02000101
#
# Stress axis : x y z
#
# Youngs Moduli (GPa) = 66.65704 43.83858 83.94273
#
# Poissons Ratio (x) = 0.08280 0.60890
# Poissons Ratio (y) = 0.12590 0.48015
# Poissons Ratio (z) = 0.48351 0.25076
#
# Static dielectric constant tensor:
#      x y z
#    x 3.449710 0.000000 0.185390 
#    y 0.000000 3.415720 0.000000 
#    z 0.185390 0.000000 3.971500 
# 
# 
# High freq. dielectric constant tensor:
#      x y z
#    x 1.715820 0.000000 0.008120 
#    y 0.000000 1.712520 0.000000 
#    z 0.008120 0.000000 1.734280 
# 
# From -- ./inp_files/86709.got.cif
#   From: 2010.06.25/outbox.cif.g09.slc.cpg/sg10_44_cif.got.tgz:86709.got - 2010.06.27 22:07:45.
