data_PCOD8062779
_publ_section_title
;
Structure prediction by ZEFSAII (Michael W. Deem and Ramdas Pophale) SiO2 
 PCOD8062779
Probable space group: P 2/M
;
_chemical_formula_sum "Si O2"
_cell_formula_units_Z 32
_cell_length_a 20.205681
_cell_length_b 13.541757
_cell_length_c 15.495926
_cell_angle_alpha 90.000000
_cell_angle_beta 159.636359
_cell_angle_gamma 90.000000
_cell_volume 1475.423928
_symmetry_space_group_name_H-M "P 2/M"
_symmetry_group_IT_number 10
_symmetry_cell_setting 'monoclinic'
loop_
_space_group_symop_operation_xyz
x,y,z
-x,y,-z
-x,-y,-z
x,-y,z
loop_
_atom_site_type_symbol
_atom_site_label
_atom_site_fract_x
_atom_site_fract_y
_atom_site_fract_z
Si Si1 0.108161 0.888510 0.498122
Si Si2 0.693842 0.812292 0.975117
Si Si3 0.361268 0.610461 0.022977
Si Si4 0.682850 0.886588 0.427366
Si Si5 0.193814 0.387452 0.465842
Si Si6 0.717903 0.699307 0.247885
Si Si7 0.685671 0.110838 0.783078
Si Si8 0.026596 0.239436 0.130632
O O1 0.198658 0.866989 0.514862
O O2 0.195584 0.807502 0.670338
O O3 0.883098 0.875045 0.221832
O O4 0.156750 0.000000 0.588284
O O5 0.726329 0.693694 0.020876
O O6 0.530311 0.843057 0.844176
O O7 0.617237 0.839977 0.787911
O O8 0.309851 0.500000 0.992685
O O9 0.588113 0.623754 0.296707
O O10 0.262948 0.625545 0.809269
O O11 0.789834 0.831346 0.636251
O O12 0.669607 0.000000 0.436240
O O13 0.127972 0.500000 0.386120
O O14 0.169129 0.345071 0.532371
O O15 0.055337 0.332163 0.229658
O O16 0.500000 0.716365 0.000000
O O17 0.500000 0.105119 0.500000
O O18 0.769341 0.000000 0.899737
O O19 0.841978 0.178514 0.930395
O O20 0.000000 0.276781 0.000000
#
# Coordination Sequence:
#
# PCOD8062779 Si02
#       8
#     4   4   4   4   4   4   4   4
#     4  11  23  40  62  91 132 173 209 259 322 390
#     4  12  22  41  65  93 133 170 213 268 323 385
#     4  10  22  40  66  95 125 166 219 276 324 377
#     4  11  21  38  64  94 127 171 216 259 317 382
#     4  10  20  39  66  95 127 169 217 270 332 385
#     4  10  19  40  67  96 129 169 219 271 321 382
#     4  11  24  41  63  94 134 176 217 266 321 380
#     4  12  23  39  64  98 130 168 219 268 319 388
#
# _framework density 21.688682
#
# number of rings (size 3 to 8) (size 9 to 14) (size 15 to 20)
#    0.000    1.125    3.750    3.375    0.000    4.500 
#    0.000    6.250    0.000    0.750    0.000    0.000 
#    0.000    0.000    0.000    0.000    0.000    0.000 
#
# Total GULP energy -396810.932479 kJ/mol
# GULP energy per Si atom -12400.341640 kJ/mol
# Density = 2.163932 g / cm^3
# Si number density = 21.688682 Si / 1000 Ang^3
#
#
#
# Elastic Constant Matrix: (Units=GPa)
#
#
# Indices 1 2 3 4 5 6 
#
# 1 64.0183 46.1622 40.7300 0.0000 4.7175 0.0000
# 2 46.1622 181.5990 49.8609 0.0000 -10.7741 0.0000
# 3 40.7300 49.8609 86.7174 0.0000 -3.0353 0.0000
# 4 0.0000 0.0000 0.0000 26.6068 0.0000 -6.0000
# 5 4.7175 -10.7741 -3.0353 0.0000 29.9884 0.0000
# 6 0.0000 0.0000 0.0000 -6.0000 0.0000 23.5462
#
#
#
# Elastic Compliance Matrix: (Units=1/GPa)
#
#
# Indices 1 2 3 4 5 6 
#
# 1 0.025255 -0.004136 -0.009709 0.000000 -0.006442 0.000000
# 2 -0.004136 0.007335 -0.002168 0.000000 0.003067 0.000000
# 3 -0.009709 -0.002168 0.017426 0.000000 0.002512 0.000000
# 4 0.000000 0.000000 0.000000 0.039876 0.000000 0.010161
# 5 -0.006442 0.003067 0.002512 0.000000 0.035716 0.000000
# 6 0.000000 0.000000 0.000000 0.010161 0.000000 0.045059
#
#
# Mechanical properties :
#
#
# Convention : Reuss Voigt Hill
#
# Bulk Modulus (GPa) = 55.58469 67.31566 61.45018
# Shear Modulus (GPa) = 23.95909 29.06705 26.51307
#
# Velocity S-wave (km/s) = 3.32728 3.66484 3.50013
# Velocity P-wave (km/s) = 6.35965 7.00090 6.68797
#
# Compressibility (1/GPa) = 0.01799056
#
# Stress axis : x y z
#
# Youngs Moduli (GPa) = 39.59632 136.33073 57.38480
#
# Poissons Ratio (x) = 0.56388 0.55716
# Poissons Ratio (y) = 0.16378 0.12438
# Poissons Ratio (z) = 0.38445 0.29550
#
# Static dielectric constant tensor:
#      x y z
#    x 3.864060 0.000000 -0.018460 
#    y 0.000000 4.145320 0.000000 
#    z -0.018460 0.000000 3.897970 
# 
# 
# High freq. dielectric constant tensor:
#      x y z
#    x 1.836690 0.000000 0.006780 
#    y 0.000000 1.862060 0.000000 
#    z 0.006780 0.000000 1.851850 
# 
# From -- ./inp_files/70778.got.cif
#   From: 2010.06.25/outbox.cif.g09.slc.cpg/sg10_36_cif.got.tgz:70778.got - 2010.06.27 22:07:45.
