data_PCOD8062912
_publ_section_title
;
Structure prediction by ZEFSAII (Michael W. Deem and Ramdas Pophale) SiO2 
 PCOD8062912
Probable space group: P 2/M
;
_chemical_formula_sum "Si O2"
_cell_formula_units_Z 32
_cell_length_a 22.678768
_cell_length_b 9.277754
_cell_length_c 17.746390
_cell_angle_alpha 90.000000
_cell_angle_beta 150.122506
_cell_angle_gamma 90.000000
_cell_volume 1860.073090
_symmetry_space_group_name_H-M "P 2/M"
_symmetry_group_IT_number 10
_symmetry_cell_setting 'monoclinic'
loop_
_space_group_symop_operation_xyz
x,y,z
-x,y,-z
-x,-y,-z
x,-y,z
loop_
_atom_site_type_symbol
_atom_site_label
_atom_site_fract_x
_atom_site_fract_y
_atom_site_fract_z
Si Si1 0.874173 0.830567 0.640207
Si Si2 0.368626 0.327703 0.651448
Si Si3 0.727126 0.338981 0.092576
Si Si4 0.748815 0.159201 0.890854
Si Si5 0.527754 0.165799 0.943434
Si Si6 0.429119 0.341925 0.229429
Si Si7 0.967282 0.828309 0.045541
Si Si8 0.093502 0.158950 0.786121
O O1 0.762134 0.730280 0.504391
O O2 0.932499 0.782477 0.783903
O O3 0.963500 0.795256 0.670560
O O4 0.840677 0.000000 0.603737
O O5 0.370346 0.500000 0.665619
O O6 0.425088 0.251913 0.786673
O O7 0.444222 0.284785 0.660422
O O8 0.743371 0.500000 0.143942
O O9 0.856843 0.270272 0.221066
O O10 0.655302 0.239502 0.071295
O O11 0.657378 0.346457 0.937445
O O12 0.626505 0.246086 0.765541
O O13 0.710786 0.000000 0.822903
O O14 0.837362 0.230309 0.926899
O O15 0.819468 0.152320 0.046748
O O16 0.531975 0.000000 0.919881
O O17 0.500000 0.173915 0.000000
O O18 0.444024 0.500000 0.280951
O O19 0.958900 0.000000 0.035181
O O20 0.000000 0.764446 0.000000
O O21 0.087666 0.000000 0.742766
#
# Coordination Sequence:
#
# PCOD8062912 Si02
#       8
#     4   4   4   4   4   4   4   4
#     4   9  17  29  47  70  94 123 157 192 231 273
#     4  10  20  32  47  68  94 123 153 188 231 276
#     4   9  16  26  43  67  92 118 149 186 227 267
#     4   8  13  22  40  64  85 110 146 186 225 263
#     4  10  20  33  50  71  94 121 152 186 226 272
#     4   8  15  26  39  59  86 114 145 183 225 265
#     4   8  14  26  45  69  95 120 149 189 233 273
#     4   8  14  25  41  63  90 117 149 189 228 267
#
# _framework density 17.203624999999999
#
# number of rings (size 3 to 8) (size 9 to 14) (size 15 to 20)
#    0.000    3.250    0.000    3.375    0.000    5.000 
#    0.000    1.875    0.000    3.000    0.000   10.500 
#    0.000    0.000    0.000    0.000    0.000    0.000 
#
# Total GULP energy -396547.685629 kJ/mol
# GULP energy per Si atom -12392.115176 kJ/mol
# Density = 1.716447 g / cm^3
# Si number density = 17.203625 Si / 1000 Ang^3
#
#
#
# Elastic Constant Matrix: (Units=GPa)
#
#
# Indices 1 2 3 4 5 6 
#
# 1 122.7279 66.8003 47.8516 0.0000 26.1978 0.0000
# 2 66.8003 101.9486 40.8982 0.0000 18.0970 0.0000
# 3 47.8516 40.8982 57.0754 0.0000 22.4034 0.0000
# 4 0.0000 0.0000 0.0000 19.2650 0.0000 9.5651
# 5 26.1978 18.0970 22.4034 0.0000 27.0355 0.0000
# 6 0.0000 0.0000 0.0000 9.5651 0.0000 16.7151
#
#
#
# Elastic Compliance Matrix: (Units=1/GPa)
#
#
# Indices 1 2 3 4 5 6 
#
# 1 0.015213 -0.006656 -0.005850 0.000000 -0.005438 0.000000
# 2 -0.006656 0.016721 -0.006729 0.000000 0.000832 0.000000
# 3 -0.005850 -0.006729 0.034464 0.000000 -0.018386 0.000000
# 4 0.000000 0.000000 0.000000 0.072509 0.000000 -0.041493
# 5 -0.005438 0.000832 -0.018386 0.000000 0.056937 0.000000
# 6 0.000000 0.000000 0.000000 -0.041493 0.000000 0.083570
#
#
# Mechanical properties :
#
#
# Convention : Reuss Voigt Hill
#
# Bulk Modulus (GPa) = 35.80531 65.87246 50.83888
# Shear Modulus (GPa) = 15.28150 21.01657 18.14904
#
# Velocity S-wave (km/s) = 2.98362 3.49898 3.25153
# Velocity P-wave (km/s) = 5.72077 7.39573 6.61151
#
# Compressibility (1/GPa) = 0.02792882
#
# Stress axis : x y z
#
# Youngs Moduli (GPa) = 65.73499 59.80378 29.01573
#
# Poissons Ratio (x) = 0.39802 0.16976
# Poissons Ratio (y) = 0.43750 0.19524
# Poissons Ratio (z) = 0.38458 0.40240
#
# Static dielectric constant tensor:
#      x y z
#    x 3.478560 0.000000 0.308030 
#    y 0.000000 3.356860 0.000000 
#    z 0.308030 0.000000 2.802180 
# 
# 
# High freq. dielectric constant tensor:
#      x y z
#    x 1.668580 0.000000 0.031310 
#    y 0.000000 1.657780 0.000000 
#    z 0.031310 0.000000 1.613210 
# 
# From -- ./inp_files/79974.got.cif
#   From: 2010.06.25/outbox.cif.g09.slc.cpg/sg10_40_cif.got.tgz:79974.got - 2010.06.27 22:07:45.
