data_PCOD8062615
_publ_section_title
;
Structure prediction by ZEFSAII (Michael W. Deem and Ramdas Pophale) SiO2 
 PCOD8062615
Probable space group: P 2/M
;
_chemical_formula_sum "Si O2"
_cell_formula_units_Z 32
_cell_length_a 30.337733
_cell_length_b 8.556656
_cell_length_c 12.987434
_cell_angle_alpha 90.000000
_cell_angle_beta 152.352212
_cell_angle_gamma 90.000000
_cell_volume 1564.448630
_symmetry_space_group_name_H-M "P 2/M"
_symmetry_group_IT_number 10
_symmetry_cell_setting 'monoclinic'
loop_
_space_group_symop_operation_xyz
x,y,z
-x,y,-z
-x,-y,-z
x,-y,z
loop_
_atom_site_type_symbol
_atom_site_label
_atom_site_fract_x
_atom_site_fract_y
_atom_site_fract_z
Si Si1 0.605023 0.320056 0.988056
Si Si2 0.798635 0.179757 0.101628
Si Si3 0.554202 0.182936 0.216820
Si Si4 0.790099 0.182217 0.455429
Si Si5 0.112043 0.816158 0.923811
Si Si6 0.404580 0.178861 0.247514
Si Si7 0.767439 0.185600 0.637376
Si Si8 0.906344 0.319060 0.513545
O O1 0.626798 0.500000 0.056913
O O2 0.679583 0.213119 0.203871
O O3 0.498854 0.273247 0.801379
O O4 0.616076 0.291134 0.890240
O O5 0.842086 0.250700 0.086457
O O6 0.835930 0.277306 0.275458
O O7 0.830112 0.000000 0.182288
O O8 0.684432 0.193672 0.858856
O O9 0.660794 0.250573 0.431038
O O10 0.553540 0.000000 0.240599
O O11 0.500000 0.221906 0.000000
O O12 0.810114 0.234408 0.614628
O O13 0.857467 0.282051 0.521111
O O14 0.811669 0.000000 0.482278
O O15 0.001818 0.778621 0.699685
O O16 0.127144 0.000000 0.956310
O O17 0.165739 0.744150 0.134462
O O18 0.500000 0.237003 0.500000
O O19 0.416077 0.000000 0.233057
O O20 0.762804 0.000000 0.632216
O O21 0.932188 0.500000 0.562683
#
# Coordination Sequence:
#
# PCOD8062615 Si02
#       8
#     4   4   4   4   4   4   4   4
#     4  12  24  37  56  89 127 165 201 245 305 366
#     4  10  21  39  65  93 121 157 202 250 300 359
#     4  10  19  36  62  88 117 158 206 249 288 346
#     4  11  21  40  66  91 119 158 208 256 301 357
#     4  10  22  41  64  91 121 155 202 257 309 361
#     4  10  22  39  63  93 122 160 204 247 298 357
#     4   9  20  38  64  94 120 154 204 257 303 353
#     4  12  25  41  62  90 121 159 203 251 311 370
#
# _framework density 20.454491000000001
#
# number of rings (size 3 to 8) (size 9 to 14) (size 15 to 20)
#    0.000    1.500    2.500    3.000    1.750    3.000 
#    0.000    4.375    0.000    0.000    0.000    0.000 
#    0.000    0.000    0.000    0.000    0.000    0.000 
#
# Total GULP energy -396922.383443 kJ/mol
# GULP energy per Si atom -12403.824483 kJ/mol
# Density = 2.040794 g / cm^3
# Si number density = 20.454491 Si / 1000 Ang^3
#
#
#
# Elastic Constant Matrix: (Units=GPa)
#
#
# Indices 1 2 3 4 5 6 
#
# 1 148.0656 14.4865 51.5953 0.0000 -1.6834 0.0000
# 2 14.4865 32.1606 5.7412 0.0000 -7.8158 0.0000
# 3 51.5953 5.7412 108.7196 0.0000 3.8457 0.0000
# 4 0.0000 0.0000 0.0000 2.4729 0.0000 0.8258
# 5 -1.6834 -7.8158 3.8457 0.0000 34.0071 0.0000
# 6 0.0000 0.0000 0.0000 0.8258 0.0000 12.8751
#
#
#
# Elastic Compliance Matrix: (Units=1/GPa)
#
#
# Indices 1 2 3 4 5 6 
#
# 1 0.008387 -0.003060 -0.003824 0.000000 0.000144 0.000000
# 2 -0.003060 0.034496 -0.000647 0.000000 0.007850 0.000000
# 3 -0.003824 -0.000647 0.011103 0.000000 -0.001594 0.000000
# 4 0.000000 0.000000 0.000000 0.413242 0.000000 -0.026506
# 5 0.000144 0.007850 -0.001594 0.000000 0.031397 0.000000
# 6 0.000000 0.000000 0.000000 -0.026506 0.000000 0.079370
#
#
# Mechanical properties :
#
#
# Convention : Reuss Voigt Hill
#
# Bulk Modulus (GPa) = 25.69120 48.06577 36.87849
# Shear Modulus (GPa) = 8.25039 24.34585 16.29812
#
# Velocity S-wave (km/s) = 2.01055 3.45374 2.82583
# Velocity P-wave (km/s) = 4.23995 6.28126 5.35871
#
# Compressibility (1/GPa) = 0.03892383
#
# Stress axis : x y z
#
# Youngs Moduli (GPa) = 119.22801 28.98921 90.06402
#
# Poissons Ratio (x) = 0.08872 0.34439
# Poissons Ratio (y) = 0.36487 0.05827
# Poissons Ratio (z) = 0.45591 0.01875
#
# Static dielectric constant tensor:
#      x y z
#    x 3.877510 0.000000 -0.044690 
#    y 0.000000 3.374250 0.000000 
#    z -0.044690 0.000000 3.770510 
# 
# 
# High freq. dielectric constant tensor:
#      x y z
#    x 1.815260 0.000000 0.003730 
#    y 0.000000 1.770260 0.000000 
#    z 0.003730 0.000000 1.797680 
# 
# From -- ./inp_files/58283.got.cif
#   From: 2010.06.25/outbox.cif.g09.slc.cpg/sg10_30_cif.got.tgz:58283.got - 2010.06.27 22:07:45.
