data_PCOD8062231
_publ_section_title
;
Structure prediction by ZEFSAII (Michael W. Deem and Ramdas Pophale) SiO2 
 PCOD8062231
Probable space group: P 2/M
;
_chemical_formula_sum "Si O2"
_cell_formula_units_Z 32
_cell_length_a 20.574779
_cell_length_b 9.249643
_cell_length_c 26.062965
_cell_angle_alpha 90.000000
_cell_angle_beta 159.118713
_cell_angle_gamma 90.000000
_cell_volume 1767.916354
_symmetry_space_group_name_H-M "P 2/M"
_symmetry_group_IT_number 10
_symmetry_cell_setting 'monoclinic'
loop_
_space_group_symop_operation_xyz
x,y,z
-x,y,-z
-x,-y,-z
x,-y,z
loop_
_atom_site_type_symbol
_atom_site_label
_atom_site_fract_x
_atom_site_fract_y
_atom_site_fract_z
Si Si1 0.543979 0.828420 0.362054
Si Si2 0.189278 0.171548 0.161141
Si Si3 0.246288 0.333047 0.954335
Si Si4 0.170762 0.329691 0.358497
Si Si5 0.206733 0.169446 0.656217
Si Si6 0.463633 0.331544 0.916240
Si Si7 0.284935 0.162224 0.344305
Si Si8 0.495463 0.168993 0.784544
O O1 0.359959 0.771284 0.253760
O O2 0.717436 0.751274 0.514973
O O3 0.537193 0.781575 0.297755
O O4 0.567650 0.000000 0.386374
O O5 0.207112 0.221004 0.233096
O O6 0.187867 0.000000 0.156429
O O7 0.000000 0.236674 0.000000
O O8 0.262373 0.500000 0.981173
O O9 0.040290 0.289356 0.789646
O O10 0.359408 0.295098 0.986926
O O11 0.324205 0.245526 0.060355
O O12 0.207156 0.500000 0.389318
O O13 0.227160 0.275772 0.344200
O O14 0.289409 0.247983 0.766402
O O15 0.317037 0.212325 0.686014
O O16 0.000000 0.223810 0.500000
O O17 0.216865 0.000000 0.673816
O O18 0.416213 0.500000 0.880994
O O19 0.500000 0.274173 0.000000
O O20 0.500000 0.155176 0.500000
O O21 0.210750 0.000000 0.301785
O O22 0.534883 0.000000 0.816358
#
# Coordination Sequence:
#
# PCOD8062231 Si02
#       8
#     4   4   4   4   4   4   4   4
#     4  10  20  36  54  76 104 132 172 218 256 301
#     4   9  18  32  52  77 100 125 162 212 261 297
#     4   9  20  37  53  74 107 141 172 212 263 311
#     4  11  23  36  52  76 108 142 172 207 261 318
#     4   9  18  33  51  76 110 140 167 207 264 316
#     4   9  18  34  55  77 102 135 179 223 254 295
#     4  10  19  35  57  77 100 132 172 216 259 300
#     4   9  19  34  55  79 102 135 177 217 255 306
#
# _framework density 18.100404000000001
#
# number of rings (size 3 to 8) (size 9 to 14) (size 15 to 20)
#    0.000    2.500    1.250    0.375    1.750    3.250 
#    0.000    0.000    0.000    0.750    0.000    0.000 
#    0.000    0.000    0.000    0.000    0.000    0.000 
#
# Total GULP energy -396843.858256 kJ/mol
# GULP energy per Si atom -12401.370570 kJ/mol
# Density = 1.805921 g / cm^3
# Si number density = 18.100404 Si / 1000 Ang^3
#
#
#
# Elastic Constant Matrix: (Units=GPa)
#
#
# Indices 1 2 3 4 5 6 
#
# 1 121.3065 42.7032 81.3168 0.0000 -25.8167 0.0000
# 2 42.7032 44.5110 53.1728 0.0000 -6.2518 0.0000
# 3 81.3168 53.1728 169.9692 0.0000 -14.8769 0.0000
# 4 0.0000 0.0000 0.0000 28.7196 0.0000 -0.3701
# 5 -25.8167 -6.2518 -14.8769 0.0000 33.3188 0.0000
# 6 0.0000 0.0000 0.0000 -0.3701 0.0000 24.6829
#
#
#
# Elastic Compliance Matrix: (Units=1/GPa)
#
#
# Indices 1 2 3 4 5 6 
#
# 1 0.016159 -0.009493 -0.003976 0.000000 0.008964 0.000000
# 2 -0.009493 0.041553 -0.008761 0.000000 -0.003471 0.000000
# 3 -0.003976 -0.008761 0.010524 0.000000 -0.000026 0.000000
# 4 0.000000 0.000000 0.000000 0.034826 0.000000 0.000522
# 5 0.008964 -0.003471 -0.000026 0.000000 0.036296 0.000000
# 6 0.000000 0.000000 0.000000 0.000522 0.000000 0.040522
#
#
# Mechanical properties :
#
#
# Convention : Reuss Voigt Hill
#
# Bulk Modulus (GPa) = 42.06258 76.68581 59.37419
# Shear Modulus (GPa) = 21.52706 27.91718 24.72212
#
# Velocity S-wave (km/s) = 3.45238 3.93154 3.69973
# Velocity P-wave (km/s) = 6.25946 7.94155 7.15014
#
# Compressibility (1/GPa) = 0.02377410
#
# Stress axis : x y z
#
# Youngs Moduli (GPa) = 61.88674 24.06571 95.01830
#
# Poissons Ratio (x) = 0.22847 0.37780
# Poissons Ratio (y) = 0.58752 0.83248
# Poissons Ratio (z) = 0.24607 0.21085
#
# Static dielectric constant tensor:
#      x y z
#    x 3.386320 0.000000 -0.046360 
#    y 0.000000 3.169020 0.000000 
#    z -0.046360 0.000000 3.524030 
# 
# 
# High freq. dielectric constant tensor:
#      x y z
#    x 1.705500 0.000000 -0.003340 
#    y 0.000000 1.681100 0.000000 
#    z -0.003340 0.000000 1.709670 
# 
# From -- ./inp_files/93805.got.cif
#   From: 2010.06.25/outbox.cif.g09.slc.cpg/sg10_47_cif.got.tgz:93805.got - 2010.06.27 22:07:45.
