data_PCOD8062048
_publ_section_title
;
Structure prediction by ZEFSAII (Michael W. Deem and Ramdas Pophale) SiO2 
 PCOD8062048
Probable space group: P 2/M
;
_chemical_formula_sum "Si O2"
_cell_formula_units_Z 28
_cell_length_a 15.947768
_cell_length_b 9.059057
_cell_length_c 20.124742
_cell_angle_alpha 90.000000
_cell_angle_beta 150.071506
_cell_angle_gamma 90.000000
_cell_volume 1450.584693
_symmetry_space_group_name_H-M "P 2/M"
_symmetry_group_IT_number 10
_symmetry_cell_setting 'monoclinic'
loop_
_space_group_symop_operation_xyz
x,y,z
-x,y,-z
-x,-y,-z
x,-y,z
loop_
_atom_site_type_symbol
_atom_site_label
_atom_site_fract_x
_atom_site_fract_y
_atom_site_fract_z
Si Si1 0.109451 0.674898 0.637431
Si Si2 0.362594 0.674633 0.354869
Si Si3 0.451089 0.829146 0.893709
Si Si4 0.516488 0.675009 0.322940
Si Si5 0.891592 0.324947 0.610048
Si Si6 0.981059 0.675407 0.817625
Si Si7 0.323294 0.171535 0.074511
O O1 0.126339 0.500000 0.649593
O O2 0.293478 0.741363 0.756891
O O3 0.000000 0.728799 0.500000
O O4 0.020458 0.734275 0.643160
O O5 0.500000 0.743304 0.500000
O O6 0.372384 0.500000 0.368435
O O7 0.402154 0.723044 0.306952
O O8 0.176409 0.728517 0.246166
O O9 0.400800 0.000000 0.863298
O O10 0.500000 0.767831 0.000000
O O11 0.608014 0.802495 0.952720
O O12 0.510129 0.500000 0.306474
O O13 0.704905 0.731789 0.465978
O O14 0.453532 0.757309 0.214764
O O15 0.887460 0.500000 0.608138
O O16 0.951716 0.266167 0.722682
O O17 0.004611 0.500000 0.836060
O O18 0.144670 0.750522 0.960420
O O19 0.303631 0.000000 0.077325
#
# Coordination Sequence:
#
# PCOD8062048 Si02
#       7
#     4   4   4   4   4   4   4
#     4  10  20  33  52  82 114 139 172 221 276 330
#     4   9  16  31  58  89 112 135 176 227 269 312
#     4  10  22  40  58  75 102 145 191 229 267 317
#     4  10  19  35  60  84 111 145 179 220 271 323
#     4   9  17  31  55  84 109 137 176 225 274 320
#     4  10  19  34  58  84 108 138 182 226 267 318
#     4  11  24  39  53  77 113 147 182 224 271 322
#
# _framework density 19.30256
#
# number of rings (size 3 to 8) (size 9 to 14) (size 15 to 20)
#    0.000    2.143    1.429    2.143    0.000    3.429 
#    0.000    5.000    0.000    0.857    0.000    0.000 
#    0.000    0.000    0.000    0.000    0.000    0.000 
#
# Total GULP energy -347268.525307 kJ/mol
# GULP energy per Si atom -12402.447332 kJ/mol
# Density = 1.925863 g / cm^3
# Si number density = 19.302560 Si / 1000 Ang^3
#
#
#
# Elastic Constant Matrix: (Units=GPa)
#
#
# Indices 1 2 3 4 5 6 
#
# 1 78.7780 17.6078 11.1989 0.0000 6.2810 0.0000
# 2 17.6078 36.7412 27.0115 0.0000 0.5752 0.0000
# 3 11.1989 27.0115 103.5791 0.0000 6.1325 0.0000
# 4 0.0000 0.0000 0.0000 -10.2707 0.0000 -16.9249
# 5 6.2810 0.5752 6.1325 0.0000 38.0584 0.0000
# 6 0.0000 0.0000 0.0000 -16.9249 0.0000 3.8992
#
#
#
# Elastic Compliance Matrix: (Units=1/GPa)
#
#
# Indices 1 2 3 4 5 6 
#
# 1 0.014428 -0.007217 0.000461 0.000000 -0.002346 0.000000
# 2 -0.007217 0.037315 -0.009074 0.000000 0.002089 0.000000
# 3 0.000461 -0.009074 0.012083 0.000000 -0.001886 0.000000
# 4 0.000000 0.000000 0.000000 -0.011942 0.000000 -0.051838
# 5 -0.002346 0.002089 -0.001886 0.000000 0.026935 0.000000
# 6 0.000000 0.000000 0.000000 -0.051838 0.000000 0.031457
#
#
# Mechanical properties :
#
#
# Convention : Reuss Voigt Hill
#
# Bulk Modulus (GPa) = 31.08941 36.74830 33.91886
# Shear Modulus (GPa) = 32.75301 17.22272 24.98786
#
# Velocity S-wave (km/s) = 4.12372 2.99030 3.60187
# Velocity P-wave (km/s) = 6.23015 5.56793 5.90833
#
# Compressibility (1/GPa) = 0.03216529
#
# Stress axis : x y z
#
# Youngs Moduli (GPa) = 69.30735 26.79918 82.76298
#
# Poissons Ratio (x) = 0.19340 -0.03815
# Poissons Ratio (y) = 0.50018 0.75102
# Poissons Ratio (z) = -0.03195 0.24319
#
# Static dielectric constant tensor:
#      x y z
#    x 3.815130 0.000000 0.023820 
#    y 0.000000 3.088550 0.000000 
#    z 0.023820 0.000000 3.517400 
# 
# 
# High freq. dielectric constant tensor:
#      x y z
#    x 1.766950 0.000000 0.002430 
#    y 0.000000 1.707850 0.000000 
#    z 0.002430 0.000000 1.760680 
# 
# From -- ./inp_files/85002.got.cif
#   From: 2010.06.25/outbox.cif.g09.slc.cpg/sg10_43_cif.got.tgz:85002.got - 2010.06.27 22:07:45.
