data_PCOD8062375
_publ_section_title
;
Structure prediction by ZEFSAII (Michael W. Deem and Ramdas Pophale) SiO2 
 PCOD8062375
Probable space group: P 2/M
;
_chemical_formula_sum "Si O2"
_cell_formula_units_Z 24
_cell_length_a 17.330981
_cell_length_b 8.630431
_cell_length_c 24.780191
_cell_angle_alpha 90.000000
_cell_angle_beta 160.407926
_cell_angle_gamma 90.000000
_cell_volume 1242.857545
_symmetry_space_group_name_H-M "P 2/M"
_symmetry_group_IT_number 10
_symmetry_cell_setting 'monoclinic'
loop_
_space_group_symop_operation_xyz
x,y,z
-x,y,-z
-x,-y,-z
x,-y,z
loop_
_atom_site_type_symbol
_atom_site_label
_atom_site_fract_x
_atom_site_fract_y
_atom_site_fract_z
Si Si1 0.323958 0.319762 0.530392
Si Si2 0.938691 0.680518 0.537523
Si Si3 0.345264 0.182645 0.744766
Si Si4 0.786959 0.316055 0.892845
Si Si5 0.269525 0.819412 0.379343
Si Si6 0.812481 0.317393 0.030783
O O1 0.339908 0.500000 0.524065
O O2 0.116802 0.291118 0.436116
O O3 0.555544 0.261095 0.711561
O O4 0.288940 0.214710 0.455329
O O5 0.938718 0.500000 0.523649
O O6 0.742389 0.755679 0.370707
O O7 0.187430 0.752278 0.689118
O O8 0.328977 0.000000 0.734593
O O9 0.605780 0.237307 0.927706
O O10 0.799311 0.500000 0.903075
O O11 0.801267 0.250721 0.962732
O O12 0.000000 0.246142 0.000000
O O13 0.500000 0.765740 0.500000
O O14 0.057777 0.722179 0.217240
O O15 0.223136 0.000000 0.339568
O O16 0.774865 0.500000 0.008197
#
# Coordination Sequence:
#
# PCOD8062375 Si02
#       6
#     4   4   4   4   4   4
#     4  10  20  37  60  87 115 151 199 246 291 342
#     4  10  19  35  59  87 119 153 198 245 289 344
#     4  11  21  34  56  88 124 156 190 235 298 359
#     4   9  17  31  55  86 113 139 186 247 294 335
#     4  11  25  42  58  83 122 162 196 237 295 357
#     4  11  21  38  62  86 115 154 199 247 291 342
#
# _framework density 19.310338000000002
#
# number of rings (size 3 to 8) (size 9 to 14) (size 15 to 20)
#    0.000    1.667    1.667    5.000    0.000    4.000 
#    0.000    0.833    0.000    8.500    0.000    0.000 
#    0.000    0.000    0.000    0.000    0.000    0.000 
#
# Total GULP energy -297674.113432 kJ/mol
# GULP energy per Si atom -12403.088060 kJ/mol
# Density = 1.926639 g / cm^3
# Si number density = 19.310338 Si / 1000 Ang^3
#
#
#
# Elastic Constant Matrix: (Units=GPa)
#
#
# Indices 1 2 3 4 5 6 
#
# 1 123.0357 37.4222 59.1489 0.0000 11.2779 0.0000
# 2 37.4222 100.5925 35.6519 0.0000 9.7831 0.0000
# 3 59.1489 35.6519 125.5759 0.0000 15.1063 0.0000
# 4 0.0000 0.0000 0.0000 26.8597 0.0000 1.3388
# 5 11.2779 9.7831 15.1063 0.0000 37.5324 0.0000
# 6 0.0000 0.0000 0.0000 1.3388 0.0000 20.8675
#
#
#
# Elastic Compliance Matrix: (Units=1/GPa)
#
#
# Indices 1 2 3 4 5 6 
#
# 1 0.011083 -0.002472 -0.004409 0.000000 -0.000911 0.000000
# 2 -0.002472 0.011709 -0.001978 0.000000 -0.001513 0.000000
# 3 -0.004409 -0.001978 0.010908 0.000000 -0.002550 0.000000
# 4 0.000000 0.000000 0.000000 0.037350 0.000000 -0.002396
# 5 -0.000911 -0.001513 -0.002550 0.000000 0.028338 0.000000
# 6 0.000000 0.000000 0.000000 -0.002396 0.000000 0.048075
#
#
# Mechanical properties :
#
#
# Convention : Reuss Voigt Hill
#
# Bulk Modulus (GPa) = 62.56738 68.18335 65.37536
# Shear Modulus (GPa) = 29.32426 31.51733 30.42080
#
# Velocity S-wave (km/s) = 3.90112 4.04437 3.97339
# Velocity P-wave (km/s) = 7.26381 7.56275 7.41479
#
# Compressibility (1/GPa) = 0.01598277
#
# Stress axis : x y z
#
# Youngs Moduli (GPa) = 90.23200 85.40580 91.67375
#
# Poissons Ratio (x) = 0.21110 0.40417
# Poissons Ratio (y) = 0.22303 0.18133
# Poissons Ratio (z) = 0.39781 0.16893
#
# Static dielectric constant tensor:
#      x y z
#    x 3.682490 0.000000 0.225120 
#    y 0.000000 3.344790 0.000000 
#    z 0.225120 0.000000 3.570140 
# 
# 
# High freq. dielectric constant tensor:
#      x y z
#    x 1.754330 0.000000 0.019240 
#    y 0.000000 1.742600 0.000000 
#    z 0.019240 0.000000 1.749810 
# 
# From -- ./inp_files/93385.got.cif
#   From: 2010.06.25/outbox.cif.g09.slc.cpg/sg10_47_cif.got.tgz:93385.got - 2010.06.27 22:07:45.
