data_PCOD8062022
_publ_section_title
;
Structure prediction by ZEFSAII (Michael W. Deem and Ramdas Pophale) SiO2 
 PCOD8062022
Probable space group: P 2/M
;
_chemical_formula_sum "Si O2"
_cell_formula_units_Z 24
_cell_length_a 18.147796
_cell_length_b 10.396797
_cell_length_c 11.948426
_cell_angle_alpha 90.000000
_cell_angle_beta 32.415885
_cell_angle_gamma 90.000000
_cell_volume 1208.504440
_symmetry_space_group_name_H-M "P 2/M"
_symmetry_group_IT_number 10
_symmetry_cell_setting 'monoclinic'
loop_
_space_group_symop_operation_xyz
x,y,z
-x,y,-z
-x,-y,-z
x,-y,z
loop_
_atom_site_type_symbol
_atom_site_label
_atom_site_fract_x
_atom_site_fract_y
_atom_site_fract_z
Si Si1 0.864714 0.857599 0.418024
Si Si2 0.175737 0.859672 0.042302
Si Si3 0.691836 0.648367 0.508047
Si Si4 0.660817 0.353838 0.293376
Si Si5 0.435242 0.352345 0.972333
Si Si6 0.151814 0.775458 0.314365
O O1 0.786912 0.743373 0.455983
O O2 0.837327 0.856192 0.585853
O O3 0.024668 0.835535 0.186163
O O4 0.818667 0.000000 0.434531
O O5 0.169797 0.867225 0.184488
O O6 0.230348 0.000000 0.931922
O O7 0.272413 0.745127 0.877925
O O8 0.726150 0.500000 0.496789
O O9 0.719047 0.671410 0.342673
O O10 0.532208 0.680045 0.741424
O O11 0.500000 0.329948 0.500000
O O12 0.694172 0.500000 0.211959
O O13 0.438655 0.500000 0.994948
O O14 0.500000 0.281776 0.000000
O O15 0.277037 0.323599 0.150535
O O16 0.000000 0.707452 0.500000
#
# Coordination Sequence:
#
# PCOD8062022 Si02
#       6
#     4   4   4   4   4   4
#     4  10  21  38  59  86 119 154 192 239 297 353
#     4  10  22  39  60  85 117 156 197 243 292 344
#     4  10  21  38  60  85 117 153 191 240 296 350
#     4  10  22  41  62  83 113 154 197 241 292 351
#     4  10  19  34  57  85 119 154 190 239 296 349
#     4  10  20  36  59  86 118 157 198 241 292 351
#
# _framework density 19.859256999999999
#
# number of rings (size 3 to 8) (size 9 to 14) (size 15 to 20)
#    0.000    2.000    1.667    1.500    0.000    6.667 
#    0.000   10.833    0.000    0.000    0.000    0.000 
#    0.000    0.000    0.000    0.000    0.000    0.000 
#
# Total GULP energy -297415.768908 kJ/mol
# GULP energy per Si atom -12392.323705 kJ/mol
# Density = 1.981406 g / cm^3
# Si number density = 19.859257 Si / 1000 Ang^3
#
#
#
# Elastic Constant Matrix: (Units=GPa)
#
#
# Indices 1 2 3 4 5 6 
#
# 1 93.2978 57.1850 38.5672 0.0000 -10.4202 0.0000
# 2 57.1850 102.3553 61.4166 0.0000 9.1672 0.0000
# 3 38.5672 61.4166 87.2687 0.0000 -2.1623 0.0000
# 4 0.0000 0.0000 0.0000 24.5233 0.0000 1.8219
# 5 -10.4202 9.1672 -2.1623 0.0000 24.4878 0.0000
# 6 0.0000 0.0000 0.0000 1.8219 0.0000 12.0487
#
#
#
# Elastic Compliance Matrix: (Units=1/GPa)
#
#
# Indices 1 2 3 4 5 6 
#
# 1 0.019558 -0.012277 0.000317 0.000000 0.012946 0.000000
# 2 -0.012277 0.026070 -0.013322 0.000000 -0.016160 0.000000
# 3 0.000317 -0.013322 0.020867 0.000000 0.006965 0.000000
# 4 0.000000 0.000000 0.000000 0.041241 0.000000 -0.006236
# 5 0.012946 -0.016160 0.006965 0.000000 0.053010 0.000000
# 6 0.000000 0.000000 0.000000 -0.006236 0.000000 0.083939
#
#
# Mechanical properties :
#
#
# Convention : Reuss Voigt Hill
#
# Bulk Modulus (GPa) = 62.76745 66.36217 64.56481
# Shear Modulus (GPa) = 16.63576 20.59548 18.61562
#
# Velocity S-wave (km/s) = 2.89742 3.22385 3.06498
# Velocity P-wave (km/s) = 6.54737 6.88087 6.71619
#
# Compressibility (1/GPa) = 0.01593182
#
# Stress axis : x y z
#
# Youngs Moduli (GPa) = 51.13023 38.35883 47.92367
#
# Poissons Ratio (x) = 0.47092 -0.01521
# Poissons Ratio (y) = 0.62771 0.63843
# Poissons Ratio (z) = -0.01623 0.51101
#
# Static dielectric constant tensor:
#      x y z
#    x 3.726990 0.000000 -0.024390 
#    y 0.000000 3.413010 0.000000 
#    z -0.024390 0.000000 3.731570 
# 
# 
# High freq. dielectric constant tensor:
#      x y z
#    x 1.778860 0.000000 0.001490 
#    y 0.000000 1.758650 0.000000 
#    z 0.001490 0.000000 1.775150 
# 
# From -- ./inp_files/53587.got.cif
#   From: 2010.06.25/outbox.cif.g09.slc.cpg/sg10_27_cif.got.tgz:53587.got - 2010.06.27 22:07:45.
