data_PCOD8062249
_publ_section_title
;
Structure prediction by ZEFSAII (Michael W. Deem and Ramdas Pophale) SiO2 
 PCOD8062249
Probable space group: P 2/M
;
_chemical_formula_sum "Si O2"
_cell_formula_units_Z 28
_cell_length_a 11.849424
_cell_length_b 8.825222
_cell_length_c 15.482509
_cell_angle_alpha 90.000000
_cell_angle_beta 63.342723
_cell_angle_gamma 90.000000
_cell_volume 1446.968177
_symmetry_space_group_name_H-M "P 2/M"
_symmetry_group_IT_number 10
_symmetry_cell_setting 'monoclinic'
loop_
_space_group_symop_operation_xyz
x,y,z
-x,y,-z
-x,-y,-z
x,-y,z
loop_
_atom_site_type_symbol
_atom_site_label
_atom_site_fract_x
_atom_site_fract_y
_atom_site_fract_z
Si Si1 0.790725 0.175389 0.834488
Si Si2 0.520708 0.819366 0.621343
Si Si3 0.686896 0.320626 0.421104
Si Si4 0.876939 0.823946 0.092922
Si Si5 0.552902 0.175445 0.806846
Si Si6 0.074093 0.824251 0.725491
Si Si7 0.317044 0.677675 0.958661
O O1 0.695769 0.207222 0.788303
O O2 0.930041 0.224431 0.755179
O O3 0.792875 0.000000 0.861391
O O4 0.751450 0.266338 0.932187
O O5 0.386685 0.757857 0.633305
O O6 0.633724 0.743375 0.529104
O O7 0.538315 0.767846 0.713917
O O8 0.525461 0.000000 0.608776
O O9 0.667769 0.500000 0.423917
O O10 0.834221 0.276994 0.365115
O O11 0.895569 0.787918 0.186100
O O12 0.755959 0.733083 0.101430
O O13 0.852357 0.000000 0.083366
O O14 0.000000 0.766746 0.000000
O O15 0.460211 0.263111 0.903508
O O16 0.517945 0.000000 0.825938
O O17 0.096859 0.000000 0.695860
O O18 0.320332 0.500000 0.959691
#
# Coordination Sequence:
#
# PCOD8062249 Si02
#       7
#     4   4   4   4   4   4   4
#     4  10  21  40  60  79 108 149 195 237 272 321
#     4  10  20  38  62  87 111 140 184 234 279 325
#     4  11  22  36  58  87 117 147 177 220 281 342
#     4  10  19  35  57  80 107 145 188 230 274 321
#     4  10  22  39  61  83 106 144 194 239 277 323
#     4  10  20  36  59  83 110 146 187 231 278 326
#     4  12  24  35  53  83 118 152 185 228 283 338
#
# _framework density 19.350805999999999
#
# number of rings (size 3 to 8) (size 9 to 14) (size 15 to 20)
#    0.000    1.571    1.429    5.143    0.000    8.286 
#    0.000    0.714    0.000    4.286    0.000    0.000 
#    0.000    0.000    0.000    0.000    0.000    0.000 
#
# Total GULP energy -347327.480773 kJ/mol
# GULP energy per Si atom -12404.552885 kJ/mol
# Density = 1.930676 g / cm^3
# Si number density = 19.350806 Si / 1000 Ang^3
#
#
#
# Elastic Constant Matrix: (Units=GPa)
#
#
# Indices 1 2 3 4 5 6 
#
# 1 115.5673 42.5312 46.8092 0.0000 -20.0728 0.0000
# 2 42.5312 89.1024 36.3847 0.0000 -11.1271 0.0000
# 3 46.8092 36.3847 75.2669 0.0000 -22.3390 0.0000
# 4 0.0000 0.0000 0.0000 10.9519 0.0000 -2.9971
# 5 -20.0728 -11.1271 -22.3390 0.0000 33.5073 0.0000
# 6 0.0000 0.0000 0.0000 -2.9971 0.0000 2.1120
#
#
#
# Elastic Compliance Matrix: (Units=1/GPa)
#
#
# Indices 1 2 3 4 5 6 
#
# 1 0.012573 -0.003486 -0.005289 0.000000 0.002848 0.000000
# 2 -0.003486 0.014951 -0.005243 0.000000 -0.000619 0.000000
# 3 -0.005289 -0.005243 0.022007 0.000000 0.009763 0.000000
# 4 0.000000 0.000000 0.000000 0.149282 0.000000 0.211845
# 5 0.002848 -0.000619 0.009763 0.000000 0.037854 0.000000
# 6 0.000000 0.000000 0.000000 0.211845 0.000000 0.774115
#
#
# Mechanical properties :
#
#
# Convention : Reuss Voigt Hill
#
# Bulk Modulus (GPa) = 46.52171 59.04296 52.78233
# Shear Modulus (GPa) = 4.78020 19.59501 12.18761
#
# Velocity S-wave (km/s) = 1.57342 3.18562 2.51235
# Velocity P-wave (km/s) = 5.23395 6.64146 5.97927
#
# Compressibility (1/GPa) = 0.02149534
#
# Stress axis : x y z
#
# Youngs Moduli (GPa) = 79.53754 66.88649 45.43989
#
# Poissons Ratio (x) = 0.23317 0.24031
# Poissons Ratio (y) = 0.27727 0.23824
# Poissons Ratio (z) = 0.42064 0.35069
#
# Static dielectric constant tensor:
#      x y z
#    x 3.720600 0.000000 -0.114900 
#    y 0.000000 3.411900 0.000000 
#    z -0.114900 0.000000 3.516540 
# 
# 
# High freq. dielectric constant tensor:
#      x y z
#    x 1.756380 0.000000 -0.011490 
#    y 0.000000 1.744150 0.000000 
#    z -0.011490 0.000000 1.750230 
# 
# From -- ./inp_files/50080.got.cif
#   From: 2010.06.25/outbox.cif.g09.slc.cpg/sg10_26_cif.got.tgz:50080.got - 2010.06.27 22:07:45.
