data_PCOD8062095
_publ_section_title
;
Structure prediction by ZEFSAII (Michael W. Deem and Ramdas Pophale) SiO2 
 PCOD8062095
Probable space group: P 2/M
;
_chemical_formula_sum "Si O2"
_cell_formula_units_Z 28
_cell_length_a 7.688305
_cell_length_b 13.999954
_cell_length_c 12.950355
_cell_angle_alpha 90.000000
_cell_angle_beta 116.932989
_cell_angle_gamma 90.000000
_cell_volume 1242.734061
_symmetry_space_group_name_H-M "P 2/M"
_symmetry_group_IT_number 10
_symmetry_cell_setting 'monoclinic'
loop_
_space_group_symop_operation_xyz
x,y,z
-x,y,-z
-x,-y,-z
x,-y,z
loop_
_atom_site_type_symbol
_atom_site_label
_atom_site_fract_x
_atom_site_fract_y
_atom_site_fract_z
Si Si1 0.233056 0.730876 0.062019
Si Si2 0.253999 0.275224 0.678538
Si Si3 0.193994 0.288413 0.439240
Si Si4 0.782140 0.393411 0.748878
Si Si5 0.515859 0.890876 0.797022
Si Si6 0.311452 0.897759 0.380333
Si Si7 0.247103 0.392137 0.870386
O O1 0.300089 0.677909 0.185816
O O2 0.344269 0.832997 0.085583
O O3 0.312844 0.667395 0.988605
O O4 0.000000 0.746434 0.000000
O O5 0.328332 0.292011 0.579659
O O6 0.310642 0.166535 0.726614
O O7 0.337206 0.345318 0.790013
O O8 0.032042 0.305935 0.602745
O O9 0.290872 0.362067 0.384494
O O10 0.170484 0.185619 0.377643
O O11 0.706694 0.500000 0.752671
O O12 0.014795 0.390294 0.809215
O O13 0.636276 0.891229 0.724738
O O14 0.474483 0.000000 0.824010
O O15 0.500000 0.887557 0.500000
O O16 0.208674 0.000000 0.373973
O O17 0.326305 0.500000 0.900123
#
# Coordination Sequence:
#
# PCOD8062095 Si02
#       7
#     4   4   4   4   4   4   4
#     4  10  20  37  62  85 110 145 196 244 283 331
#     4  10  22  36  56  85 122 155 185 225 282 341
#     4  10  19  35  58  87 118 152 187 229 275 342
#     4   9  17  32  58  89 114 143 188 238 285 331
#     4  11  23  39  59  84 116 150 188 240 294 335
#     4  10  19  34  59  85 110 148 193 237 283 336
#     4   9  19  37  59  82 112 153 193 229 279 341
#
# _framework density 22.530967
#
# number of rings (size 3 to 8) (size 9 to 14) (size 15 to 20)
#    0.000    2.143    2.857    0.429    0.000    3.714 
#    0.000    7.857    0.000    1.286    0.000    0.000 
#    0.000    0.000    0.000    0.000    0.000    0.000 
#
# Total GULP energy -346881.328995 kJ/mol
# GULP energy per Si atom -12388.618893 kJ/mol
# Density = 2.247969 g / cm^3
# Si number density = 22.530967 Si / 1000 Ang^3
#
#
#
# Elastic Constant Matrix: (Units=GPa)
#
#
# Indices 1 2 3 4 5 6 
#
# 1 30.0702 19.6462 20.3207 0.0000 -11.0180 0.0000
# 2 19.6462 161.2882 70.9200 0.0000 -14.8111 0.0000
# 3 20.3207 70.9200 129.4558 0.0000 -14.2267 0.0000
# 4 0.0000 0.0000 0.0000 26.8532 0.0000 -12.0191
# 5 -11.0180 -14.8111 -14.2267 0.0000 17.5742 0.0000
# 6 0.0000 0.0000 0.0000 -12.0191 0.0000 21.4333
#
#
#
# Elastic Compliance Matrix: (Units=1/GPa)
#
#
# Indices 1 2 3 4 5 6 
#
# 1 0.045708 -0.001786 -0.003526 0.000000 0.024296 0.000000
# 2 -0.001786 0.008448 -0.004048 0.000000 0.002723 0.000000
# 3 -0.003526 -0.004048 0.010843 0.000000 0.003155 0.000000
# 4 0.000000 0.000000 0.000000 0.049718 0.000000 0.027880
# 5 0.024296 0.002723 0.003155 0.000000 0.076983 0.000000
# 6 0.000000 0.000000 0.000000 0.027880 0.000000 0.062291
#
#
# Mechanical properties :
#
#
# Convention : Reuss Voigt Hill
#
# Bulk Modulus (GPa) = 21.60903 60.28755 40.94829
# Shear Modulus (GPa) = 17.35289 27.16729 22.26009
#
# Velocity S-wave (km/s) = 2.77822 3.47620 3.14662
# Velocity P-wave (km/s) = 4.46128 6.55192 5.60494
#
# Compressibility (1/GPa) = 0.04627696
#
# Stress axis : x y z
#
# Youngs Moduli (GPa) = 21.87818 118.37449 92.22785
#
# Poissons Ratio (x) = 0.21140 0.32522
# Poissons Ratio (y) = 0.03907 0.37338
# Poissons Ratio (z) = 0.07715 0.47923
#
# Static dielectric constant tensor:
#      x y z
#    x 3.649750 0.000000 -0.203970 
#    y 0.000000 4.352290 0.000000 
#    z -0.203970 0.000000 4.284580 
# 
# 
# High freq. dielectric constant tensor:
#      x y z
#    x 1.873660 0.000000 -0.007230 
#    y 0.000000 1.881480 0.000000 
#    z -0.007230 0.000000 1.897310 
# 
# From -- ./inp_files/43029.got.cif
#   From: 2010.06.25/outbox.cif.g09.slc.cpg/sg10_22_cif.got.tgz:43029.got - 2010.06.27 22:07:45.
