data_PCOD8062831
_publ_section_title
;
Structure prediction by ZEFSAII (Michael W. Deem and Ramdas Pophale) SiO2 
 PCOD8062831
Probable space group: P 2/M
;
_chemical_formula_sum "Si O2"
_cell_formula_units_Z 28
_cell_length_a 21.905592
_cell_length_b 10.855488
_cell_length_c 18.864482
_cell_angle_alpha 90.000000
_cell_angle_beta 160.308218
_cell_angle_gamma 90.000000
_cell_volume 1511.568601
_symmetry_space_group_name_H-M "P 2/M"
_symmetry_group_IT_number 10
_symmetry_cell_setting 'monoclinic'
loop_
_space_group_symop_operation_xyz
x,y,z
-x,y,-z
-x,-y,-z
x,-y,z
loop_
_atom_site_type_symbol
_atom_site_label
_atom_site_fract_x
_atom_site_fract_y
_atom_site_fract_z
Si Si1 0.902469 0.753560 0.244988
Si Si2 0.099539 0.853961 0.178083
Si Si3 0.410054 0.258144 0.002005
Si Si4 0.142520 0.853605 0.956217
Si Si5 0.509667 0.854080 0.431284
Si Si6 0.431776 0.000000 0.847333
Si Si7 0.017950 0.000000 0.435939
Si Si8 0.252408 0.360907 0.691888
O O1 0.902936 0.771864 0.161570
O O2 0.068458 0.668070 0.449489
O O3 0.711981 0.697027 0.065026
O O4 0.908338 0.883026 0.290581
O O5 0.306991 0.807442 0.406246
O O6 0.002176 0.811159 0.143242
O O7 0.089753 0.000000 0.162398
O O8 0.000000 0.798214 0.000000
O O9 0.580323 0.349736 0.180008
O O10 0.490037 0.121661 0.105053
O O11 0.287263 0.265980 0.795305
O O12 0.131300 0.000000 0.927765
O O13 0.340131 0.812521 0.198991
O O14 0.500000 0.797780 0.500000
O O15 0.509155 0.000000 0.437480
O O16 0.214060 0.000000 0.612465
O O17 0.500000 0.000000 0.000000
O O18 0.000000 0.000000 0.500000
O O19 0.242435 0.500000 0.710291
#
# Coordination Sequence:
#
# PCOD8062831 Si02
#       8
#     4   4   4   4   4   2   2   4
#     4  12  23  37  54  80 114 147 182 233 281 332
#     4   9  15  26  46  66  96 143 184 213 244 300
#     4  11  22  37  59  82 108 143 187 235 280 334
#     4  10  20  31  44  73 112 144 181 218 260 318
#     4   9  15  26  44  66  94 138 186 213 243 302
#     4  12  18  34  56  81 107 137 179 224 278 328
#     4  12  22  36  56  77 109 153 189 222 271 333
#     4  11  24  41  60  80 102 139 194 245 287 332
#
# _framework density 18.523803000000001
#
# number of rings (size 3 to 8) (size 9 to 14) (size 15 to 20)
#    0.000    1.429    5.000    3.429    0.000    2.857 
#    0.000    0.000    0.000    0.000    0.000    0.000 
#    0.000    1.143    0.000    0.143    0.000    0.000 
#
# Total GULP energy -347109.081288 kJ/mol
# GULP energy per Si atom -12396.752903 kJ/mol
# Density = 1.848164 g / cm^3
# Si number density = 18.523803 Si / 1000 Ang^3
#
#
#
# Elastic Constant Matrix: (Units=GPa)
#
#
# Indices 1 2 3 4 5 6 
#
# 1 141.8963 16.0794 63.7412 0.0000 18.6491 0.0000
# 2 16.0794 50.9165 17.3683 0.0000 -2.0135 0.0000
# 3 63.7412 17.3683 105.2441 0.0000 24.8936 0.0000
# 4 0.0000 0.0000 0.0000 9.2250 0.0000 -1.9745
# 5 18.6491 -2.0135 24.8936 0.0000 33.2282 0.0000
# 6 0.0000 0.0000 0.0000 -1.9745 0.0000 4.1789
#
#
#
# Elastic Compliance Matrix: (Units=1/GPa)
#
#
# Indices 1 2 3 4 5 6 
#
# 1 0.009808 -0.001336 -0.005346 0.000000 -0.001581 0.000000
# 2 -0.001336 0.021605 -0.003942 0.000000 0.005012 0.000000
# 3 -0.005346 -0.003942 0.015480 0.000000 -0.008836 0.000000
# 4 0.000000 0.000000 0.000000 0.120597 0.000000 0.056982
# 5 -0.001581 0.005012 -0.008836 0.000000 0.037905 0.000000
# 6 0.000000 0.000000 0.000000 0.056982 0.000000 0.266223
#
#
# Mechanical properties :
#
#
# Convention : Reuss Voigt Hill
#
# Bulk Modulus (GPa) = 38.99383 54.71496 46.85439
# Shear Modulus (GPa) = 9.97181 22.71761 16.34471
#
# Velocity S-wave (km/s) = 2.32270 3.50580 2.97368
# Velocity P-wave (km/s) = 5.31880 6.78154 6.09421
#
# Compressibility (1/GPa) = 0.02564509
#
# Stress axis : x y z
#
# Youngs Moduli (GPa) = 101.95800 46.28620 64.60050
#
# Poissons Ratio (x) = 0.06185 0.34534
# Poissons Ratio (y) = 0.13625 0.25463
# Poissons Ratio (z) = 0.54504 0.18244
#
# Static dielectric constant tensor:
#      x y z
#    x 3.441100 0.000000 0.272780 
#    y 0.000000 3.452000 0.000000 
#    z 0.272780 0.000000 3.642860 
# 
# 
# High freq. dielectric constant tensor:
#      x y z
#    x 1.713920 0.000000 0.024630 
#    y 0.000000 1.655860 0.000000 
#    z 0.024630 0.000000 1.730400 
# 
# From -- ./inp_files/79605.got.cif
#   From: 2010.06.25/outbox.cif.g09.slc.cpg/sg10_40_cif.got.tgz:79605.got - 2010.06.27 22:07:45.
