data_PCOD8062068
_publ_section_title
;
Structure prediction by ZEFSAII (Michael W. Deem and Ramdas Pophale) SiO2 
 PCOD8062068
Probable space group: P 2/M
;
_chemical_formula_sum "Si O2"
_cell_formula_units_Z 28
_cell_length_a 8.019624
_cell_length_b 8.776523
_cell_length_c 28.102050
_cell_angle_alpha 90.000000
_cell_angle_beta 44.721556
_cell_angle_gamma 90.000000
_cell_volume 1391.805817
_symmetry_space_group_name_H-M "P 2/M"
_symmetry_group_IT_number 10
_symmetry_cell_setting 'monoclinic'
loop_
_space_group_symop_operation_xyz
x,y,z
-x,y,-z
-x,-y,-z
x,-y,z
loop_
_atom_site_type_symbol
_atom_site_label
_atom_site_fract_x
_atom_site_fract_y
_atom_site_fract_z
Si Si1 0.561069 0.680111 0.845748
Si Si2 0.615209 0.831855 0.431100
Si Si3 0.826975 0.673976 0.153066
Si Si4 0.595290 0.327142 0.696280
Si Si5 0.321867 0.176472 0.078690
Si Si6 0.908253 0.177133 0.706344
Si Si7 0.763826 0.168642 0.571564
O O1 0.562246 0.500000 0.846728
O O2 0.333415 0.733962 0.859645
O O3 0.561166 0.741294 0.899418
O O4 0.807650 0.735602 0.772598
O O5 0.500000 0.743583 0.500000
O O6 0.417865 0.852879 0.432914
O O7 0.841193 0.749292 0.361304
O O8 0.702659 0.000000 0.430961
O O9 0.900466 0.500000 0.128201
O O10 0.678831 0.686641 0.232388
O O11 0.064286 0.768966 0.113341
O O12 0.682485 0.500000 0.689012
O O13 0.734199 0.201462 0.697834
O O14 0.642632 0.286452 0.632214
O O15 0.301312 0.000000 0.095627
O O16 0.500000 0.209343 0.000000
O O17 0.932437 0.000000 0.714863
O O18 0.000000 0.239401 0.500000
O O19 0.816445 0.000000 0.583301
#
# Coordination Sequence:
#
# PCOD8062068 Si02
#       7
#     4   4   4   4   4   4   4
#     4  10  22  41  64  91 125 162 204 250 303 367
#     4   9  18  32  51  78 109 142 187 239 289 345
#     4   9  21  41  63  89 121 162 205 249 302 364
#     4  10  21  37  56  82 114 149 191 241 297 354
#     4  11  25  42  63  94 128 161 202 253 305 363
#     4  10  19  34  58  85 112 147 192 244 297 349
#     4  10  20  34  54  79 108 148 194 241 296 353
#
# _framework density 20.117749
#
# number of rings (size 3 to 8) (size 9 to 14) (size 15 to 20)
#    0.000    2.143    0.000    3.429    2.000    7.714 
#    0.000    3.571    0.000    3.000    0.000    0.000 
#    0.000    0.000    0.000    0.000    0.000    0.000 
#
# Total GULP energy -346964.765705 kJ/mol
# GULP energy per Si atom -12391.598775 kJ/mol
# Density = 2.007196 g / cm^3
# Si number density = 20.117749 Si / 1000 Ang^3
#
#
#
# Elastic Constant Matrix: (Units=GPa)
#
#
# Indices 1 2 3 4 5 6 
#
# 1 89.3237 35.7886 58.9677 0.0000 2.8733 0.0000
# 2 35.7886 69.3736 51.1896 0.0000 2.6763 0.0000
# 3 58.9677 51.1896 131.2805 0.0000 -1.4500 0.0000
# 4 0.0000 0.0000 0.0000 25.4798 0.0000 5.1701
# 5 2.8733 2.6763 -1.4500 0.0000 35.2395 0.0000
# 6 0.0000 0.0000 0.0000 5.1701 0.0000 26.7918
#
#
#
# Elastic Compliance Matrix: (Units=1/GPa)
#
#
# Indices 1 2 3 4 5 6 
#
# 1 0.016858 -0.004281 -0.005917 0.000000 -0.001293 0.000000
# 2 -0.004281 0.021447 -0.006457 0.000000 -0.001545 0.000000
# 3 -0.005917 -0.006457 0.012810 0.000000 0.001500 0.000000
# 4 0.000000 0.000000 0.000000 0.040846 0.000000 -0.007882
# 5 -0.001293 -0.001545 0.001500 0.000000 0.028662 0.000000
# 6 0.000000 0.000000 0.000000 -0.007882 0.000000 0.038846
#
#
# Mechanical properties :
#
#
# Convention : Reuss Voigt Hill
#
# Bulk Modulus (GPa) = 56.16489 64.65217 60.40853
# Shear Modulus (GPa) = 25.16171 27.10434 26.13303
#
# Velocity S-wave (km/s) = 3.54039 3.67452 3.60808
# Velocity P-wave (km/s) = 6.68515 7.08586 6.88842
#
# Compressibility (1/GPa) = 0.01780472
#
# Stress axis : x y z
#
# Youngs Moduli (GPa) = 59.31764 46.62600 78.06632
#
# Poissons Ratio (x) = 0.19959 0.46196
# Poissons Ratio (y) = 0.25392 0.50409
# Poissons Ratio (z) = 0.35101 0.30107
#
# Static dielectric constant tensor:
#      x y z
#    x 3.585850 0.000000 0.013450 
#    y 0.000000 3.644290 0.000000 
#    z 0.013450 0.000000 3.654940 
# 
# 
# High freq. dielectric constant tensor:
#      x y z
#    x 1.782400 0.000000 0.000490 
#    y 0.000000 1.765700 0.000000 
#    z 0.000490 0.000000 1.797230 
# 
# From -- ./inp_files/94487.got.cif
#   From: 2010.06.25/outbox.cif.g09.slc.cpg/sg10_48_cif.got.tgz:94487.got - 2010.06.27 22:07:45.
