data_PCOD8062043
_publ_section_title
;
Structure prediction by ZEFSAII (Michael W. Deem and Ramdas Pophale) SiO2 
 PCOD8062043
Probable space group: P 2/M
;
_chemical_formula_sum "Si O2"
_cell_formula_units_Z 32
_cell_length_a 21.590359
_cell_length_b 9.151159
_cell_length_c 26.085264
_cell_angle_alpha 90.000000
_cell_angle_beta 161.773238
_cell_angle_gamma 90.000000
_cell_volume 1612.011871
_symmetry_space_group_name_H-M "P 2/M"
_symmetry_group_IT_number 10
_symmetry_cell_setting 'monoclinic'
loop_
_space_group_symop_operation_xyz
x,y,z
-x,y,-z
-x,-y,-z
x,-y,z
loop_
_atom_site_type_symbol
_atom_site_label
_atom_site_fract_x
_atom_site_fract_y
_atom_site_fract_z
Si Si1 0.288213 0.169721 0.048675
Si Si2 0.184705 0.331027 0.177611
Si Si3 0.345081 0.328714 0.988887
Si Si4 0.860438 0.830869 0.753663
Si Si5 0.385247 0.333632 0.523043
Si Si6 0.365133 0.667871 0.624626
Si Si7 0.352438 0.165154 0.836408
Si Si8 0.064383 0.332409 0.674505
O O1 0.469990 0.222839 0.225687
O O2 0.314968 0.000000 0.055970
O O3 0.271010 0.261395 0.983431
O O4 0.091956 0.198185 0.927270
O O5 0.147979 0.500000 0.161790
O O6 0.211151 0.248008 0.251531
O O7 0.380665 0.306235 0.298215
O O8 0.000000 0.267687 0.000000
O O9 0.381095 0.500000 0.024268
O O10 0.175695 0.292685 0.814626
O O11 0.553768 0.256286 0.136601
O O12 0.737342 0.773581 0.608863
O O13 0.812040 0.000000 0.721834
O O14 0.332041 0.500000 0.466224
O O15 0.323063 0.299671 0.532200
O O16 0.434347 0.500000 0.686336
O O17 0.166772 0.699526 0.500626
O O18 0.144173 0.235413 0.690074
O O19 0.314835 0.000000 0.788512
O O20 0.500000 0.172350 0.000000
O O21 0.106564 0.500000 0.693624
#
# Coordination Sequence:
#
# PCOD8062043 Si02
#       8
#     4   4   4   4   4   4   4   4
#     4  11  24  39  54  78 112 147 184 226 276 333
#     4  10  21  38  61  87 115 148 186 229 275 324
#     4  10  19  34  58  83 108 142 183 228 275 324
#     4  11  24  39  57  83 115 150 186 227 275 328
#     4  10  21  38  61  87 112 143 187 233 274 322
#     4  10  21  38  59  82 109 143 184 230 279 329
#     4   9  17  30  51  80 113 146 179 220 271 326
#     4   9  18  33  55  83 110 139 181 228 273 326
#
# _framework density 19.850971999999999
#
# number of rings (size 3 to 8) (size 9 to 14) (size 15 to 20)
#    0.000    2.000    0.000    3.375    0.000    9.250 
#    0.000    0.625    0.000    3.750    0.000    0.000 
#    0.000    0.000    0.000    0.000    0.000    0.000 
#
# Total GULP energy -396958.915376 kJ/mol
# GULP energy per Si atom -12404.966105 kJ/mol
# Density = 1.980579 g / cm^3
# Si number density = 19.850972 Si / 1000 Ang^3
#
#
#
# Elastic Constant Matrix: (Units=GPa)
#
#
# Indices 1 2 3 4 5 6 
#
# 1 36.1474 25.1687 -0.9634 0.0000 10.7307 0.0000
# 2 25.1687 88.9867 28.4755 0.0000 7.2487 0.0000
# 3 -0.9634 28.4755 77.7873 0.0000 4.3463 0.0000
# 4 0.0000 0.0000 0.0000 30.1784 0.0000 1.6902
# 5 10.7307 7.2487 4.3463 0.0000 27.2670 0.0000
# 6 0.0000 0.0000 0.0000 1.6902 0.0000 23.0390
#
#
#
# Elastic Compliance Matrix: (Units=1/GPa)
#
#
# Indices 1 2 3 4 5 6 
#
# 1 0.040262 -0.012105 0.005686 0.000000 -0.013533 0.000000
# 2 -0.012105 0.016563 -0.006289 0.000000 0.001363 0.000000
# 3 0.005686 -0.006289 0.015397 0.000000 -0.003020 0.000000
# 4 0.000000 0.000000 0.000000 0.033273 0.000000 -0.002441
# 5 -0.013533 0.001363 -0.003020 0.000000 0.042119 0.000000
# 6 0.000000 0.000000 0.000000 -0.002441 0.000000 0.043584
#
#
# Mechanical properties :
#
#
# Convention : Reuss Voigt Hill
#
# Bulk Modulus (GPa) = 21.36496 34.25370 27.80933
# Shear Modulus (GPa) = 21.53178 26.11291 23.82234
#
# Velocity S-wave (km/s) = 3.29701 3.63084 3.46795
# Velocity P-wave (km/s) = 5.02789 5.90510 5.48407
#
# Compressibility (1/GPa) = 0.04680562
#
# Stress axis : x y z
#
# Youngs Moduli (GPa) = 24.83756 60.37653 64.94778
#
# Poissons Ratio (x) = 0.73083 -0.36928
# Poissons Ratio (y) = 0.30065 0.40847
# Poissons Ratio (z) = -0.14122 0.37972
#
# Static dielectric constant tensor:
#      x y z
#    x 3.596260 0.000000 0.198150 
#    y 0.000000 3.662490 0.000000 
#    z 0.198150 0.000000 3.564970 
# 
# 
# High freq. dielectric constant tensor:
#      x y z
#    x 1.778300 0.000000 0.014910 
#    y 0.000000 1.774630 0.000000 
#    z 0.014910 0.000000 1.770710 
# 
# From -- ./inp_files/93693.got.cif
#   From: 2010.06.25/outbox.cif.g09.slc.cpg/sg10_47_cif.got.tgz:93693.got - 2010.06.27 22:07:45.
