data_PCOD8062752
_publ_section_title
;
Structure prediction by ZEFSAII (Michael W. Deem and Ramdas Pophale) SiO2 
 PCOD8062752
Probable space group: P 2/M
;
_chemical_formula_sum "Si O2"
_cell_formula_units_Z 28
_cell_length_a 16.218901
_cell_length_b 11.198181
_cell_length_c 9.869196
_cell_angle_alpha 90.000000
_cell_angle_beta 125.606147
_cell_angle_gamma 90.000000
_cell_volume 1457.342687
_symmetry_space_group_name_H-M "P 2/M"
_symmetry_group_IT_number 10
_symmetry_cell_setting 'monoclinic'
loop_
_space_group_symop_operation_xyz
x,y,z
-x,y,-z
-x,-y,-z
x,-y,z
loop_
_atom_site_type_symbol
_atom_site_label
_atom_site_fract_x
_atom_site_fract_y
_atom_site_fract_z
Si Si1 0.771563 0.246313 0.775802
Si Si2 0.421052 0.638075 0.527585
Si Si3 0.476962 0.000000 0.702395
Si Si4 0.773887 0.361901 0.328382
Si Si5 0.333700 0.000000 0.306286
Si Si6 0.432392 0.245161 0.807138
Si Si7 0.147332 0.361315 0.890999
Si Si8 0.917395 0.361404 0.718374
O O1 0.688566 0.307721 0.600602
O O2 0.744222 0.108982 0.766916
O O3 0.876031 0.274239 0.796913
O O4 0.776373 0.297743 0.931914
O O5 0.500000 0.700291 0.500000
O O6 0.413188 0.500000 0.489891
O O7 0.461669 0.662366 0.716639
O O8 0.400308 0.000000 0.504691
O O9 0.592527 0.000000 0.755365
O O10 0.454772 0.112333 0.776864
O O11 0.734810 0.500000 0.293961
O O12 0.684499 0.267195 0.267544
O O13 0.822306 0.327320 0.231679
O O14 0.859248 0.342548 0.522325
O O15 0.500000 0.277140 0.000000
O O16 0.159447 0.500000 0.928872
O O17 0.032278 0.320538 0.804798
O O18 0.909895 0.500000 0.758549
#
# Coordination Sequence:
#
# PCOD8062752 Si02
#       8
#     4   4   2   4   2   4   4   4
#     4  12  22  39  61  90 117 156 205 252 302 354
#     4  11  23  38  60  89 125 161 193 243 310 373
#     4  11  23  46  62  85 112 165 219 252 289 362
#     4  10  21  38  60  90 128 163 195 241 304 365
#     4  11  24  40  69  83 115 162 208 258 303 351
#     4  12  25  40  62  90 123 160 207 254 301 357
#     4  10  22  37  61  93 125 160 198 247 302 364
#     4  10  19  38  64  90 123 161 201 244 299 366
#
# _framework density 19.213051
#
# number of rings (size 3 to 8) (size 9 to 14) (size 15 to 20)
#    0.000    1.143    2.857    3.643    4.000    4.000 
#    0.000    1.429    0.000    0.000    0.000    4.000 
#    0.000    0.000    0.000    0.000    0.000    0.000 
#
# Total GULP energy -347234.745479 kJ/mol
# GULP energy per Si atom -12401.240910 kJ/mol
# Density = 1.916932 g / cm^3
# Si number density = 19.213051 Si / 1000 Ang^3
#
#
#
# Elastic Constant Matrix: (Units=GPa)
#
#
# Indices 1 2 3 4 5 6 
#
# 1 128.7175 57.5859 36.1664 0.0000 -14.9851 0.0000
# 2 57.5859 86.0928 31.7317 0.0000 -3.3123 0.0000
# 3 36.1664 31.7317 112.8493 0.0000 -12.3787 0.0000
# 4 0.0000 0.0000 0.0000 28.6195 0.0000 -2.8892
# 5 -14.9851 -3.3123 -12.3787 0.0000 27.4257 0.0000
# 6 0.0000 0.0000 0.0000 -2.8892 0.0000 26.2566
#
#
#
# Elastic Compliance Matrix: (Units=1/GPa)
#
#
# Indices 1 2 3 4 5 6 
#
# 1 0.012012 -0.007392 -0.001209 0.000000 0.005125 0.000000
# 2 -0.007392 0.017507 -0.002909 0.000000 -0.003238 0.000000
# 3 -0.001209 -0.002909 0.010474 0.000000 0.003716 0.000000
# 4 0.000000 0.000000 0.000000 0.035334 0.000000 0.003888
# 5 0.005125 -0.003238 0.003716 0.000000 0.040548 0.000000
# 6 0.000000 0.000000 0.000000 0.003888 0.000000 0.038514
#
#
# Mechanical properties :
#
#
# Convention : Reuss Voigt Hill
#
# Bulk Modulus (GPa) = 58.91338 64.29193 61.60266
# Shear Modulus (GPa) = 27.31227 29.93874 28.62551
#
# Velocity S-wave (km/s) = 3.77443 3.95175 3.86411
# Velocity P-wave (km/s) = 7.05159 7.37272 7.21394
#
# Compressibility (1/GPa) = 0.01697407
#
# Stress axis : x y z
#
# Youngs Moduli (GPa) = 83.24745 57.11879 95.47092
#
# Poissons Ratio (x) = 0.42223 0.11543
# Poissons Ratio (y) = 0.61537 0.27772
# Poissons Ratio (z) = 0.10065 0.16615
#
# Static dielectric constant tensor:
#      x y z
#    x 3.766320 0.000000 -0.106150 
#    y 0.000000 3.419730 0.000000 
#    z -0.106150 0.000000 3.622090 
# 
# 
# High freq. dielectric constant tensor:
#      x y z
#    x 1.759140 0.000000 -0.009800 
#    y 0.000000 1.726150 0.000000 
#    z -0.009800 0.000000 1.760060 
# 
# From -- ./inp_files/28717.got.cif
#   From: 2010.06.25/outbox.cif.g09.slc.cpg/sg10_15_cif.got.tgz:28717.got - 2010.06.27 22:07:45.
