data_PCOD8062310
_publ_section_title
;
Structure prediction by ZEFSAII (Michael W. Deem and Ramdas Pophale) SiO2 
 PCOD8062310
Probable space group: P 2/M
;
_chemical_formula_sum "Si O2"
_cell_formula_units_Z 28
_cell_length_a 14.858856
_cell_length_b 8.836033
_cell_length_c 21.817812
_cell_angle_alpha 90.000000
_cell_angle_beta 30.681069
_cell_angle_gamma 90.000000
_cell_volume 1461.653366
_symmetry_space_group_name_H-M "P 2/M"
_symmetry_group_IT_number 10
_symmetry_cell_setting 'monoclinic'
loop_
_space_group_symop_operation_xyz
x,y,z
-x,y,-z
-x,-y,-z
x,-y,z
loop_
_atom_site_type_symbol
_atom_site_label
_atom_site_fract_x
_atom_site_fract_y
_atom_site_fract_z
Si Si1 0.464873 0.176151 0.611902
Si Si2 0.565541 0.175593 0.684689
Si Si3 0.434562 0.823778 0.893556
Si Si4 0.212664 0.820539 0.656521
Si Si5 0.166050 0.321889 0.135497
Si Si6 0.063305 0.677116 0.529512
Si Si7 0.766658 0.821770 0.779627
O O1 0.446196 0.213415 0.694948
O O2 0.651363 0.235446 0.475846
O O3 0.295271 0.235423 0.673415
O O4 0.469488 0.000000 0.595839
O O5 0.452417 0.212898 0.811104
O O6 0.733514 0.282518 0.582659
O O7 0.626192 0.000000 0.649452
O O8 0.612370 0.771036 0.823813
O O9 0.398476 0.000000 0.926402
O O10 0.268542 0.729240 0.014482
O O11 0.033238 0.733148 0.750724
O O12 0.174696 0.000000 0.676601
O O13 0.170124 0.500000 0.139101
O O14 0.267776 0.251088 0.134023
O O15 0.033665 0.500000 0.556930
O O16 0.000000 0.730731 0.500000
O O17 0.953670 0.766116 0.644693
O O18 0.773014 0.000000 0.784006
#
# Coordination Sequence:
#
# PCOD8062310 Si02
#       7
#     4   4   4   4   4   4   4
#     4   8  16  32  60  90 111 136 176 228 279 324
#     4  10  19  35  58  84 112 147 191 232 274 325
#     4  10  22  38  56  78 107 147 193 234 273 325
#     4   9  17  35  60  86 113 141 177 224 277 331
#     4  12  25  38  55  80 110 146 186 230 284 337
#     4  11  22  34  52  82 120 152 180 219 272 328
#     4  11  22  38  59  81 107 145 192 236 276 323
#
# _framework density 19.156389000000001
#
# number of rings (size 3 to 8) (size 9 to 14) (size 15 to 20)
#    0.000    1.857    1.429    4.286    0.000    5.143 
#    0.000    2.857    0.000    4.286    0.000    0.000 
#    0.000    0.000    0.000    0.000    0.000    0.000 
#
# Total GULP energy -347243.491681 kJ/mol
# GULP energy per Si atom -12401.553274 kJ/mol
# Density = 1.911279 g / cm^3
# Si number density = 19.156389 Si / 1000 Ang^3
#
#
#
# Elastic Constant Matrix: (Units=GPa)
#
#
# Indices 1 2 3 4 5 6 
#
# 1 124.9984 32.8180 42.7957 0.0000 21.7541 0.0000
# 2 32.8180 64.9405 32.5942 0.0000 3.3484 0.0000
# 3 42.7957 32.5942 87.9611 0.0000 16.6590 0.0000
# 4 0.0000 0.0000 0.0000 6.3562 0.0000 -0.1721
# 5 21.7541 3.3484 16.6590 0.0000 28.9439 0.0000
# 6 0.0000 0.0000 0.0000 -0.1721 0.0000 15.8288
#
#
#
# Elastic Compliance Matrix: (Units=1/GPa)
#
#
# Indices 1 2 3 4 5 6 
#
# 1 0.011053 -0.003881 -0.002751 0.000000 -0.006275 0.000000
# 2 -0.003881 0.020391 -0.006480 0.000000 0.004288 0.000000
# 3 -0.002751 -0.006480 0.016358 0.000000 -0.006598 0.000000
# 4 0.000000 0.000000 0.000000 0.157373 0.000000 0.001711
# 5 -0.006275 0.004288 -0.006598 0.000000 0.042567 0.000000
# 6 0.000000 0.000000 0.000000 0.001711 0.000000 0.063195
#
#
# Mechanical properties :
#
#
# Convention : Reuss Voigt Hill
#
# Bulk Modulus (GPa) = 46.34356 54.92397 50.63377
# Shear Modulus (GPa) = 14.51995 21.53858 18.02926
#
# Velocity S-wave (km/s) = 2.75611 3.35678 3.07116
# Velocity P-wave (km/s) = 5.86284 6.61495 6.25022
#
# Compressibility (1/GPa) = 0.02157797
#
# Stress axis : x y z
#
# Youngs Moduli (GPa) = 90.47243 49.04034 61.13331
#
# Poissons Ratio (x) = 0.19035 0.16817
# Poissons Ratio (y) = 0.35117 0.39613
# Poissons Ratio (z) = 0.24888 0.31777
#
# Static dielectric constant tensor:
#      x y z
#    x 3.758460 0.000000 0.159020 
#    y 0.000000 3.268850 0.000000 
#    z 0.159020 0.000000 3.446170 
# 
# 
# High freq. dielectric constant tensor:
#      x y z
#    x 1.752270 0.000000 0.010380 
#    y 0.000000 1.725540 0.000000 
#    z 0.010380 0.000000 1.739060 
# 
# From -- ./inp_files/49165.got.cif
#   From: 2010.06.25/outbox.cif.g09.slc.cpg/sg10_25_cif.got.tgz:49165.got - 2010.06.27 22:07:45.
