data_PCOD8062471
_publ_section_title
;
Structure prediction by ZEFSAII (Michael W. Deem and Ramdas Pophale) SiO2 
 PCOD8062471
Probable space group: P 2/M
;
_chemical_formula_sum "Si O2"
_cell_formula_units_Z 28
_cell_length_a 28.952763
_cell_length_b 7.695337
_cell_length_c 9.805089
_cell_angle_alpha 90.000000
_cell_angle_beta 40.995459
_cell_angle_gamma 90.000000
_cell_volume 1433.086869
_symmetry_space_group_name_H-M "P 2/M"
_symmetry_group_IT_number 10
_symmetry_cell_setting 'monoclinic'
loop_
_space_group_symop_operation_xyz
x,y,z
-x,y,-z
-x,-y,-z
x,-y,z
loop_
_atom_site_type_symbol
_atom_site_label
_atom_site_fract_x
_atom_site_fract_y
_atom_site_fract_z
Si Si1 0.050223 0.197054 0.759769
Si Si2 0.810281 0.803583 0.135210
Si Si3 0.416181 0.500000 0.537730
Si Si4 0.688425 0.202369 0.212369
Si Si5 0.324712 0.200622 0.074289
Si Si6 0.428526 0.500000 0.830773
Si Si7 0.038921 0.304770 0.283499
Si Si8 0.194794 0.794242 0.552428
O O1 0.125518 0.280222 0.631813
O O2 0.016061 0.309846 0.717253
O O3 0.058521 0.000000 0.688033
O O4 0.000000 0.204137 0.000000
O O5 0.758310 0.728816 0.134827
O O6 0.799938 0.711946 0.306463
O O7 0.786866 0.000000 0.207189
O O8 0.890938 0.800267 0.908130
O O9 0.374754 0.323328 0.591372
O O10 0.430065 0.500000 0.666014
O O11 0.491277 0.500000 0.291824
O O12 0.669988 0.000000 0.282325
O O13 0.701157 0.231488 0.022913
O O14 0.262272 0.257109 0.313956
O O15 0.347156 0.000000 0.046867
O O16 0.389969 0.324490 0.967558
O O17 0.062570 0.500000 0.266012
O O18 0.000000 0.218735 0.500000
O O19 0.184760 0.000000 0.586344
#
# Coordination Sequence:
#
# PCOD8062471 Si02
#       8
#     4   4   2   4   4   2   4   4
#     4  10  19  36  57  76 101 137 185 232 273 321
#     4  10  20  37  57  76 103 142 184 221 268 328
#     4   9  18  34  57  81 117 141 171 224 264 316
#     4   9  19  33  54  83 109 143 183 217 268 324
#     4   9  18  34  53  81 113 139 178 227 264 317
#     4   9  18  34  55  87 109 143 179 209 274 325
#     4  11  25  39  49  75 111 145 184 230 281 323
#     4   9  18  34  55  77 104 139 177 224 276 321
#
# _framework density 19.538242
#
# number of rings (size 3 to 8) (size 9 to 14) (size 15 to 20)
#    0.000    2.429    1.429    0.429    3.000    2.000 
#    2.571    2.857    0.000    1.714    0.000    4.000 
#    0.000    0.000    0.000    0.000    0.000    0.000 
#
# Total GULP energy -347094.253408 kJ/mol
# GULP energy per Si atom -12396.223336 kJ/mol
# Density = 1.949377 g / cm^3
# Si number density = 19.538242 Si / 1000 Ang^3
#
#
#
# Elastic Constant Matrix: (Units=GPa)
#
#
# Indices 1 2 3 4 5 6 
#
# 1 108.2480 28.8670 74.7394 0.0000 -6.7675 0.0000
# 2 28.8670 66.3980 40.3431 0.0000 -7.8980 0.0000
# 3 74.7394 40.3431 138.9312 0.0000 -22.2749 0.0000
# 4 0.0000 0.0000 0.0000 14.0420 0.0000 -5.8712
# 5 -6.7675 -7.8980 -22.2749 0.0000 25.3923 0.0000
# 6 0.0000 0.0000 0.0000 -5.8712 0.0000 17.7774
#
#
#
# Elastic Compliance Matrix: (Units=1/GPa)
#
#
# Indices 1 2 3 4 5 6 
#
# 1 0.015206 -0.002091 -0.008178 0.000000 -0.003771 0.000000
# 2 -0.002091 0.018606 -0.004003 0.000000 0.001719 0.000000
# 3 -0.008178 -0.004003 0.014209 0.000000 0.009040 0.000000
# 4 0.000000 0.000000 0.000000 0.082624 0.000000 0.027287
# 5 -0.003771 0.001719 0.009040 0.000000 0.046841 0.000000
# 6 0.000000 0.000000 0.000000 0.027287 0.000000 0.065263
#
#
# Mechanical properties :
#
#
# Convention : Reuss Voigt Hill
#
# Bulk Modulus (GPa) = 51.33816 66.83068 59.08442
# Shear Modulus (GPa) = 17.99954 22.75087 20.37521
#
# Velocity S-wave (km/s) = 3.03850 3.41607 3.23280
# Velocity P-wave (km/s) = 6.21633 7.05966 6.65137
#
# Compressibility (1/GPa) = 0.01947869
#
# Stress axis : x y z
#
# Youngs Moduli (GPa) = 65.76267 53.74599 70.37891
#
# Poissons Ratio (x) = 0.11237 0.57555
# Poissons Ratio (y) = 0.13749 0.28169
# Poissons Ratio (z) = 0.53780 0.21512
#
# Static dielectric constant tensor:
#      x y z
#    x 3.589130 0.000000 -0.059150 
#    y 0.000000 3.423660 0.000000 
#    z -0.059150 0.000000 3.539200 
# 
# 
# High freq. dielectric constant tensor:
#      x y z
#    x 1.751650 0.000000 -0.002200 
#    y 0.000000 1.752070 0.000000 
#    z -0.002200 0.000000 1.749980 
# 
# From -- ./inp_files/37161.got.cif
#   From: 2010.06.25/outbox.cif.g09.slc.cpg/sg10_19_cif.got.tgz:37161.got - 2010.06.27 22:07:45.
