data_PCOD8062030
_publ_section_title
;
Structure prediction by ZEFSAII (Michael W. Deem and Ramdas Pophale) SiO2 
 PCOD8062030
Probable space group: P 2/M
;
_chemical_formula_sum "Si O2"
_cell_formula_units_Z 24
_cell_length_a 12.339186
_cell_length_b 9.389644
_cell_length_c 10.769550
_cell_angle_alpha 90.000000
_cell_angle_beta 101.638904
_cell_angle_gamma 90.000000
_cell_volume 1222.110181
_symmetry_space_group_name_H-M "P 2/M"
_symmetry_group_IT_number 10
_symmetry_cell_setting 'monoclinic'
loop_
_space_group_symop_operation_xyz
x,y,z
-x,y,-z
-x,-y,-z
x,-y,z
loop_
_atom_site_type_symbol
_atom_site_label
_atom_site_fract_x
_atom_site_fract_y
_atom_site_fract_z
Si Si1 0.786835 0.159119 0.712885
Si Si2 0.581309 0.166669 0.133194
Si Si3 0.794886 0.669630 0.222901
Si Si4 0.874862 0.159803 0.459635
Si Si5 0.981864 0.656276 0.852169
Si Si6 0.541414 0.830736 0.643420
O O1 0.815735 0.156267 0.576248
O O2 0.874966 0.248776 0.808586
O O3 0.665000 0.226977 0.699124
O O4 0.789328 0.000000 0.769241
O O5 0.690795 0.258444 0.130571
O O6 0.532764 0.216488 0.255907
O O7 0.611279 0.000000 0.144478
O O8 0.500000 0.199329 0.000000
O O9 0.780627 0.500000 0.218834
O O10 0.802000 0.731265 0.363191
O O11 0.907473 0.721745 0.182358
O O12 0.000000 0.217642 0.500000
O O13 0.875510 0.000000 0.401349
O O14 0.960161 0.500000 0.788605
O O15 0.000000 0.641566 0.000000
O O16 0.500000 0.769236 0.500000
O O17 0.545278 0.000000 0.634630
#
# Coordination Sequence:
#
# PCOD8062030 Si02
#       6
#     4   4   4   4   4   4
#     4  10  20  35  60  89 113 145 189 235 283 340
#     4  10  22  39  60  86 114 148 193 245 294 337
#     4  11  23  38  59  84 114 153 192 231 283 346
#     4  10  19  34  57  87 117 145 182 231 286 337
#     4  10  23  40  55  78 115 156 189 228 285 340
#     4   9  18  35  58  83 114 150 186 231 287 341
#
# _framework density 19.638162999999999
#
# number of rings (size 3 to 8) (size 9 to 14) (size 15 to 20)
#    0.000    2.000    1.667    1.500    2.333    5.000 
#    0.000    0.833    0.000    2.000    0.000    0.000 
#    0.000    0.000    0.000    0.000    0.000    0.000 
#
# Total GULP energy -297568.754206 kJ/mol
# GULP energy per Si atom -12398.698092 kJ/mol
# Density = 1.959347 g / cm^3
# Si number density = 19.638163 Si / 1000 Ang^3
#
#
#
# Elastic Constant Matrix: (Units=GPa)
#
#
# Indices 1 2 3 4 5 6 
#
# 1 120.0056 38.8365 32.7942 0.0000 26.8513 0.0000
# 2 38.8365 65.2256 34.2253 0.0000 22.1645 0.0000
# 3 32.7942 34.2253 94.8297 0.0000 15.5051 0.0000
# 4 0.0000 0.0000 0.0000 15.8623 0.0000 -0.1640
# 5 26.8513 22.1645 15.5051 0.0000 37.0120 0.0000
# 6 0.0000 0.0000 0.0000 -0.1640 0.0000 -5.3710
#
#
#
# Elastic Compliance Matrix: (Units=1/GPa)
#
#
# Indices 1 2 3 4 5 6 
#
# 1 0.011226 -0.004168 -0.001561 0.000000 -0.004994 0.000000
# 2 -0.004168 0.023814 -0.005707 0.000000 -0.008846 0.000000
# 3 -0.001561 -0.005707 0.013313 0.000000 -0.001027 0.000000
# 4 0.000000 0.000000 0.000000 0.063023 0.000000 -0.001925
# 5 -0.004994 -0.008846 -0.001027 0.000000 0.036369 0.000000
# 6 0.000000 0.000000 0.000000 -0.001925 0.000000 -0.186128
#
#
# Mechanical properties :
#
#
# Convention : Reuss Voigt Hill
#
# Bulk Modulus (GPa) = 39.24626 54.64145 46.94386
# Shear Modulus (GPa) = -712.44227 21.11432 -345.66397
#
# Velocity S-wave (km/s) = -19.06757 3.28253 -13.28151
# Velocity P-wave (km/s) = 21.55771 6.50009 14.53416
#
# Compressibility (1/GPa) = 0.02548014
#
# Stress axis : x y z
#
# Youngs Moduli (GPa) = 89.08026 41.99283 75.11590
#
# Poissons Ratio (x) = 0.17501 0.11729
# Poissons Ratio (y) = 0.37126 0.42868
# Poissons Ratio (z) = 0.13909 0.23965
#
# Static dielectric constant tensor:
#      x y z
#    x 5.438940 0.000000 0.104670 
#    y 0.000000 3.527720 0.000000 
#    z 0.104670 0.000000 3.527800 
# 
# 
# High freq. dielectric constant tensor:
#      x y z
#    x 1.780220 0.000000 0.003470 
#    y 0.000000 1.736120 0.000000 
#    z 0.003470 0.000000 1.765100 
# 
# From -- ./inp_files/45296.got.cif
#   From: 2010.06.25/outbox.cif.g09.slc.cpg/sg10_23_cif.got.tgz:45296.got - 2010.06.27 22:07:45.
