data_PCOD8062227
_publ_section_title
;
Structure prediction by ZEFSAII (Michael W. Deem and Ramdas Pophale) SiO2 
 PCOD8062227
Probable space group: P 2/M
;
_chemical_formula_sum "Si O2"
_cell_formula_units_Z 28
_cell_length_a 11.669060
_cell_length_b 8.648127
_cell_length_c 15.455442
_cell_angle_alpha 90.000000
_cell_angle_beta 116.258894
_cell_angle_gamma 90.000000
_cell_volume 1398.739805
_symmetry_space_group_name_H-M "P 2/M"
_symmetry_group_IT_number 10
_symmetry_cell_setting 'monoclinic'
loop_
_space_group_symop_operation_xyz
x,y,z
-x,y,-z
-x,-y,-z
x,-y,z
loop_
_atom_site_type_symbol
_atom_site_label
_atom_site_fract_x
_atom_site_fract_y
_atom_site_fract_z
Si Si1 0.972262 0.819064 0.619897
Si Si2 0.282716 0.819650 0.176779
Si Si3 0.386716 0.177908 0.899578
Si Si4 0.447984 0.677437 0.743732
Si Si5 0.064660 0.679449 0.208038
Si Si6 0.185623 0.320455 0.577538
Si Si7 0.163802 0.822265 0.955834
O O1 0.971130 0.776477 0.719652
O O2 0.857239 0.731429 0.532317
O O3 0.108361 0.774545 0.624211
O O4 0.950960 0.000000 0.601929
O O5 0.432037 0.784550 0.238215
O O6 0.205320 0.724024 0.222390
O O7 0.258915 0.000000 0.184015
O O8 0.238919 0.767624 0.066357
O O9 0.388380 0.286519 0.817196
O O10 0.252800 0.202159 0.902452
O O11 0.407258 0.000000 0.878168
O O12 0.500000 0.230753 0.000000
O O13 0.492032 0.500000 0.755747
O O14 0.336717 0.711351 0.636813
O O15 0.059601 0.500000 0.228845
O O16 0.963476 0.721064 0.098740
O O17 0.153963 0.500000 0.580946
O O18 0.122021 0.000000 0.951387
#
# Coordination Sequence:
#
# PCOD8062227 Si02
#       7
#     4   4   4   4   4   4   4
#     4  11  22  39  64  92 118 151 196 242 288 346
#     4  11  23  41  61  82 115 158 201 244 287 343
#     4  10  19  35  56  82 115 155 195 236 285 335
#     4  11  23  37  57  88 122 157 193 236 294 351
#     4  12  25  40  59  85 118 154 195 245 297 347
#     4  10  21  39  63  92 124 154 186 237 299 350
#     4  10  21  38  60  85 115 155 201 244 289 344
#
# _framework density 20.01802
#
# number of rings (size 3 to 8) (size 9 to 14) (size 15 to 20)
#    0.000    1.286    1.429    6.000    0.000    8.286 
#    0.000    0.714    0.000    4.286    0.000    0.000 
#    0.000    0.000    0.000    0.000    0.000    0.000 
#
# Total GULP energy -347378.305551 kJ/mol
# GULP energy per Si atom -12406.368055 kJ/mol
# Density = 1.997246 g / cm^3
# Si number density = 20.018020 Si / 1000 Ang^3
#
#
#
# Elastic Constant Matrix: (Units=GPa)
#
#
# Indices 1 2 3 4 5 6 
#
# 1 84.3069 26.4323 33.4400 0.0000 13.3220 0.0000
# 2 26.4323 71.5263 27.1207 0.0000 6.8163 0.0000
# 3 33.4400 27.1207 81.6804 0.0000 17.2691 0.0000
# 4 0.0000 0.0000 0.0000 27.8753 0.0000 5.4724
# 5 13.3220 6.8163 17.2691 0.0000 28.5982 0.0000
# 6 0.0000 0.0000 0.0000 5.4724 0.0000 26.3050
#
#
#
# Elastic Compliance Matrix: (Units=1/GPa)
#
#
# Indices 1 2 3 4 5 6 
#
# 1 0.015286 -0.003684 -0.004259 0.000000 -0.003671 0.000000
# 2 -0.003684 0.016895 -0.004141 0.000000 0.000190 0.000000
# 3 -0.004259 -0.004141 0.016890 0.000000 -0.007228 0.000000
# 4 0.000000 0.000000 0.000000 0.037402 0.000000 -0.007781
# 5 -0.003671 0.000190 -0.007228 0.000000 0.040997 0.000000
# 6 0.000000 0.000000 0.000000 -0.007781 0.000000 0.039634
#
#
# Mechanical properties :
#
#
# Convention : Reuss Voigt Hill
#
# Bulk Modulus (GPa) = 40.15854 45.72216 42.94035
# Shear Modulus (GPa) = 25.05369 26.59040 25.82204
#
# Velocity S-wave (km/s) = 3.54157 3.64857 3.59547
# Velocity P-wave (km/s) = 6.06864 6.37491 6.22366
#
# Compressibility (1/GPa) = 0.02490130
#
# Stress axis : x y z
#
# Youngs Moduli (GPa) = 65.42038 59.19065 59.20810
#
# Poissons Ratio (x) = 0.21807 0.25214
# Poissons Ratio (y) = 0.24102 0.24521
# Poissons Ratio (z) = 0.27860 0.24514
#
# Static dielectric constant tensor:
#      x y z
#    x 3.557990 0.000000 0.096400 
#    y 0.000000 3.589040 0.000000 
#    z 0.096400 0.000000 3.668190 
# 
# 
# High freq. dielectric constant tensor:
#      x y z
#    x 1.778960 0.000000 0.010170 
#    y 0.000000 1.784130 0.000000 
#    z 0.010170 0.000000 1.778460 
# 
# From -- ./inp_files/63500.got.cif
#   From: 2010.06.25/outbox.cif.g09.slc.cpg/sg10_32_cif.got.tgz:63500.got - 2010.06.27 22:07:45.
