data_PCOD8062254
_publ_section_title
;
Structure prediction by ZEFSAII (Michael W. Deem and Ramdas Pophale) SiO2 
 PCOD8062254
Probable space group: P 2/M
;
_chemical_formula_sum "Si O2"
_cell_formula_units_Z 32
_cell_length_a 24.768960
_cell_length_b 8.564430
_cell_length_c 14.438274
_cell_angle_alpha 90.000000
_cell_angle_beta 149.804382
_cell_angle_gamma 90.000000
_cell_volume 1540.457241
_symmetry_space_group_name_H-M "P 2/M"
_symmetry_group_IT_number 10
_symmetry_cell_setting 'monoclinic'
loop_
_space_group_symop_operation_xyz
x,y,z
-x,y,-z
-x,-y,-z
x,-y,z
loop_
_atom_site_type_symbol
_atom_site_label
_atom_site_fract_x
_atom_site_fract_y
_atom_site_fract_z
Si Si1 0.883158 0.182980 0.786667
Si Si2 0.164341 0.183248 0.489234
Si Si3 0.316711 0.184878 0.005289
Si Si4 0.898781 0.813510 0.407056
Si Si5 0.541857 0.180783 0.274105
Si Si6 0.377877 0.814601 0.298476
Si Si7 0.613458 0.680890 0.203085
Si Si8 0.697595 0.317469 0.636037
O O1 0.876036 0.250248 0.669943
O O2 0.802884 0.272978 0.734628
O O3 0.854279 0.000000 0.745062
O O4 0.000000 0.216215 0.000000
O O5 0.095502 0.242383 0.476427
O O6 0.286934 0.229313 0.693823
O O7 0.155588 0.000000 0.471159
O O8 0.417138 0.231381 0.088447
O O9 0.339331 0.249071 0.141487
O O10 0.309727 0.000000 0.000546
O O11 0.208217 0.255056 0.800580
O O12 0.000000 0.746976 0.500000
O O13 0.896662 0.000000 0.400044
O O14 0.612963 0.288220 0.311906
O O15 0.593896 0.216474 0.450449
O O16 0.556143 0.000000 0.269045
O O17 0.500000 0.761255 0.500000
O O18 0.293577 0.732555 0.243681
O O19 0.366474 0.000000 0.288743
O O20 0.624782 0.500000 0.196014
O O21 0.500000 0.751135 0.000000
O O22 0.676105 0.500000 0.593784
#
# Coordination Sequence:
#
# PCOD8062254 Si02
#       8
#     4   4   4   4   4   4   4   4
#     4  10  22  40  62  88 117 155 204 249 291 350
#     4  10  20  36  60  87 115 153 196 242 294 349
#     4   9  18  32  54  82 112 148 192 241 292 344
#     4   9  18  33  55  86 117 144 186 242 292 337
#     4  11  20  35  58  83 114 152 197 244 293 352
#     4  10  19  35  57  81 113 156 200 243 293 351
#     4  11  23  36  53  84 122 158 194 239 298 356
#     4  12  24  37  56  85 120 157 193 240 305 361
#
# _framework density 20.773050999999999
#
# number of rings (size 3 to 8) (size 9 to 14) (size 15 to 20)
#    0.000    1.750    2.500    2.625    0.000    3.500 
#    0.000    3.750    0.000    1.125    0.000    0.000 
#    0.000    0.000    0.000    0.000    0.000    0.000 
#
# Total GULP energy -396696.409598 kJ/mol
# GULP energy per Si atom -12396.762800 kJ/mol
# Density = 2.072577 g / cm^3
# Si number density = 20.773051 Si / 1000 Ang^3
#
#
#
# Elastic Constant Matrix: (Units=GPa)
#
#
# Indices 1 2 3 4 5 6 
#
# 1 158.6839 20.1133 47.8118 0.0000 6.5875 0.0000
# 2 20.1133 20.7423 11.2784 0.0000 -0.4315 0.0000
# 3 47.8118 11.2784 100.5157 0.0000 6.4726 0.0000
# 4 0.0000 0.0000 0.0000 15.7656 0.0000 -1.1044
# 5 6.5875 -0.4315 6.4726 0.0000 30.1718 0.0000
# 6 0.0000 0.0000 0.0000 -1.1044 0.0000 9.5392
#
#
#
# Elastic Compliance Matrix: (Units=1/GPa)
#
#
# Indices 1 2 3 4 5 6 
#
# 1 0.008056 -0.006171 -0.003063 0.000000 -0.001190 0.000000
# 2 -0.006171 0.056190 -0.003557 0.000000 0.002914 0.000000
# 3 -0.003063 -0.003557 0.011930 0.000000 -0.001941 0.000000
# 4 0.000000 0.000000 0.000000 0.063948 0.000000 0.007404
# 5 -0.001190 0.002914 -0.001941 0.000000 0.033862 0.000000
# 6 0.000000 0.000000 0.000000 0.007404 0.000000 0.105688
#
#
# Mechanical properties :
#
#
# Convention : Reuss Voigt Hill
#
# Bulk Modulus (GPa) = 19.76556 48.70545 34.23551
# Shear Modulus (GPa) = 15.52218 24.47787 20.00003
#
# Velocity S-wave (km/s) = 2.73651 3.43643 3.10625
# Velocity P-wave (km/s) = 4.41818 6.26440 5.42047
#
# Compressibility (1/GPa) = 0.05059305
#
# Stress axis : x y z
#
# Youngs Moduli (GPa) = 124.12546 17.79692 83.82374
#
# Poissons Ratio (x) = 0.10983 0.25676
# Poissons Ratio (y) = 0.76602 0.29816
# Poissons Ratio (z) = 0.38020 0.06330
#
# Static dielectric constant tensor:
#      x y z
#    x 4.069240 0.000000 -0.172020 
#    y 0.000000 3.239210 0.000000 
#    z -0.172020 0.000000 3.921430 
# 
# 
# High freq. dielectric constant tensor:
#      x y z
#    x 1.831090 0.000000 -0.007660 
#    y 0.000000 1.769620 0.000000 
#    z -0.007660 0.000000 1.807170 
# 
# From -- ./inp_files/71616.got.cif
#   From: 2010.06.25/outbox.cif.g09.slc.cpg/sg10_36_cif.got.tgz:71616.got - 2010.06.27 22:07:45.
