data_PCOD8062591
_publ_section_title
;
Structure prediction by ZEFSAII (Michael W. Deem and Ramdas Pophale) SiO2 
 PCOD8062591
Probable space group: P 2/M
;
_chemical_formula_sum "Si O2"
_cell_formula_units_Z 28
_cell_length_a 14.422852
_cell_length_b 8.998907
_cell_length_c 11.458717
_cell_angle_alpha 90.000000
_cell_angle_beta 110.313100
_cell_angle_gamma 90.000000
_cell_volume 1394.734593
_symmetry_space_group_name_H-M "P 2/M"
_symmetry_group_IT_number 10
_symmetry_cell_setting 'monoclinic'
loop_
_space_group_symop_operation_xyz
x,y,z
-x,y,-z
-x,-y,-z
x,-y,z
loop_
_atom_site_type_symbol
_atom_site_label
_atom_site_fract_x
_atom_site_fract_y
_atom_site_fract_z
Si Si1 0.966802 0.826040 0.615373
Si Si2 0.111950 0.170844 0.067654
Si Si3 0.648370 0.671931 0.118298
Si Si4 0.158994 0.830652 0.828783
Si Si5 0.203468 0.676232 0.327422
Si Si6 0.545473 0.673694 0.836197
Si Si7 0.594682 0.825240 0.618236
O O1 0.868192 0.735537 0.602397
O O2 0.000000 0.787706 0.500000
O O3 0.053333 0.768887 0.739668
O O4 0.944619 0.000000 0.622862
O O5 0.165125 0.274313 0.183928
O O6 0.113355 0.000000 0.112509
O O7 0.170172 0.189363 0.972185
O O8 0.000000 0.223988 0.000000
O O9 0.671036 0.500000 0.118604
O O10 0.750499 0.750964 0.195891
O O11 0.569916 0.703954 0.186530
O O12 0.607425 0.726855 0.975632
O O13 0.164725 0.000000 0.791408
O O14 0.208893 0.500000 0.334997
O O15 0.311929 0.742464 0.397517
O O16 0.563409 0.500000 0.816571
O O17 0.578641 0.772760 0.743110
O O18 0.500000 0.782740 0.500000
O O19 0.615414 0.000000 0.627949
#
# Coordination Sequence:
#
# PCOD8062591 Si02
#       7
#     4   4   4   4   4   4   4
#     4  10  22  42  63  82 114 159 202 243 290 348
#     4  10  19  36  61  87 121 157 197 245 293 348
#     4   9  19  35  57  85 120 155 185 233 297 358
#     4  10  20  34  56  87 116 151 196 242 290 343
#     4  12  25  40  62  91 123 156 195 246 304 362
#     4   9  19  38  60  85 117 153 192 237 298 355
#     4  11  25  43  63  86 115 155 204 251 295 348
#
# _framework density 20.075506000000001
#
# number of rings (size 3 to 8) (size 9 to 14) (size 15 to 20)
#    0.000    1.857    1.429    3.429    0.000    7.429 
#    0.000    5.714    0.000    0.000    0.000    0.000 
#    0.000    0.000    0.000    0.000    0.000    0.000 
#
# Total GULP energy -347281.245696 kJ/mol
# GULP energy per Si atom -12402.901632 kJ/mol
# Density = 2.002981 g / cm^3
# Si number density = 20.075506 Si / 1000 Ang^3
#
#
#
# Elastic Constant Matrix: (Units=GPa)
#
#
# Indices 1 2 3 4 5 6 
#
# 1 152.2222 69.5643 47.6442 0.0000 14.7828 0.0000
# 2 69.5643 95.0846 42.8795 0.0000 9.2714 0.0000
# 3 47.6442 42.8795 76.8175 0.0000 0.2325 0.0000
# 4 0.0000 0.0000 0.0000 5.1758 0.0000 -1.5595
# 5 14.7828 9.2714 0.2325 0.0000 33.2132 0.0000
# 6 0.0000 0.0000 0.0000 -1.5595 0.0000 39.4660
#
#
#
# Elastic Compliance Matrix: (Units=1/GPa)
#
#
# Indices 1 2 3 4 5 6 
#
# 1 0.010624 -0.006028 -0.003215 0.000000 -0.003023 0.000000
# 2 -0.006028 0.017990 -0.006297 0.000000 -0.002295 0.000000
# 3 -0.003215 -0.006297 0.018518 0.000000 0.003059 0.000000
# 4 0.000000 0.000000 0.000000 0.195534 0.000000 0.007726
# 5 -0.003023 -0.002295 0.003059 0.000000 0.032073 0.000000
# 6 0.000000 0.000000 0.000000 0.007726 0.000000 0.025644
#
#
# Mechanical properties :
#
#
# Convention : Reuss Voigt Hill
#
# Bulk Modulus (GPa) = 62.29645 71.58891 66.94268
# Shear Modulus (GPa) = 14.84503 26.50676 20.67590
#
# Velocity S-wave (km/s) = 2.72225 3.63761 3.21270
# Velocity P-wave (km/s) = 6.40151 7.30617 6.86875
#
# Compressibility (1/GPa) = 0.01605228
#
# Stress axis : x y z
#
# Youngs Moduli (GPa) = 94.12675 55.58597 54.00249
#
# Poissons Ratio (x) = 0.33506 0.17364
# Poissons Ratio (y) = 0.56737 0.34003
# Poissons Ratio (z) = 0.30266 0.35000
#
# Static dielectric constant tensor:
#      x y z
#    x 3.827360 0.000000 0.143330 
#    y 0.000000 3.452150 0.000000 
#    z 0.143330 0.000000 3.669360 
# 
# 
# High freq. dielectric constant tensor:
#      x y z
#    x 1.801240 0.000000 0.002630 
#    y 0.000000 1.769720 0.000000 
#    z 0.002630 0.000000 1.774710 
# 
# From -- ./inp_files/50089.got.cif
#   From: 2010.06.25/outbox.cif.g09.slc.cpg/sg10_26_cif.got.tgz:50089.got - 2010.06.27 22:07:45.
