data_PCOD8062173
_publ_section_title
;
Structure prediction by ZEFSAII (Michael W. Deem and Ramdas Pophale) SiO2 
 PCOD8062173
Probable space group: P 2/M
;
_chemical_formula_sum "Si O2"
_cell_formula_units_Z 32
_cell_length_a 12.765015
_cell_length_b 19.320853
_cell_length_c 8.868846
_cell_angle_alpha 90.000000
_cell_angle_beta 48.413306
_cell_angle_gamma 90.000000
_cell_volume 1636.020029
_symmetry_space_group_name_H-M "P 2/M"
_symmetry_group_IT_number 10
_symmetry_cell_setting 'monoclinic'
loop_
_space_group_symop_operation_xyz
x,y,z
-x,y,-z
-x,-y,-z
x,-y,z
loop_
_atom_site_type_symbol
_atom_site_label
_atom_site_fract_x
_atom_site_fract_y
_atom_site_fract_z
Si Si1 0.234961 0.690994 0.609067
Si Si2 0.650097 0.079730 0.301662
Si Si3 0.893866 0.831567 0.228568
Si Si4 0.018602 0.576771 0.804611
Si Si5 0.390595 0.138586 0.977588
Si Si6 0.510555 0.711993 0.164453
Si Si7 0.791039 0.319726 0.010570
Si Si8 0.906830 0.188261 0.727283
O O1 0.170139 0.764816 0.625419
O O2 0.148429 0.624964 0.632366
O O3 0.383881 0.685720 0.386997
O O4 0.236682 0.690918 0.786908
O O5 0.500000 0.107818 0.500000
O O6 0.774599 0.119372 0.271028
O O7 0.646326 0.086994 0.124000
O O8 0.671856 0.000000 0.323210
O O9 0.995224 0.864214 0.263774
O O10 0.000000 0.805963 0.000000
O O11 0.037234 0.500000 0.716671
O O12 0.878164 0.612897 0.879369
O O13 0.000000 0.571902 0.000000
O O14 0.460981 0.206468 0.836640
O O15 0.500000 0.108366 0.000000
O O16 0.237770 0.154143 0.197184
O O17 0.500000 0.696742 0.000000
O O18 0.640548 0.665641 0.086822
O O19 0.865977 0.252162 0.872952
O O20 0.000000 0.214472 0.500000
#
# Coordination Sequence:
#
# PCOD8062173 Si02
#       8
#     4   4   4   4   4   4   4   4
#     4  11  19  34  60  88 114 152 191 246 296 343
#     4  11  25  42  63  88 118 157 199 247 298 360
#     4  12  20  39  63  91 117 151 201 251 301 354
#     4   9  18  33  56  85 115 148 194 243 293 348
#     4  10  22  39  58  86 120 156 195 242 302 360
#     4  10  22  34  55  86 117 149 193 247 293 342
#     4  10  19  35  54  83 117 151 191 237 296 349
#     4  11  23  35  58  93 121 151 195 253 305 349
#
# _framework density 19.559663
#
# number of rings (size 3 to 8) (size 9 to 14) (size 15 to 20)
#    0.000    1.500    3.750    2.250    7.000    0.500 
#    0.000    0.625    0.000    7.875    0.000    0.000 
#    0.000    0.000    0.000    0.000    0.000    0.000 
#
# Total GULP energy -396424.848524 kJ/mol
# GULP energy per Si atom -12388.276516 kJ/mol
# Density = 1.951514 g / cm^3
# Si number density = 19.559663 Si / 1000 Ang^3
#
#
#
# Elastic Constant Matrix: (Units=GPa)
#
#
# Indices 1 2 3 4 5 6 
#
# 1 150.1055 45.8479 55.2804 0.0000 -23.5776 0.0000
# 2 45.8479 63.1602 37.1136 0.0000 -16.4000 0.0000
# 3 55.2804 37.1136 134.4807 0.0000 -19.2360 0.0000
# 4 0.0000 0.0000 0.0000 16.9188 0.0000 -5.0009
# 5 -23.5776 -16.4000 -19.2360 0.0000 34.4280 0.0000
# 6 0.0000 0.0000 0.0000 -5.0009 0.0000 18.9120
#
#
#
# Elastic Compliance Matrix: (Units=1/GPa)
#
#
# Indices 1 2 3 4 5 6 
#
# 1 0.009365 -0.004795 -0.002104 0.000000 0.002954 0.000000
# 2 -0.004795 0.022849 -0.003530 0.000000 0.005628 0.000000
# 3 -0.002104 -0.003530 0.009595 0.000000 0.002239 0.000000
# 4 0.000000 0.000000 0.000000 0.064117 0.000000 0.016955
# 5 0.002954 0.005628 0.002239 0.000000 0.035001 0.000000
# 6 0.000000 0.000000 0.000000 0.016955 0.000000 0.057360
#
#
# Mechanical properties :
#
#
# Convention : Reuss Voigt Hill
#
# Bulk Modulus (GPa) = 47.72725 69.35892 58.54308
# Shear Modulus (GPa) = 22.11124 28.01872 25.06498
#
# Velocity S-wave (km/s) = 3.36587 3.78891 3.58364
# Velocity P-wave (km/s) = 6.28961 7.39448 6.86431
#
# Compressibility (1/GPa) = 0.02095239
#
# Stress axis : x y z
#
# Youngs Moduli (GPa) = 106.77610 43.76573 104.21852
#
# Poissons Ratio (x) = 0.20986 0.21927
# Poissons Ratio (y) = 0.51199 0.36786
# Poissons Ratio (z) = 0.22465 0.15448
#
# Static dielectric constant tensor:
#      x y z
#    x 3.967720 0.000000 -0.242450 
#    y 0.000000 3.410860 0.000000 
#    z -0.242450 0.000000 3.564040 
# 
# 
# High freq. dielectric constant tensor:
#      x y z
#    x 1.780750 0.000000 -0.013860 
#    y 0.000000 1.716260 0.000000 
#    z -0.013860 0.000000 1.765250 
# 
# From -- ./inp_files/26048.got.cif
#   From: 2010.06.25/outbox.cif.g09.slc.cpg/sg10_14_cif.got.tgz:26048.got - 2010.06.27 22:07:45.
