data_PCOD8062970
_publ_section_title
;
Structure prediction by ZEFSAII (Michael W. Deem and Ramdas Pophale) SiO2 
 PCOD8062970
Probable space group: P 2/M
;
_chemical_formula_sum "Si O2"
_cell_formula_units_Z 32
_cell_length_a 27.574764
_cell_length_b 9.360476
_cell_length_c 13.671610
_cell_angle_alpha 90.000000
_cell_angle_beta 149.656753
_cell_angle_gamma 90.000000
_cell_volume 1782.685931
_symmetry_space_group_name_H-M "P 2/M"
_symmetry_group_IT_number 10
_symmetry_cell_setting 'monoclinic'
loop_
_space_group_symop_operation_xyz
x,y,z
-x,y,-z
-x,-y,-z
x,-y,z
loop_
_atom_site_type_symbol
_atom_site_label
_atom_site_fract_x
_atom_site_fract_y
_atom_site_fract_z
Si Si1 0.364183 0.333362 0.652753
Si Si2 0.281079 0.664682 0.300645
Si Si3 0.547477 0.832471 0.482605
Si Si4 0.466243 0.163798 0.135378
Si Si5 0.901026 0.164948 0.515807
Si Si6 0.287971 0.161791 0.698725
Si Si7 0.092806 0.333481 0.868052
Si Si8 0.113575 0.343831 0.691843
O O1 0.381984 0.500000 0.700275
O O2 0.298141 0.301598 0.443907
O O3 0.467151 0.259470 0.818463
O O4 0.309383 0.271171 0.650047
O O5 0.302087 0.500000 0.312514
O O6 0.350396 0.757151 0.352963
O O7 0.170216 0.703521 0.086239
O O8 0.500000 0.775167 0.500000
O O9 0.477864 0.793837 0.269823
O O10 0.566976 0.000000 0.523766
O O11 0.497783 0.000000 0.175024
O O12 0.356877 0.190151 0.912105
O O13 0.821522 0.185740 0.460493
O O14 0.857368 0.229750 0.339558
O O15 0.997228 0.242222 0.720133
O O16 0.924402 0.000000 0.536938
O O17 0.303374 0.000000 0.687696
O O18 0.062820 0.500000 0.816819
O O19 0.145137 0.295266 0.855674
O O20 0.157151 0.500000 0.740942
O O21 0.000000 0.355585 0.500000
#
# Coordination Sequence:
#
# PCOD8062970 Si02
#       8
#     4   4   4   4   4   4   4   4
#     4  10  20  34  53  76  97 120 161 212 250 286
#     4   9  19  35  53  73  98 130 167 204 244 292
#     4   9  18  32  51  77 106 133 163 199 238 285
#     4   9  18  34  53  71  98 135 164 191 239 299
#     4  10  20  32  48  74 103 128 162 207 245 282
#     4  10  21  35  50  70  99 133 163 196 247 301
#     4   9  18  34  53  71  97 134 168 197 239 296
#     4   8  15  29  48  68  93 127 161 192 233 286
#
# _framework density 17.950441999999999
#
# number of rings (size 3 to 8) (size 9 to 14) (size 15 to 20)
#    0.000    2.750    0.000    1.875    0.000    7.500 
#    0.000    1.875    0.000    3.750    0.000    0.000 
#    0.000    0.000    0.000    0.000    0.000    0.000 
#
# Total GULP energy -396751.311301 kJ/mol
# GULP energy per Si atom -12398.478478 kJ/mol
# Density = 1.790959 g / cm^3
# Si number density = 17.950442 Si / 1000 Ang^3
#
#
#
# Elastic Constant Matrix: (Units=GPa)
#
#
# Indices 1 2 3 4 5 6 
#
# 1 99.7579 54.0390 40.0857 0.0000 2.4051 0.0000
# 2 54.0390 86.3856 45.2076 0.0000 5.6444 0.0000
# 3 40.0857 45.2076 96.3955 0.0000 0.9390 0.0000
# 4 0.0000 0.0000 0.0000 17.1797 0.0000 -7.1607
# 5 2.4051 5.6444 0.9390 0.0000 17.7006 0.0000
# 6 0.0000 0.0000 0.0000 -7.1607 0.0000 18.0899
#
#
#
# Elastic Compliance Matrix: (Units=1/GPa)
#
#
# Indices 1 2 3 4 5 6 
#
# 1 0.015625 -0.008505 -0.002516 0.000000 0.000722 0.000000
# 2 -0.008505 0.020339 -0.005953 0.000000 -0.005014 0.000000
# 3 -0.002516 -0.005953 0.014198 0.000000 0.001487 0.000000
# 4 0.000000 0.000000 0.000000 0.069710 0.000000 0.027594
# 5 0.000722 -0.005014 0.001487 0.000000 0.057917 0.000000
# 6 0.000000 0.000000 0.000000 0.027594 0.000000 0.066202
#
#
# Mechanical properties :
#
#
# Convention : Reuss Voigt Hill
#
# Bulk Modulus (GPa) = 61.67561 62.35597 62.01579
# Shear Modulus (GPa) = 17.64640 20.14115 18.89377
#
# Velocity S-wave (km/s) = 3.13878 3.35332 3.24783
# Velocity P-wave (km/s) = 6.89705 7.05736 6.97767
#
# Compressibility (1/GPa) = 0.01621386
#
# Stress axis : x y z
#
# Youngs Moduli (GPa) = 64.00037 49.16584 70.43406
#
# Poissons Ratio (x) = 0.41814 0.17721
# Poissons Ratio (y) = 0.54431 0.41931
# Poissons Ratio (z) = 0.16103 0.29270
#
# Static dielectric constant tensor:
#      x y z
#    x 3.330780 0.000000 -0.274360 
#    y 0.000000 3.359130 0.000000 
#    z -0.274360 0.000000 3.358020 
# 
# 
# High freq. dielectric constant tensor:
#      x y z
#    x 1.682820 0.000000 -0.011940 
#    y 0.000000 1.696800 0.000000 
#    z -0.011940 0.000000 1.688320 
# 
# From -- ./inp_files/72226.got.cif
#   From: 2010.06.25/outbox.cif.g09.slc.cpg/sg10_37_cif.got.tgz:72226.got - 2010.06.27 22:07:45.
