data_PCOD8062643
_publ_section_title
;
Structure prediction by ZEFSAII (Michael W. Deem and Ramdas Pophale) SiO2 
 PCOD8062643
Probable space group: P 2/M
;
_chemical_formula_sum "Si O2"
_cell_formula_units_Z 32
_cell_length_a 11.623517
_cell_length_b 15.268470
_cell_length_c 17.539542
_cell_angle_alpha 90.000000
_cell_angle_beta 29.896110
_cell_angle_gamma 90.000000
_cell_volume 1551.509803
_symmetry_space_group_name_H-M "P 2/M"
_symmetry_group_IT_number 10
_symmetry_cell_setting 'monoclinic'
loop_
_space_group_symop_operation_xyz
x,y,z
-x,y,-z
-x,-y,-z
x,-y,z
loop_
_atom_site_type_symbol
_atom_site_label
_atom_site_fract_x
_atom_site_fract_y
_atom_site_fract_z
Si Si1 0.862221 0.251042 0.156841
Si Si2 0.379627 0.740736 0.361696
Si Si3 0.919751 0.901888 0.881812
Si Si4 0.074884 0.599235 0.134945
Si Si5 0.070198 0.325406 0.297474
Si Si6 0.419879 0.598410 0.208909
Si Si7 0.412760 0.901009 0.235453
Si Si8 0.744844 0.856188 0.829751
O O1 0.590848 0.257354 0.298746
O O2 0.898323 0.166180 0.188806
O O3 0.945342 0.339203 0.149731
O O4 0.000000 0.237485 0.000000
O O5 0.425023 0.665293 0.274902
O O6 0.346054 0.834624 0.340751
O O7 0.151865 0.720556 0.539342
O O8 0.929845 0.895311 0.783515
O O9 0.988689 0.000000 0.867333
O O10 0.667012 0.876087 0.058700
O O11 0.004423 0.500000 0.155056
O O12 0.995906 0.619696 0.266274
O O13 0.350176 0.612670 0.972847
O O14 0.194750 0.388487 0.286148
O O15 0.246416 0.248856 0.173190
O O16 0.410481 0.500000 0.247555
O O17 0.227181 0.891339 0.272874
O O18 0.403998 0.000000 0.272293
O O19 0.500000 0.889917 0.000000
#
# Coordination Sequence:
#
# PCOD8062643 Si02
#       8
#     4   4   4   4   4   4   4   4
#     4  12  23  42  66  92 129 171 219 266 308 374
#     4  12  26  41  61  96 136 176 211 256 319 381
#     4  10  20  37  66  98 123 162 221 275 316 365
#     4  11  24  44  71  98 123 165 217 268 318 377
#     4  12  24  40  65  93 132 168 208 259 326 383
#     4  11  23  42  70  99 128 162 209 267 323 382
#     4  10  20  37  63  96 130 167 212 265 323 382
#     4  10  19  36  65  94 126 163 209 268 323 375
#
# _framework density 20.625070999999998
#
# number of rings (size 3 to 8) (size 9 to 14) (size 15 to 20)
#    0.000    1.000    5.000    2.250    0.000    6.000 
#    0.000    2.500    0.000    0.750    0.000    0.000 
#    0.000    0.000    0.000    0.000    0.000    0.000 
#
# Total GULP energy -396895.532413 kJ/mol
# GULP energy per Si atom -12402.985388 kJ/mol
# Density = 2.057813 g / cm^3
# Si number density = 20.625071 Si / 1000 Ang^3
#
#
#
# Elastic Constant Matrix: (Units=GPa)
#
#
# Indices 1 2 3 4 5 6 
#
# 1 134.3059 57.9053 35.4449 0.0000 -14.3446 0.0000
# 2 57.9053 147.5867 28.7241 0.0000 -4.4022 0.0000
# 3 35.4449 28.7241 68.3516 0.0000 -7.3880 0.0000
# 4 0.0000 0.0000 0.0000 18.9311 0.0000 3.9444
# 5 -14.3446 -4.4022 -7.3880 0.0000 14.8070 0.0000
# 6 0.0000 0.0000 0.0000 3.9444 0.0000 6.5136
#
#
#
# Elastic Compliance Matrix: (Units=1/GPa)
#
#
# Indices 1 2 3 4 5 6 
#
# 1 0.010528 -0.003269 -0.003265 0.000000 0.007599 0.000000
# 2 -0.003269 0.008401 -0.002016 0.000000 -0.001675 0.000000
# 3 -0.003265 -0.002016 0.017719 0.000000 0.005079 0.000000
# 4 0.000000 0.000000 0.000000 0.060450 0.000000 -0.036606
# 5 0.007599 -0.001675 0.005079 0.000000 0.076933 0.000000
# 6 0.000000 0.000000 0.000000 -0.036606 0.000000 0.175694
#
#
# Mechanical properties :
#
#
# Convention : Reuss Voigt Hill
#
# Bulk Modulus (GPa) = 51.15338 66.04365 58.59852
# Shear Modulus (GPa) = 13.39261 23.26167 18.32714
#
# Velocity S-wave (km/s) = 2.55097 3.36197 2.98415
# Velocity P-wave (km/s) = 5.79068 6.86739 6.35189
#
# Compressibility (1/GPa) = 0.01954905
#
# Stress axis : x y z
#
# Youngs Moduli (GPa) = 94.98404 119.03934 56.43513
#
# Poissons Ratio (x) = 0.38910 0.18424
# Poissons Ratio (y) = 0.31047 0.11379
# Poissons Ratio (z) = 0.31008 0.24002
#
# Static dielectric constant tensor:
#      x y z
#    x 3.873430 0.000000 0.027240 
#    y 0.000000 3.826060 0.000000 
#    z 0.027240 0.000000 3.491090 
# 
# 
# High freq. dielectric constant tensor:
#      x y z
#    x 1.809910 0.000000 0.005900 
#    y 0.000000 1.821730 0.000000 
#    z 0.005900 0.000000 1.777410 
# 
# From -- ./inp_files/76979.got.cif
#   From: 2010.06.25/outbox.cif.g09.slc.cpg/sg10_39_cif.got.tgz:76979.got - 2010.06.27 22:07:45.
