data_PCOD8062344
_publ_section_title
;
Structure prediction by ZEFSAII (Michael W. Deem and Ramdas Pophale) SiO2 
 PCOD8062344
Probable space group: P 2/M
;
_chemical_formula_sum "Si O2"
_cell_formula_units_Z 28
_cell_length_a 29.066338
_cell_length_b 8.930952
_cell_length_c 9.052749
_cell_angle_alpha 90.000000
_cell_angle_beta 141.648090
_cell_angle_gamma 90.000000
_cell_volume 1458.153317
_symmetry_space_group_name_H-M "P 2/M"
_symmetry_group_IT_number 10
_symmetry_cell_setting 'monoclinic'
loop_
_space_group_symop_operation_xyz
x,y,z
-x,y,-z
-x,-y,-z
x,-y,z
loop_
_atom_site_type_symbol
_atom_site_label
_atom_site_fract_x
_atom_site_fract_y
_atom_site_fract_z
Si Si1 0.857430 0.326219 0.316836
Si Si2 0.710970 0.823196 0.444545
Si Si3 0.577857 0.326859 0.275735
Si Si4 0.429578 0.322745 0.409517
Si Si5 0.847376 0.324057 0.951875
Si Si6 0.004235 0.831570 0.686018
Si Si7 0.712028 0.675623 0.132927
O O1 0.877583 0.500000 0.374399
O O2 0.838222 0.280801 0.100627
O O3 0.788292 0.284442 0.244108
O O4 0.928318 0.237544 0.558664
O O5 0.637583 0.772088 0.343027
O O6 0.706144 0.770861 0.264785
O O7 0.717452 0.000000 0.467518
O O8 0.782472 0.753381 0.699824
O O9 0.603787 0.500000 0.339482
O O10 0.570828 0.263516 0.424038
O O11 0.500000 0.307251 0.000000
O O12 0.500000 0.253530 0.500000
O O13 0.436988 0.500000 0.431412
O O14 0.354333 0.272671 0.140520
O O15 0.842962 0.500000 0.914274
O O16 0.925513 0.265143 0.084209
O O17 0.000000 0.826604 0.500000
O O18 0.012927 0.000000 0.767641
O O19 0.706339 0.500000 0.156518
#
# Coordination Sequence:
#
# PCOD8062344 Si02
#       7
#     4   4   4   4   4   4   4
#     4   9  18  33  56  83 108 140 185 234 278 325
#     4  12  25  38  53  78 114 150 185 226 275 328
#     4  10  20  37  63  89 112 143 183 225 271 324
#     4   9  17  32  58  89 113 137 178 229 273 316
#     4  10  19  35  59  83 108 141 185 231 275 326
#     4   9  17  30  51  81 115 146 177 219 275 335
#     4  10  20  36  56  78 108 145 187 231 273 322
#
# _framework density 19.202370999999999
#
# number of rings (size 3 to 8) (size 9 to 14) (size 15 to 20)
#    0.000    2.143    0.000    3.857    0.000    7.714 
#    0.000    2.857    0.000    6.000    0.000    0.000 
#    0.000    0.000    0.000    0.000    0.000    0.000 
#
# Total GULP energy -347271.616400 kJ/mol
# GULP energy per Si atom -12402.557729 kJ/mol
# Density = 1.915867 g / cm^3
# Si number density = 19.202371 Si / 1000 Ang^3
#
#
#
# Elastic Constant Matrix: (Units=GPa)
#
#
# Indices 1 2 3 4 5 6 
#
# 1 124.6594 48.7677 69.0382 0.0000 7.8679 0.0000
# 2 48.7677 88.9424 62.6688 0.0000 4.1093 0.0000
# 3 69.0382 62.6688 121.4551 0.0000 7.8867 0.0000
# 4 0.0000 0.0000 0.0000 19.3686 0.0000 1.2087
# 5 7.8679 4.1093 7.8867 0.0000 34.3247 0.0000
# 6 0.0000 0.0000 0.0000 1.2087 0.0000 16.0384
#
#
#
# Elastic Compliance Matrix: (Units=1/GPa)
#
#
# Indices 1 2 3 4 5 6 
#
# 1 0.012191 -0.002830 -0.005390 0.000000 -0.001217 0.000000
# 2 -0.002830 0.018323 -0.007863 0.000000 0.000262 0.000000
# 3 -0.005390 -0.007863 0.015444 0.000000 -0.001372 0.000000
# 4 0.000000 0.000000 0.000000 0.051874 0.000000 -0.003910
# 5 -0.001217 0.000262 -0.001372 0.000000 0.029696 0.000000
# 6 0.000000 0.000000 0.000000 -0.003910 0.000000 0.062645
#
#
# Mechanical properties :
#
#
# Convention : Reuss Voigt Hill
#
# Bulk Modulus (GPa) = 72.50937 77.33401 74.92169
# Shear Modulus (GPa) = 22.03263 24.25183 23.14223
#
# Velocity S-wave (km/s) = 3.39099 3.55767 3.47533
# Velocity P-wave (km/s) = 7.29208 7.56549 7.43004
#
# Compressibility (1/GPa) = 0.01379132
#
# Stress axis : x y z
#
# Youngs Moduli (GPa) = 82.02677 54.57653 64.75200
#
# Poissons Ratio (x) = 0.15446 0.34904
# Poissons Ratio (y) = 0.23215 0.50912
# Poissons Ratio (z) = 0.44216 0.42911
#
# Static dielectric constant tensor:
#      x y z
#    x 3.649110 0.000000 0.068940 
#    y 0.000000 3.377580 0.000000 
#    z 0.068940 0.000000 3.766000 
# 
# 
# High freq. dielectric constant tensor:
#      x y z
#    x 1.748550 0.000000 0.013990 
#    y 0.000000 1.727690 0.000000 
#    z 0.013990 0.000000 1.756560 
# 
# From -- ./inp_files/36829.got.cif
#   From: 2010.06.25/outbox.cif.g09.slc.cpg/sg10_19_cif.got.tgz:36829.got - 2010.06.27 22:07:45.
