data_PCOD8062010
_publ_section_title
;
Structure prediction by ZEFSAII (Michael W. Deem and Ramdas Pophale) SiO2 
 PCOD8062010
Probable space group: P 2/M
;
_chemical_formula_sum "Si O2"
_cell_formula_units_Z 32
_cell_length_a 18.137340
_cell_length_b 8.806641
_cell_length_c 14.142791
_cell_angle_alpha 90.000000
_cell_angle_beta 43.612042
_cell_angle_gamma 90.000000
_cell_volume 1558.204310
_symmetry_space_group_name_H-M "P 2/M"
_symmetry_group_IT_number 10
_symmetry_cell_setting 'monoclinic'
loop_
_space_group_symop_operation_xyz
x,y,z
-x,y,-z
-x,-y,-z
x,-y,z
loop_
_atom_site_type_symbol
_atom_site_label
_atom_site_fract_x
_atom_site_fract_y
_atom_site_fract_z
Si Si1 0.502476 0.327035 0.108891
Si Si2 0.964306 0.821832 0.137577
Si Si3 0.354067 0.177649 0.884425
Si Si4 0.134171 0.679840 0.116966
Si Si5 0.462237 0.173608 0.428936
Si Si6 0.239556 0.676340 0.597970
Si Si7 0.271334 0.677731 0.358375
Si Si8 0.110011 0.318804 0.353762
O O1 0.519750 0.500000 0.127341
O O2 0.600825 0.227309 0.055377
O O3 0.391327 0.254849 0.250374
O O4 0.500000 0.317273 0.000000
O O5 0.032992 0.735090 0.151889
O O6 0.840598 0.775637 0.264538
O O7 0.978652 0.000000 0.139116
O O8 0.000000 0.771847 0.000000
O O9 0.439996 0.230763 0.726726
O O10 0.332815 0.000000 0.900388
O O11 0.241719 0.258754 0.968459
O O12 0.135476 0.500000 0.114789
O O13 0.125162 0.741808 0.233012
O O14 0.500000 0.190338 0.500000
O O15 0.360785 0.279865 0.507601
O O16 0.431736 0.000000 0.432678
O O17 0.223170 0.500000 0.637216
O O18 0.213497 0.708996 0.511757
O O19 0.284715 0.500000 0.326488
O O20 0.203349 0.747519 0.334961
O O21 0.110963 0.500000 0.353714
O O22 0.000000 0.257261 0.500000
#
# Coordination Sequence:
#
# PCOD8062010 Si02
#       8
#     4   4   4   4   4   4   4   4
#     4  10  19  34  57  84 118 162 210 252 298 357
#     4  11  26  46  66  87 120 165 206 248 308 376
#     4  11  23  39  60  88 127 167 205 250 306 372
#     4  11  23  40  65  94 124 158 205 260 306 357
#     4  10  23  42  63  87 121 169 211 245 304 379
#     4  11  22  39  66  97 125 153 200 263 309 353
#     4   9  17  31  54  87 122 154 192 242 299 354
#     4   9  17  32  57  88 120 156 197 243 301 361
#
# _framework density 20.536459000000001
#
# number of rings (size 3 to 8) (size 9 to 14) (size 15 to 20)
#    0.000    1.750    1.250    3.000    1.750    6.000 
#    0.000    0.000    0.000    9.000    0.000    0.000 
#    0.000    0.000    0.000    0.000    0.000    0.000 
#
# Total GULP energy -396887.523979 kJ/mol
# GULP energy per Si atom -12402.735124 kJ/mol
# Density = 2.048972 g / cm^3
# Si number density = 20.536459 Si / 1000 Ang^3
#
#
#
# Elastic Constant Matrix: (Units=GPa)
#
#
# Indices 1 2 3 4 5 6 
#
# 1 85.1203 25.7625 33.3928 0.0000 -0.5123 0.0000
# 2 25.7625 51.7547 35.1621 0.0000 3.1581 0.0000
# 3 33.3928 35.1621 125.8821 0.0000 -6.4277 0.0000
# 4 0.0000 0.0000 0.0000 26.7307 0.0000 -6.5492
# 5 -0.5123 3.1581 -6.4277 0.0000 34.8737 0.0000
# 6 0.0000 0.0000 0.0000 -6.5492 0.0000 26.6426
#
#
#
# Elastic Compliance Matrix: (Units=1/GPa)
#
#
# Indices 1 2 3 4 5 6 
#
# 1 0.014326 -0.005652 -0.002205 0.000000 0.000316 0.000000
# 2 -0.005652 0.026488 -0.006084 0.000000 -0.003603 0.000000
# 3 -0.002205 -0.006084 0.010352 0.000000 0.002427 0.000000
# 4 0.000000 0.000000 0.000000 0.039808 0.000000 0.009785
# 5 0.000316 -0.003603 0.002427 0.000000 0.029453 0.000000
# 6 0.000000 0.000000 0.000000 0.009785 0.000000 0.039939
#
#
# Mechanical properties :
#
#
# Convention : Reuss Voigt Hill
#
# Bulk Modulus (GPa) = 42.94707 50.15465 46.55086
# Shear Modulus (GPa) = 25.50891 28.87870 27.19380
#
# Velocity S-wave (km/s) = 3.52821 3.75402 3.64287
# Velocity P-wave (km/s) = 6.12827 6.57765 6.35693
#
# Compressibility (1/GPa) = 0.02328448
#
# Stress axis : x y z
#
# Youngs Moduli (GPa) = 69.80418 37.75234 96.59839
#
# Poissons Ratio (x) = 0.21338 0.21303
# Poissons Ratio (y) = 0.39454 0.58766
# Poissons Ratio (z) = 0.15394 0.22967
#
# Static dielectric constant tensor:
#      x y z
#    x 3.774600 0.000000 -0.019080 
#    y 0.000000 3.445600 0.000000 
#    z -0.019080 0.000000 4.206030 
# 
# 
# High freq. dielectric constant tensor:
#      x y z
#    x 1.811940 0.000000 -0.002570 
#    y 0.000000 1.772940 0.000000 
#    z -0.002570 0.000000 1.817580 
# 
# From -- ./inp_files/69983.got.cif
#   From: 2010.06.25/outbox.cif.g09.slc.cpg/sg10_35_cif.got.tgz:69983.got - 2010.06.27 22:07:45.
