data_PCOD8062800
_publ_section_title
;
Structure prediction by ZEFSAII (Michael W. Deem and Ramdas Pophale) SiO2 
 PCOD8062800
Probable space group: P 2/M
;
_chemical_formula_sum "Si O2"
_cell_formula_units_Z 28
_cell_length_a 24.181038
_cell_length_b 11.618244
_cell_length_c 20.262704
_cell_angle_alpha 90.000000
_cell_angle_beta 163.260873
_cell_angle_gamma 90.000000
_cell_volume 1639.559770
_symmetry_space_group_name_H-M "P 2/M"
_symmetry_group_IT_number 10
_symmetry_cell_setting 'monoclinic'
loop_
_space_group_symop_operation_xyz
x,y,z
-x,y,-z
-x,-y,-z
x,-y,z
loop_
_atom_site_type_symbol
_atom_site_label
_atom_site_fract_x
_atom_site_fract_y
_atom_site_fract_z
Si Si1 0.157545 0.744169 0.735540
Si Si2 0.060435 0.363158 0.876528
Si Si3 0.132956 0.363675 0.209962
Si Si4 0.683348 0.500000 0.114671
Si Si5 0.267774 0.500000 0.674547
Si Si6 0.473412 0.863923 0.894615
Si Si7 0.525282 0.363735 0.602203
Si Si8 0.093041 0.732628 0.431214
O O1 0.214573 0.609961 0.800360
O O2 0.000000 0.772331 0.500000
O O3 0.071571 0.781592 0.708192
O O4 0.346219 0.820549 0.941060
O O5 0.040889 0.500000 0.839108
O O6 0.935803 0.324314 0.796919
O O7 0.988119 0.284025 0.734569
O O8 0.278325 0.325120 0.139311
O O9 0.119333 0.500000 0.189806
O O10 0.350514 0.320367 0.448183
O O11 0.000000 0.310860 0.000000
O O12 0.690765 0.500000 0.201288
O O13 0.454434 0.500000 0.839621
O O14 0.144122 0.610567 0.519375
O O15 0.277359 0.815251 0.639920
O O16 0.463561 0.000000 0.880437
O O17 0.500000 0.818823 0.000000
O O18 0.500000 0.310654 0.500000
O O19 0.523936 0.500000 0.593907
#
# Coordination Sequence:
#
# PCOD8062800 Si02
#       8
#     4   4   4   2   2   4   4   4
#     4  12  22  35  57  81 105 142 183 223 272 323
#     4  10  20  30  45  73 108 143 177 216 260 310
#     4   9  15  26  45  65  94 142 186 213 244 296
#     4  11  20  33  56  77 103 143 187 212 260 328
#     4  11  19  34  55  73 108 146 175 219 266 325
#     4  11  24  42  61  80 101 136 189 239 280 326
#     4   9  15  26  43  64  93 135 184 214 237 294
#     4  12  23  37  53  80 113 142 177 229 278 324
#
# _framework density 17.077756000000001
#
# number of rings (size 3 to 8) (size 9 to 14) (size 15 to 20)
#    0.000    1.429    6.429    0.643    0.000    2.000 
#    0.000    0.000    0.000    0.000    0.000    0.000 
#    0.000    1.143    0.000    0.143    0.000    0.000 
#
# Total GULP energy -347176.504753 kJ/mol
# GULP energy per Si atom -12399.160884 kJ/mol
# Density = 1.703889 g / cm^3
# Si number density = 17.077756 Si / 1000 Ang^3
#
#
#
# Elastic Constant Matrix: (Units=GPa)
#
#
# Indices 1 2 3 4 5 6 
#
# 1 141.3294 20.1411 84.6618 0.0000 7.9613 0.0000
# 2 20.1411 43.0908 28.7091 0.0000 -0.1905 0.0000
# 3 84.6618 28.7091 137.8506 0.0000 12.8209 0.0000
# 4 0.0000 0.0000 0.0000 5.0528 0.0000 -3.5892
# 5 7.9613 -0.1905 12.8209 0.0000 37.0727 0.0000
# 6 0.0000 0.0000 0.0000 -3.5892 0.0000 11.0375
#
#
#
# Elastic Compliance Matrix: (Units=1/GPa)
#
#
# Indices 1 2 3 4 5 6 
#
# 1 0.011216 -0.000765 -0.006721 0.000000 -0.000088 0.000000
# 2 -0.000765 0.027164 -0.005389 0.000000 0.002168 0.000000
# 3 -0.006721 -0.005389 0.012784 0.000000 -0.003005 0.000000
# 4 0.000000 0.000000 0.000000 0.257352 0.000000 0.083685
# 5 -0.000088 0.002168 -0.003005 0.000000 0.028044 0.000000
# 6 0.000000 0.000000 0.000000 0.083685 0.000000 0.117813
#
#
# Mechanical properties :
#
#
# Convention : Reuss Voigt Hill
#
# Bulk Modulus (GPa) = 39.34815 65.47719 52.41267
# Shear Modulus (GPa) = 10.23348 23.21654 16.72501
#
# Velocity S-wave (km/s) = 2.45057 3.69109 3.13284
# Velocity P-wave (km/s) = 5.57653 7.52259 6.62144
#
# Compressibility (1/GPa) = 0.02541415
#
# Stress axis : x y z
#
# Youngs Moduli (GPa) = 89.16202 36.81285 78.22560
#
# Poissons Ratio (x) = 0.02817 0.52572
# Poissons Ratio (y) = 0.06822 0.42156
# Poissons Ratio (z) = 0.59922 0.19839
#
# Static dielectric constant tensor:
#      x y z
#    x 3.325820 0.000000 0.227070 
#    y 0.000000 2.707900 0.000000 
#    z 0.227070 0.000000 3.469440 
# 
# 
# High freq. dielectric constant tensor:
#      x y z
#    x 1.662220 0.000000 0.018880 
#    y 0.000000 1.596650 0.000000 
#    z 0.018880 0.000000 1.673130 
# 
# From -- ./inp_files/79600.got.cif
#   From: 2010.06.25/outbox.cif.g09.slc.cpg/sg10_40_cif.got.tgz:79600.got - 2010.06.27 22:07:45.
