data_PCOD8062664
_publ_section_title
;
Structure prediction by ZEFSAII (Michael W. Deem and Ramdas Pophale) SiO2 
 PCOD8062664
Probable space group: P 2/M
;
_chemical_formula_sum "Si O2"
_cell_formula_units_Z 30
_cell_length_a 26.850154
_cell_length_b 9.598720
_cell_length_c 11.390376
_cell_angle_alpha 90.000000
_cell_angle_beta 147.491286
_cell_angle_gamma 90.000000
_cell_volume 1577.677931
_symmetry_space_group_name_H-M "P 2/M"
_symmetry_group_IT_number 10
_symmetry_cell_setting 'monoclinic'
loop_
_space_group_symop_operation_xyz
x,y,z
-x,y,-z
-x,-y,-z
x,-y,z
loop_
_atom_site_type_symbol
_atom_site_label
_atom_site_fract_x
_atom_site_fract_y
_atom_site_fract_z
Si Si1 0.171179 0.663016 0.102790
Si Si2 0.837414 0.831027 0.432253
Si Si3 0.359525 0.158846 0.035965
Si Si4 0.008497 0.658007 0.379595
Si Si5 0.500000 0.721647 0.500000
Si Si6 0.508263 0.838185 0.146926
Si Si7 0.109516 0.662796 0.233856
Si Si8 0.626766 0.653394 0.542736
O O1 0.157878 0.500000 0.070583
O O2 0.164354 0.709863 0.225209
O O3 0.267321 0.705285 0.228621
O O4 0.085643 0.724818 0.859683
O O5 0.741687 0.773779 0.181995
O O6 0.913927 0.769323 0.498552
O O7 0.849788 0.762332 0.584665
O O8 0.842856 0.000000 0.453053
O O9 0.338428 0.000000 0.010415
O O10 0.422843 0.195338 0.273620
O O11 0.412025 0.192363 0.019673
O O12 0.029473 0.500000 0.372623
O O13 0.000000 0.649900 0.500000
O O14 0.564490 0.638156 0.536784
O O15 0.589338 0.760860 0.374714
O O16 0.534663 0.000000 0.199598
O O17 0.500000 0.778372 0.000000
O O18 0.127317 0.500000 0.299440
O O19 0.000000 0.689440 0.000000
O O20 0.628490 0.500000 0.488773
#
# Coordination Sequence:
#
# PCOD8062664 Si02
#       8
#     4   4   4   4   2   4   4   4
#     4   9  19  36  57  83 114 148 188 235 281 335
#     4  11  23  37  57  88 122 148 184 242 295 334
#     4   9  20  37  57  82 112 149 188 231 283 342
#     4  10  21  39  62  84 112 155 198 229 271 339
#     4  10  20  38  62  80 109 150 193 236 283 354
#     4   9  19  37  58  78 107 148 190 227 271 336
#     4  10  19  37  61  81 112 155 200 235 274 343
#     4  10  21  36  56  85 115 142 181 238 295 330
#
# _framework density 19.015288000000002
#
# number of rings (size 3 to 8) (size 9 to 14) (size 15 to 20)
#    0.000    2.267    1.333    0.800    3.733    1.333 
#    0.000    6.667    0.000    0.000    0.000    0.000 
#    0.000    0.000    0.000    0.000    0.000    0.000 
#
# Total GULP energy -371646.847843 kJ/mol
# GULP energy per Si atom -12388.228261 kJ/mol
# Density = 1.897201 g / cm^3
# Si number density = 19.015288 Si / 1000 Ang^3
#
#
#
# Elastic Constant Matrix: (Units=GPa)
#
#
# Indices 1 2 3 4 5 6 
#
# 1 108.6157 27.1781 65.1823 0.0000 6.8662 0.0000
# 2 27.1781 81.6058 54.4873 0.0000 0.5784 0.0000
# 3 65.1823 54.4873 163.8452 0.0000 10.4403 0.0000
# 4 0.0000 0.0000 0.0000 36.9242 0.0000 -13.0895
# 5 6.8662 0.5784 10.4403 0.0000 36.8892 0.0000
# 6 0.0000 0.0000 0.0000 -13.0895 0.0000 42.6003
#
#
#
# Elastic Compliance Matrix: (Units=1/GPa)
#
#
# Indices 1 2 3 4 5 6 
#
# 1 0.012200 -0.001103 -0.004423 0.000000 -0.001002 0.000000
# 2 -0.001103 0.015909 -0.004938 0.000000 0.001353 0.000000
# 3 -0.004423 -0.004938 0.009621 0.000000 -0.001822 0.000000
# 4 0.000000 0.000000 0.000000 0.030393 0.000000 0.009339
# 5 -0.001002 0.001353 -0.001822 0.000000 0.027789 0.000000
# 6 0.000000 0.000000 0.000000 0.009339 0.000000 0.026343
#
#
# Mechanical properties :
#
#
# Convention : Reuss Voigt Hill
#
# Bulk Modulus (GPa) = 59.51499 71.97357 65.74428
# Shear Modulus (GPa) = 33.60557 37.09735 35.35146
#
# Velocity S-wave (km/s) = 4.20848 4.42172 4.31641
# Velocity P-wave (km/s) = 7.41495 8.00008 7.71307
#
# Compressibility (1/GPa) = 0.01680249
#
# Stress axis : x y z
#
# Youngs Moduli (GPa) = 81.96417 62.85833 103.93704
#
# Poissons Ratio (x) = 0.06933 0.45972
# Poissons Ratio (y) = 0.09040 0.51324
# Poissons Ratio (z) = 0.36253 0.31039
#
# Static dielectric constant tensor:
#      x y z
#    x 3.677500 0.000000 0.011990 
#    y 0.000000 3.316520 0.000000 
#    z 0.011990 0.000000 3.884850 
# 
# 
# High freq. dielectric constant tensor:
#      x y z
#    x 1.748580 0.000000 0.004270 
#    y 0.000000 1.714150 0.000000 
#    z 0.004270 0.000000 1.749680 
# 
# From -- ./inp_files/58029.got.cif
#   From: 2010.06.25/outbox.cif.g09.slc.cpg/sg10_30_cif.got.tgz:58029.got - 2010.06.27 22:07:45.
