data_PCOD8062766
_publ_section_title
;
Structure prediction by ZEFSAII (Michael W. Deem and Ramdas Pophale) SiO2 
 PCOD8062766
Probable space group: P 2/M
;
_chemical_formula_sum "Si O2"
_cell_formula_units_Z 24
_cell_length_a 15.000969
_cell_length_b 8.391298
_cell_length_c 14.663954
_cell_angle_alpha 90.000000
_cell_angle_beta 140.072515
_cell_angle_gamma 90.000000
_cell_volume 1184.707531
_symmetry_space_group_name_H-M "P 2/M"
_symmetry_group_IT_number 10
_symmetry_cell_setting 'monoclinic'
loop_
_space_group_symop_operation_xyz
x,y,z
-x,y,-z
-x,-y,-z
x,-y,z
loop_
_atom_site_type_symbol
_atom_site_label
_atom_site_fract_x
_atom_site_fract_y
_atom_site_fract_z
Si Si1 0.347831 0.184981 0.634684
Si Si2 0.108729 0.682108 0.327707
Si Si3 0.343444 0.811333 0.159389
Si Si4 0.358028 0.684642 0.839769
Si Si5 0.145271 0.186887 0.161352
Si Si6 0.817643 0.185312 0.142681
O O1 0.233182 0.289741 0.495237
O O2 0.497436 0.244816 0.715600
O O3 0.338266 0.208970 0.735116
O O4 0.324832 0.000000 0.593548
O O5 0.060687 0.500000 0.296518
O O6 0.161456 0.719515 0.267807
O O7 0.980986 0.794263 0.254779
O O8 0.268031 0.750431 0.191740
O O9 0.330271 0.000000 0.144560
O O10 0.265276 0.742983 0.009038
O O11 0.361926 0.500000 0.815075
O O12 0.228743 0.717621 0.804736
O O13 0.500000 0.738285 0.000000
O O14 0.157797 0.000000 0.191783
O O15 0.000000 0.227537 0.000000
O O16 0.784414 0.000000 0.131607
#
# Coordination Sequence:
#
# PCOD8062766 Si02
#       6
#     4   4   4   4   4   4
#     4  11  23  42  65  91 123 166 213 258 303 361
#     4  12  26  42  59  91 132 166 201 256 322 374
#     4   9  19  36  64  95 120 153 208 263 301 349
#     4  11  23  39  62  96 132 164 197 249 315 374
#     4  10  19  38  66  93 121 160 209 258 303 364
#     4  11  21  40  67  94 120 161 214 257 300 364
#
# _framework density 20.258164000000001
#
# number of rings (size 3 to 8) (size 9 to 14) (size 15 to 20)
#    0.000    1.333    3.333    3.000    0.000    2.333 
#    0.000    8.333    0.000    0.000    0.000    0.000 
#    0.000    0.000    0.000    0.000    0.000    0.000 
#
# Total GULP energy -297753.477558 kJ/mol
# GULP energy per Si atom -12406.394898 kJ/mol
# Density = 2.021206 g / cm^3
# Si number density = 20.258164 Si / 1000 Ang^3
#
#
#
# Elastic Constant Matrix: (Units=GPa)
#
#
# Indices 1 2 3 4 5 6 
#
# 1 136.1921 8.5424 30.3424 0.0000 0.1968 0.0000
# 2 8.5424 48.9182 16.0577 0.0000 -3.4068 0.0000
# 3 30.3424 16.0577 93.6659 0.0000 -1.2359 0.0000
# 4 0.0000 0.0000 0.0000 25.3275 0.0000 -0.4621
# 5 0.1968 -3.4068 -1.2359 0.0000 33.3422 0.0000
# 6 0.0000 0.0000 0.0000 -0.4621 0.0000 -9.7777
#
#
#
# Elastic Compliance Matrix: (Units=1/GPa)
#
#
# Indices 1 2 3 4 5 6 
#
# 1 0.007930 -0.000588 -0.002471 0.000000 -0.000198 0.000000
# 2 -0.000588 0.021849 -0.003528 0.000000 0.002105 0.000000
# 3 -0.002471 -0.003528 0.012083 0.000000 0.000102 0.000000
# 4 0.000000 0.000000 0.000000 0.039449 0.000000 -0.001865
# 5 -0.000198 0.002105 0.000102 0.000000 0.030212 0.000000
# 6 0.000000 0.000000 0.000000 -0.001865 0.000000 -0.102185
#
#
# Mechanical properties :
#
#
# Convention : Reuss Voigt Hill
#
# Bulk Modulus (GPa) = 34.85499 43.18459 39.01979
# Shear Modulus (GPa) = 155.89322 24.70067 90.29694
#
# Velocity S-wave (km/s) = 8.78182 3.49563 6.68355
# Velocity P-wave (km/s) = 10.95764 6.13645 8.88048
#
# Compressibility (1/GPa) = 0.02869029
#
# Stress axis : x y z
#
# Youngs Moduli (GPa) = 126.10044 45.76771 82.76248
#
# Poissons Ratio (x) = 0.02689 0.20449
# Poissons Ratio (y) = 0.07409 0.29196
# Poissons Ratio (z) = 0.31157 0.16145
#
# Static dielectric constant tensor:
#      x y z
#    x 3.882990 0.000000 -0.012240 
#    y 0.000000 3.419740 0.000000 
#    z -0.012240 0.000000 3.600210 
# 
# 
# High freq. dielectric constant tensor:
#      x y z
#    x 1.806490 0.000000 0.000000 
#    y 0.000000 1.775890 0.000000 
#    z 0.000000 0.000000 1.786980 
# 
# From -- ./inp_files/66694.got.cif
#   From: 2010.06.25/outbox.cif.g09.slc.cpg/sg10_34_cif.got.tgz:66694.got - 2010.06.27 22:07:45.
