data_PCOD8062073
_publ_section_title
;
Structure prediction by ZEFSAII (Michael W. Deem and Ramdas Pophale) SiO2 
 PCOD8062073
Probable space group: P 2/M
;
_chemical_formula_sum "Si O2"
_cell_formula_units_Z 26
_cell_length_a 8.180228
_cell_length_b 9.694537
_cell_length_c 20.654334
_cell_angle_alpha 90.000000
_cell_angle_beta 128.824492
_cell_angle_gamma 90.000000
_cell_volume 1276.086697
_symmetry_space_group_name_H-M "P 2/M"
_symmetry_group_IT_number 10
_symmetry_cell_setting 'monoclinic'
loop_
_space_group_symop_operation_xyz
x,y,z
-x,y,-z
-x,-y,-z
x,-y,z
loop_
_atom_site_type_symbol
_atom_site_label
_atom_site_fract_x
_atom_site_fract_y
_atom_site_fract_z
Si Si1 0.156393 0.161966 0.986081
Si Si2 0.591215 0.847382 0.662423
Si Si3 0.500000 0.783205 0.500000
Si Si4 0.954240 0.163158 0.180917
Si Si5 0.635221 0.659361 0.300625
Si Si6 0.918596 0.344311 0.546348
Si Si7 0.563831 0.838460 0.164091
O O1 0.393823 0.192533 0.066298
O O2 0.114096 0.000000 0.970866
O O3 0.104360 0.228990 0.903426
O O4 0.000000 0.227942 0.000000
O O5 0.573589 0.869104 0.580643
O O6 0.426820 0.733371 0.646899
O O7 0.818581 0.788696 0.738902
O O8 0.552982 0.000000 0.683506
O O9 0.293510 0.702780 0.471915
O O10 0.785346 0.212423 0.191447
O O11 0.940166 0.000000 0.172570
O O12 0.559987 0.500000 0.281847
O O13 0.517532 0.745647 0.215479
O O14 0.887223 0.668532 0.355008
O O15 0.870905 0.500000 0.514285
O O16 0.000000 0.268133 0.500000
O O17 0.559287 0.000000 0.182826
#
# Coordination Sequence:
#
# PCOD8062073 Si02
#       7
#     4   4   2   4   4   4   4
#     4   9  16  28  52  85 116 150 191 234 282 344
#     4  11  23  39  59  86 121 155 195 243 298 357
#     4  12  22  38  64  90 119 154 195 250 309 352
#     4   9  18  33  55  85 118 152 194 239 285 350
#     4  11  23  40  60  85 118 154 199 243 290 353
#     4  10  21  39  60  86 117 154 200 243 287 351
#     4  10  19  34  58  86 117 151 190 241 297 343
#
# _framework density 20.374790000000001
#
# number of rings (size 3 to 8) (size 9 to 14) (size 15 to 20)
#    0.000    1.846    1.538    3.231    0.000    4.923 
#    0.000    3.846    0.000    6.000    0.000    0.000 
#    0.000    0.000    0.000    0.000    0.000    0.000 
#
# Total GULP energy -322185.131822 kJ/mol
# GULP energy per Si atom -12391.735839 kJ/mol
# Density = 2.032842 g / cm^3
# Si number density = 20.374790 Si / 1000 Ang^3
#
#
#
# Elastic Constant Matrix: (Units=GPa)
#
#
# Indices 1 2 3 4 5 6 
#
# 1 124.4725 42.0514 38.1233 0.0000 7.3651 0.0000
# 2 42.0514 75.6707 36.4355 0.0000 1.2329 0.0000
# 3 38.1233 36.4355 121.2785 0.0000 -6.9864 0.0000
# 4 0.0000 0.0000 0.0000 16.3885 0.0000 1.4597
# 5 7.3651 1.2329 -6.9864 0.0000 39.0522 0.0000
# 6 0.0000 0.0000 0.0000 1.4597 0.0000 18.6722
#
#
#
# Elastic Compliance Matrix: (Units=1/GPa)
#
#
# Indices 1 2 3 4 5 6 
#
# 1 0.010377 -0.004795 -0.001946 0.000000 -0.002154 0.000000
# 2 -0.004795 0.017734 -0.003840 0.000000 -0.000343 0.000000
# 3 -0.001946 -0.003840 0.010143 0.000000 0.002303 0.000000
# 4 0.000000 0.000000 0.000000 0.061446 0.000000 -0.004803
# 5 -0.002154 -0.000343 0.002303 0.000000 0.026436 0.000000
# 6 0.000000 0.000000 0.000000 -0.004803 0.000000 0.053931
#
#
# Mechanical properties :
#
#
# Convention : Reuss Voigt Hill
#
# Bulk Modulus (GPa) = 58.50213 61.62691 60.06452
# Shear Modulus (GPa) = 24.16305 28.47668 26.31986
#
# Velocity S-wave (km/s) = 3.44747 3.74256 3.59804
# Velocity P-wave (km/s) = 6.67997 6.99914 6.84142
#
# Compressibility (1/GPa) = 0.01709339
#
# Stress axis : x y z
#
# Youngs Moduli (GPa) = 96.36606 56.38735 98.58537
#
# Poissons Ratio (x) = 0.27037 0.19180
# Poissons Ratio (y) = 0.46206 0.37861
# Poissons Ratio (z) = 0.18749 0.21655
#
# Static dielectric constant tensor:
#      x y z
#    x 3.850140 0.000000 -0.025610 
#    y 0.000000 3.144770 0.000000 
#    z -0.025610 0.000000 3.864440 
# 
# 
# High freq. dielectric constant tensor:
#      x y z
#    x 1.805510 0.000000 0.002080 
#    y 0.000000 1.738480 0.000000 
#    z 0.002080 0.000000 1.814350 
# 
# From -- ./inp_files/82251.got.cif
#   From: 2010.06.25/outbox.cif.g09.slc.cpg/sg10_42_cif.got.tgz:82251.got - 2010.06.27 22:07:45.
