data_PCOD8062415
_publ_section_title
;
Structure prediction by ZEFSAII (Michael W. Deem and Ramdas Pophale) SiO2 
 PCOD8062415
Probable space group: P 2/M
;
_chemical_formula_sum "Si O2"
_cell_formula_units_Z 28
_cell_length_a 15.941911
_cell_length_b 20.135797
_cell_length_c 10.735922
_cell_angle_alpha 90.000000
_cell_angle_beta 156.908957
_cell_angle_gamma 90.000000
_cell_volume 1351.601736
_symmetry_space_group_name_H-M "P 2/M"
_symmetry_group_IT_number 10
_symmetry_cell_setting 'monoclinic'
loop_
_space_group_symop_operation_xyz
x,y,z
-x,y,-z
-x,-y,-z
x,-y,z
loop_
_atom_site_type_symbol
_atom_site_label
_atom_site_fract_x
_atom_site_fract_y
_atom_site_fract_z
Si Si1 0.661685 0.924914 0.608465
Si Si2 0.757050 0.250954 0.194633
Si Si3 0.989710 0.811038 0.119524
Si Si4 0.299539 0.290378 0.148381
Si Si5 0.558099 0.133089 0.206927
Si Si6 0.286990 0.392129 0.784196
Si Si7 0.820830 0.427094 0.086423
O O1 0.500000 0.916216 0.500000
O O2 0.542981 0.908126 0.314871
O O3 0.748044 0.000000 0.718114
O O4 0.857963 0.877893 0.909413
O O5 0.747477 0.312497 0.278291
O O6 0.000000 0.229911 0.500000
O O7 0.642339 0.279218 0.914850
O O8 0.625848 0.187962 0.058111
O O9 0.211539 0.832033 0.484236
O O10 0.894340 0.758974 0.085510
O O11 0.000000 0.773561 0.000000
O O12 0.500000 0.265756 0.500000
O O13 0.248678 0.368324 0.103468
O O14 0.500000 0.090865 0.000000
O O15 0.294497 0.414472 0.938487
O O16 0.078088 0.427082 0.442790
O O17 0.500000 0.414574 0.000000
O O18 0.750182 0.500000 0.940344
#
# Coordination Sequence:
#
# PCOD8062415 Si02
#       7
#     4   4   4   4   4   4   4
#     4  10  22  43  65  86 120 171 216 244 294 380
#     4  11  20  36  58  89 121 156 198 249 313 362
#     4  10  21  38  61  90 118 160 207 250 299 367
#     4  11  21  37  58  82 116 158 201 251 301 362
#     4  11  23  34  60  97 127 154 194 265 321 359
#     4  10  19  35  61  85 113 156 204 253 298 375
#     4  10  22  38  55  84 118 156 202 252 313 373
#
# _framework density 20.716159999999999
#
# number of rings (size 3 to 8) (size 9 to 14) (size 15 to 20)
#    0.000    1.571    2.857    5.143    2.000    4.286 
#    0.000    0.000    0.000    2.571    0.000    0.000 
#    0.000    0.000    0.000    0.000    0.000    0.000 
#
# Total GULP energy -346977.326417 kJ/mol
# GULP energy per Si atom -12392.047372 kJ/mol
# Density = 2.066901 g / cm^3
# Si number density = 20.716160 Si / 1000 Ang^3
#
#
#
# Elastic Constant Matrix: (Units=GPa)
#
#
# Indices 1 2 3 4 5 6 
#
# 1 96.2961 32.5193 43.5728 0.0000 5.7613 0.0000
# 2 32.5193 107.5319 15.4537 0.0000 4.8847 0.0000
# 3 43.5728 15.4537 100.6505 0.0000 0.9300 0.0000
# 4 0.0000 0.0000 0.0000 31.2158 0.0000 -10.5273
# 5 5.7613 4.8847 0.9300 0.0000 40.0973 0.0000
# 6 0.0000 0.0000 0.0000 -10.5273 0.0000 13.1397
#
#
#
# Elastic Compliance Matrix: (Units=1/GPa)
#
#
# Indices 1 2 3 4 5 6 
#
# 1 0.014155 -0.003410 -0.005591 0.000000 -0.001489 0.000000
# 2 -0.003410 0.010382 -0.000111 0.000000 -0.000772 0.000000
# 3 -0.005591 -0.000111 0.012368 0.000000 0.000530 0.000000
# 4 0.000000 0.000000 0.000000 0.043895 0.000000 0.035168
# 5 -0.001489 -0.000772 0.000530 0.000000 0.025235 0.000000
# 6 0.000000 0.000000 0.000000 0.035168 0.000000 0.104282
#
#
# Mechanical properties :
#
#
# Convention : Reuss Voigt Hill
#
# Bulk Modulus (GPa) = 53.52644 54.17447 53.85046
# Shear Modulus (GPa) = 21.29785 31.08607 26.19196
#
# Velocity S-wave (km/s) = 3.20985 3.87792 3.55959
# Velocity P-wave (km/s) = 6.29536 6.80137 6.55325
#
# Compressibility (1/GPa) = 0.01868235
#
# Stress axis : x y z
#
# Youngs Moduli (GPa) = 70.64759 96.32361 80.85587
#
# Poissons Ratio (x) = 0.32842 0.45203
# Poissons Ratio (y) = 0.24088 0.00896
# Poissons Ratio (z) = 0.39496 0.01067
#
# Static dielectric constant tensor:
#      x y z
#    x 4.426620 0.000000 0.042350 
#    y 0.000000 3.825850 0.000000 
#    z 0.042350 0.000000 3.630230 
# 
# 
# High freq. dielectric constant tensor:
#      x y z
#    x 1.808240 0.000000 0.002080 
#    y 0.000000 1.804190 0.000000 
#    z 0.002080 0.000000 1.806800 
# 
# From -- ./inp_files/54244.got.cif
#   From: 2010.06.25/outbox.cif.g09.slc.cpg/sg10_28_cif.got.tgz:54244.got - 2010.06.27 22:07:45.
