data_PCOD8062131
_publ_section_title
;
Structure prediction by ZEFSAII (Michael W. Deem and Ramdas Pophale) SiO2 
 PCOD8062131
Probable space group: P 2/M
;
_chemical_formula_sum "Si O2"
_cell_formula_units_Z 28
_cell_length_a 20.255160
_cell_length_b 8.897584
_cell_length_c 14.648662
_cell_angle_alpha 90.000000
_cell_angle_beta 147.083922
_cell_angle_gamma 90.000000
_cell_volume 1434.608466
_symmetry_space_group_name_H-M "P 2/M"
_symmetry_group_IT_number 10
_symmetry_cell_setting 'monoclinic'
loop_
_space_group_symop_operation_xyz
x,y,z
-x,y,-z
-x,-y,-z
x,-y,z
loop_
_atom_site_type_symbol
_atom_site_label
_atom_site_fract_x
_atom_site_fract_y
_atom_site_fract_z
Si Si1 0.809453 0.324027 0.518805
Si Si2 0.694104 0.325092 0.577853
Si Si3 0.270835 0.322537 0.928263
Si Si4 0.635494 0.322042 0.157014
Si Si5 0.439229 0.173352 0.265484
Si Si6 0.066373 0.177042 0.803944
Si Si7 0.771713 0.827872 0.840943
O O1 0.836051 0.500000 0.537459
O O2 0.765083 0.285002 0.568341
O O3 0.707605 0.266092 0.329906
O O4 0.930498 0.233644 0.637838
O O5 0.661060 0.500000 0.544212
O O6 0.572845 0.228263 0.444176
O O7 0.779764 0.278412 0.761849
O O8 0.260029 0.500000 0.925116
O O9 0.292413 0.270724 0.849411
O O10 0.145542 0.249430 0.815386
O O11 0.386143 0.269346 0.120666
O O12 0.624201 0.500000 0.146239
O O13 0.500000 0.251380 0.000000
O O14 0.357850 0.194944 0.260851
O O15 0.441293 0.000000 0.238037
O O16 0.073214 0.000000 0.798665
O O17 0.121592 0.222725 0.966359
O O18 0.789290 0.000000 0.830599
#
# Coordination Sequence:
#
# PCOD8062131 Si02
#       7
#     4   4   4   4   4   4   4
#     4  10  22  39  57  80 111 145 185 230 273 324
#     4  11  22  34  54  83 111 143 185 234 279 318
#     4  10  19  34  60  86 109 143 185 230 274 317
#     4   9  18  35  59  85 113 144 178 219 272 330
#     4  10  20  35  55  81 115 150 182 221 274 334
#     4  10  22  40  58  79 110 147 185 225 275 331
#     4   9  20  37  55  76 107 147 184 222 274 335
#
# _framework density 19.517520999999999
#
# number of rings (size 3 to 8) (size 9 to 14) (size 15 to 20)
#    0.000    2.143    0.000    3.857    0.000    9.714 
#    0.000    7.143    0.000    3.000    0.000    0.000 
#    0.000    0.000    0.000    0.000    0.000    0.000 
#
# Total GULP energy -347299.189927 kJ/mol
# GULP energy per Si atom -12403.542497 kJ/mol
# Density = 1.947310 g / cm^3
# Si number density = 19.517521 Si / 1000 Ang^3
#
#
#
# Elastic Constant Matrix: (Units=GPa)
#
#
# Indices 1 2 3 4 5 6 
#
# 1 127.6721 53.5133 79.7905 0.0000 -15.2707 0.0000
# 2 53.5133 65.6571 37.9701 0.0000 -2.7474 0.0000
# 3 79.7905 37.9701 117.7629 0.0000 7.9127 0.0000
# 4 0.0000 0.0000 0.0000 30.9840 0.0000 2.6645
# 5 -15.2707 -2.7474 7.9127 0.0000 30.4345 0.0000
# 6 0.0000 0.0000 0.0000 2.6645 0.0000 1.8520
#
#
#
# Elastic Compliance Matrix: (Units=1/GPa)
#
#
# Indices 1 2 3 4 5 6 
#
# 1 0.020713 -0.009525 -0.011810 0.000000 0.012604 0.000000
# 2 -0.009525 0.023437 -0.000940 0.000000 -0.002419 0.000000
# 3 -0.011810 -0.000940 0.017507 0.000000 -0.010562 0.000000
# 4 0.000000 0.000000 0.000000 0.036831 0.000000 -0.052989
# 5 0.012604 -0.002419 -0.010562 0.000000 0.041709 0.000000
# 6 0.000000 0.000000 0.000000 -0.052989 0.000000 0.616191
#
#
# Mechanical properties :
#
#
# Convention : Reuss Voigt Hill
#
# Bulk Modulus (GPa) = 58.46103 72.62665 65.54384
# Shear Modulus (GPa) = 6.19855 21.97531 14.08693
#
# Velocity S-wave (km/s) = 1.78404 3.35912 2.68947
# Velocity P-wave (km/s) = 5.85336 7.23441 6.58022
#
# Compressibility (1/GPa) = 0.01710541
#
# Stress axis : x y z
#
# Youngs Moduli (GPa) = 48.27812 42.66847 57.12161
#
# Poissons Ratio (x) = 0.40641 0.67461
# Poissons Ratio (y) = 0.45985 0.05372
# Poissons Ratio (z) = 0.57017 0.04013
#
# Static dielectric constant tensor:
#      x y z
#    x 3.588360 0.000000 -0.098860 
#    y 0.000000 3.428400 0.000000 
#    z -0.098860 0.000000 3.604970 
# 
# 
# High freq. dielectric constant tensor:
#      x y z
#    x 1.763750 0.000000 -0.004120 
#    y 0.000000 1.750100 0.000000 
#    z -0.004120 0.000000 1.764190 
# 
# From -- ./inp_files/49553.got.cif
#   From: 2010.06.25/outbox.cif.g09.slc.cpg/sg10_25_cif.got.tgz:49553.got - 2010.06.27 22:07:45.
