data_PCOD8062938
_publ_section_title
;
Structure prediction by ZEFSAII (Michael W. Deem and Ramdas Pophale) SiO2 
 PCOD8062938
Probable space group: P 2/M
;
_chemical_formula_sum "Si O2"
_cell_formula_units_Z 32
_cell_length_a 22.418290
_cell_length_b 9.285535
_cell_length_c 13.230731
_cell_angle_alpha 90.000000
_cell_angle_beta 140.594398
_cell_angle_gamma 90.000000
_cell_volume 1748.373921
_symmetry_space_group_name_H-M "P 2/M"
_symmetry_group_IT_number 10
_symmetry_cell_setting 'monoclinic'
loop_
_space_group_symop_operation_xyz
x,y,z
-x,y,-z
-x,-y,-z
x,-y,z
loop_
_atom_site_type_symbol
_atom_site_label
_atom_site_fract_x
_atom_site_fract_y
_atom_site_fract_z
Si Si1 0.766357 0.656953 0.797837
Si Si2 0.891449 0.844643 0.852721
Si Si3 0.119741 0.665841 0.757749
Si Si4 0.719265 0.163347 0.917693
Si Si5 0.507440 0.835903 0.626873
Si Si6 0.360309 0.338483 0.561173
Si Si7 0.090847 0.333520 0.484914
Si Si8 0.212889 0.830614 0.484892
O O1 0.781085 0.500000 0.866383
O O2 0.866810 0.728199 0.906052
O O3 0.710385 0.760271 0.798183
O O4 0.714745 0.647209 0.624925
O O5 0.859667 0.798039 0.699878
O O6 0.843585 0.000000 0.814830
O O7 0.000000 0.863036 0.000000
O O8 0.139131 0.500000 0.809137
O O9 0.117364 0.690190 0.635637
O O10 0.018900 0.711770 0.674281
O O11 0.206058 0.757691 0.913571
O O12 0.611526 0.170395 0.812595
O O13 0.753825 0.000000 0.951231
O O14 0.500000 0.779101 0.500000
O O15 0.449792 0.740401 0.630601
O O16 0.469277 0.000000 0.577811
O O17 0.387945 0.500000 0.635083
O O18 0.312877 0.247627 0.590861
O O19 0.104289 0.500000 0.471147
O O20 0.163233 0.235134 0.518237
O O21 0.231766 0.000000 0.527062
#
# Coordination Sequence:
#
# PCOD8062938 Si02
#       8
#     4   4   4   4   4   4   4   4
#     4  10  20  32  47  71 103 139 179 218 258 307
#     4   9  19  33  46  67 102 140 176 215 257 309
#     4   9  20  38  58  81 109 141 177 223 272 321
#     4  11  22  34  53  79 108 143 178 220 270 318
#     4  10  20  35  54  76 108 148 182 217 267 320
#     4  10  20  34  53  77 106 141 183 224 260 310
#     4   9  19  38  60  80 107 142 179 220 272 324
#     4  10  20  33  53  78 106 141 179 220 267 317
#
# _framework density 18.302721999999999
#
# number of rings (size 3 to 8) (size 9 to 14) (size 15 to 20)
#    0.000    2.250    1.250    2.250    1.750    4.000 
#    0.000    1.250    0.000    0.750    0.000    5.250 
#    0.000    0.000    0.000    0.000    0.000    0.000 
#
# Total GULP energy -396538.631525 kJ/mol
# GULP energy per Si atom -12391.832235 kJ/mol
# Density = 1.826106 g / cm^3
# Si number density = 18.302722 Si / 1000 Ang^3
#
#
#
# Elastic Constant Matrix: (Units=GPa)
#
#
# Indices 1 2 3 4 5 6 
#
# 1 113.7881 72.1913 22.4769 0.0000 19.8750 0.0000
# 2 72.1913 134.1644 37.0629 0.0000 15.3866 0.0000
# 3 22.4769 37.0629 57.7127 0.0000 12.8201 0.0000
# 4 0.0000 0.0000 0.0000 16.5974 0.0000 4.4273
# 5 19.8750 15.3866 12.8201 0.0000 18.1303 0.0000
# 6 0.0000 0.0000 0.0000 4.4273 0.0000 36.8982
#
#
#
# Elastic Compliance Matrix: (Units=1/GPa)
#
#
# Indices 1 2 3 4 5 6 
#
# 1 0.015052 -0.007144 0.001239 0.000000 -0.011314 0.000000
# 2 -0.007144 0.012735 -0.005617 0.000000 0.000996 0.000000
# 3 0.001239 -0.005617 0.023365 0.000000 -0.013112 0.000000
# 4 0.000000 0.000000 0.000000 0.062242 0.000000 -0.007468
# 5 -0.011314 0.000996 -0.013112 0.000000 0.075985 0.000000
# 6 0.000000 0.000000 0.000000 -0.007468 0.000000 0.027998
#
#
# Mechanical properties :
#
#
# Convention : Reuss Voigt Hill
#
# Bulk Modulus (GPa) = 35.57813 63.23637 49.40725
# Shear Modulus (GPa) = 20.01668 25.92081 22.96874
#
# Velocity S-wave (km/s) = 3.31062 3.76736 3.54635
# Velocity P-wave (km/s) = 5.83905 7.31774 6.61981
#
# Compressibility (1/GPa) = 0.02810716
#
# Stress axis : x y z
#
# Youngs Moduli (GPa) = 66.43610 78.52262 42.79920
#
# Poissons Ratio (x) = 0.56096 -0.05302
# Poissons Ratio (y) = 0.47462 0.24042
# Poissons Ratio (z) = -0.08230 0.44109
#
# Static dielectric constant tensor:
#      x y z
#    x 3.301970 0.000000 0.145620 
#    y 0.000000 3.776210 0.000000 
#    z 0.145620 0.000000 3.098300 
# 
# 
# High freq. dielectric constant tensor:
#      x y z
#    x 1.703000 0.000000 0.015900 
#    y 0.000000 1.721220 0.000000 
#    z 0.015900 0.000000 1.683280 
# 
# From -- ./inp_files/70032.got.cif
#   From: 2010.06.25/outbox.cif.g09.slc.cpg/sg10_36_cif.got.tgz:70032.got - 2010.06.27 22:07:45.
