data_PCOD8062531
_publ_section_title
;
Structure prediction by ZEFSAII (Michael W. Deem and Ramdas Pophale) SiO2 
 PCOD8062531
Probable space group: P 2/M
;
_chemical_formula_sum "Si O2"
_cell_formula_units_Z 28
_cell_length_a 9.790068
_cell_length_b 7.777450
_cell_length_c 31.065962
_cell_angle_alpha 90.000000
_cell_angle_beta 36.160067
_cell_angle_gamma 90.000000
_cell_volume 1395.698081
_symmetry_space_group_name_H-M "P 2/M"
_symmetry_group_IT_number 10
_symmetry_cell_setting 'monoclinic'
loop_
_space_group_symop_operation_xyz
x,y,z
-x,y,-z
-x,-y,-z
x,-y,z
loop_
_atom_site_type_symbol
_atom_site_label
_atom_site_fract_x
_atom_site_fract_y
_atom_site_fract_z
Si Si1 0.891524 0.199092 0.785848
Si Si2 0.159098 0.204442 0.499088
Si Si3 0.015210 0.303203 0.629773
Si Si4 0.675800 0.201889 0.372024
Si Si5 0.417131 0.195338 0.212951
Si Si6 0.746441 0.500000 0.122983
Si Si7 0.467263 0.198305 0.057652
Si Si8 0.758042 0.500000 0.018978
O O1 0.692418 0.264612 0.803955
O O2 0.799243 0.232885 0.857991
O O3 0.141667 0.281209 0.709939
O O4 0.922236 0.000000 0.767959
O O5 0.421044 0.278999 0.427567
O O6 0.000000 0.270130 0.500000
O O7 0.060410 0.278963 0.568184
O O8 0.156687 0.000000 0.502053
O O9 0.964125 0.500000 0.653352
O O10 0.785148 0.196193 0.699878
O O11 0.235329 0.243160 0.602333
O O12 0.653311 0.000000 0.372448
O O13 0.621980 0.327795 0.172413
O O14 0.515645 0.000000 0.184826
O O15 0.787127 0.500000 0.062066
O O16 0.013737 0.500000 0.069740
O O17 0.629729 0.322939 0.042282
O O18 0.534607 0.000000 0.050052
O O19 0.500000 0.244804 0.000000
#
# Coordination Sequence:
#
# PCOD8062531 Si02
#       8
#     4   4   4   4   4   2   4   2
#     4   8  15  30  54  80 106 141 189 241 287 329
#     4  10  21  37  55  79 115 158 196 233 289 351
#     4  11  21  34  58  86 114 145 193 246 292 340
#     4   9  18  34  57  82 109 145 193 245 290 339
#     4  10  19  36  59  84 116 151 191 239 285 334
#     4  11  22  36  56  88 115 155 186 232 290 351
#     4  10  20  36  58  82 112 153 198 242 290 342
#     4  11  23  36  56  82 122 149 189 235 293 348
#
# _framework density 20.061647000000001
#
# number of rings (size 3 to 8) (size 9 to 14) (size 15 to 20)
#    0.000    2.143    2.143    2.786    0.000    3.143 
#    0.000    2.857    0.000    3.429    0.000    0.000 
#    0.000    0.000    0.000    0.000    0.000    0.000 
#
# Total GULP energy -346941.287991 kJ/mol
# GULP energy per Si atom -12390.760285 kJ/mol
# Density = 2.001599 g / cm^3
# Si number density = 20.061647 Si / 1000 Ang^3
#
#
#
# Elastic Constant Matrix: (Units=GPa)
#
#
# Indices 1 2 3 4 5 6 
#
# 1 68.0640 9.5492 55.9282 0.0000 -4.9707 0.0000
# 2 9.5492 65.8405 22.1179 0.0000 -10.4685 0.0000
# 3 55.9282 22.1179 150.9466 0.0000 3.1377 0.0000
# 4 0.0000 0.0000 0.0000 24.6162 0.0000 -3.1435
# 5 -4.9707 -10.4685 3.1377 0.0000 32.1908 0.0000
# 6 0.0000 0.0000 0.0000 -3.1435 0.0000 12.7535
#
#
#
# Elastic Compliance Matrix: (Units=1/GPa)
#
#
# Indices 1 2 3 4 5 6 
#
# 1 0.021663 0.000269 -0.008154 0.000000 0.004227 0.000000
# 2 0.000269 0.016986 -0.002710 0.000000 0.005830 0.000000
# 3 -0.008154 -0.002710 0.010108 0.000000 -0.003126 0.000000
# 4 0.000000 0.000000 0.000000 0.041944 0.000000 0.010338
# 5 0.004227 0.005830 -0.003126 0.000000 0.033918 0.000000
# 6 0.000000 0.000000 0.000000 0.010338 0.000000 0.080958
#
#
# Mechanical properties :
#
#
# Convention : Reuss Voigt Hill
#
# Bulk Modulus (GPa) = 36.27313 51.11574 43.69444
# Shear Modulus (GPa) = 21.19037 27.06248 24.12643
#
# Velocity S-wave (km/s) = 3.25355 3.67681 3.47164
# Velocity P-wave (km/s) = 5.67751 6.59999 6.15606
#
# Compressibility (1/GPa) = 0.02756862
#
# Stress axis : x y z
#
# Youngs Moduli (GPa) = 46.16162 58.87049 98.93096
#
# Poissons Ratio (x) = -0.01586 0.80667
# Poissons Ratio (y) = -0.01244 0.26810
# Poissons Ratio (z) = 0.37640 0.15954
#
# Static dielectric constant tensor:
#      x y z
#    x 3.441480 0.000000 -0.181420 
#    y 0.000000 3.517960 0.000000 
#    z -0.181420 0.000000 4.060420 
# 
# 
# High freq. dielectric constant tensor:
#      x y z
#    x 1.734990 0.000000 -0.002840 
#    y 0.000000 1.780070 0.000000 
#    z -0.002840 0.000000 1.804240 
# 
# From -- ./inp_files/37378.got.cif
#   From: 2010.06.25/outbox.cif.g09.slc.cpg/sg10_19_cif.got.tgz:37378.got - 2010.06.27 22:07:45.
