data_PCOD8062036
_publ_section_title
;
Structure prediction by ZEFSAII (Michael W. Deem and Ramdas Pophale) SiO2 
 PCOD8062036
Probable space group: P 2/M
;
_chemical_formula_sum "Si O2"
_cell_formula_units_Z 32
_cell_length_a 21.377047
_cell_length_b 9.118371
_cell_length_c 28.076190
_cell_angle_alpha 90.000000
_cell_angle_beta 18.337736
_cell_angle_gamma 90.000000
_cell_volume 1721.814217
_symmetry_space_group_name_H-M "P 2/M"
_symmetry_group_IT_number 10
_symmetry_cell_setting 'monoclinic'
loop_
_space_group_symop_operation_xyz
x,y,z
-x,y,-z
-x,-y,-z
x,-y,z
loop_
_atom_site_type_symbol
_atom_site_label
_atom_site_fract_x
_atom_site_fract_y
_atom_site_fract_z
Si Si1 0.138532 0.170726 0.944719
Si Si2 0.075829 0.834133 0.579359
Si Si3 0.156579 0.328813 0.427463
Si Si4 0.181598 0.667905 0.645462
Si Si5 0.432672 0.168743 0.885739
Si Si6 0.143455 0.164861 0.173224
Si Si7 0.910300 0.671889 0.924745
Si Si8 0.429730 0.830330 0.396607
O O1 0.050781 0.265960 0.051086
O O2 0.359449 0.230391 0.773682
O O3 0.141429 0.000000 0.957121
O O4 0.000000 0.199848 0.000000
O O5 0.064779 0.722981 0.543766
O O6 0.265390 0.795488 0.475329
O O7 0.872693 0.815873 0.757725
O O8 0.094487 0.000000 0.546359
O O9 0.201930 0.500000 0.397441
O O10 0.358094 0.246036 0.270100
O O11 0.000000 0.289653 0.500000
O O12 0.232910 0.500000 0.599679
O O13 0.372017 0.757830 0.489156
O O14 0.989876 0.710146 0.753322
O O15 0.117914 0.698771 0.746180
O O16 0.273289 0.242454 0.966160
O O17 0.455138 0.000000 0.853732
O O18 0.363294 0.180939 0.991573
O O19 0.060434 0.000000 0.220985
O O20 0.857156 0.500000 0.964190
O O21 0.449787 0.000000 0.393108
#
# Coordination Sequence:
#
# PCOD8062036 Si02
#       8
#     4   4   4   4   4   4   4   4
#     4  10  21  36  53  75 104 139 180 221 258 301
#     4   9  17  32  55  79 101 129 169 213 257 309
#     4  11  24  38  50  71 106 143 177 213 254 303
#     4   9  17  29  49  78 105 130 165 207 252 306
#     4  10  19  34  58  82 103 132 170 212 258 306
#     4   8  16  31  52  79 105 127 159 208 260 305
#     4  10  20  34  54  80 107 135 169 210 258 311
#     4   9  18  33  53  77 103 131 167 212 259 305
#
# _framework density 18.585049000000001
#
# number of rings (size 3 to 8) (size 9 to 14) (size 15 to 20)
#    0.000    2.500    0.000    3.000    0.000    6.750 
#    0.000    1.250    0.000    7.500    0.000    0.000 
#    0.000    0.000    0.000    0.000    0.000    0.000 
#
# Total GULP energy -396635.578468 kJ/mol
# GULP energy per Si atom -12394.861827 kJ/mol
# Density = 1.854275 g / cm^3
# Si number density = 18.585049 Si / 1000 Ang^3
#
#
#
# Elastic Constant Matrix: (Units=GPa)
#
#
# Indices 1 2 3 4 5 6 
#
# 1 91.2042 55.5206 58.1172 0.0000 22.6962 0.0000
# 2 55.5206 80.5131 41.2329 0.0000 16.9135 0.0000
# 3 58.1172 41.2329 67.2078 0.0000 35.4715 0.0000
# 4 0.0000 0.0000 0.0000 26.7197 0.0000 5.4844
# 5 22.6962 16.9135 35.4715 0.0000 27.7882 0.0000
# 6 0.0000 0.0000 0.0000 5.4844 0.0000 26.4866
#
#
#
# Elastic Compliance Matrix: (Units=1/GPa)
#
#
# Indices 1 2 3 4 5 6 
#
# 1 0.034124 -0.010115 -0.036293 0.000000 0.024614 0.000000
# 2 -0.010115 0.022001 -0.006264 0.000000 0.002866 0.000000
# 3 -0.036293 -0.006264 0.099451 0.000000 -0.093494 0.000000
# 4 0.000000 0.000000 0.000000 0.039087 0.000000 -0.008094
# 5 0.024614 0.002866 -0.093494 0.000000 0.133482 0.000000
# 6 0.000000 0.000000 0.000000 -0.008094 0.000000 0.039431
#
#
# Mechanical properties :
#
#
# Convention : Reuss Voigt Hill
#
# Bulk Modulus (GPa) = 19.90779 60.96295 40.43537
# Shear Modulus (GPa) = 10.21106 21.80254 16.00680
#
# Velocity S-wave (km/s) = 2.34652 3.42880 2.93793
# Velocity P-wave (km/s) = 4.25165 6.96771 5.77172
#
# Compressibility (1/GPa) = 0.05023159
#
# Stress axis : x y z
#
# Youngs Moduli (GPa) = 29.30516 45.45170 10.05516
#
# Poissons Ratio (x) = 0.45975 0.36494
# Poissons Ratio (y) = 0.29643 0.06298
# Poissons Ratio (z) = 1.06359 0.28470
#
# Static dielectric constant tensor:
#      x y z
#    x 3.243400 0.000000 0.391930 
#    y 0.000000 3.444950 0.000000 
#    z 0.391930 0.000000 3.667990 
# 
# 
# High freq. dielectric constant tensor:
#      x y z
#    x 1.691060 0.000000 0.033390 
#    y 0.000000 1.725410 0.000000 
#    z 0.033390 0.000000 1.727440 
# 
# From -- ./inp_files/93606.got.cif
#   From: 2010.06.25/outbox.cif.g09.slc.cpg/sg10_47_cif.got.tgz:93606.got - 2010.06.27 22:07:45.
