data_PCOD8062418
_publ_section_title
;
Structure prediction by ZEFSAII (Michael W. Deem and Ramdas Pophale) SiO2 
 PCOD8062418
Probable space group: P 2/M
;
_chemical_formula_sum "Si O2"
_cell_formula_units_Z 32
_cell_length_a 13.008533
_cell_length_b 9.101284
_cell_length_c 30.284953
_cell_angle_alpha 90.000000
_cell_angle_beta 152.274637
_cell_angle_gamma 90.000000
_cell_volume 1668.127643
_symmetry_space_group_name_H-M "P 2/M"
_symmetry_group_IT_number 10
_symmetry_cell_setting 'monoclinic'
loop_
_space_group_symop_operation_xyz
x,y,z
-x,y,-z
-x,-y,-z
x,-y,z
loop_
_atom_site_type_symbol
_atom_site_label
_atom_site_fract_x
_atom_site_fract_y
_atom_site_fract_z
Si Si1 0.443106 0.830128 0.088364
Si Si2 0.007013 0.674242 0.606054
Si Si3 0.287745 0.671825 0.946732
Si Si4 0.566882 0.326340 0.387471
Si Si5 0.131174 0.326497 0.270866
Si Si6 0.950487 0.171205 0.284835
Si Si7 0.250260 0.329627 0.096069
Si Si8 0.586524 0.670690 0.296920
O O1 0.698649 0.802486 0.173947
O O2 0.398566 0.760506 0.118806
O O3 0.383006 0.000000 0.067487
O O4 0.286204 0.755147 0.992613
O O5 0.024466 0.500000 0.620457
O O6 0.786429 0.719901 0.496482
O O7 0.001288 0.752584 0.650625
O O8 0.212656 0.736460 0.655688
O O9 0.297565 0.500000 0.960748
O O10 0.068665 0.716241 0.837395
O O11 0.500000 0.724059 0.000000
O O12 0.544163 0.500000 0.374769
O O13 0.354638 0.267271 0.333238
O O14 0.573535 0.256687 0.340610
O O15 0.135561 0.500000 0.281934
O O16 0.108467 0.243788 0.308575
O O17 0.005744 0.000000 0.310049
O O18 0.260534 0.500000 0.086334
O O19 0.352657 0.303806 0.183551
O O20 0.000000 0.271178 0.000000
O O21 0.639621 0.500000 0.322928
#
# Coordination Sequence:
#
# PCOD8062418 Si02
#       8
#     4   4   4   4   4   4   4   4
#     4  11  23  37  55  79 113 152 188 230 276 334
#     4  10  19  35  61  86 109 143 189 236 280 336
#     4  10  20  34  56  82 108 142 184 227 275 332
#     4   9  19  34  56  87 115 142 182 235 291 333
#     4  10  21  37  58  84 115 147 184 235 283 334
#     4  11  23  38  57  81 114 152 191 234 279 332
#     4  10  21  35  57  87 115 144 182 230 281 334
#     4   9  17  32  56  86 115 142 178 228 280 333
#
# _framework density 19.183183
#
# number of rings (size 3 to 8) (size 9 to 14) (size 15 to 20)
#    0.000    2.000    2.500    1.125    1.750    4.000 
#    0.000    3.125    0.000    3.000    0.000    0.000 
#    0.000    0.000    0.000    0.000    0.000    0.000 
#
# Total GULP energy -396885.642441 kJ/mol
# GULP energy per Si atom -12402.676326 kJ/mol
# Density = 1.913952 g / cm^3
# Si number density = 19.183183 Si / 1000 Ang^3
#
#
#
# Elastic Constant Matrix: (Units=GPa)
#
#
# Indices 1 2 3 4 5 6 
#
# 1 160.9328 44.8855 73.7315 0.0000 -9.8778 0.0000
# 2 44.8855 47.0680 35.0278 0.0000 -8.7150 0.0000
# 3 73.7315 35.0278 131.1727 0.0000 1.0973 0.0000
# 4 0.0000 0.0000 0.0000 10.4573 0.0000 6.8761
# 5 -9.8778 -8.7150 1.0973 0.0000 36.4938 0.0000
# 6 0.0000 0.0000 0.0000 6.8761 0.0000 1.5043
#
#
#
# Elastic Compliance Matrix: (Units=1/GPa)
#
#
# Indices 1 2 3 4 5 6 
#
# 1 0.009797 -0.006240 -0.003851 0.000000 0.001277 0.000000
# 2 -0.006240 0.032151 -0.005129 0.000000 0.006143 0.000000
# 3 -0.003851 -0.005129 0.011180 0.000000 -0.002603 0.000000
# 4 0.000000 0.000000 0.000000 -0.047680 0.000000 0.217945
# 5 0.001277 0.006143 -0.002603 0.000000 0.029293 0.000000
# 6 0.000000 0.000000 0.000000 0.217945 0.000000 -0.331457
#
#
# Mechanical properties :
#
#
# Convention : Reuss Voigt Hill
#
# Bulk Modulus (GPa) = 44.07873 71.82924 57.95398
# Shear Modulus (GPa) = -19.32655 22.05966 1.36656
#
# Velocity S-wave (km/s) = -3.17752 3.39477 0.84494
# Velocity P-wave (km/s) = 3.09282 7.27262 5.58823
#
# Compressibility (1/GPa) = 0.02268668
#
# Stress axis : x y z
#
# Youngs Moduli (GPa) = 102.07150 31.10283 89.44720
#
# Poissons Ratio (x) = 0.19409 0.34448
# Poissons Ratio (y) = 0.63695 0.45881
# Poissons Ratio (z) = 0.39310 0.15954
#
# Static dielectric constant tensor:
#      x y z
#    x 3.611250 0.000000 0.037130 
#    y 0.000000 3.149160 0.000000 
#    z 0.037130 0.000000 3.588880 
# 
# 
# High freq. dielectric constant tensor:
#      x y z
#    x 1.756840 0.000000 -0.004520 
#    y 0.000000 1.707670 0.000000 
#    z -0.004520 0.000000 1.754070 
# 
# From -- ./inp_files/55191.got.cif
#   From: 2010.06.25/outbox.cif.g09.slc.cpg/sg10_28_cif.got.tgz:55191.got - 2010.06.27 22:07:45.
