data_PCOD8062544
_publ_section_title
;
Structure prediction by ZEFSAII (Michael W. Deem and Ramdas Pophale) SiO2 
 PCOD8062544
Probable space group: P 2/M
;
_chemical_formula_sum "Si O2"
_cell_formula_units_Z 28
_cell_length_a 9.071721
_cell_length_b 8.562613
_cell_length_c 25.271941
_cell_angle_alpha 90.000000
_cell_angle_beta 44.742653
_cell_angle_gamma 90.000000
_cell_volume 1381.847629
_symmetry_space_group_name_H-M "P 2/M"
_symmetry_group_IT_number 10
_symmetry_cell_setting 'monoclinic'
loop_
_space_group_symop_operation_xyz
x,y,z
-x,y,-z
-x,-y,-z
x,-y,z
loop_
_atom_site_type_symbol
_atom_site_label
_atom_site_fract_x
_atom_site_fract_y
_atom_site_fract_z
Si Si1 0.876499 0.314591 0.728036
Si Si2 0.309292 0.818442 0.425613
Si Si3 0.987888 0.683739 0.583185
Si Si4 0.744633 0.681368 0.296868
Si Si5 0.682852 0.182386 0.991986
Si Si6 0.884258 0.682002 0.144461
Si Si7 0.580464 0.684368 0.130039
O O1 0.860735 0.500000 0.731399
O O2 0.941548 0.253174 0.653675
O O3 0.650897 0.243399 0.801882
O O4 0.045989 0.257740 0.727620
O O5 0.212729 0.719584 0.402014
O O6 0.552978 0.779621 0.369056
O O7 0.193367 0.772083 0.509510
O O8 0.274886 0.000000 0.423017
O O9 0.031734 0.500000 0.571477
O O10 0.706007 0.500000 0.319359
O O11 0.763271 0.711638 0.229829
O O12 0.670743 0.270339 0.050505
O O13 0.659940 0.000000 0.008462
O O14 0.500000 0.243445 0.000000
O O15 0.902459 0.220683 0.908648
O O16 0.939374 0.500000 0.122998
O O17 0.737159 0.747291 0.135205
O O18 0.568819 0.500000 0.137635
#
# Coordination Sequence:
#
# PCOD8062544 Si02
#       7
#     4   4   4   4   4   4   4
#     4   9  19  35  59  86 109 138 182 232 276 323
#     4  11  22  36  54  81 114 148 185 225 274 329
#     4  10  19  36  60  83 108 143 187 232 275 322
#     4  10  20  37  59  83 110 143 183 226 275 327
#     4  11  24  39  55  80 115 151 185 222 270 328
#     4  10  21  37  61  87 110 141 184 231 275 324
#     4  10  20  37  60  86 111 139 182 230 275 324
#
# _framework density 20.262726000000001
#
# number of rings (size 3 to 8) (size 9 to 14) (size 15 to 20)
#    0.000    1.857    0.000    5.143    0.000    8.000 
#    0.000    7.857    0.000    0.000    0.000    0.000 
#    0.000    0.000    0.000    0.000    0.000    0.000 
#
# Total GULP energy -347333.709150 kJ/mol
# GULP energy per Si atom -12404.775327 kJ/mol
# Density = 2.021661 g / cm^3
# Si number density = 20.262726 Si / 1000 Ang^3
#
#
#
# Elastic Constant Matrix: (Units=GPa)
#
#
# Indices 1 2 3 4 5 6 
#
# 1 97.6400 18.1690 30.2537 0.0000 -14.4669 0.0000
# 2 18.1690 32.1221 18.2058 0.0000 -5.8616 0.0000
# 3 30.2537 18.2058 97.0365 0.0000 -16.9127 0.0000
# 4 0.0000 0.0000 0.0000 7.2234 0.0000 -8.2957
# 5 -14.4669 -5.8616 -16.9127 0.0000 42.1640 0.0000
# 6 0.0000 0.0000 0.0000 -8.2957 0.0000 15.1737
#
#
#
# Elastic Compliance Matrix: (Units=1/GPa)
#
#
# Indices 1 2 3 4 5 6 
#
# 1 0.012328 -0.005127 -0.002439 0.000000 0.002539 0.000000
# 2 -0.005127 0.037193 -0.005145 0.000000 0.001348 0.000000
# 3 -0.002439 -0.005145 0.012645 0.000000 0.003520 0.000000
# 4 0.000000 0.000000 0.000000 0.372023 0.000000 0.203391
# 5 0.002539 0.001348 0.003520 0.000000 0.026187 0.000000
# 6 0.000000 0.000000 0.000000 0.203391 0.000000 0.177100
#
#
# Mechanical properties :
#
#
# Convention : Reuss Voigt Hill
#
# Bulk Modulus (GPa) = 27.21573 40.00618 33.61095
# Shear Modulus (GPa) = 7.40581 23.59025 15.49803
#
# Velocity S-wave (km/s) = 1.91385 3.41577 2.76860
# Velocity P-wave (km/s) = 4.28303 5.94502 5.18110
#
# Compressibility (1/GPa) = 0.03674346
#
# Stress axis : x y z
#
# Youngs Moduli (GPa) = 81.11850 26.88681 79.08543
#
# Poissons Ratio (x) = 0.13785 0.19289
# Poissons Ratio (y) = 0.41591 0.40687
# Poissons Ratio (z) = 0.19785 0.13832
#
# Static dielectric constant tensor:
#      x y z
#    x 3.804820 0.000000 -0.045560 
#    y 0.000000 3.376370 0.000000 
#    z -0.045560 0.000000 3.748390 
# 
# 
# High freq. dielectric constant tensor:
#      x y z
#    x 1.798000 0.000000 -0.002520 
#    y 0.000000 1.765620 0.000000 
#    z -0.002520 0.000000 1.805080 
# 
# From -- ./inp_files/91964.got.cif
#   From: 2010.06.25/outbox.cif.g09.slc.cpg/sg10_46_cif.got.tgz:91964.got - 2010.06.27 22:07:45.
