data_PCOD8062782
_publ_section_title
;
Structure prediction by ZEFSAII (Michael W. Deem and Ramdas Pophale) SiO2 
 PCOD8062782
Probable space group: P 2/M
;
_chemical_formula_sum "Si O2"
_cell_formula_units_Z 22
_cell_length_a 6.588962
_cell_length_b 13.004995
_cell_length_c 15.413926
_cell_angle_alpha 90.000000
_cell_angle_beta 55.823794
_cell_angle_gamma 90.000000
_cell_volume 1092.724794
_symmetry_space_group_name_H-M "P 2/M"
_symmetry_group_IT_number 10
_symmetry_cell_setting 'monoclinic'
loop_
_space_group_symop_operation_xyz
x,y,z
-x,y,-z
-x,-y,-z
x,-y,z
loop_
_atom_site_type_symbol
_atom_site_label
_atom_site_fract_x
_atom_site_fract_y
_atom_site_fract_z
Si Si1 0.128916 0.380673 0.203225
Si Si2 0.500000 0.745181 0.000000
Si Si3 0.164920 0.700734 0.386103
Si Si4 0.429837 0.118262 0.868665
Si Si5 0.019275 0.115381 0.321318
Si Si6 0.699895 0.765541 0.270822
O O1 0.124613 0.500000 0.182191
O O2 0.166377 0.365159 0.297342
O O3 0.878692 0.332043 0.227942
O O4 0.347030 0.328028 0.099002
O O5 0.658701 0.821730 0.023606
O O6 0.038323 0.811535 0.400000
O O7 0.436365 0.718481 0.358222
O O8 0.000000 0.645344 0.500000
O O9 0.726705 0.125832 0.793598
O O10 0.304003 0.175797 0.819202
O O11 0.342000 0.000000 0.892794
O O12 0.788942 0.150273 0.318876
O O13 0.974920 0.000000 0.364470
#
# Coordination Sequence:
#
# PCOD8062782 Si02
#       6
#     4   2   4   4   4   4
#     4  11  25  43  63  88 121 161 206 256 307 357
#     4  12  20  44  60  92 128 158 198 250 302 362
#     4  10  22  42  64  87 122 158 201 258 307 359
#     4  10  20  36  61  91 128 166 197 240 298 361
#     4   9  18  35  58  89 127 163 202 245 296 361
#     4  10  19  41  60  91 122 159 209 248 299 360
#
# _framework density 20.133157000000001
#
# number of rings (size 3 to 8) (size 9 to 14) (size 15 to 20)
#    0.000    1.818    5.455    1.091    0.000    5.818 
#    0.000    3.636    0.000    0.000    0.000    0.000 
#    0.000    0.000    0.000    0.000    0.000    0.000 
#
# Total GULP energy -272729.186692 kJ/mol
# GULP energy per Si atom -12396.781213 kJ/mol
# Density = 2.008733 g / cm^3
# Si number density = 20.133157 Si / 1000 Ang^3
#
#
#
# Elastic Constant Matrix: (Units=GPa)
#
#
# Indices 1 2 3 4 5 6 
#
# 1 117.1273 29.2439 29.1608 0.0000 2.3122 0.0000
# 2 29.2439 116.8864 34.3509 0.0000 -0.2397 0.0000
# 3 29.1608 34.3509 111.3876 0.0000 10.8482 0.0000
# 4 0.0000 0.0000 0.0000 6.5184 0.0000 4.2924
# 5 2.3122 -0.2397 10.8482 0.0000 14.5631 0.0000
# 6 0.0000 0.0000 0.0000 4.2924 0.0000 19.0405
#
#
#
# Elastic Compliance Matrix: (Units=1/GPa)
#
#
# Indices 1 2 3 4 5 6 
#
# 1 0.009467 -0.001807 -0.001910 0.000000 -0.000110 0.000000
# 2 -0.001807 0.009838 -0.002808 0.000000 0.002541 0.000000
# 3 -0.001910 -0.002808 0.011126 0.000000 -0.008031 0.000000
# 4 0.000000 0.000000 0.000000 0.180155 0.000000 -0.040614
# 5 -0.000110 0.002541 -0.008031 0.000000 0.074708 0.000000
# 6 0.000000 0.000000 0.000000 -0.040614 0.000000 0.061676
#
#
# Mechanical properties :
#
#
# Convention : Reuss Voigt Hill
#
# Bulk Modulus (GPa) = 57.54089 58.99026 58.26558
# Shear Modulus (GPa) = 13.66815 24.86745 19.26780
#
# Velocity S-wave (km/s) = 2.60837 3.51828 3.09693
# Velocity P-wave (km/s) = 6.14115 6.77260 6.46459
#
# Compressibility (1/GPa) = 0.01737895
#
# Stress axis : x y z
#
# Youngs Moduli (GPa) = 105.63310 101.64680 89.88019
#
# Poissons Ratio (x) = 0.18371 0.17170
# Poissons Ratio (y) = 0.19091 0.25241
# Poissons Ratio (z) = 0.20179 0.28545
#
# Static dielectric constant tensor:
#      x y z
#    x 3.666270 0.000000 0.040890 
#    y 0.000000 3.710790 0.000000 
#    z 0.040890 0.000000 3.482350 
# 
# 
# High freq. dielectric constant tensor:
#      x y z
#    x 1.789340 0.000000 0.008830 
#    y 0.000000 1.786210 0.000000 
#    z 0.008830 0.000000 1.772000 
# 
# From -- ./inp_files/59009.got.cif
#   From: 2010.06.25/outbox.cif.g09.slc.cpg/sg10_30_cif.got.tgz:59009.got - 2010.06.27 22:07:45.
