data_PCOD8062850
_publ_section_title
;
Structure prediction by ZEFSAII (Michael W. Deem and Ramdas Pophale) SiO2 
 PCOD8062850
Probable space group: P 2/M
;
_chemical_formula_sum "Si O2"
_cell_formula_units_Z 28
_cell_length_a 15.138913
_cell_length_b 7.609315
_cell_length_c 14.072660
_cell_angle_alpha 90.000000
_cell_angle_beta 102.556033
_cell_angle_gamma 90.000000
_cell_volume 1582.353775
_symmetry_space_group_name_H-M "P 2/M"
_symmetry_group_IT_number 10
_symmetry_cell_setting 'monoclinic'
loop_
_space_group_symop_operation_xyz
x,y,z
-x,y,-z
-x,-y,-z
x,-y,z
loop_
_atom_site_type_symbol
_atom_site_label
_atom_site_fract_x
_atom_site_fract_y
_atom_site_fract_z
Si Si1 0.612317 0.199795 0.368700
Si Si2 0.733605 0.300016 0.227577
Si Si3 0.699857 0.292704 0.582033
Si Si4 0.433266 0.000000 0.124669
Si Si5 0.107392 0.708374 0.429367
Si Si6 0.417800 0.300431 0.269279
Si Si7 0.088655 0.708424 0.636914
Si Si8 0.635372 0.000000 0.097399
O O1 0.681625 0.298899 0.315923
O O2 0.646693 0.200603 0.484277
O O3 0.515606 0.293374 0.341290
O O4 0.601569 0.000000 0.330069
O O5 0.733125 0.500000 0.188527
O O6 0.835866 0.227863 0.270130
O O7 0.687948 0.176087 0.139168
O O8 0.692633 0.500000 0.564080
O O9 0.804426 0.226557 0.607605
O O10 0.655997 0.236206 0.671183
O O11 0.409918 0.824138 0.176646
O O12 0.538262 0.000000 0.123633
O O13 0.371086 0.000000 0.017304
O O14 0.106457 0.500000 0.433340
O O15 0.111907 0.783653 0.537686
O O16 0.013046 0.771996 0.357832
O O17 0.398394 0.500000 0.231753
O O18 0.093607 0.500000 0.633506
#
# Coordination Sequence:
#
# PCOD8062850 Si02
#       8
#     4   4   4   2   4   4   4   2
#     4  12  21  32  49  75 111 147 179 208 245 297
#     4  11  19  33  55  79 106 140 174 210 256 310
#     4  10  20  31  50  77 107 145 182 209 243 297
#     4  11  24  42  56  76 103 129 169 226 274 314
#     4   8  13  25  43  73 107 139 174 208 241 289
#     4  11  22  37  55  76 103 140 179 213 256 307
#     4   8  14  24  47  73 103 141 173 204 249 295
#     4  11  24  40  57  78 100 129 173 219 276 321
#
# _framework density 17.695159
#
# number of rings (size 3 to 8) (size 9 to 14) (size 15 to 20)
#    0.000    1.857    4.286    2.571    1.000    2.286 
#    0.000    1.429    1.571    1.714    0.000    2.000 
#    0.000    5.714    0.000    0.000    0.000    0.000 
#
# Total GULP energy -347119.104083 kJ/mol
# GULP energy per Si atom -12397.110860 kJ/mol
# Density = 1.765488 g / cm^3
# Si number density = 17.695159 Si / 1000 Ang^3
#
#
#
# Elastic Constant Matrix: (Units=GPa)
#
#
# Indices 1 2 3 4 5 6 
#
# 1 135.8133 24.5258 69.4158 0.0000 8.8621 0.0000
# 2 24.5258 72.7057 42.6818 0.0000 6.4492 0.0000
# 3 69.4158 42.6818 112.0280 0.0000 10.6953 0.0000
# 4 0.0000 0.0000 0.0000 16.8572 0.0000 2.5930
# 5 8.8621 6.4492 10.6953 0.0000 23.1354 0.0000
# 6 0.0000 0.0000 0.0000 2.5930 0.0000 3.8700
#
#
#
# Elastic Compliance Matrix: (Units=1/GPa)
#
#
# Indices 1 2 3 4 5 6 
#
# 1 0.010812 0.000416 -0.006749 0.000000 -0.001137 0.000000
# 2 0.000416 0.017813 -0.006858 0.000000 -0.001955 0.000000
# 3 -0.006749 -0.006858 0.015998 0.000000 -0.002899 0.000000
# 4 0.000000 0.000000 0.000000 0.066139 0.000000 -0.044315
# 5 -0.001137 -0.001955 -0.002899 0.000000 0.045544 0.000000
# 6 0.000000 0.000000 0.000000 -0.044315 0.000000 0.288089
#
#
# Mechanical properties :
#
#
# Convention : Reuss Voigt Hill
#
# Bulk Modulus (GPa) = 54.82293 65.97710 60.40001
# Shear Modulus (GPa) = 10.48533 21.03408 15.75970
#
# Velocity S-wave (km/s) = 2.43688 3.45148 2.98757
# Velocity P-wave (km/s) = 6.24236 7.29726 6.79032
#
# Compressibility (1/GPa) = 0.01824054
#
# Stress axis : x y z
#
# Youngs Moduli (GPa) = 92.49217 56.13886 62.50875
#
# Poissons Ratio (x) = -0.02334 0.42188
# Poissons Ratio (y) = -0.03846 0.42866
# Poissons Ratio (z) = 0.62424 0.38498
#
# Static dielectric constant tensor:
#      x y z
#    x 3.748000 0.000000 0.122270 
#    y 0.000000 3.143090 0.000000 
#    z 0.122270 0.000000 2.965370 
# 
# 
# High freq. dielectric constant tensor:
#      x y z
#    x 1.691340 0.000000 0.011950 
#    y 0.000000 1.683790 0.000000 
#    z 0.011950 0.000000 1.635830 
# 
# From -- ./inp_files/65808.got.cif
#   From: 2010.06.25/outbox.cif.g09.slc.cpg/sg10_33_cif.got.tgz:65808.got - 2010.06.27 22:07:45.
