data_PCOD8062877
_publ_section_title
;
Structure prediction by ZEFSAII (Michael W. Deem and Ramdas Pophale) SiO2 
 PCOD8062877
Probable space group: P 2/M
;
_chemical_formula_sum "Si O2"
_cell_formula_units_Z 28
_cell_length_a 9.051837
_cell_length_b 14.056907
_cell_length_c 13.657514
_cell_angle_alpha 90.000000
_cell_angle_beta 114.511847
_cell_angle_gamma 90.000000
_cell_volume 1581.175675
_symmetry_space_group_name_H-M "P 2/M"
_symmetry_group_IT_number 10
_symmetry_cell_setting 'monoclinic'
loop_
_space_group_symop_operation_xyz
x,y,z
-x,y,-z
-x,-y,-z
x,-y,z
loop_
_atom_site_type_symbol
_atom_site_label
_atom_site_fract_x
_atom_site_fract_y
_atom_site_fract_z
Si Si1 0.517457 0.290035 0.795777
Si Si2 0.207397 0.715048 0.842884
Si Si3 0.078127 0.895158 0.875518
Si Si4 0.805345 0.608406 0.961762
Si Si5 0.555167 0.387542 0.623329
Si Si6 0.092225 0.391146 0.222192
Si Si7 0.739882 0.107598 0.871436
O O1 0.373455 0.300497 0.833321
O O2 0.644136 0.374578 0.853243
O O3 0.450894 0.321744 0.670108
O O4 0.595359 0.183962 0.818309
O O5 0.157667 0.825193 0.818621
O O6 0.056781 0.654381 0.758804
O O7 0.218474 0.686956 0.960453
O O8 0.893706 0.861718 0.847104
O O9 0.074665 0.000000 0.828391
O O10 0.194397 0.894195 0.000991
O O11 0.806668 0.500000 0.002575
O O12 0.940726 0.622717 0.908089
O O13 0.500000 0.360134 0.500000
O O14 0.532472 0.500000 0.636903
O O15 0.739853 0.350103 0.690928
O O16 0.091421 0.500000 0.248176
O O17 0.679358 0.000000 0.827843
#
# Coordination Sequence:
#
# PCOD8062877 Si02
#       7
#     4   4   4   4   4   4   4
#     4  11  21  32  48  75 103 131 164 206 254 297
#     4  12  21  28  46  75 108 136 159 200 250 294
#     4   9  18  31  48  69  97 138 178 205 233 281
#     4  10  20  32  45  65 100 142 173 195 229 288
#     4   9  19  38  59  73  92 128 172 215 253 294
#     4   9  19  33  50  71  95 131 174 204 237 294
#     4   9  18  33  51  70  97 136 177 208 236 284
#
# _framework density 17.708341000000001
#
# number of rings (size 3 to 8) (size 9 to 14) (size 15 to 20)
#    0.000    2.143    1.429    5.143    2.000    4.571 
#    0.000    2.143    0.000    3.000    0.000    0.000 
#    0.000    4.571    0.000    0.000    0.000    0.000 
#
# Total GULP energy -346900.274390 kJ/mol
# GULP energy per Si atom -12389.295514 kJ/mol
# Density = 1.766804 g / cm^3
# Si number density = 17.708341 Si / 1000 Ang^3
#
#
#
# Elastic Constant Matrix: (Units=GPa)
#
#
# Indices 1 2 3 4 5 6 
#
# 1 96.5795 45.1485 20.1281 0.0000 -9.3330 0.0000
# 2 45.1485 76.7647 23.4147 0.0000 -6.7871 0.0000
# 3 20.1281 23.4147 63.8278 0.0000 -2.3578 0.0000
# 4 0.0000 0.0000 0.0000 16.4640 0.0000 4.5464
# 5 -9.3330 -6.7871 -2.3578 0.0000 10.7804 0.0000
# 6 0.0000 0.0000 0.0000 4.5464 0.0000 19.6349
#
#
#
# Elastic Compliance Matrix: (Units=1/GPa)
#
#
# Indices 1 2 3 4 5 6 
#
# 1 0.015028 -0.007644 -0.001645 0.000000 0.007838 0.000000
# 2 -0.007644 0.019297 -0.004501 0.000000 0.004548 0.000000
# 3 -0.001645 -0.004501 0.017824 0.000000 -0.000360 0.000000
# 4 0.000000 0.000000 0.000000 0.064888 0.000000 -0.015025
# 5 0.007838 0.004548 -0.000360 0.000000 0.102330 0.000000
# 6 0.000000 0.000000 0.000000 -0.015025 0.000000 0.054409
#
#
# Mechanical properties :
#
#
# Convention : Reuss Voigt Hill
#
# Bulk Modulus (GPa) = 40.70118 46.06164 43.38141
# Shear Modulus (GPa) = 16.15278 19.27457 17.71368
#
# Velocity S-wave (km/s) = 3.02347 3.30274 3.16619
# Velocity P-wave (km/s) = 5.93486 6.37274 6.15770
#
# Compressibility (1/GPa) = 0.02456931
#
# Stress axis : x y z
#
# Youngs Moduli (GPa) = 66.54392 51.82118 56.10480
#
# Poissons Ratio (x) = 0.39610 0.09232
# Poissons Ratio (y) = 0.50863 0.25251
# Poissons Ratio (z) = 0.10950 0.23323
#
# Static dielectric constant tensor:
#      x y z
#    x 3.251890 0.000000 0.167370 
#    y 0.000000 3.533870 0.000000 
#    z 0.167370 0.000000 3.039990 
# 
# 
# High freq. dielectric constant tensor:
#      x y z
#    x 1.677900 0.000000 0.016720 
#    y 0.000000 1.693270 0.000000 
#    z 0.016720 0.000000 1.636320 
# 
# From -- ./inp_files/61619.got.cif
#   From: 2010.06.25/outbox.cif.g09.slc.cpg/sg10_31_cif.got.tgz:61619.got - 2010.06.27 22:07:45.
