data_PCOD8062135
_publ_section_title
;
Structure prediction by ZEFSAII (Michael W. Deem and Ramdas Pophale) SiO2 
 PCOD8062135
Probable space group: P 2/M
;
_chemical_formula_sum "Si O2"
_cell_formula_units_Z 24
_cell_length_a 12.139746
_cell_length_b 9.203411
_cell_length_c 11.396328
_cell_angle_alpha 90.000000
_cell_angle_beta 110.203546
_cell_angle_gamma 90.000000
_cell_volume 1194.935642
_symmetry_space_group_name_H-M "P 2/M"
_symmetry_group_IT_number 10
_symmetry_cell_setting 'monoclinic'
loop_
_space_group_symop_operation_xyz
x,y,z
-x,y,-z
-x,-y,-z
x,-y,z
loop_
_atom_site_type_symbol
_atom_site_label
_atom_site_fract_x
_atom_site_fract_y
_atom_site_fract_z
Si Si1 0.710160 0.170985 0.393759
Si Si2 0.618381 0.335061 0.982571
Si Si3 0.469848 0.336259 0.305797
Si Si4 0.815899 0.828442 0.184147
Si Si5 0.245956 0.667377 0.365949
Si Si6 0.020703 0.669666 0.140593
O O1 0.577032 0.226522 0.342027
O O2 0.776847 0.217857 0.300164
O O3 0.781553 0.237907 0.529073
O O4 0.706548 0.000000 0.406923
O O5 0.646501 0.500000 0.033929
O O6 0.606326 0.326257 0.839496
O O7 0.500000 0.278803 0.000000
O O8 0.722665 0.229448 0.056215
O O9 0.518975 0.500000 0.340490
O O10 0.379124 0.295997 0.375743
O O11 0.940372 0.756767 0.202158
O O12 0.826014 0.000000 0.174766
O O13 0.234792 0.500000 0.397605
O O14 0.154375 0.702504 0.228116
O O15 0.988977 0.500000 0.137411
O O16 0.000000 0.725064 0.000000
#
# Coordination Sequence:
#
# PCOD8062135 Si02
#       6
#     4   4   4   4   4   4
#     4  11  24  39  56  84 123 161 196 238 289 348
#     4  10  19  34  60  89 116 151 194 242 294 344
#     4  10  20  37  61  89 119 151 195 247 296 347
#     4  11  24  39  58  87 124 160 195 240 292 350
#     4  10  22  39  61  87 115 152 197 246 294 344
#     4  10  22  43  68  90 115 148 194 248 296 349
#
# _framework density 20.084765999999998
#
# number of rings (size 3 to 8) (size 9 to 14) (size 15 to 20)
#    0.000    1.667    1.667    2.500    0.000   10.000 
#    0.000    5.000    0.000    0.000    0.000    0.000 
#    0.000    0.000    0.000    0.000    0.000    0.000 
#
# Total GULP energy -297698.980535 kJ/mol
# GULP energy per Si atom -12404.124189 kJ/mol
# Density = 2.003905 g / cm^3
# Si number density = 20.084766 Si / 1000 Ang^3
#
#
#
# Elastic Constant Matrix: (Units=GPa)
#
#
# Indices 1 2 3 4 5 6 
#
# 1 101.3694 46.3446 39.3513 0.0000 -3.6058 0.0000
# 2 46.3446 67.3191 44.4762 0.0000 -4.8139 0.0000
# 3 39.3513 44.4762 110.4376 0.0000 -4.8802 0.0000
# 4 0.0000 0.0000 0.0000 21.1142 0.0000 -6.1193
# 5 -3.6058 -4.8139 -4.8802 0.0000 30.4521 0.0000
# 6 0.0000 0.0000 0.0000 -6.1193 0.0000 26.2875
#
#
#
# Elastic Compliance Matrix: (Units=1/GPa)
#
#
# Indices 1 2 3 4 5 6 
#
# 1 0.014594 -0.009005 -0.001571 0.000000 0.000053 0.000000
# 2 -0.009005 0.025907 -0.007141 0.000000 0.001885 0.000000
# 3 -0.001571 -0.007141 0.012521 0.000000 0.000692 0.000000
# 4 0.000000 0.000000 0.000000 0.050788 0.000000 0.011823
# 5 0.000053 0.001885 0.000692 0.000000 0.033253 0.000000
# 6 0.000000 0.000000 0.000000 0.011823 0.000000 0.040793
#
#
# Mechanical properties :
#
#
# Convention : Reuss Voigt Hill
#
# Bulk Modulus (GPa) = 56.86098 59.94113 58.40106
# Shear Modulus (GPa) = 22.81508 25.50104 24.15806
#
# Velocity S-wave (km/s) = 3.37403 3.56711 3.47191
# Velocity P-wave (km/s) = 6.59930 6.84650 6.72403
#
# Compressibility (1/GPa) = 0.01758675
#
# Stress axis : x y z
#
# Youngs Moduli (GPa) = 68.52315 38.59989 79.86361
#
# Poissons Ratio (x) = 0.34759 0.12548
# Poissons Ratio (y) = 0.61704 0.57034
# Poissons Ratio (z) = 0.10766 0.27566
#
# Static dielectric constant tensor:
#      x y z
#    x 3.662720 0.000000 -0.100290 
#    y 0.000000 3.526880 0.000000 
#    z -0.100290 0.000000 3.764290 
# 
# 
# High freq. dielectric constant tensor:
#      x y z
#    x 1.785430 0.000000 -0.005130 
#    y 0.000000 1.771290 0.000000 
#    z -0.005130 0.000000 1.796990 
# 
# From -- ./inp_files/45305.got.cif
#   From: 2010.06.25/outbox.cif.g09.slc.cpg/sg10_23_cif.got.tgz:45305.got - 2010.06.27 22:07:45.
