data_PCOD8062466
_publ_section_title
;
Structure prediction by ZEFSAII (Michael W. Deem and Ramdas Pophale) SiO2 
 PCOD8062466
Probable space group: P 2/M
;
_chemical_formula_sum "Si O2"
_cell_formula_units_Z 28
_cell_length_a 15.686594
_cell_length_b 9.173472
_cell_length_c 11.755921
_cell_angle_alpha 90.000000
_cell_angle_beta 56.732083
_cell_angle_gamma 90.000000
_cell_volume 1414.441180
_symmetry_space_group_name_H-M "P 2/M"
_symmetry_group_IT_number 10
_symmetry_cell_setting 'monoclinic'
loop_
_space_group_symop_operation_xyz
x,y,z
-x,y,-z
-x,-y,-z
x,-y,z
loop_
_atom_site_type_symbol
_atom_site_label
_atom_site_fract_x
_atom_site_fract_y
_atom_site_fract_z
Si Si1 0.229737 0.830465 0.840363
Si Si2 0.821786 0.827973 0.373330
Si Si3 0.463639 0.167190 0.654100
Si Si4 0.387474 0.330477 0.091867
Si Si5 0.202151 0.329741 0.082956
Si Si6 0.998620 0.668935 0.632335
Si Si7 0.359625 0.331084 0.369125
O O1 0.174044 0.789079 0.763482
O O2 0.347192 0.783196 0.747257
O O3 0.218746 0.000000 0.873703
O O4 0.175940 0.746120 0.982832
O O5 0.721114 0.759467 0.500476
O O6 0.922006 0.766201 0.357695
O O7 0.814710 0.000000 0.397314
O O8 0.500000 0.190436 0.500000
O O9 0.527033 0.272714 0.689631
O O10 0.478998 0.000000 0.680976
O O11 0.399789 0.500000 0.055226
O O12 0.307231 0.264384 0.059539
O O13 0.338340 0.307770 0.251618
O O14 0.500000 0.256279 0.000000
O O15 0.212595 0.500000 0.052176
O O16 0.112754 0.297906 0.237658
O O17 0.029736 0.500000 0.623352
O O18 0.000000 0.715424 0.500000
O O19 0.352110 0.500000 0.408832
#
# Coordination Sequence:
#
# PCOD8062466 Si02
#       7
#     4   4   4   4   4   4   4
#     4  10  22  39  58  82 118 159 194 237 292 347
#     4  11  23  40  60  84 116 155 196 240 292 348
#     4  10  19  36  56  78 118 163 197 234 287 343
#     4   9  18  34  56  84 118 151 185 232 290 347
#     4  10  21  38  61  86 116 152 190 240 295 347
#     4  10  22  42  65  88 116 150 191 242 299 349
#     4  11  21  34  58  89 117 150 197 247 293 345
#
# _framework density 19.795804
#
# number of rings (size 3 to 8) (size 9 to 14) (size 15 to 20)
#    0.000    1.857    1.429    2.571    0.000    6.857 
#    0.000    5.714    0.000    3.857    0.000    0.000 
#    0.000    0.000    0.000    0.000    0.000    0.000 
#
# Total GULP energy -347271.243418 kJ/mol
# GULP energy per Si atom -12402.544408 kJ/mol
# Density = 1.975075 g / cm^3
# Si number density = 19.795804 Si / 1000 Ang^3
#
#
#
# Elastic Constant Matrix: (Units=GPa)
#
#
# Indices 1 2 3 4 5 6 
#
# 1 135.9797 60.5566 55.9742 0.0000 15.5393 0.0000
# 2 60.5566 70.9794 50.7547 0.0000 8.7261 0.0000
# 3 55.9742 50.7547 125.8390 0.0000 10.9462 0.0000
# 4 0.0000 0.0000 0.0000 -1.7340 0.0000 2.7250
# 5 15.5393 8.7261 10.9462 0.0000 25.5234 0.0000
# 6 0.0000 0.0000 0.0000 2.7250 0.0000 34.2976
#
#
#
# Elastic Compliance Matrix: (Units=1/GPa)
#
#
# Indices 1 2 3 4 5 6 
#
# 1 0.012462 -0.009045 -0.001563 0.000000 -0.003825 0.000000
# 2 -0.009045 0.026664 -0.006666 0.000000 -0.000751 0.000000
# 3 -0.001563 -0.006666 0.011477 0.000000 -0.001692 0.000000
# 4 0.000000 0.000000 0.000000 -0.512676 0.000000 0.040733
# 5 -0.003825 -0.000751 -0.001692 0.000000 0.042491 0.000000
# 6 0.000000 0.000000 0.000000 0.040733 0.000000 0.025920
#
#
# Mechanical properties :
#
#
# Convention : Reuss Voigt Hill
#
# Bulk Modulus (GPa) = 62.27720 74.15212 68.21466
# Shear Modulus (GPa) = -14.13378 22.65156 4.25889
#
# Velocity S-wave (km/s) = -2.67494 3.38636 1.46836
# Velocity P-wave (km/s) = 4.68911 7.26841 6.11627
#
# Compressibility (1/GPa) = 0.01605724
#
# Stress axis : x y z
#
# Youngs Moduli (GPa) = 80.24203 37.50377 87.12706
#
# Poissons Ratio (x) = 0.33921 0.13615
# Poissons Ratio (y) = 0.72576 0.58079
# Poissons Ratio (z) = 0.12539 0.25000
#
# Static dielectric constant tensor:
#      x y z
#    x 3.882240 0.000000 -0.005660 
#    y 0.000000 3.415430 0.000000 
#    z -0.005660 0.000000 3.643830 
# 
# 
# High freq. dielectric constant tensor:
#      x y z
#    x 1.780350 0.000000 0.003690 
#    y 0.000000 1.751890 0.000000 
#    z 0.003690 0.000000 1.780960 
# 
# From -- ./inp_files/49543.got.cif
#   From: 2010.06.25/outbox.cif.g09.slc.cpg/sg10_25_cif.got.tgz:49543.got - 2010.06.27 22:07:45.
