data_PCOD8062555
_publ_section_title
;
Structure prediction by ZEFSAII (Michael W. Deem and Ramdas Pophale) SiO2 
 PCOD8062555
Probable space group: P 2/M
;
_chemical_formula_sum "Si O2"
_cell_formula_units_Z 24
_cell_length_a 9.671102
_cell_length_b 18.547398
_cell_length_c 9.616457
_cell_angle_alpha 90.000000
_cell_angle_beta 47.317831
_cell_angle_gamma 90.000000
_cell_volume 1268.047732
_symmetry_space_group_name_H-M "P 2/M"
_symmetry_group_IT_number 10
_symmetry_cell_setting 'monoclinic'
loop_
_space_group_symop_operation_xyz
x,y,z
-x,y,-z
-x,-y,-z
x,-y,z
loop_
_atom_site_type_symbol
_atom_site_label
_atom_site_fract_x
_atom_site_fract_y
_atom_site_fract_z
Si Si1 0.963078 0.918756 0.863529
Si Si2 0.209659 0.578055 0.824072
Si Si3 0.313571 0.685515 0.537457
Si Si4 0.331464 0.847483 0.511301
Si Si5 0.409403 0.828425 0.918701
Si Si6 0.456484 0.337064 0.871305
O O1 0.153400 0.899833 0.648947
O O2 0.907122 0.000000 0.860108
O O3 0.791410 0.866246 0.949806
O O4 0.000000 0.911778 0.000000
O O5 0.307929 0.500000 0.723927
O O6 0.183640 0.628345 0.704553
O O7 0.309794 0.612205 0.891523
O O8 0.000000 0.559962 0.000000
O O9 0.500000 0.678394 0.500000
O O10 0.243226 0.767697 0.595361
O O11 0.349925 0.663881 0.351314
O O12 0.500000 0.866694 0.500000
O O13 0.432042 0.856257 0.295300
O O14 0.370352 0.743315 0.929717
O O15 0.500000 0.849584 0.000000
O O16 0.500000 0.363232 0.000000
#
# Coordination Sequence:
#
# PCOD8062555 Si02
#       6
#     4   4   4   4   4   4
#     4  11  24  37  59  90 113 153 196 229 293 346
#     4  10  21  34  53  83 112 143 182 226 276 329
#     4   8  17  32  54  80 104 141 186 225 274 323
#     4  10  19  36  60  85 112 149 192 239 282 335
#     4  10  22  40  59  85 119 149 190 243 286 335
#     4   9  19  36  57  81 107 144 187 226 279 331
#
# _framework density 18.926732999999999
#
# number of rings (size 3 to 8) (size 9 to 14) (size 15 to 20)
#    0.000    2.333    1.667    1.000    2.333    5.333 
#    0.000    1.667    0.000    2.000    0.000    0.000 
#    0.000    0.000    0.000    0.000    0.000    0.000 
#
# Total GULP energy -297316.954452 kJ/mol
# GULP energy per Si atom -12388.206436 kJ/mol
# Density = 1.888365 g / cm^3
# Si number density = 18.926733 Si / 1000 Ang^3
#
#
#
# Elastic Constant Matrix: (Units=GPa)
#
#
# Indices 1 2 3 4 5 6 
#
# 1 69.1201 48.2640 48.8484 0.0000 7.3791 0.0000
# 2 48.2640 92.6972 40.9582 0.0000 -7.4938 0.0000
# 3 48.8484 40.9582 107.7381 0.0000 6.9148 0.0000
# 4 0.0000 0.0000 0.0000 -1.5007 0.0000 -12.5061
# 5 7.3791 -7.4938 6.9148 0.0000 37.3705 0.0000
# 6 0.0000 0.0000 0.0000 -12.5061 0.0000 50.5075
#
#
#
# Elastic Compliance Matrix: (Units=1/GPa)
#
#
# Indices 1 2 3 4 5 6 
#
# 1 0.029693 -0.012323 -0.008342 0.000000 -0.006791 0.000000
# 2 -0.012323 0.018564 -0.001888 0.000000 0.006505 0.000000
# 3 -0.008342 -0.001888 0.013865 0.000000 -0.001297 0.000000
# 4 0.000000 0.000000 0.000000 -0.217517 0.000000 -0.053859
# 5 -0.006791 0.006505 -0.001297 0.000000 0.029644 0.000000
# 6 0.000000 0.000000 0.000000 -0.053859 0.000000 0.006463
#
#
# Mechanical properties :
#
#
# Convention : Reuss Voigt Hill
#
# Bulk Modulus (GPa) = 58.76756 60.63294 59.70025
# Shear Modulus (GPa) = -72.98043 26.04113 -23.46965
#
# Velocity S-wave (km/s) = -6.21636 3.71332 -3.52522
# Velocity P-wave (km/s) = 4.51738 7.10565 3.87836
#
# Compressibility (1/GPa) = 0.01701619
#
# Stress axis : x y z
#
# Youngs Moduli (GPa) = 33.67848 53.86834 72.12460
#
# Poissons Ratio (x) = 0.66381 0.60167
# Poissons Ratio (y) = 0.41501 0.13614
# Poissons Ratio (z) = 0.28095 0.10168
#
# Static dielectric constant tensor:
#      x y z
#    x 3.243270 0.000000 0.330730 
#    y 0.000000 4.035820 0.000000 
#    z 0.330730 0.000000 3.904760 
# 
# 
# High freq. dielectric constant tensor:
#      x y z
#    x 1.710640 0.000000 0.008410 
#    y 0.000000 1.738630 0.000000 
#    z 0.008410 0.000000 1.744010 
# 
# From -- ./inp_files/20127.got.cif
#   From: 2010.06.25/outbox.cif.g09.slc.cpg/sg10_11_cif.got.tgz:20127.got - 2010.06.27 22:07:45.
