data_PCOD8062650
_publ_section_title
;
Structure prediction by ZEFSAII (Michael W. Deem and Ramdas Pophale) SiO2 
 PCOD8062650
Probable space group: P 2/M
;
_chemical_formula_sum "Si O2"
_cell_formula_units_Z 22
_cell_length_a 14.800817
_cell_length_b 14.952847
_cell_length_c 11.488324
_cell_angle_alpha 90.000000
_cell_angle_beta 28.399523
_cell_angle_gamma 90.000000
_cell_volume 1209.270668
_symmetry_space_group_name_H-M "P 2/M"
_symmetry_group_IT_number 10
_symmetry_cell_setting 'monoclinic'
loop_
_space_group_symop_operation_xyz
x,y,z
-x,y,-z
-x,-y,-z
x,-y,z
loop_
_atom_site_type_symbol
_atom_site_label
_atom_site_fract_x
_atom_site_fract_y
_atom_site_fract_z
Si Si1 0.655496 0.600719 0.137006
Si Si2 0.500000 0.732060 0.500000
Si Si3 0.585694 0.698064 0.776290
Si Si4 0.633517 0.851925 0.547875
Si Si5 0.053835 0.000000 0.808178
Si Si6 0.048795 0.399209 0.571523
Si Si7 0.619769 0.000000 0.242429
O O1 0.594613 0.500000 0.242206
O O2 0.628415 0.668974 0.273753
O O3 0.538707 0.628459 0.155526
O O4 0.874761 0.603152 0.856642
O O5 0.641437 0.792305 0.419867
O O6 0.598860 0.793616 0.700654
O O7 0.796240 0.660825 0.542785
O O8 0.500000 0.711333 0.000000
O O9 0.823429 0.910461 0.354090
O O10 0.445553 0.912529 0.752656
O O11 0.000000 0.000000 0.000000
O O12 0.848890 0.000000 0.977834
O O13 0.126152 0.500000 0.466589
O O14 0.000000 0.358840 0.500000
O O15 0.500000 0.000000 0.500000
#
# Coordination Sequence:
#
# PCOD8062650 Si02
#       7
#     4   2   4   4   2   4   2
#     4  10  21  36  56  80 117 158 194 235 280 332
#     4  10  19  37  56  86 122 148 184 239 289 332
#     4  11  22  37  57  84 114 149 191 239 283 326
#     4  10  22  36  57  89 111 142 187 229 281 340
#     4  11  19  36  63  82 111 146 178 225 280 341
#     4  10  20  35  55  82 111 149 202 240 271 324
#     4  11  19  40  59  82 108 141 183 221 273 345
#
# _framework density 18.192785000000001
#
# number of rings (size 3 to 8) (size 9 to 14) (size 15 to 20)
#    0.000    1.636    4.545    0.818    0.000    5.091 
#    0.000    4.545    0.000   10.909    0.000    0.000 
#    0.000    0.000    0.000    0.000    0.000    0.000 
#
# Total GULP energy -272736.809376 kJ/mol
# GULP energy per Si atom -12397.127699 kJ/mol
# Density = 1.815138 g / cm^3
# Si number density = 18.192785 Si / 1000 Ang^3
#
#
#
# Elastic Constant Matrix: (Units=GPa)
#
#
# Indices 1 2 3 4 5 6 
#
# 1 108.1225 66.2243 54.3290 0.0000 -8.6964 0.0000
# 2 66.2243 135.0967 58.7510 0.0000 -8.4890 0.0000
# 3 54.3290 58.7510 96.1139 0.0000 -14.0281 0.0000
# 4 0.0000 0.0000 0.0000 23.4432 0.0000 0.2463
# 5 -8.6964 -8.4890 -14.0281 0.0000 37.4950 0.0000
# 6 0.0000 0.0000 0.0000 0.2463 0.0000 36.2980
#
#
#
# Elastic Compliance Matrix: (Units=1/GPa)
#
#
# Indices 1 2 3 4 5 6 
#
# 1 0.015059 -0.005013 -0.005399 0.000000 0.000338 0.000000
# 2 -0.005013 0.011751 -0.004369 0.000000 -0.000137 0.000000
# 3 -0.005399 -0.004369 0.016712 0.000000 0.004011 0.000000
# 4 0.000000 0.000000 0.000000 0.042659 0.000000 -0.000290
# 5 0.000338 -0.000137 0.004011 0.000000 0.028218 0.000000
# 6 0.000000 0.000000 0.000000 -0.000290 0.000000 0.027552
#
#
# Mechanical properties :
#
#
# Convention : Reuss Voigt Hill
#
# Bulk Modulus (GPa) = 71.63139 77.54910 74.59024
# Shear Modulus (GPa) = 28.38215 30.11582 29.24899
#
# Velocity S-wave (km/s) = 3.95407 4.07304 4.01399
# Velocity P-wave (km/s) = 7.76564 8.05223 7.91023
#
# Compressibility (1/GPa) = 0.01396036
#
# Stress axis : x y z
#
# Youngs Moduli (GPa) = 66.40532 85.09932 59.83632
#
# Poissons Ratio (x) = 0.42659 0.32304
# Poissons Ratio (y) = 0.33288 0.26145
# Poissons Ratio (z) = 0.35850 0.37183
#
# Static dielectric constant tensor:
#      x y z
#    x 3.231210 0.000000 -0.016910 
#    y 0.000000 3.514660 0.000000 
#    z -0.016910 0.000000 3.080420 
# 
# 
# High freq. dielectric constant tensor:
#      x y z
#    x 1.702910 0.000000 -0.006770 
#    y 0.000000 1.716610 0.000000 
#    z -0.006770 0.000000 1.696910 
# 
# From -- ./inp_files/51357.got.cif
#   From: 2010.06.25/outbox.cif.g09.slc.cpg/sg10_26_cif.got.tgz:51357.got - 2010.06.27 22:07:45.
