data_PCOD8062736
_publ_section_title
;
Structure prediction by ZEFSAII (Michael W. Deem and Ramdas Pophale) SiO2 
 PCOD8062736
Probable space group: P 2/M
;
_chemical_formula_sum "Si O2"
_cell_formula_units_Z 24
_cell_length_a 8.889995
_cell_length_b 13.812279
_cell_length_c 13.146654
_cell_angle_alpha 90.000000
_cell_angle_beta 49.668630
_cell_angle_gamma 90.000000
_cell_volume 1230.597533
_symmetry_space_group_name_H-M "P 2/M"
_symmetry_group_IT_number 10
_symmetry_cell_setting 'monoclinic'
loop_
_space_group_symop_operation_xyz
x,y,z
-x,y,-z
-x,-y,-z
x,-y,z
loop_
_atom_site_type_symbol
_atom_site_label
_atom_site_fract_x
_atom_site_fract_y
_atom_site_fract_z
Si Si1 0.167910 0.213433 0.009312
Si Si2 0.198745 0.608264 0.353040
Si Si3 0.404785 0.798047 0.262762
Si Si4 0.272044 0.391041 0.091226
Si Si5 0.324857 0.886937 0.508704
Si Si6 0.897637 0.886863 0.758986
O O1 0.163012 0.319928 0.061371
O O2 0.132628 0.130721 0.108474
O O3 0.370821 0.189199 0.865479
O O4 0.000000 0.207102 0.000000
O O5 0.273334 0.500000 0.349267
O O6 0.363479 0.686506 0.313251
O O7 0.163026 0.614473 0.247517
O O8 0.000000 0.633535 0.500000
O O9 0.361096 0.868656 0.374798
O O10 0.265446 0.825891 0.229800
O O11 0.262143 0.500000 0.051262
O O12 0.500000 0.357485 0.000000
O O13 0.500000 0.839216 0.500000
O O14 0.111844 0.845139 0.633620
O O15 0.320566 0.000000 0.532298
O O16 0.873740 0.000000 0.744253
#
# Coordination Sequence:
#
# PCOD8062736 Si02
#       6
#     4   4   4   4   4   4
#     4  12  25  39  56  86 123 157 196 244 305 355
#     4  10  20  35  61  92 117 145 189 242 292 340
#     4  12  22  38  62  88 115 155 201 248 288 346
#     4  10  19  38  63  85 116 155 198 243 287 345
#     4  10  22  40  61  88 121 156 192 238 301 357
#     4  11  23  40  62  87 115 153 203 248 290 349
#
# _framework density 19.502718999999999
#
# number of rings (size 3 to 8) (size 9 to 14) (size 15 to 20)
#    0.000    1.167    3.333    3.500    0.000    4.000 
#    0.000    0.000    0.000    0.500    0.000    0.000 
#    0.000    0.000    0.000    0.000    0.000    0.000 
#
# Total GULP energy -297684.678652 kJ/mol
# GULP energy per Si atom -12403.528277 kJ/mol
# Density = 1.945833 g / cm^3
# Si number density = 19.502719 Si / 1000 Ang^3
#
#
#
# Elastic Constant Matrix: (Units=GPa)
#
#
# Indices 1 2 3 4 5 6 
#
# 1 123.2128 23.0857 55.1938 0.0000 -14.3615 0.0000
# 2 23.0857 59.8461 25.4102 0.0000 -10.6052 0.0000
# 3 55.1938 25.4102 171.2903 0.0000 -12.7377 0.0000
# 4 0.0000 0.0000 0.0000 22.5890 0.0000 12.3695
# 5 -14.3615 -10.6052 -12.7377 0.0000 32.2455 0.0000
# 6 0.0000 0.0000 0.0000 12.3695 0.0000 22.1577
#
#
#
# Elastic Compliance Matrix: (Units=1/GPa)
#
#
# Indices 1 2 3 4 5 6 
#
# 1 0.010064 -0.002259 -0.002709 0.000000 0.002669 0.000000
# 2 -0.002259 0.019146 -0.001771 0.000000 0.004591 0.000000
# 3 -0.002709 -0.001771 0.007048 0.000000 0.000995 0.000000
# 4 0.000000 0.000000 0.000000 0.063760 0.000000 -0.035594
# 5 0.002669 0.004591 0.000995 0.000000 0.034104 0.000000
# 6 0.000000 0.000000 0.000000 -0.035594 0.000000 0.065002
#
#
# Mechanical properties :
#
#
# Convention : Reuss Voigt Hill
#
# Bulk Modulus (GPa) = 43.89828 62.41427 53.15627
# Shear Modulus (GPa) = 22.70709 32.10908 27.40808
#
# Velocity S-wave (km/s) = 3.41589 4.06197 3.75286
# Velocity P-wave (km/s) = 6.17377 7.35336 6.78923
#
# Compressibility (1/GPa) = 0.02277993
#
# Stress axis : x y z
#
# Youngs Moduli (GPa) = 99.36386 52.22892 141.88945
#
# Poissons Ratio (x) = 0.11798 0.38442
# Poissons Ratio (y) = 0.22445 0.25129
# Poissons Ratio (z) = 0.26921 0.09250
#
# Static dielectric constant tensor:
#      x y z
#    x 3.399810 0.000000 -0.047840 
#    y 0.000000 3.664650 0.000000 
#    z -0.047840 0.000000 3.790630 
# 
# 
# High freq. dielectric constant tensor:
#      x y z
#    x 1.733520 0.000000 0.004630 
#    y 0.000000 1.765670 0.000000 
#    z 0.004630 0.000000 1.781690 
# 
# From -- ./inp_files/29662.got.cif
#   From: 2010.06.25/outbox.cif.g09.slc.cpg/sg10_15_cif.got.tgz:29662.got - 2010.06.27 22:07:45.
