data_PCOD8062017
_publ_section_title
;
Structure prediction by ZEFSAII (Michael W. Deem and Ramdas Pophale) SiO2 
 PCOD8062017
Probable space group: P 2/M
;
_chemical_formula_sum "Si O2"
_cell_formula_units_Z 32
_cell_length_a 14.123857
_cell_length_b 9.308057
_cell_length_c 19.829062
_cell_angle_alpha 90.000000
_cell_angle_beta 139.402904
_cell_angle_gamma 90.000000
_cell_volume 1696.364487
_symmetry_space_group_name_H-M "P 2/M"
_symmetry_group_IT_number 10
_symmetry_cell_setting 'monoclinic'
loop_
_space_group_symop_operation_xyz
x,y,z
-x,y,-z
-x,-y,-z
x,-y,z
loop_
_atom_site_type_symbol
_atom_site_label
_atom_site_fract_x
_atom_site_fract_y
_atom_site_fract_z
Si Si1 0.145446 0.169097 0.039595
Si Si2 0.672880 0.167556 0.378651
Si Si3 0.660921 0.171010 0.600719
Si Si4 0.399239 0.667792 0.793075
Si Si5 0.276609 0.330936 0.994592
Si Si6 0.632726 0.169417 0.732405
Si Si7 0.115153 0.830791 0.389306
Si Si8 0.181071 0.333050 0.794089
O O1 0.275828 0.231653 0.156057
O O2 0.155524 0.000000 0.030768
O O3 0.155409 0.250769 0.973981
O O4 0.000000 0.209884 0.000000
O O5 0.674124 0.253016 0.309683
O O6 0.535053 0.214038 0.349785
O O7 0.815592 0.203140 0.499905
O O8 0.664449 0.000000 0.356051
O O9 0.500000 0.232310 0.500000
O O10 0.698990 0.223684 0.697141
O O11 0.779460 0.231879 0.612425
O O12 0.657802 0.000000 0.592024
O O13 0.399062 0.500000 0.776623
O O14 0.304867 0.704199 0.807395
O O15 0.562598 0.722314 0.896754
O O16 0.261088 0.500000 0.996565
O O17 0.245599 0.286795 0.901016
O O18 0.649975 0.000000 0.742537
O O19 0.961300 0.755233 0.301505
O O20 0.092890 0.000000 0.367858
O O21 0.139585 0.500000 0.770573
#
# Coordination Sequence:
#
# PCOD8062017 Si02
#       8
#     4   4   4   4   4   4   4   4
#     4  10  21  34  53  85 118 147 179 220 272 330
#     4  10  19  34  57  85 115 144 180 229 277 321
#     4   9  15  27  50  78 106 140 180 215 253 311
#     4  10  21  39  62  82 101 140 193 234 276 336
#     4  10  21  39  61  82 107 143 188 235 277 326
#     4   9  16  29  49  76 111 146 177 214 264 318
#     4  10  21  35  56  86 115 145 185 228 270 326
#     4  10  23  41  58  78 109 146 184 232 287 333
#
# _framework density 18.863869999999999
#
# number of rings (size 3 to 8) (size 9 to 14) (size 15 to 20)
#    0.000    2.250    2.500    0.375    1.750    3.750 
#    0.000    2.500    0.000    3.375    0.000    0.000 
#    0.000    0.000    0.000    0.000    0.000    0.000 
#
# Total GULP energy -396757.399397 kJ/mol
# GULP energy per Si atom -12398.668731 kJ/mol
# Density = 1.882093 g / cm^3
# Si number density = 18.863870 Si / 1000 Ang^3
#
#
#
# Elastic Constant Matrix: (Units=GPa)
#
#
# Indices 1 2 3 4 5 6 
#
# 1 134.9638 50.1374 68.3808 0.0000 -15.6212 0.0000
# 2 50.1374 36.0708 41.7260 0.0000 -3.5760 0.0000
# 3 68.3808 41.7260 116.9659 0.0000 -9.6434 0.0000
# 4 0.0000 0.0000 0.0000 27.9984 0.0000 -1.4019
# 5 -15.6212 -3.5760 -9.6434 0.0000 37.5180 0.0000
# 6 0.0000 0.0000 0.0000 -1.4019 0.0000 25.7886
#
#
#
# Elastic Compliance Matrix: (Units=1/GPa)
#
#
# Indices 1 2 3 4 5 6 
#
# 1 0.016372 -0.019866 -0.002124 0.000000 0.004377 0.000000
# 2 -0.019866 0.071309 -0.014248 0.000000 -0.005137 0.000000
# 3 -0.002124 -0.014248 0.015007 0.000000 0.001615 0.000000
# 4 0.000000 0.000000 0.000000 0.035814 0.000000 0.001947
# 5 0.004377 -0.005137 0.001615 0.000000 0.028402 0.000000
# 6 0.000000 0.000000 0.000000 0.001947 0.000000 0.038883
#
#
# Mechanical properties :
#
#
# Convention : Reuss Voigt Hill
#
# Bulk Modulus (GPa) = 33.09855 67.60988 50.35421
# Shear Modulus (GPa) = 17.34107 26.77808 22.05958
#
# Velocity S-wave (km/s) = 3.03524 3.77177 3.42337
# Velocity P-wave (km/s) = 5.46513 7.40858 6.50979
#
# Compressibility (1/GPa) = 0.03021281
#
# Stress axis : x y z
#
# Youngs Moduli (GPa) = 61.07966 14.02343 66.63626
#
# Poissons Ratio (x) = 0.27859 0.14151
# Poissons Ratio (y) = 1.21343 0.94942
# Poissons Ratio (z) = 0.12971 0.19980
#
# Static dielectric constant tensor:
#      x y z
#    x 3.560030 0.000000 -0.100310 
#    y 0.000000 3.062480 0.000000 
#    z -0.100310 0.000000 3.623550 
# 
# 
# High freq. dielectric constant tensor:
#      x y z
#    x 1.743660 0.000000 -0.007520 
#    y 0.000000 1.690930 0.000000 
#    z -0.007520 0.000000 1.743430 
# 
# From -- ./inp_files/84749.got.cif
#   From: 2010.06.25/outbox.cif.g09.slc.cpg/sg10_43_cif.got.tgz:84749.got - 2010.06.27 22:07:45.
