data_PCOD8062925
_publ_section_title
;
Structure prediction by ZEFSAII (Michael W. Deem and Ramdas Pophale) SiO2 
 PCOD8062925
Probable space group: P 2/M
;
_chemical_formula_sum "Si O2"
_cell_formula_units_Z 32
_cell_length_a 15.832895
_cell_length_b 9.203975
_cell_length_c 15.832894
_cell_angle_alpha 90.000000
_cell_angle_beta 51.786150
_cell_angle_gamma 90.000000
_cell_volume 1812.829253
_symmetry_space_group_name_H-M "P 2/M"
_symmetry_group_IT_number 10
_symmetry_cell_setting 'monoclinic'
loop_
_space_group_symop_operation_xyz
x,y,z
-x,y,-z
-x,-y,-z
x,-y,z
loop_
_atom_site_type_symbol
_atom_site_label
_atom_site_fract_x
_atom_site_fract_y
_atom_site_fract_z
Si Si1 0.581023 0.166580 0.799248
Si Si2 0.333757 0.663337 0.104702
Si Si3 0.927321 0.168149 0.342267
Si Si4 0.799248 0.833421 0.581023
Si Si5 0.657733 0.168149 0.072679
Si Si6 0.104702 0.336663 0.333757
Si Si7 0.943518 0.668100 0.164752
Si Si8 0.164752 0.331900 0.943518
O O1 0.580835 0.262864 0.884489
O O2 0.675869 0.212360 0.675869
O O3 0.466952 0.189869 0.823511
O O4 0.595349 0.000000 0.819064
O O5 0.372364 0.500000 0.059997
O O6 0.220494 0.662162 0.220494
O O7 0.319376 0.754229 0.029324
O O8 0.823511 0.189869 0.466952
O O9 0.900258 0.236398 0.268558
O O10 0.029324 0.245771 0.319376
O O11 0.955614 0.000000 0.312738
O O12 0.884489 0.737136 0.580835
O O13 0.819064 0.000000 0.595349
O O14 0.731442 0.236398 0.099742
O O15 0.687262 0.000000 0.044386
O O16 0.059997 0.500000 0.372364
O O17 0.940526 0.500000 0.192904
O O18 0.865184 0.697924 0.134816
O O19 0.065176 0.712416 0.065176
O O20 0.192904 0.500000 0.940526
#
# Coordination Sequence:
#
# PCOD8062925 Si02
#       8
#     4   4   4   4   4   4   4   4
#     4   9  19  35  50  66  95 132 166 201 239 278
#     4  10  20  32  47  70 100 132 164 197 236 284
#     4  11  21  31  49  75  98 125 162 200 240 285
#     4   9  19  35  50  66  95 132 166 201 239 278
#     4  11  21  31  49  75  98 125 162 200 240 285
#     4  10  20  32  47  70 100 132 164 197 236 284
#     4   9  19  36  55  74  98 127 156 189 235 289
#     4   9  19  36  55  74  98 127 156 189 235 289
#
# _framework density 17.651965000000001
#
# number of rings (size 3 to 8) (size 9 to 14) (size 15 to 20)
#    0.000    2.250    0.000    3.750    0.000   10.500 
#    0.000    1.250    0.000    0.750    0.000    5.250 
#    0.000    0.000    0.000    0.000    0.000    0.000 
#
# Total GULP energy -396844.649971 kJ/mol
# GULP energy per Si atom -12401.395312 kJ/mol
# Density = 1.761179 g / cm^3
# Si number density = 17.651965 Si / 1000 Ang^3
#
#
#
# Elastic Constant Matrix: (Units=GPa)
#
#
# Indices 1 2 3 4 5 6 
#
# 1 104.6712 61.4552 39.4354 0.0000 4.8002 0.0000
# 2 61.4552 114.2870 50.6316 0.0000 9.3735 0.0000
# 3 39.4354 50.6316 78.1613 0.0000 18.1582 0.0000
# 4 0.0000 0.0000 0.0000 25.4019 0.0000 4.9029
# 5 4.8002 9.3735 18.1582 0.0000 18.2782 0.0000
# 6 0.0000 0.0000 0.0000 4.9029 0.0000 31.0633
#
#
#
# Elastic Compliance Matrix: (Units=1/GPa)
#
#
# Indices 1 2 3 4 5 6 
#
# 1 0.014670 -0.006363 -0.004086 0.000000 0.003469 0.000000
# 2 -0.006363 0.015093 -0.006704 0.000000 0.000591 0.000000
# 3 -0.004086 -0.006704 0.023596 0.000000 -0.018930 0.000000
# 4 0.000000 0.000000 0.000000 0.040604 0.000000 -0.006409
# 5 0.003469 0.000591 -0.018930 0.000000 0.072302 0.000000
# 6 0.000000 0.000000 0.000000 -0.006409 0.000000 0.033204
#
#
# Mechanical properties :
#
#
# Convention : Reuss Voigt Hill
#
# Bulk Modulus (GPa) = 52.48336 66.68489 59.58413
# Shear Modulus (GPa) = 20.82256 24.65515 22.73886
#
# Velocity S-wave (km/s) = 3.43828 3.74135 3.59301
# Velocity P-wave (km/s) = 6.74976 7.51819 7.14431
#
# Compressibility (1/GPa) = 0.01905366
#
# Stress axis : x y z
#
# Youngs Moduli (GPa) = 68.16776 66.25650 42.38021
#
# Poissons Ratio (x) = 0.42158 0.17315
# Poissons Ratio (y) = 0.43374 0.28411
# Poissons Ratio (z) = 0.27851 0.44418
#
# Static dielectric constant tensor:
#      x y z
#    x 3.166740 0.000000 -0.093040 
#    y 0.000000 3.492050 0.000000 
#    z -0.093040 0.000000 3.274180 
# 
# 
# High freq. dielectric constant tensor:
#      x y z
#    x 1.667400 0.000000 -0.007520 
#    y 0.000000 1.692440 0.000000 
#    z -0.007520 0.000000 1.676080 
# 
# From -- ./inp_files/66461.got.cif
#   From: 2010.06.25/outbox.cif.g09.slc.cpg/sg10_34_cif.got.tgz:66461.got - 2010.06.27 22:07:45.
