data_PCOD8062412
_publ_section_title
;
Structure prediction by ZEFSAII (Michael W. Deem and Ramdas Pophale) SiO2 
 PCOD8062412
Probable space group: P 2/M
;
_chemical_formula_sum "Si O2"
_cell_formula_units_Z 24
_cell_length_a 25.080053
_cell_length_b 7.760048
_cell_length_c 11.032930
_cell_angle_alpha 90.000000
_cell_angle_beta 36.059883
_cell_angle_gamma 90.000000
_cell_volume 1263.940025
_symmetry_space_group_name_H-M "P 2/M"
_symmetry_group_IT_number 10
_symmetry_cell_setting 'monoclinic'
loop_
_space_group_symop_operation_xyz
x,y,z
-x,y,-z
-x,-y,-z
x,-y,z
loop_
_atom_site_type_symbol
_atom_site_label
_atom_site_fract_x
_atom_site_fract_y
_atom_site_fract_z
Si Si1 0.720801 0.200556 0.480461
Si Si2 0.567893 0.500000 0.487366
Si Si3 0.952931 0.698742 0.402505
Si Si4 0.304352 0.187064 0.746806
Si Si5 0.136853 0.301163 0.185309
Si Si6 0.089025 0.193484 0.776793
Si Si7 0.421981 0.500000 0.246133
O O1 0.739173 0.215270 0.304431
O O2 0.813529 0.276170 0.369157
O O3 0.637485 0.327073 0.667919
O O4 0.699354 0.000000 0.558249
O O5 0.500000 0.500000 0.500000
O O6 0.622651 0.329070 0.358522
O O7 0.537916 0.500000 0.686986
O O8 0.958333 0.500000 0.353607
O O9 0.879381 0.724825 0.642670
O O10 0.920816 0.810612 0.349093
O O11 0.050254 0.764638 0.269167
O O12 0.351867 0.000000 0.668380
O O13 0.223656 0.190658 0.991739
O O14 0.154980 0.500000 0.120910
O O15 0.092779 0.000000 0.821666
O O16 0.000000 0.286489 0.000000
O O17 0.500000 0.500000 0.000000
#
# Coordination Sequence:
#
# PCOD8062412 Si02
#       7
#     4   2   4   4   4   4   2
#     4   9  20  37  57  84 116 145 185 235 273 328
#     4  10  22  42  62  86 115 138 171 241 292 334
#     4   9  19  31  48  74 110 151 188 226 263 314
#     4  10  19  35  61  83 106 145 184 220 276 339
#     4   9  17  33  50  74 111 149 186 227 271 313
#     4  10  20  34  50  76 115 150 184 230 275 317
#     4  10  22  42  65  87 107 149 197 225 289 359
#
# _framework density 18.988240999999999
#
# number of rings (size 3 to 8) (size 9 to 14) (size 15 to 20)
#    0.000    2.500    0.833    2.000    1.167    3.667 
#    3.000    1.667    0.000    0.000    0.000    0.000 
#    0.000    0.000    0.000    0.000    0.000    0.000 
#
# Total GULP energy -297405.936649 kJ/mol
# GULP energy per Si atom -12391.914027 kJ/mol
# Density = 1.894502 g / cm^3
# Si number density = 18.988241 Si / 1000 Ang^3
#
#
#
# Elastic Constant Matrix: (Units=GPa)
#
#
# Indices 1 2 3 4 5 6 
#
# 1 125.2001 38.5422 55.4671 0.0000 -6.1223 0.0000
# 2 38.5422 88.4542 48.7900 0.0000 -5.2655 0.0000
# 3 55.4671 48.7900 126.4232 0.0000 4.7613 0.0000
# 4 0.0000 0.0000 0.0000 62.8715 0.0000 -21.9711
# 5 -6.1223 -5.2655 4.7613 0.0000 21.5893 0.0000
# 6 0.0000 0.0000 0.0000 -21.9711 0.0000 37.3546
#
#
#
# Elastic Compliance Matrix: (Units=1/GPa)
#
#
# Indices 1 2 3 4 5 6 
#
# 1 0.010568 -0.002264 -0.003887 0.000000 0.003302 0.000000
# 2 -0.002264 0.015351 -0.005090 0.000000 0.004224 0.000000
# 3 -0.003887 -0.005090 0.011766 0.000000 -0.004939 0.000000
# 4 0.000000 0.000000 0.000000 0.020021 0.000000 0.011776
# 5 0.003302 0.004224 -0.004939 0.000000 0.049375 0.000000
# 6 0.000000 0.000000 0.000000 0.011776 0.000000 0.033697
#
#
# Mechanical properties :
#
#
# Convention : Reuss Voigt Hill
#
# Bulk Modulus (GPa) = 65.78114 69.51954 67.65034
# Shear Modulus (GPa) = 29.70418 37.51497 33.60958
#
# Velocity S-wave (km/s) = 3.95947 4.44970 4.21173
# Velocity P-wave (km/s) = 7.45798 7.94299 7.70431
#
# Compressibility (1/GPa) = 0.01520193
#
# Stress axis : x y z
#
# Youngs Moduli (GPa) = 94.62751 65.14278 84.99242
#
# Poissons Ratio (x) = 0.14749 0.33037
# Poissons Ratio (y) = 0.21424 0.43262
# Poissons Ratio (z) = 0.36783 0.33158
#
# Static dielectric constant tensor:
#      x y z
#    x 3.394570 0.000000 0.046250 
#    y 0.000000 3.244650 0.000000 
#    z 0.046250 0.000000 3.321280 
# 
# 
# High freq. dielectric constant tensor:
#      x y z
#    x 1.730480 0.000000 0.008350 
#    y 0.000000 1.741060 0.000000 
#    z 0.008350 0.000000 1.719740 
# 
# From -- ./inp_files/56567.got.cif
#   From: 2010.06.25/outbox.cif.g09.slc.cpg/sg10_29_cif.got.tgz:56567.got - 2010.06.27 22:07:45.
