data_PCOD8062617
_publ_section_title
;
Structure prediction by ZEFSAII (Michael W. Deem and Ramdas Pophale) SiO2 
 PCOD8062617
Probable space group: P 2/M
;
_chemical_formula_sum "Si O2"
_cell_formula_units_Z 32
_cell_length_a 15.342562
_cell_length_b 9.024671
_cell_length_c 25.863494
_cell_angle_alpha 90.000000
_cell_angle_beta 152.787469
_cell_angle_gamma 90.000000
_cell_volume 1637.609994
_symmetry_space_group_name_H-M "P 2/M"
_symmetry_group_IT_number 10
_symmetry_cell_setting 'monoclinic'
loop_
_space_group_symop_operation_xyz
x,y,z
-x,y,-z
-x,-y,-z
x,-y,z
loop_
_atom_site_type_symbol
_atom_site_label
_atom_site_fract_x
_atom_site_fract_y
_atom_site_fract_z
Si Si1 0.921876 0.672693 0.513788
Si Si2 0.551171 0.671545 0.869561
Si Si3 0.601856 0.175283 0.503319
Si Si4 0.794457 0.171454 0.261635
Si Si5 0.306604 0.824239 0.264185
Si Si6 0.046103 0.327489 0.866980
Si Si7 0.487230 0.327203 0.267806
Si Si8 0.022362 0.171764 0.747576
O O1 0.967106 0.500000 0.544111
O O2 0.698550 0.707601 0.399689
O O3 0.000000 0.729053 0.500000
O O4 0.027206 0.758551 0.614693
O O5 0.493782 0.500000 0.841888
O O6 0.406122 0.758082 0.829493
O O7 0.532631 0.729927 0.801267
O O8 0.763051 0.701406 0.000420
O O9 0.500000 0.244117 0.500000
O O10 0.489679 0.231198 0.393615
O O11 0.820294 0.227493 0.617854
O O12 0.588064 0.000000 0.498064
O O13 0.820832 0.195501 0.214140
O O14 0.791026 0.000000 0.274210
O O15 0.332933 0.760476 0.220580
O O16 0.118115 0.761810 0.191040
O O17 0.288789 0.000000 0.252458
O O18 0.992761 0.500000 0.836992
O O19 0.079309 0.269137 0.826657
O O20 0.438031 0.500000 0.245274
O O21 0.008393 0.000000 0.757229
#
# Coordination Sequence:
#
# PCOD8062617 Si02
#       8
#     4   4   4   4   4   4   4   4
#     4  10  19  36  62  88 120 161 197 235 292 352
#     4  10  23  44  63  80 114 160 202 245 294 349
#     4   9  16  32  59  84 112 155 188 217 282 358
#     4  11  23  37  60  92 123 154 194 245 297 354
#     4  11  22  38  62  89 121 154 189 241 298 354
#     4  11  24  41  62  86 112 152 205 251 290 346
#     4  10  21  39  62  86 116 156 199 239 286 349
#     4  10  21  39  60  86 121 156 190 236 299 357
#
# _framework density 19.540671
#
# number of rings (size 3 to 8) (size 9 to 14) (size 15 to 20)
#    0.000    1.750    2.500    1.875    0.000    5.250 
#    0.000    6.875    0.000    0.000    0.000    0.000 
#    0.000    0.000    0.000    0.000    0.000    0.000 
#
# Total GULP energy -396903.578916 kJ/mol
# GULP energy per Si atom -12403.236841 kJ/mol
# Density = 1.949620 g / cm^3
# Si number density = 19.540671 Si / 1000 Ang^3
#
#
#
# Elastic Constant Matrix: (Units=GPa)
#
#
# Indices 1 2 3 4 5 6 
#
# 1 127.8963 50.6112 30.2457 0.0000 -4.5773 0.0000
# 2 50.6112 75.6838 39.3084 0.0000 0.0150 0.0000
# 3 30.2457 39.3084 71.9725 0.0000 -3.5334 0.0000
# 4 0.0000 0.0000 0.0000 17.6435 0.0000 -0.3439
# 5 -4.5773 0.0150 -3.5334 0.0000 7.6319 0.0000
# 6 0.0000 0.0000 0.0000 -0.3439 0.0000 35.2105
#
#
#
# Elastic Compliance Matrix: (Units=1/GPa)
#
#
# Indices 1 2 3 4 5 6 
#
# 1 0.010962 -0.007123 -0.000402 0.000000 0.006402 0.000000
# 2 -0.007123 0.023247 -0.010146 0.000000 -0.009015 0.000000
# 3 -0.000402 -0.010146 0.020049 0.000000 0.009061 0.000000
# 4 0.000000 0.000000 0.000000 0.056689 0.000000 0.000554
# 5 0.006402 -0.009015 0.009061 0.000000 0.139082 0.000000
# 6 0.000000 0.000000 0.000000 0.000554 0.000000 0.028406
#
#
# Mechanical properties :
#
#
# Convention : Reuss Voigt Hill
#
# Bulk Modulus (GPa) = 52.86348 57.32037 55.09192
# Shear Modulus (GPa) = 15.62098 22.45634 19.03866
#
# Velocity S-wave (km/s) = 2.83045 3.39368 3.12478
# Velocity P-wave (km/s) = 6.14766 6.68982 6.42446
#
# Compressibility (1/GPa) = 0.01891665
#
# Stress axis : x y z
#
# Youngs Moduli (GPa) = 91.22709 43.01553 49.87676
#
# Poissons Ratio (x) = 0.30639 0.02005
# Poissons Ratio (y) = 0.64978 0.50606
# Poissons Ratio (z) = 0.03668 0.43644
#
# Static dielectric constant tensor:
#      x y z
#    x 3.640720 0.000000 -0.070550 
#    y 0.000000 3.427620 0.000000 
#    z -0.070550 0.000000 3.586160 
# 
# 
# High freq. dielectric constant tensor:
#      x y z
#    x 1.775310 0.000000 -0.000320 
#    y 0.000000 1.747210 0.000000 
#    z -0.000320 0.000000 1.760250 
# 
# From -- ./inp_files/66471.got.cif
#   From: 2010.06.25/outbox.cif.g09.slc.cpg/sg10_34_cif.got.tgz:66471.got - 2010.06.27 22:07:45.
