data_PCOD8062526
_publ_section_title
;
Structure prediction by ZEFSAII (Michael W. Deem and Ramdas Pophale) SiO2 
 PCOD8062526
Probable space group: P 2/M
;
_chemical_formula_sum "Si O2"
_cell_formula_units_Z 32
_cell_length_a 20.950853
_cell_length_b 8.433939
_cell_length_c 26.283838
_cell_angle_alpha 90.000000
_cell_angle_beta 158.867792
_cell_angle_gamma 90.000000
_cell_volume 1674.371226
_symmetry_space_group_name_H-M "P 2/M"
_symmetry_group_IT_number 10
_symmetry_cell_setting 'monoclinic'
loop_
_space_group_symop_operation_xyz
x,y,z
-x,y,-z
-x,-y,-z
x,-y,z
loop_
_atom_site_type_symbol
_atom_site_label
_atom_site_fract_x
_atom_site_fract_y
_atom_site_fract_z
Si Si1 0.003045 0.683627 0.578192
Si Si2 0.947921 0.185000 0.117412
Si Si3 0.271690 0.186618 0.700015
Si Si4 0.666972 0.186741 0.987819
Si Si5 0.561110 0.184106 0.602471
Si Si6 0.038485 0.186102 0.715445
Si Si7 0.219850 0.685673 0.395372
Si Si8 0.059018 0.315666 0.098583
O O1 0.964039 0.500000 0.540942
O O2 0.835069 0.779184 0.431226
O O3 0.030039 0.719193 0.657084
O O4 0.180527 0.730336 0.680242
O O5 0.108561 0.282856 0.261479
O O6 0.941487 0.223044 0.053009
O O7 0.763203 0.236076 0.006601
O O8 0.986754 0.000000 0.155992
O O9 0.274291 0.000000 0.711905
O O10 0.469889 0.259272 0.842950
O O11 0.786019 0.244823 0.123912
O O12 0.650052 0.000000 0.977838
O O13 0.500000 0.217458 0.500000
O O14 0.414846 0.243231 0.533560
O O15 0.734451 0.286258 0.740975
O O16 0.602972 0.000000 0.642513
O O17 0.866568 0.225424 0.621013
O O18 0.044939 0.000000 0.708906
O O19 0.230253 0.500000 0.414314
O O20 0.015862 0.500000 0.071978
O O21 0.000000 0.250097 0.000000
#
# Coordination Sequence:
#
# PCOD8062526 Si02
#       8
#     4   4   4   4   4   4   4   4
#     4  11  22  37  55  83 118 151 186 232 281 332
#     4  10  19  36  59  83 112 149 189 231 279 342
#     4  10  19  37  61  83 109 150 193 231 278 337
#     4   8  18  35  59  86 110 139 186 236 277 329
#     4  11  22  37  61  87 110 148 196 236 276 338
#     4  10  20  38  60  84 114 149 187 232 279 334
#     4  11  21  35  58  87 117 147 183 235 289 336
#     4  11  24  40  57  82 116 151 188 238 293 339
#
# _framework density 19.111650999999998
#
# number of rings (size 3 to 8) (size 9 to 14) (size 15 to 20)
#    0.000    1.750    1.250    5.625    0.000    2.000 
#    2.250   10.000    0.000    0.000    0.000    0.000 
#    0.000    0.000    0.000    0.000    0.000    0.000 
#
# Total GULP energy -396881.597903 kJ/mol
# GULP energy per Si atom -12402.549934 kJ/mol
# Density = 1.906815 g / cm^3
# Si number density = 19.111651 Si / 1000 Ang^3
#
#
#
# Elastic Constant Matrix: (Units=GPa)
#
#
# Indices 1 2 3 4 5 6 
#
# 1 127.5099 12.2157 59.0542 0.0000 -1.3900 0.0000
# 2 12.2157 48.6775 8.3398 0.0000 0.2408 0.0000
# 3 59.0542 8.3398 88.3074 0.0000 14.1351 0.0000
# 4 0.0000 0.0000 0.0000 14.9708 0.0000 -5.8870
# 5 -1.3900 0.2408 14.1351 0.0000 29.7423 0.0000
# 6 0.0000 0.0000 0.0000 -5.8870 0.0000 27.5259
#
#
#
# Elastic Compliance Matrix: (Units=1/GPa)
#
#
# Indices 1 2 3 4 5 6 
#
# 1 0.012058 -0.001564 -0.008667 0.000000 0.004695 0.000000
# 2 -0.001564 0.021103 -0.000983 0.000000 0.000223 0.000000
# 3 -0.008667 -0.000983 0.018699 0.000000 -0.009284 0.000000
# 4 0.000000 0.000000 0.000000 0.072930 0.000000 0.015598
# 5 0.004695 0.000223 -0.009284 0.000000 0.038252 0.000000
# 6 0.000000 0.000000 0.000000 0.015598 0.000000 0.039665
#
#
# Mechanical properties :
#
#
# Convention : Reuss Voigt Hill
#
# Bulk Modulus (GPa) = 33.97701 47.07933 40.52817
# Shear Modulus (GPa) = 21.28147 26.77346 24.02747
#
# Velocity S-wave (km/s) = 3.34059 3.74692 3.54957
# Velocity P-wave (km/s) = 5.71805 6.58836 6.16857
#
# Compressibility (1/GPa) = 0.02943166
#
# Stress axis : x y z
#
# Youngs Moduli (GPa) = 82.93497 47.38631 53.47888
#
# Poissons Ratio (x) = 0.07412 0.46351
# Poissons Ratio (y) = 0.12973 0.05255
# Poissons Ratio (z) = 0.71881 0.04657
#
# Static dielectric constant tensor:
#      x y z
#    x 3.618640 0.000000 0.143390 
#    y 0.000000 3.427410 0.000000 
#    z 0.143390 0.000000 3.635490 
# 
# 
# High freq. dielectric constant tensor:
#      x y z
#    x 1.748970 0.000000 0.010470 
#    y 0.000000 1.743810 0.000000 
#    z 0.010470 0.000000 1.733970 
# 
# From -- ./inp_files/93745.got.cif
#   From: 2010.06.25/outbox.cif.g09.slc.cpg/sg10_47_cif.got.tgz:93745.got - 2010.06.27 22:07:45.
