data_PCOD8062836
_publ_section_title
;
Structure prediction by ZEFSAII (Michael W. Deem and Ramdas Pophale) SiO2 
 PCOD8062836
Probable space group: P 2/M
;
_chemical_formula_sum "Si O2"
_cell_formula_units_Z 32
_cell_length_a 25.729282
_cell_length_b 8.817262
_cell_length_c 14.207527
_cell_angle_alpha 90.000000
_cell_angle_beta 146.436740
_cell_angle_gamma 90.000000
_cell_volume 1781.939608
_symmetry_space_group_name_H-M "P 2/M"
_symmetry_group_IT_number 10
_symmetry_cell_setting 'monoclinic'
loop_
_space_group_symop_operation_xyz
x,y,z
-x,y,-z
-x,-y,-z
x,-y,z
loop_
_atom_site_type_symbol
_atom_site_label
_atom_site_fract_x
_atom_site_fract_y
_atom_site_fract_z
Si Si1 0.438960 0.326852 0.273687
Si Si2 0.734233 0.825478 0.892436
Si Si3 0.367992 0.823030 0.653413
Si Si4 0.271806 0.823296 0.692145
Si Si5 0.906421 0.820230 0.462110
Si Si6 0.103472 0.679426 0.751537
Si Si7 0.559825 0.671912 0.946222
Si Si8 0.369797 0.824329 0.445834
O O1 0.423822 0.500000 0.283866
O O2 0.361809 0.217656 0.201276
O O3 0.429403 0.309972 0.148321
O O4 0.542559 0.272558 0.461396
O O5 0.718832 0.800060 0.757152
O O6 0.758367 0.000000 0.951410
O O7 0.819233 0.719766 0.053897
O O8 0.284731 0.780641 0.601124
O O9 0.463842 0.749217 0.835994
O O10 0.340579 0.767795 0.506690
O O11 0.386767 0.000000 0.680975
O O12 0.168333 0.774351 0.570376
O O13 0.285882 0.000000 0.730453
O O14 0.349170 0.743229 0.871032
O O15 0.869698 0.759111 0.306332
O O16 0.003253 0.739301 0.636690
O O17 0.922136 0.000000 0.478906
O O18 0.099754 0.500000 0.730683
O O19 0.553776 0.500000 0.969692
O O20 0.400564 0.000000 0.493942
#
# Coordination Sequence:
#
# PCOD8062836 Si02
#       8
#     4   4   4   4   4   4   4   4
#     4  10  20  32  47  71 103 135 166 203 246 292
#     4  11  21  33  51  74  98 129 169 206 244 291
#     4   9  18  34  51  69  97 131 167 205 243 283
#     4  10  20  32  51  75  97 127 165 202 242 289
#     4  10  20  36  56  78 103 129 158 196 243 294
#     4  11  22  36  54  77 103 130 159 195 244 296
#     4  10  20  31  45  70 103 135 166 199 239 288
#     4   9  19  34  51  70  97 133 169 206 245 286
#
# _framework density 17.95796
#
# number of rings (size 3 to 8) (size 9 to 14) (size 15 to 20)
#    0.000    2.000    0.000    4.875    0.000    9.000 
#    0.000    0.000    0.000    0.750    0.000    5.250 
#    0.000    0.000    0.000    0.000    0.000    0.000 
#
# Total GULP energy -396814.304538 kJ/mol
# GULP energy per Si atom -12400.447017 kJ/mol
# Density = 1.791709 g / cm^3
# Si number density = 17.957960 Si / 1000 Ang^3
#
#
#
# Elastic Constant Matrix: (Units=GPa)
#
#
# Indices 1 2 3 4 5 6 
#
# 1 93.8997 36.2820 48.4107 0.0000 18.4786 0.0000
# 2 36.2820 57.3217 30.8842 0.0000 6.0971 0.0000
# 3 48.4107 30.8842 104.1464 0.0000 0.5632 0.0000
# 4 0.0000 0.0000 0.0000 15.3059 0.0000 -6.4835
# 5 18.4786 6.0971 0.5632 0.0000 11.4508 0.0000
# 6 0.0000 0.0000 0.0000 -6.4835 0.0000 8.3292
#
#
#
# Elastic Compliance Matrix: (Units=1/GPa)
#
#
# Indices 1 2 3 4 5 6 
#
# 1 0.025675 -0.007111 -0.009624 0.000000 -0.037172 0.000000
# 2 -0.007111 0.024147 -0.003849 0.000000 -0.001192 0.000000
# 3 -0.009624 -0.003849 0.015126 0.000000 0.016837 0.000000
# 4 0.000000 0.000000 0.000000 0.097475 0.000000 0.075875
# 5 -0.037172 -0.001192 0.016837 0.000000 0.147123 0.000000
# 6 0.000000 0.000000 0.000000 0.075875 0.000000 0.179121
#
#
# Mechanical properties :
#
#
# Convention : Reuss Voigt Hill
#
# Bulk Modulus (GPa) = 42.05503 54.05793 48.05648
# Shear Modulus (GPa) = 9.29781 16.33658 12.81720
#
# Velocity S-wave (km/s) = 2.27789 3.01942 2.67448
# Velocity P-wave (km/s) = 5.51251 6.50566 6.02957
#
# Compressibility (1/GPa) = 0.02377837
#
# Stress axis : x y z
#
# Youngs Moduli (GPa) = 38.94907 41.41305 66.11185
#
# Poissons Ratio (x) = 0.29451 0.63629
# Poissons Ratio (y) = 0.27698 0.25444
# Poissons Ratio (z) = 0.37486 0.15938
#
# Static dielectric constant tensor:
#      x y z
#    x 3.543750 0.000000 -0.092620 
#    y 0.000000 3.412740 0.000000 
#    z -0.092620 0.000000 3.236150 
# 
# 
# High freq. dielectric constant tensor:
#      x y z
#    x 1.691400 0.000000 -0.008990 
#    y 0.000000 1.703450 0.000000 
#    z -0.008990 0.000000 1.680760 
# 
# From -- ./inp_files/72198.got.cif
#   From: 2010.06.25/outbox.cif.g09.slc.cpg/sg10_37_cif.got.tgz:72198.got - 2010.06.27 22:07:45.
