data_PCOD8062796
_publ_section_title
;
Structure prediction by ZEFSAII (Michael W. Deem and Ramdas Pophale) SiO2 
 PCOD8062796
Probable space group: P 2/M
;
_chemical_formula_sum "Si O2"
_cell_formula_units_Z 32
_cell_length_a 16.492546
_cell_length_b 9.372774
_cell_length_c 29.486869
_cell_angle_alpha 90.000000
_cell_angle_beta 25.656102
_cell_angle_gamma 90.000000
_cell_volume 1973.517106
_symmetry_space_group_name_H-M "P 2/M"
_symmetry_group_IT_number 10
_symmetry_cell_setting 'monoclinic'
loop_
_space_group_symop_operation_xyz
x,y,z
-x,y,-z
-x,-y,-z
x,-y,z
loop_
_atom_site_type_symbol
_atom_site_label
_atom_site_fract_x
_atom_site_fract_y
_atom_site_fract_z
Si Si1 0.865300 0.169780 0.681536
Si Si2 0.509000 0.841331 0.178469
Si Si3 0.920700 0.336684 0.088745
Si Si4 0.521997 0.338482 0.257211
Si Si5 0.722768 0.664246 0.937705
Si Si6 0.708502 0.664773 0.840960
Si Si7 0.888699 0.332499 0.510260
Si Si8 0.126551 0.161302 0.061030
O O1 0.684668 0.216449 0.743770
O O2 0.841880 0.235613 0.743347
O O3 0.040438 0.240500 0.567905
O O4 0.890514 0.000000 0.672562
O O5 0.580266 0.744642 0.183023
O O6 0.660705 0.837542 0.062668
O O7 0.481257 0.000000 0.211681
O O8 0.984563 0.500000 0.064822
O O9 0.694801 0.323152 0.204706
O O10 0.000000 0.284851 0.000000
O O11 0.993539 0.237950 0.092109
O O12 0.492916 0.500000 0.256161
O O13 0.327578 0.283749 0.376374
O O14 0.749083 0.500000 0.938215
O O15 0.773988 0.688184 0.859490
O O16 0.508204 0.710286 0.055004
O O17 0.869453 0.757256 0.892946
O O18 0.733934 0.500000 0.813865
O O19 0.909968 0.500000 0.488676
O O20 0.000000 0.292139 0.500000
O O21 0.053152 0.000000 0.104893
#
# Coordination Sequence:
#
# PCOD8062796 Si02
#       8
#     4   4   4   4   4   4   4   4
#     4  11  21  32  47  71 101 134 166 198 241 291
#     4  10  20  30  43  67 100 132 163 198 240 285
#     4  10  20  33  50  71  95 127 167 207 244 286
#     4  10  20  34  50  69  94 127 168 209 246 282
#     4   9  18  32  50  72  98 129 164 201 241 287
#     4   9  18  32  50  72  98 129 164 201 241 287
#     4  10  20  33  50  71  95 127 167 207 244 286
#     4  11  21  32  47  71 101 134 166 198 241 291
#
# _framework density 16.214706
#
# number of rings (size 3 to 8) (size 9 to 14) (size 15 to 20)
#    0.000    2.000    3.750    1.500    0.000    3.000 
#    0.000    1.250    0.000    0.000    0.000    0.875 
#    0.000    7.000    0.000    0.000    0.000    0.000 
#
# Total GULP energy -396805.078214 kJ/mol
# GULP energy per Si atom -12400.158694 kJ/mol
# Density = 1.617780 g / cm^3
# Si number density = 16.214706 Si / 1000 Ang^3
#
#
#
# Elastic Constant Matrix: (Units=GPa)
#
#
# Indices 1 2 3 4 5 6 
#
# 1 96.5581 54.7341 29.8833 0.0000 3.3678 0.0000
# 2 54.7341 79.5189 30.6199 0.0000 8.5066 0.0000
# 3 29.8833 30.6199 72.1445 0.0000 2.3195 0.0000
# 4 0.0000 0.0000 0.0000 20.4649 0.0000 -0.2638
# 5 3.3678 8.5066 2.3195 0.0000 25.5807 0.0000
# 6 0.0000 0.0000 0.0000 -0.2638 0.0000 16.0613
#
#
#
# Elastic Compliance Matrix: (Units=1/GPa)
#
#
# Indices 1 2 3 4 5 6 
#
# 1 0.017429 -0.011205 -0.002517 0.000000 0.001660 0.000000
# 2 -0.011205 0.022755 -0.004835 0.000000 -0.005653 0.000000
# 3 -0.002517 -0.004835 0.016943 0.000000 0.000403 0.000000
# 4 0.000000 0.000000 0.000000 0.048875 0.000000 0.000803
# 5 0.001660 -0.005653 0.000403 0.000000 0.040717 0.000000
# 6 0.000000 0.000000 0.000000 0.000803 0.000000 0.062275
#
#
# Mechanical properties :
#
#
# Convention : Reuss Voigt Hill
#
# Bulk Modulus (GPa) = 49.96746 53.18845 51.57796
# Shear Modulus (GPa) = 19.78027 21.28698 20.53363
#
# Velocity S-wave (km/s) = 3.49649 3.62722 3.56245
# Velocity P-wave (km/s) = 6.86904 7.10043 6.98569
#
# Compressibility (1/GPa) = 0.02001302
#
# Stress axis : x y z
#
# Youngs Moduli (GPa) = 57.37495 43.94709 59.02270
#
# Poissons Ratio (x) = 0.49243 0.14856
# Poissons Ratio (y) = 0.64289 0.28535
# Poissons Ratio (z) = 0.14442 0.21246
#
# Static dielectric constant tensor:
#      x y z
#    x 2.896860 0.000000 -0.016510 
#    y 0.000000 3.096870 0.000000 
#    z -0.016510 0.000000 2.945980 
# 
# 
# High freq. dielectric constant tensor:
#      x y z
#    x 1.608960 0.000000 0.002210 
#    y 0.000000 1.628570 0.000000 
#    z 0.002210 0.000000 1.600020 
# 
# From -- ./inp_files/66472.got.cif
#   From: 2010.06.25/outbox.cif.g09.slc.cpg/sg10_34_cif.got.tgz:66472.got - 2010.06.27 22:07:45.
