data_PCOD8062515
_publ_section_title
;
Structure prediction by ZEFSAII (Michael W. Deem and Ramdas Pophale) SiO2 
 PCOD8062515
Probable space group: P 2/M
;
_chemical_formula_sum "Si O2"
_cell_formula_units_Z 28
_cell_length_a 14.113741
_cell_length_b 9.032408
_cell_length_c 20.930749
_cell_angle_alpha 90.000000
_cell_angle_beta 146.812357
_cell_angle_gamma 90.000000
_cell_volume 1460.567267
_symmetry_space_group_name_H-M "P 2/M"
_symmetry_group_IT_number 10
_symmetry_cell_setting 'monoclinic'
loop_
_space_group_symop_operation_xyz
x,y,z
-x,y,-z
-x,-y,-z
x,-y,z
loop_
_atom_site_type_symbol
_atom_site_label
_atom_site_fract_x
_atom_site_fract_y
_atom_site_fract_z
Si Si1 0.153368 0.675067 0.172222
Si Si2 0.304906 0.824643 0.378344
Si Si3 0.158389 0.830152 0.541542
Si Si4 0.044256 0.825026 0.338556
Si Si5 0.342833 0.174851 0.866428
Si Si6 0.582798 0.324454 0.224082
Si Si7 0.221895 0.674471 0.070291
O O1 0.177537 0.500000 0.195133
O O2 0.258324 0.762260 0.283753
O O3 0.224819 0.733426 0.144595
O O4 0.951917 0.722808 0.064439
O O5 0.500000 0.771081 0.500000
O O6 0.173814 0.759222 0.358132
O O7 0.291128 0.000000 0.369439
O O8 0.311989 0.728802 0.654700
O O9 0.000000 0.816824 0.500000
O O10 0.101807 0.765586 0.440659
O O11 0.221796 0.000000 0.572363
O O12 0.844561 0.780891 0.209716
O O13 0.059051 0.000000 0.348560
O O14 0.348964 0.250148 0.801295
O O15 0.357849 0.000000 0.864464
O O16 0.500000 0.232448 0.000000
O O17 0.598027 0.500000 0.226424
O O18 0.385982 0.269200 0.123052
O O19 0.223444 0.500000 0.077549
#
# Coordination Sequence:
#
# PCOD8062515 Si02
#       7
#     4   4   4   4   4   4   4
#     4   9  18  38  61  77 102 145 190 219 260 330
#     4  10  22  37  54  81 115 143 175 228 285 318
#     4  10  19  36  59  77 103 144 189 222 259 325
#     4   9  19  37  56  77 109 148 181 221 274 323
#     4  10  21  38  59  81 108 149 193 221 257 329
#     4  11  22  35  55  85 116 139 173 229 285 322
#     4   8  18  36  57  80 109 143 175 222 278 323
#
# _framework density 19.170634
#
# number of rings (size 3 to 8) (size 9 to 14) (size 15 to 20)
#    0.000    2.429    1.429    1.286    4.000    0.857 
#    0.000    4.286    0.000    0.000    0.000    0.000 
#    0.000    0.000    0.000    0.000    0.000    0.000 
#
# Total GULP energy -347131.190013 kJ/mol
# GULP energy per Si atom -12397.542500 kJ/mol
# Density = 1.912700 g / cm^3
# Si number density = 19.170634 Si / 1000 Ang^3
#
#
#
# Elastic Constant Matrix: (Units=GPa)
#
#
# Indices 1 2 3 4 5 6 
#
# 1 100.7928 20.1806 57.2762 0.0000 15.8512 0.0000
# 2 20.1806 14.8627 25.7694 0.0000 6.8379 0.0000
# 3 57.2762 25.7694 151.9889 0.0000 4.7426 0.0000
# 4 0.0000 0.0000 0.0000 26.2640 0.0000 -3.2315
# 5 15.8512 6.8379 4.7426 0.0000 34.6246 0.0000
# 6 0.0000 0.0000 0.0000 -3.2315 0.0000 21.1324
#
#
#
# Elastic Compliance Matrix: (Units=1/GPa)
#
#
# Indices 1 2 3 4 5 6 
#
# 1 0.014998 -0.012726 -0.003373 0.000000 -0.003891 0.000000
# 2 -0.012726 0.116758 -0.014525 0.000000 -0.015242 0.000000
# 3 -0.003373 -0.014525 0.010219 0.000000 0.003013 0.000000
# 4 0.000000 0.000000 0.000000 0.038805 0.000000 0.005934
# 5 -0.003891 -0.015242 0.003013 0.000000 0.033260 0.000000
# 6 0.000000 0.000000 0.000000 0.005934 0.000000 0.048228
#
#
# Mechanical properties :
#
#
# Convention : Reuss Voigt Hill
#
# Bulk Modulus (GPa) = 12.38735 52.67742 32.53238
# Shear Modulus (GPa) = 14.26841 27.36540 20.81691
#
# Velocity S-wave (km/s) = 2.73112 3.78228 3.29884
# Velocity P-wave (km/s) = 4.05228 6.82730 5.61396
#
# Compressibility (1/GPa) = 0.08072753
#
# Stress axis : x y z
#
# Youngs Moduli (GPa) = 66.67616 8.56473 97.85670
#
# Poissons Ratio (x) = 0.10900 0.33004
# Poissons Ratio (y) = 0.84854 1.42133
# Poissons Ratio (z) = 0.22488 0.12440
#
# Static dielectric constant tensor:
#      x y z
#    x 3.915760 0.000000 0.325660 
#    y 0.000000 3.114320 0.000000 
#    z 0.325660 0.000000 3.865380 
# 
# 
# High freq. dielectric constant tensor:
#      x y z
#    x 1.753100 0.000000 0.004830 
#    y 0.000000 1.708180 0.000000 
#    z 0.004830 0.000000 1.758820 
# 
# From -- ./inp_files/49132.got.cif
#   From: 2010.06.25/outbox.cif.g09.slc.cpg/sg10_25_cif.got.tgz:49132.got - 2010.06.27 22:07:45.
