data_PCOD8062672
_publ_section_title
;
Structure prediction by ZEFSAII (Michael W. Deem and Ramdas Pophale) SiO2 
 PCOD8062672
Probable space group: P 2/M
;
_chemical_formula_sum "Si O2"
_cell_formula_units_Z 28
_cell_length_a 25.140600
_cell_length_b 8.460848
_cell_length_c 9.004615
_cell_angle_alpha 90.000000
_cell_angle_beta 134.803570
_cell_angle_gamma 90.000000
_cell_volume 1359.012662
_symmetry_space_group_name_H-M "P 2/M"
_symmetry_group_IT_number 10
_symmetry_cell_setting 'monoclinic'
loop_
_space_group_symop_operation_xyz
x,y,z
-x,y,-z
-x,-y,-z
x,-y,z
loop_
_atom_site_type_symbol
_atom_site_label
_atom_site_fract_x
_atom_site_fract_y
_atom_site_fract_z
Si Si1 0.845879 0.682567 0.859423
Si Si2 0.581841 0.814968 0.003387
Si Si3 0.996581 0.316404 0.321508
Si Si4 0.707381 0.815876 0.746910
Si Si5 0.575817 0.317116 0.309852
Si Si6 0.727215 0.812525 0.118016
Si Si7 0.866989 0.815731 0.581789
O O1 0.823934 0.500000 0.831796
O O2 0.774600 0.786259 0.764807
O O3 0.868967 0.718862 0.737283
O O4 0.914317 0.726778 0.101467
O O5 0.597038 0.784526 0.206839
O O6 0.652030 0.748588 0.048468
O O7 0.570165 0.000000 0.954022
O O8 0.507937 0.724699 0.801012
O O9 0.015691 0.500000 0.332228
O O10 0.055295 0.209479 0.349575
O O11 0.000000 0.270362 0.500000
O O12 0.633182 0.722661 0.553345
O O13 0.687854 0.000000 0.711947
O O14 0.730316 0.752010 0.954735
O O15 0.580220 0.500000 0.275887
O O16 0.799627 0.747597 0.347705
O O17 0.728550 0.000000 0.125553
O O18 0.856241 0.000000 0.596120
#
# Coordination Sequence:
#
# PCOD8062672 Si02
#       7
#     4   4   4   4   4   4   4
#     4  11  23  39  59  85 116 151 191 235 285 340
#     4  10  19  37  62  85 111 151 196 236 283 338
#     4  10  22  40  60  84 118 156 191 233 288 344
#     4  11  22  39  60  83 112 148 190 236 286 340
#     4  11  22  37  56  85 119 150 188 235 286 340
#     4   9  21  38  58  84 113 145 187 238 287 336
#     4  11  22  38  61  88 116 150 193 238 284 337
#
# _framework density 20.603193000000001
#
# number of rings (size 3 to 8) (size 9 to 14) (size 15 to 20)
#    0.000    1.571    0.000    6.000    0.000    4.857 
#    0.000   10.000    0.000    0.000    0.000    0.000 
#    0.000    0.000    0.000    0.000    0.000    0.000 
#
# Total GULP energy -347383.059799 kJ/mol
# GULP energy per Si atom -12406.537850 kJ/mol
# Density = 2.055630 g / cm^3
# Si number density = 20.603193 Si / 1000 Ang^3
#
#
#
# Elastic Constant Matrix: (Units=GPa)
#
#
# Indices 1 2 3 4 5 6 
#
# 1 78.9890 16.8099 22.3840 0.0000 0.9074 0.0000
# 2 16.8099 49.3211 27.8708 0.0000 7.5472 0.0000
# 3 22.3840 27.8708 137.9726 0.0000 -3.1128 0.0000
# 4 0.0000 0.0000 0.0000 27.9100 0.0000 3.6984
# 5 0.9074 7.5472 -3.1128 0.0000 32.3582 0.0000
# 6 0.0000 0.0000 0.0000 3.6984 0.0000 17.0237
#
#
#
# Elastic Compliance Matrix: (Units=1/GPa)
#
#
# Indices 1 2 3 4 5 6 
#
# 1 0.013913 -0.003988 -0.001442 0.000000 0.000401 0.000000
# 2 -0.003988 0.025170 -0.004577 0.000000 -0.006199 0.000000
# 3 -0.001442 -0.004577 0.008450 0.000000 0.001921 0.000000
# 4 0.000000 0.000000 0.000000 0.036891 0.000000 -0.008015
# 5 0.000401 -0.006199 0.001921 0.000000 0.032523 0.000000
# 6 0.000000 0.000000 0.000000 -0.008015 0.000000 0.060483
#
#
# Mechanical properties :
#
#
# Convention : Reuss Voigt Hill
#
# Bulk Modulus (GPa) = 36.34153 44.49023 40.41588
# Shear Modulus (GPa) = 24.19923 28.73958 26.46941
#
# Velocity S-wave (km/s) = 3.43087 3.73890 3.58819
# Velocity P-wave (km/s) = 5.77681 6.34664 6.06842
#
# Compressibility (1/GPa) = 0.02751673
#
# Stress axis : x y z
#
# Youngs Moduli (GPa) = 71.87583 39.73036 118.34630
#
# Poissons Ratio (x) = 0.15845 0.17071
# Poissons Ratio (y) = 0.28665 0.54169
# Poissons Ratio (z) = 0.10368 0.18185
#
# Static dielectric constant tensor:
#      x y z
#    x 3.705220 0.000000 0.031880 
#    y 0.000000 3.523700 0.000000 
#    z 0.031880 0.000000 3.930490 
# 
# 
# High freq. dielectric constant tensor:
#      x y z
#    x 1.809600 0.000000 0.005080 
#    y 0.000000 1.795470 0.000000 
#    z 0.005080 0.000000 1.819700 
# 
# From -- ./inp_files/37228.got.cif
#   From: 2010.06.25/outbox.cif.g09.slc.cpg/sg10_19_cif.got.tgz:37228.got - 2010.06.27 22:07:45.
