data_PCOD8062553
_publ_section_title
;
Structure prediction by ZEFSAII (Michael W. Deem and Ramdas Pophale) SiO2 
 PCOD8062553
Probable space group: P 2/M
;
_chemical_formula_sum "Si O2"
_cell_formula_units_Z 32
_cell_length_a 12.134243
_cell_length_b 8.672669
_cell_length_c 15.459395
_cell_angle_alpha 90.000000
_cell_angle_beta 90.873901
_cell_angle_gamma 90.000000
_cell_volume 1626.699880
_symmetry_space_group_name_H-M "P 2/M"
_symmetry_group_IT_number 10
_symmetry_cell_setting 'monoclinic'
loop_
_space_group_symop_operation_xyz
x,y,z
-x,y,-z
-x,-y,-z
x,-y,z
loop_
_atom_site_type_symbol
_atom_site_label
_atom_site_fract_x
_atom_site_fract_y
_atom_site_fract_z
Si Si1 0.868974 0.317378 0.247240
Si Si2 0.980980 0.320105 0.594210
Si Si3 0.462939 0.825769 0.401916
Si Si4 0.627442 0.181549 0.251851
Si Si5 0.011552 0.183084 0.099093
Si Si6 0.255052 0.323875 0.337426
Si Si7 0.244833 0.821161 0.159228
Si Si8 0.471901 0.183920 0.094359
O O1 0.878141 0.500000 0.244052
O O2 0.743051 0.268591 0.257172
O O3 0.940673 0.250314 0.329167
O O4 0.915554 0.252705 0.157373
O O5 0.007828 0.500000 0.589348
O O6 0.854165 0.285614 0.611232
O O7 0.000000 0.243397 0.500000
O O8 0.500000 0.815773 0.500000
O O9 0.559560 0.774568 0.337332
O O10 0.361100 0.708279 0.397118
O O11 0.426442 0.000000 0.377510
O O12 0.559631 0.241116 0.167013
O O13 0.650425 0.000000 0.246440
O O14 0.129364 0.254104 0.129300
O O15 0.005594 0.000000 0.109102
O O16 0.000000 0.234884 0.000000
O O17 0.254206 0.500000 0.304450
O O18 0.263086 0.204626 0.259891
O O19 0.350250 0.748361 0.112077
O O20 0.239175 0.000000 0.137118
O O21 0.469803 0.000000 0.096734
O O22 0.500000 0.248071 0.000000
#
# Coordination Sequence:
#
# PCOD8062553 Si02
#       8
#     4   4   4   4   4   4   4   4
#     4  11  23  39  59  83 118 155 190 236 292 346
#     4   9  20  38  57  80 113 153 191 232 284 341
#     4  10  22  40  60  84 117 153 190 238 291 339
#     4  10  21  38  58  81 114 150 189 233 281 341
#     4  10  22  38  61  89 116 151 197 242 284 344
#     4  11  21  36  61  86 113 148 192 239 285 341
#     4  10  19  36  60  84 113 147 188 236 287 336
#     4   9  18  33  58  85 108 142 186 232 280 332
#
# _framework density 19.67173
#
# number of rings (size 3 to 8) (size 9 to 14) (size 15 to 20)
#    0.000    2.000    2.500    0.750    3.500    1.000 
#    0.000    0.000    0.000    3.750    0.000    0.000 
#    0.000    0.000    0.000    0.000    0.000    0.000 
#
# Total GULP energy -396745.896195 kJ/mol
# GULP energy per Si atom -12398.309256 kJ/mol
# Density = 1.962696 g / cm^3
# Si number density = 19.671730 Si / 1000 Ang^3
#
#
#
# Elastic Constant Matrix: (Units=GPa)
#
#
# Indices 1 2 3 4 5 6 
#
# 1 160.0772 31.1028 70.6235 0.0000 -7.4548 0.0000
# 2 31.1028 25.9223 23.4132 0.0000 -1.5952 0.0000
# 3 70.6235 23.4132 158.3077 0.0000 -14.7633 0.0000
# 4 0.0000 0.0000 0.0000 13.9031 0.0000 0.6923
# 5 -7.4548 -1.5952 -14.7633 0.0000 30.1070 0.0000
# 6 0.0000 0.0000 0.0000 0.6923 0.0000 17.8985
#
#
#
# Elastic Compliance Matrix: (Units=1/GPa)
#
#
# Indices 1 2 3 4 5 6 
#
# 1 0.009132 -0.008412 -0.002788 0.000000 0.000448 0.000000
# 2 -0.008412 0.052296 -0.004105 0.000000 -0.001325 0.000000
# 3 -0.002788 -0.004105 0.008471 0.000000 0.003246 0.000000
# 4 0.000000 0.000000 0.000000 0.072065 0.000000 -0.002787
# 5 0.000448 -0.001325 0.003246 0.000000 0.034847 0.000000
# 6 0.000000 0.000000 0.000000 -0.002787 0.000000 0.055978
#
#
# Mechanical properties :
#
#
# Convention : Reuss Voigt Hill
#
# Bulk Modulus (GPa) = 25.45277 66.06514 45.75895
# Shear Modulus (GPa) = 18.08341 26.99289 22.53815
#
# Velocity S-wave (km/s) = 3.03522 3.70830 3.38851
# Velocity P-wave (km/s) = 5.02496 7.21055 6.21459
#
# Compressibility (1/GPa) = 0.03928846
#
# Stress axis : x y z
#
# Youngs Moduli (GPa) = 109.50101 19.12192 118.05596
#
# Poissons Ratio (x) = 0.16084 0.32917
# Poissons Ratio (y) = 0.92107 0.48468
# Poissons Ratio (z) = 0.30531 0.07850
#
# Static dielectric constant tensor:
#      x y z
#    x 3.597940 0.000000 0.091080 
#    y 0.000000 3.235060 0.000000 
#    z 0.091080 0.000000 3.713900 
# 
# 
# High freq. dielectric constant tensor:
#      x y z
#    x 1.782980 0.000000 -0.001470 
#    y 0.000000 1.728830 0.000000 
#    z -0.001470 0.000000 1.776880 
# 
# From -- ./inp_files/55294.got.cif
#   From: 2010.06.25/outbox.cif.g09.slc.cpg/sg10_28_cif.got.tgz:55294.got - 2010.06.27 22:07:45.
