data_PCOD8062749
_publ_section_title
;
Structure prediction by ZEFSAII (Michael W. Deem and Ramdas Pophale) SiO2 
 PCOD8062749
Probable space group: P 2/M
;
_chemical_formula_sum "Si O2"
_cell_formula_units_Z 28
_cell_length_a 10.238083
_cell_length_b 8.826608
_cell_length_c 29.760673
_cell_angle_alpha 90.000000
_cell_angle_beta 146.550282
_cell_angle_gamma 90.000000
_cell_volume 1482.410065
_symmetry_space_group_name_H-M "P 2/M"
_symmetry_group_IT_number 10
_symmetry_cell_setting 'monoclinic'
loop_
_space_group_symop_operation_xyz
x,y,z
-x,y,-z
-x,-y,-z
x,-y,z
loop_
_atom_site_type_symbol
_atom_site_label
_atom_site_fract_x
_atom_site_fract_y
_atom_site_fract_z
Si Si1 0.370946 0.179356 0.337890
Si Si2 0.865537 0.324093 0.083263
Si Si3 0.193566 0.321942 0.677343
Si Si4 0.608312 0.675972 0.100712
Si Si5 0.651758 0.821097 0.769905
Si Si6 0.120267 0.826679 0.486459
Si Si7 0.912876 0.178857 0.259695
O O1 0.369456 0.245020 0.286833
O O2 0.608768 0.229804 0.431946
O O3 0.145596 0.240119 0.300583
O O4 0.361857 0.000000 0.331414
O O5 0.935037 0.500000 0.103144
O O6 0.766313 0.276033 0.103408
O O7 0.094000 0.224416 0.136842
O O8 0.666818 0.290831 0.988677
O O9 0.222537 0.500000 0.688945
O O10 0.450008 0.250438 0.742749
O O11 0.087379 0.258987 0.692729
O O12 0.011719 0.281782 0.585771
O O13 0.646236 0.500000 0.122739
O O14 0.682320 0.775704 0.164666
O O15 0.619607 0.000000 0.761912
O O16 0.000000 0.812769 0.500000
O O17 0.105193 0.000000 0.464856
O O18 0.918492 0.000000 0.268364
#
# Coordination Sequence:
#
# PCOD8062749 Si02
#       7
#     4   4   4   4   4   4   4
#     4   9  19  35  60  89 115 147 190 240 291 338
#     4   9  18  33  56  88 122 156 191 233 288 345
#     4  12  26  41  57  84 120 157 194 238 298 354
#     4   9  18  34  56  85 123 159 190 231 288 347
#     4  11  20  37  61  89 116 150 198 243 288 343
#     4  10  19  38  64  87 115 150 192 241 290 342
#     4  11  22  39  60  86 118 156 199 241 289 343
#
# _framework density 18.888161
#
# number of rings (size 3 to 8) (size 9 to 14) (size 15 to 20)
#    0.000    1.857    2.857    3.000    0.000    1.429 
#    0.000    6.429    0.000    4.286    0.000    0.000 
#    0.000    0.000    0.000    0.000    0.000    0.000 
#
# Total GULP energy -347285.519039 kJ/mol
# GULP energy per Si atom -12403.054251 kJ/mol
# Density = 1.884517 g / cm^3
# Si number density = 18.888161 Si / 1000 Ang^3
#
#
#
# Elastic Constant Matrix: (Units=GPa)
#
#
# Indices 1 2 3 4 5 6 
#
# 1 82.8106 32.9515 32.8884 0.0000 10.8327 0.0000
# 2 32.9515 80.0149 34.9596 0.0000 3.0838 0.0000
# 3 32.8884 34.9596 103.0663 0.0000 14.1240 0.0000
# 4 0.0000 0.0000 0.0000 35.6911 0.0000 -0.5853
# 5 10.8327 3.0838 14.1240 0.0000 27.1183 0.0000
# 6 0.0000 0.0000 0.0000 -0.5853 0.0000 26.2889
#
#
#
# Elastic Compliance Matrix: (Units=1/GPa)
#
#
# Indices 1 2 3 4 5 6 
#
# 1 0.015756 -0.005147 -0.002692 0.000000 -0.004307 0.000000
# 2 -0.005147 0.016378 -0.004242 0.000000 0.002403 0.000000
# 3 -0.002692 -0.004242 0.012693 0.000000 -0.005053 0.000000
# 4 0.000000 0.000000 0.000000 0.028028 0.000000 0.000624
# 5 -0.004307 0.002403 -0.005053 0.000000 0.040954 0.000000
# 6 0.000000 0.000000 0.000000 0.000624 0.000000 0.038053
#
#
# Mechanical properties :
#
#
# Convention : Reuss Voigt Hill
#
# Bulk Modulus (GPa) = 48.38997 51.94343 50.16670
# Shear Modulus (GPa) = 27.33542 28.82580 28.08061
#
# Velocity S-wave (km/s) = 3.80837 3.91081 3.85993
# Velocity P-wave (km/s) = 6.70918 6.92480 6.81784
#
# Compressibility (1/GPa) = 0.02066544
#
# Stress axis : x y z
#
# Youngs Moduli (GPa) = 63.46747 61.05737 78.78393
#
# Poissons Ratio (x) = 0.31423 0.21208
# Poissons Ratio (y) = 0.32664 0.33423
# Poissons Ratio (z) = 0.17085 0.25903
#
# Static dielectric constant tensor:
#      x y z
#    x 3.441070 0.000000 0.110660 
#    y 0.000000 3.274130 0.000000 
#    z 0.110660 0.000000 3.596310 
# 
# 
# High freq. dielectric constant tensor:
#      x y z
#    x 1.722730 0.000000 0.009150 
#    y 0.000000 1.719830 0.000000 
#    z 0.009150 0.000000 1.745120 
# 
# From -- ./inp_files/92079.got.cif
#   From: 2010.06.25/outbox.cif.g09.slc.cpg/sg10_47_cif.got.tgz:92079.got - 2010.06.27 22:07:45.
