data_PCOD8062499
_publ_section_title
;
Structure prediction by ZEFSAII (Michael W. Deem and Ramdas Pophale) SiO2 
 PCOD8062499
Probable space group: P 2/M
;
_chemical_formula_sum "Si O2"
_cell_formula_units_Z 24
_cell_length_a 12.259965
_cell_length_b 9.383558
_cell_length_c 24.827177
_cell_angle_alpha 90.000000
_cell_angle_beta 25.698576
_cell_angle_gamma 90.000000
_cell_volume 1238.540276
_symmetry_space_group_name_H-M "P 2/M"
_symmetry_group_IT_number 10
_symmetry_cell_setting 'monoclinic'
loop_
_space_group_symop_operation_xyz
x,y,z
-x,y,-z
-x,-y,-z
x,-y,z
loop_
_atom_site_type_symbol
_atom_site_label
_atom_site_fract_x
_atom_site_fract_y
_atom_site_fract_z
Si Si1 0.037516 0.840260 0.544740
Si Si2 0.261892 0.669444 0.642277
Si Si3 0.719790 0.841861 0.143258
Si Si4 0.372383 0.666464 0.220602
Si Si5 0.698459 0.333403 0.868731
Si Si6 0.616877 0.161436 0.307207
O O1 0.319231 0.833488 0.438964
O O2 0.000000 0.790552 0.500000
O O3 0.898008 0.729024 0.644743
O O4 0.928407 0.000000 0.600185
O O5 0.500000 0.723626 0.500000
O O6 0.273140 0.500000 0.641406
O O7 0.280486 0.733720 0.693385
O O8 0.988299 0.723640 0.742331
O O9 0.582591 0.738548 0.163319
O O10 0.714141 0.780747 0.206311
O O11 0.592079 0.000000 0.200055
O O12 0.000000 0.855142 0.000000
O O13 0.373160 0.500000 0.232283
O O14 0.420858 0.699706 0.136362
O O15 0.715933 0.500000 0.872418
O O16 0.500000 0.264701 0.000000
O O17 0.712483 0.000000 0.275514
#
# Coordination Sequence:
#
# PCOD8062499 Si02
#       6
#     4   4   4   4   4   4
#     4  10  19  36  58  80 115 155 185 222 286 351
#     4  10  21  38  60  84 114 152 193 238 290 343
#     4  10  22  40  59  81 117 159 190 228 289 348
#     4  11  22  36  60  89 115 144 192 244 283 338
#     4   9  20  38  57  80 115 156 189 230 293 350
#     4  10  21  37  59  86 114 149 192 235 282 341
#
# _framework density 19.377649999999999
#
# number of rings (size 3 to 8) (size 9 to 14) (size 15 to 20)
#    0.000    2.000    1.667    1.500    2.333    3.667 
#    0.000    1.667    0.000    2.500    0.000    0.000 
#    0.000    0.000    0.000    0.000    0.000    0.000 
#
# Total GULP energy -297525.831511 kJ/mol
# GULP energy per Si atom -12396.909646 kJ/mol
# Density = 1.933355 g / cm^3
# Si number density = 19.377650 Si / 1000 Ang^3
#
#
#
# Elastic Constant Matrix: (Units=GPa)
#
#
# Indices 1 2 3 4 5 6 
#
# 1 113.3789 44.9118 49.5483 0.0000 15.8495 0.0000
# 2 44.9118 60.8483 33.2258 0.0000 12.2350 0.0000
# 3 49.5483 33.2258 120.9399 0.0000 12.0377 0.0000
# 4 0.0000 0.0000 0.0000 20.7625 0.0000 2.9901
# 5 15.8495 12.2350 12.0377 0.0000 31.0150 0.0000
# 6 0.0000 0.0000 0.0000 2.9901 0.0000 31.0177
#
#
#
# Elastic Compliance Matrix: (Units=1/GPa)
#
#
# Indices 1 2 3 4 5 6 
#
# 1 0.013687 -0.007822 -0.003193 0.000000 -0.002669 0.000000
# 2 -0.007822 0.024859 -0.003169 0.000000 -0.004579 0.000000
# 3 -0.003193 -0.003169 0.010569 0.000000 -0.001220 0.000000
# 4 0.000000 0.000000 0.000000 0.048842 0.000000 -0.004708
# 5 -0.002669 -0.004579 -0.001220 0.000000 0.035887 0.000000
# 6 0.000000 0.000000 0.000000 -0.004708 0.000000 0.032694
#
#
# Mechanical properties :
#
#
# Convention : Reuss Voigt Hill
#
# Bulk Modulus (GPa) = 48.20023 61.17098 54.68561
# Shear Modulus (GPa) = 24.77453 27.72445 26.24949
#
# Velocity S-wave (km/s) = 3.57951 3.78662 3.68452
# Velocity P-wave (km/s) = 6.48166 7.12421 6.81052
#
# Compressibility (1/GPa) = 0.02074679
#
# Stress axis : x y z
#
# Youngs Moduli (GPa) = 73.06233 40.22689 94.61876
#
# Poissons Ratio (x) = 0.31466 0.30210
# Poissons Ratio (y) = 0.57150 0.29985
# Poissons Ratio (z) = 0.23327 0.12748
#
# Static dielectric constant tensor:
#      x y z
#    x 3.560670 0.000000 -0.036210 
#    y 0.000000 3.401100 0.000000 
#    z -0.036210 0.000000 3.915060 
# 
# 
# High freq. dielectric constant tensor:
#      x y z
#    x 1.761240 0.000000 0.002220 
#    y 0.000000 1.730170 0.000000 
#    z 0.002220 0.000000 1.766480 
# 
# From -- ./inp_files/56525.got.cif
#   From: 2010.06.25/outbox.cif.g09.slc.cpg/sg10_29_cif.got.tgz:56525.got - 2010.06.27 22:07:45.
