data_PCOD8062457
_publ_section_title
;
Structure prediction by ZEFSAII (Michael W. Deem and Ramdas Pophale) SiO2 
 PCOD8062457
Probable space group: P 2/M
;
_chemical_formula_sum "Si O2"
_cell_formula_units_Z 32
_cell_length_a 21.905515
_cell_length_b 14.566980
_cell_length_c 15.250900
_cell_angle_alpha 90.000000
_cell_angle_beta 19.330418
_cell_angle_gamma 90.000000
_cell_volume 1610.892912
_symmetry_space_group_name_H-M "P 2/M"
_symmetry_group_IT_number 10
_symmetry_cell_setting 'monoclinic'
loop_
_space_group_symop_operation_xyz
x,y,z
-x,y,-z
-x,-y,-z
x,-y,z
loop_
_atom_site_type_symbol
_atom_site_label
_atom_site_fract_x
_atom_site_fract_y
_atom_site_fract_z
Si Si1 0.405562 0.400860 0.861436
Si Si2 0.121516 0.210442 0.081454
Si Si3 0.833300 0.893887 0.158815
Si Si4 0.642148 0.364997 0.877797
Si Si5 0.522446 0.205903 0.286306
Si Si6 0.963528 0.601689 0.736795
Si Si7 0.556956 0.163551 0.043910
Si Si8 0.211779 0.101388 0.415006
O O1 0.477016 0.500000 0.726987
O O2 0.525506 0.314631 0.662966
O O3 0.412172 0.409358 0.956637
O O4 0.194004 0.383448 0.122223
O O5 0.067508 0.318890 0.147958
O O6 0.970916 0.162364 0.347623
O O7 0.112309 0.164947 0.999207
O O8 0.322368 0.194377 0.850355
O O9 0.654861 0.849000 0.443651
O O10 0.792272 0.000000 0.189773
O O11 0.000000 0.887252 0.000000
O O12 0.846407 0.390811 0.572158
O O13 0.500000 0.405928 0.000000
O O14 0.622852 0.256601 0.909412
O O15 0.592425 0.162643 0.099680
O O16 0.948088 0.500000 0.801560
O O17 0.342625 0.144548 0.313371
O O18 0.685189 0.090743 0.818793
O O19 0.153955 0.000000 0.524734
#
# Coordination Sequence:
#
# PCOD8062457 Si02
#       8
#     4   4   4   4   4   4   4   4
#     4   9  20  36  55  82 117 157 194 229 282 348
#     4  11  22  40  60  89 117 146 195 247 292 336
#     4  11  25  45  67  87 111 150 194 236 292 358
#     4  11  18  30  51  82 118 155 195 242 280 323
#     4  10  23  38  63  87 116 151 190 247 293 333
#     4  10  20  36  56  80 116 158 194 230 283 348
#     4  10  19  36  54  82 120 158 195 231 282 352
#     4  11  21  36  57  81 116 162 196 233 290 357
#
# _framework density 19.864758999999999
#
# number of rings (size 3 to 8) (size 9 to 14) (size 15 to 20)
#    0.000    1.625    2.500    3.000    0.000    7.000 
#    0.000    1.250    0.000    3.750    0.000    0.000 
#    0.000    0.000    0.000    0.000    0.000    0.000 
#
# Total GULP energy -396678.310832 kJ/mol
# GULP energy per Si atom -12396.197214 kJ/mol
# Density = 1.981955 g / cm^3
# Si number density = 19.864759 Si / 1000 Ang^3
#
#
#
# Elastic Constant Matrix: (Units=GPa)
#
#
# Indices 1 2 3 4 5 6 
#
# 1 76.8308 45.8325 21.1863 0.0000 7.4875 0.0000
# 2 45.8325 161.8826 48.1415 0.0000 -0.7560 0.0000
# 3 21.1863 48.1415 79.7914 0.0000 -1.1453 0.0000
# 4 0.0000 0.0000 0.0000 15.2662 0.0000 -6.1999
# 5 7.4875 -0.7560 -1.1453 0.0000 23.3317 0.0000
# 6 0.0000 0.0000 0.0000 -6.1999 0.0000 18.3708
#
#
#
# Elastic Compliance Matrix: (Units=1/GPa)
#
#
# Indices 1 2 3 4 5 6 
#
# 1 0.016565 -0.004124 -0.001990 0.000000 -0.005547 0.000000
# 2 -0.004124 0.008555 -0.004046 0.000000 0.001402 0.000000
# 3 -0.001990 -0.004046 0.015521 0.000000 0.001269 0.000000
# 4 0.000000 0.000000 0.000000 0.075908 0.000000 0.025618
# 5 -0.005547 0.001402 0.001269 0.000000 0.044748 0.000000
# 6 0.000000 0.000000 0.000000 0.025618 0.000000 0.063080
#
#
# Mechanical properties :
#
#
# Convention : Reuss Voigt Hill
#
# Bulk Modulus (GPa) = 49.21244 60.98060 55.09652
# Shear Modulus (GPa) = 19.88303 24.95004 22.41654
#
# Velocity S-wave (km/s) = 3.16716 3.54785 3.36290
# Velocity P-wave (km/s) = 6.18078 6.89547 6.54788
#
# Compressibility (1/GPa) = 0.02032007
#
# Stress axis : x y z
#
# Youngs Moduli (GPa) = 60.36787 116.89330 64.43084
#
# Poissons Ratio (x) = 0.48208 0.12820
# Poissons Ratio (y) = 0.24897 0.26071
# Poissons Ratio (z) = 0.12012 0.47299
#
# Static dielectric constant tensor:
#      x y z
#    x 3.552450 0.000000 -0.101630 
#    y 0.000000 4.014990 0.000000 
#    z -0.101630 0.000000 3.473290 
# 
# 
# High freq. dielectric constant tensor:
#      x y z
#    x 1.763030 0.000000 -0.013400 
#    y 0.000000 1.796240 0.000000 
#    z -0.013400 0.000000 1.758260 
# 
# From -- ./inp_files/51660.got.cif
#   From: 2010.06.25/outbox.cif.g09.slc.cpg/sg10_26_cif.got.tgz:51660.got - 2010.06.27 22:07:45.
