data_PCOD8062685
_publ_section_title
;
Structure prediction by ZEFSAII (Michael W. Deem and Ramdas Pophale) SiO2 
 PCOD8062685
Probable space group: P 2/M
;
_chemical_formula_sum "Si O2"
_cell_formula_units_Z 24
_cell_length_a 11.417843
_cell_length_b 8.599756
_cell_length_c 21.725904
_cell_angle_alpha 90.000000
_cell_angle_beta 148.640337
_cell_angle_gamma 90.000000
_cell_volume 1110.177727
_symmetry_space_group_name_H-M "P 2/M"
_symmetry_group_IT_number 10
_symmetry_cell_setting 'monoclinic'
loop_
_space_group_symop_operation_xyz
x,y,z
-x,y,-z
-x,-y,-z
x,-y,z
loop_
_atom_site_type_symbol
_atom_site_label
_atom_site_fract_x
_atom_site_fract_y
_atom_site_fract_z
Si Si1 0.044608 0.682443 0.723752
Si Si2 0.608344 0.677272 0.453967
Si Si3 0.562255 0.180187 0.177102
Si Si4 0.148391 0.180502 0.245962
Si Si5 0.915920 0.317791 0.029284
Si Si6 0.747120 0.321816 0.379239
O O1 0.034673 0.500000 0.732220
O O2 0.279035 0.722601 0.796922
O O3 0.840406 0.737299 0.587893
O O4 0.030180 0.772540 0.781810
O O5 0.564430 0.500000 0.454070
O O6 0.398190 0.778688 0.383195
O O7 0.618765 0.693940 0.385471
O O8 0.305722 0.225789 0.049523
O O9 0.617350 0.216040 0.272634
O O10 0.598217 0.000000 0.179378
O O11 0.127009 0.000000 0.221301
O O12 0.105658 0.278284 0.164665
O O13 0.863074 0.500000 0.004466
O O14 0.000000 0.262222 0.000000
O O15 0.750174 0.500000 0.356701
O O16 0.000000 0.259917 0.500000
#
# Coordination Sequence:
#
# PCOD8062685 Si02
#       6
#     4   4   4   4   4   4
#     4  11  23  43  67  92 126 172 221 261 306 376
#     4  10  21  39  65  93 126 171 220 263 306 370
#     4  12  25  40  63  98 135 166 205 265 330 377
#     4  12  26  42  63  95 132 166 207 264 327 380
#     4  11  25  47  72  94 121 166 219 261 305 377
#     4  10  19  37  62  91 125 167 215 257 302 368
#
# _framework density 21.618158999999999
#
# number of rings (size 3 to 8) (size 9 to 14) (size 15 to 20)
#    0.000    1.000    1.667    5.500    0.000   10.333 
#    0.000    3.333    0.000    0.000    0.000    0.000 
#    0.000    0.000    0.000    0.000    0.000    0.000 
#
# Total GULP energy -297794.108077 kJ/mol
# GULP energy per Si atom -12408.087837 kJ/mol
# Density = 2.156896 g / cm^3
# Si number density = 21.618159 Si / 1000 Ang^3
#
#
#
# Elastic Constant Matrix: (Units=GPa)
#
#
# Indices 1 2 3 4 5 6 
#
# 1 111.3981 23.6449 26.9573 0.0000 3.5480 0.0000
# 2 23.6449 70.4855 19.1032 0.0000 -1.6306 0.0000
# 3 26.9573 19.1032 85.6717 0.0000 10.6402 0.0000
# 4 0.0000 0.0000 0.0000 15.5340 0.0000 4.3496
# 5 3.5480 -1.6306 10.6402 0.0000 36.1350 0.0000
# 6 0.0000 0.0000 0.0000 4.3496 0.0000 19.3415
#
#
#
# Elastic Compliance Matrix: (Units=1/GPa)
#
#
# Indices 1 2 3 4 5 6 
#
# 1 0.010186 -0.002735 -0.002549 0.000000 -0.000373 0.000000
# 2 -0.002735 0.015940 -0.002923 0.000000 0.001849 0.000000
# 3 -0.002549 -0.002923 0.013609 0.000000 -0.003889 0.000000
# 4 0.000000 0.000000 0.000000 0.068701 0.000000 -0.015450
# 5 -0.000373 0.001849 -0.003889 0.000000 0.028939 0.000000
# 6 0.000000 0.000000 0.000000 -0.015450 0.000000 0.055177
#
#
# Mechanical properties :
#
#
# Convention : Reuss Voigt Hill
#
# Bulk Modulus (GPa) = 42.87991 45.21848 44.04920
# Shear Modulus (GPa) = 23.06913 27.39208 25.23061
#
# Velocity S-wave (km/s) = 3.27022 3.56348 3.41999
# Velocity P-wave (km/s) = 5.84272 6.15577 6.00128
#
# Compressibility (1/GPa) = 0.02332094
#
# Stress axis : x y z
#
# Youngs Moduli (GPa) = 98.17404 62.73618 73.47866
#
# Poissons Ratio (x) = 0.17157 0.18730
# Poissons Ratio (y) = 0.26848 0.21480
# Poissons Ratio (z) = 0.25024 0.18340
#
# Static dielectric constant tensor:
#      x y z
#    x 3.908350 0.000000 -0.002120 
#    y 0.000000 3.704820 0.000000 
#    z -0.002120 0.000000 3.887770 
# 
# 
# High freq. dielectric constant tensor:
#      x y z
#    x 1.861660 0.000000 0.003330 
#    y 0.000000 1.837520 0.000000 
#    z 0.003330 0.000000 1.851490 
# 
# From -- ./inp_files/88751.got.cif
#   From: 2010.06.25/outbox.cif.g09.slc.cpg/sg10_45_cif.got.tgz:88751.got - 2010.06.27 22:07:45.
