data_PCOD8062326
_publ_section_title
;
Structure prediction by ZEFSAII (Michael W. Deem and Ramdas Pophale) SiO2 
 PCOD8062326
Probable space group: P 2/M
;
_chemical_formula_sum "Si O2"
_cell_formula_units_Z 24
_cell_length_a 10.220447
_cell_length_b 7.584956
_cell_length_c 22.291127
_cell_angle_alpha 90.000000
_cell_angle_beta 44.594132
_cell_angle_gamma 90.000000
_cell_volume 1213.225870
_symmetry_space_group_name_H-M "P 2/M"
_symmetry_group_IT_number 10
_symmetry_cell_setting 'monoclinic'
loop_
_space_group_symop_operation_xyz
x,y,z
-x,y,-z
-x,-y,-z
x,-y,z
loop_
_atom_site_type_symbol
_atom_site_label
_atom_site_fract_x
_atom_site_fract_y
_atom_site_fract_z
Si Si1 0.693789 0.500000 0.105074
Si Si2 0.420348 0.201261 0.231275
Si Si3 0.024830 0.208516 0.312529
Si Si4 0.061434 0.799665 0.791521
Si Si5 0.973255 0.500000 0.910382
Si Si6 0.343411 0.790957 0.504542
Si Si7 0.474324 0.299428 0.674375
O O1 0.574299 0.322470 0.149856
O O2 0.848111 0.500000 0.105803
O O3 0.783757 0.500000 0.010027
O O4 0.218451 0.273443 0.277374
O O5 0.430773 0.207712 0.299680
O O6 0.451321 0.000000 0.199559
O O7 0.008205 0.275114 0.249621
O O8 0.854804 0.283625 0.407831
O O9 0.008258 0.000000 0.318062
O O10 0.973672 0.676828 0.870942
O O11 0.285458 0.800289 0.718566
O O12 0.993256 0.000000 0.825106
O O13 0.500000 0.727075 0.500000
O O14 0.381338 0.706852 0.427428
O O15 0.345008 0.000000 0.497443
O O16 0.424533 0.500000 0.707803
#
# Coordination Sequence:
#
# PCOD8062326 Si02
#       7
#     2   4   4   4   2   4   4
#     4  11  24  43  63  94 125 148 196 255 301 367
#     4  11  22  42  64  86 123 165 197 242 307 360
#     4   9  21  38  61  90 122 161 206 248 291 354
#     4  11  20  39  64  90 121 159 199 244 303 357
#     4  11  24  41  65  96 122 145 198 259 296 364
#     4  10  19  35  58  87 121 160 208 253 292 338
#     4  12  22  37  57  88 126 161 206 252 290 353
#
# _framework density 19.781970999999999
#
# number of rings (size 3 to 8) (size 9 to 14) (size 15 to 20)
#    0.000    1.333    5.000    1.500    0.000    2.333 
#    3.000    6.667    0.000    3.000    0.000    0.000 
#    0.000    0.000    0.000    0.000    0.000    0.000 
#
# Total GULP energy -297696.647110 kJ/mol
# GULP energy per Si atom -12404.026963 kJ/mol
# Density = 1.973695 g / cm^3
# Si number density = 19.781971 Si / 1000 Ang^3
#
#
#
# Elastic Constant Matrix: (Units=GPa)
#
#
# Indices 1 2 3 4 5 6 
#
# 1 150.6713 22.4723 69.2099 0.0000 -1.8465 0.0000
# 2 22.4723 90.8249 47.1297 0.0000 -0.6914 0.0000
# 3 69.2099 47.1297 166.8000 0.0000 5.5522 0.0000
# 4 0.0000 0.0000 0.0000 23.6439 0.0000 -4.8852
# 5 -1.8465 -0.6914 5.5522 0.0000 29.7186 0.0000
# 6 0.0000 0.0000 0.0000 -4.8852 0.0000 -34.6990
#
#
#
# Elastic Compliance Matrix: (Units=1/GPa)
#
#
# Indices 1 2 3 4 5 6 
#
# 1 0.008245 -0.000277 -0.003381 0.000000 0.001137 0.000000
# 2 -0.000277 0.012940 -0.003573 0.000000 0.000951 0.000000
# 3 -0.003381 -0.003573 0.008470 0.000000 -0.001876 0.000000
# 4 0.000000 0.000000 0.000000 0.041099 0.000000 -0.005786
# 5 0.001137 0.000951 -0.001876 0.000000 0.034092 0.000000
# 6 0.000000 0.000000 0.000000 -0.005786 0.000000 -0.028005
#
#
# Mechanical properties :
#
#
# Convention : Reuss Voigt Hill
#
# Bulk Modulus (GPa) = 65.81715 76.21332 71.01523
# Shear Modulus (GPa) = 51.88486 21.69832 36.79159
#
# Velocity S-wave (km/s) = 5.12692 3.31550 4.31728
# Velocity P-wave (km/s) = 8.26986 7.29843 7.79928
#
# Compressibility (1/GPa) = 0.01519361
#
# Stress axis : x y z
#
# Youngs Moduli (GPa) = 121.28367 77.27965 118.06496
#
# Poissons Ratio (x) = 0.02142 0.39914
# Poissons Ratio (y) = 0.03361 0.42184
# Poissons Ratio (z) = 0.41002 0.27611
#
# Static dielectric constant tensor:
#      x y z
#    x 3.737920 0.000000 0.017770 
#    y 0.000000 3.592260 0.000000 
#    z 0.017770 0.000000 3.588420 
# 
# 
# High freq. dielectric constant tensor:
#      x y z
#    x 1.771480 0.000000 0.007640 
#    y 0.000000 1.773950 0.000000 
#    z 0.007640 0.000000 1.761970 
# 
# From -- ./inp_files/81939.got.cif
#   From: 2010.06.25/outbox.cif.g09.slc.cpg/sg10_41_cif.got.tgz:81939.got - 2010.06.27 22:07:45.
