data_PCOD8062757
_publ_section_title
;
Structure prediction by ZEFSAII (Michael W. Deem and Ramdas Pophale) SiO2 
 PCOD8062757
Probable space group: P 2/M
;
_chemical_formula_sum "Si O2"
_cell_formula_units_Z 28
_cell_length_a 20.238890
_cell_length_b 8.981485
_cell_length_c 23.250958
_cell_angle_alpha 90.000000
_cell_angle_beta 19.424097
_cell_angle_gamma 90.000000
_cell_volume 1405.538749
_symmetry_space_group_name_H-M "P 2/M"
_symmetry_group_IT_number 10
_symmetry_cell_setting 'monoclinic'
loop_
_space_group_symop_operation_xyz
x,y,z
-x,y,-z
-x,-y,-z
x,-y,z
loop_
_atom_site_type_symbol
_atom_site_label
_atom_site_fract_x
_atom_site_fract_y
_atom_site_fract_z
Si Si1 0.287715 0.839687 0.643309
Si Si2 0.112661 0.328038 0.246363
Si Si3 0.205773 0.671515 0.301471
Si Si4 0.344353 0.323565 0.372235
Si Si5 0.532470 0.176901 0.105614
Si Si6 0.213108 0.341937 0.804413
Si Si7 0.489589 0.827103 0.365069
O O1 0.500000 0.847259 0.500000
O O2 0.171382 0.714526 0.773463
O O3 0.308942 0.800728 0.558394
O O4 0.180620 0.000000 0.736983
O O5 0.121805 0.500000 0.220151
O O6 0.198260 0.306024 0.239721
O O7 0.884744 0.270893 0.433877
O O8 0.245824 0.234678 0.092049
O O9 0.251593 0.500000 0.280253
O O10 0.382296 0.775158 0.178669
O O11 0.000000 0.721162 0.500000
O O12 0.355677 0.500000 0.353786
O O13 0.454299 0.245655 0.229102
O O14 0.459452 0.275836 0.334862
O O15 0.539235 0.000000 0.105607
O O16 0.334293 0.500000 0.703750
O O17 0.310716 0.220942 0.766160
O O18 0.000000 0.381621 0.000000
O O19 0.506663 0.000000 0.333206
#
# Coordination Sequence:
#
# PCOD8062757 Si02
#       7
#     4   4   4   4   4   4   4
#     4   8  16  32  54  78 106 141 179 225 281 339
#     4  10  22  41  65  89 117 160 209 255 303 362
#     4  10  19  38  65  90 118 159 208 254 306 361
#     4  11  23  43  66  87 118 163 210 253 301 361
#     4  12  25  39  60  92 128 161 199 253 312 366
#     4  10  20  34  55  86 118 150 193 241 284 338
#     4  10  21  38  59  85 116 152 191 237 301 359
#
# _framework density 19.921187
#
# number of rings (size 3 to 8) (size 9 to 14) (size 15 to 20)
#    0.000    1.857    1.429    3.857    0.000    8.000 
#    2.571    0.000    0.000    0.000    0.000    0.000 
#    0.000    0.000    0.000    0.000    0.000    0.000 
#
# Total GULP energy -347037.497515 kJ/mol
# GULP energy per Si atom -12394.196340 kJ/mol
# Density = 1.987585 g / cm^3
# Si number density = 19.921187 Si / 1000 Ang^3
#
#
#
# Elastic Constant Matrix: (Units=GPa)
#
#
# Indices 1 2 3 4 5 6 
#
# 1 86.9336 37.7496 33.2432 0.0000 15.7282 0.0000
# 2 37.7496 114.2647 57.4922 0.0000 17.5018 0.0000
# 3 33.2432 57.4922 113.5116 0.0000 23.8858 0.0000
# 4 0.0000 0.0000 0.0000 20.3361 0.0000 6.5838
# 5 15.7282 17.5018 23.8858 0.0000 21.4777 0.0000
# 6 0.0000 0.0000 0.0000 6.5838 0.0000 31.9539
#
#
#
# Elastic Compliance Matrix: (Units=1/GPa)
#
#
# Indices 1 2 3 4 5 6 
#
# 1 0.014565 -0.003152 -0.001260 0.000000 -0.006696 0.000000
# 2 -0.003152 0.012677 -0.004973 0.000000 -0.002491 0.000000
# 3 -0.001260 -0.004973 0.013905 0.000000 -0.010488 0.000000
# 4 0.000000 0.000000 0.000000 0.052688 0.000000 -0.010856
# 5 -0.006696 -0.002491 -0.010488 0.000000 0.065157 0.000000
# 6 0.000000 0.000000 0.000000 -0.010856 0.000000 0.033532
#
#
# Mechanical properties :
#
#
# Convention : Reuss Voigt Hill
#
# Bulk Modulus (GPa) = 44.69190 63.51999 54.10595
# Shear Modulus (GPa) = 22.85675 27.16854 25.01265
#
# Velocity S-wave (km/s) = 3.39094 3.69697 3.54726
# Velocity P-wave (km/s) = 6.14934 7.08367 6.63298
#
# Compressibility (1/GPa) = 0.02237542
#
# Stress axis : x y z
#
# Youngs Moduli (GPa) = 68.65707 78.88370 71.91854
#
# Poissons Ratio (x) = 0.24867 0.09061
# Poissons Ratio (y) = 0.21643 0.35768
# Poissons Ratio (z) = 0.08650 0.39232
#
# Static dielectric constant tensor:
#      x y z
#    x 3.679620 0.000000 0.312320 
#    y 0.000000 3.740750 0.000000 
#    z 0.312320 0.000000 3.670490 
# 
# 
# High freq. dielectric constant tensor:
#      x y z
#    x 1.769150 0.000000 0.020740 
#    y 0.000000 1.782000 0.000000 
#    z 0.020740 0.000000 1.770100 
# 
# From -- ./inp_files/90350.got.cif
#   From: 2010.06.25/outbox.cif.g09.slc.cpg/sg10_46_cif.got.tgz:90350.got - 2010.06.27 22:07:45.
