data_PCOD8062688
_publ_section_title
;
Structure prediction by ZEFSAII (Michael W. Deem and Ramdas Pophale) SiO2 
 PCOD8062688
Probable space group: P 2/M
;
_chemical_formula_sum "Si O2"
_cell_formula_units_Z 24
_cell_length_a 12.151797
_cell_length_b 13.820854
_cell_length_c 14.526060
_cell_angle_alpha 90.000000
_cell_angle_beta 149.619527
_cell_angle_gamma 90.000000
_cell_volume 1233.815822
_symmetry_space_group_name_H-M "P 2/M"
_symmetry_group_IT_number 10
_symmetry_cell_setting 'monoclinic'
loop_
_space_group_symop_operation_xyz
x,y,z
-x,y,-z
-x,-y,-z
x,-y,z
loop_
_atom_site_type_symbol
_atom_site_label
_atom_site_fract_x
_atom_site_fract_y
_atom_site_fract_z
Si Si1 0.072198 0.387142 0.789252
Si Si2 0.583772 0.700412 0.843444
Si Si3 0.719932 0.109056 0.699571
Si Si4 0.231475 0.392512 0.712589
Si Si5 0.584838 0.614168 0.459355
Si Si6 0.202868 0.109737 0.029928
O O1 0.046432 0.500000 0.755268
O O2 0.200126 0.346127 0.791609
O O3 0.830017 0.345756 0.626971
O O4 0.210263 0.363856 0.978836
O O5 0.374465 0.677377 0.753340
O O6 0.554212 0.675425 0.714514
O O7 0.636433 0.813333 0.901639
O O8 0.500000 0.162440 0.500000
O O9 0.726898 0.111360 0.813712
O O10 0.710215 0.000000 0.655627
O O11 0.954939 0.148801 0.834256
O O12 0.340345 0.500000 0.795603
O O13 0.000000 0.402685 0.500000
O O14 0.500000 0.637108 0.500000
O O15 0.564947 0.500000 0.422640
O O16 0.233494 0.000000 0.013539
#
# Coordination Sequence:
#
# PCOD8062688 Si02
#       6
#     4   4   4   4   4   4
#     4  10  21  37  59  85 109 140 187 238 281 329
#     4  12  22  34  58  84 112 150 189 230 284 338
#     4   8  15  33  57  74  99 144 192 236 280 318
#     4  10  19  37  63  85 107 139 188 245 288 324
#     4  10  22  38  54  81 122 156 182 221 280 349
#     4   9  20  34  50  80 114 145 187 237 278 326
#
# _framework density 19.451848999999999
#
# number of rings (size 3 to 8) (size 9 to 14) (size 15 to 20)
#    0.000    2.167    1.667    3.000    0.000    6.667 
#    0.000    2.500    0.000    2.500    0.000    0.000 
#    0.000    0.000    0.000    0.000    0.000    0.000 
#
# Total GULP energy -297407.685740 kJ/mol
# GULP energy per Si atom -12391.986906 kJ/mol
# Density = 1.940758 g / cm^3
# Si number density = 19.451849 Si / 1000 Ang^3
#
#
#
# Elastic Constant Matrix: (Units=GPa)
#
#
# Indices 1 2 3 4 5 6 
#
# 1 114.4569 49.8951 46.9803 0.0000 7.8583 0.0000
# 2 49.8951 66.4884 33.3392 0.0000 17.9071 0.0000
# 3 46.9803 33.3392 133.4630 0.0000 -4.7691 0.0000
# 4 0.0000 0.0000 0.0000 13.0632 0.0000 -3.0078
# 5 7.8583 17.9071 -4.7691 0.0000 29.8327 0.0000
# 6 0.0000 0.0000 0.0000 -3.0078 0.0000 7.7578
#
#
#
# Elastic Compliance Matrix: (Units=1/GPa)
#
#
# Indices 1 2 3 4 5 6 
#
# 1 0.013793 -0.009629 -0.002387 0.000000 0.001765 0.000000
# 2 -0.009629 0.028527 -0.004282 0.000000 -0.015271 0.000000
# 3 -0.002387 -0.004282 0.009572 0.000000 0.004729 0.000000
# 4 0.000000 0.000000 0.000000 0.084055 0.000000 0.032589
# 5 0.001765 -0.015271 0.004729 0.000000 0.042978 0.000000
# 6 0.000000 0.000000 0.000000 0.032589 0.000000 0.141537
#
#
# Mechanical properties :
#
#
# Convention : Reuss Voigt Hill
#
# Bulk Modulus (GPa) = 51.82770 63.87085 57.84927
# Shear Modulus (GPa) = 13.90865 22.41032 18.15948
#
# Velocity S-wave (km/s) = 2.67690 3.39793 3.05874
# Velocity P-wave (km/s) = 6.02133 6.94991 6.50221
#
# Compressibility (1/GPa) = 0.01929470
#
# Stress axis : x y z
#
# Youngs Moduli (GPa) = 72.49956 35.05510 104.47658
#
# Poissons Ratio (x) = 0.33756 0.24937
# Poissons Ratio (y) = 0.69813 0.44737
# Poissons Ratio (z) = 0.17304 0.15010
#
# Static dielectric constant tensor:
#      x y z
#    x 3.579990 0.000000 0.069500 
#    y 0.000000 3.468950 0.000000 
#    z 0.069500 0.000000 3.849330 
# 
# 
# High freq. dielectric constant tensor:
#      x y z
#    x 1.734050 0.000000 0.001560 
#    y 0.000000 1.730870 0.000000 
#    z 0.001560 0.000000 1.780330 
# 
# From -- ./inp_files/51531.got.cif
#   From: 2010.06.25/outbox.cif.g09.slc.cpg/sg10_26_cif.got.tgz:51531.got - 2010.06.27 22:07:45.
