data_PCOD8062849
_publ_section_title
;
Structure prediction by ZEFSAII (Michael W. Deem and Ramdas Pophale) SiO2 
 PCOD8062849
Probable space group: P 2/M
;
_chemical_formula_sum "Si O2"
_cell_formula_units_Z 32
_cell_length_a 24.730395
_cell_length_b 8.835679
_cell_length_c 16.521808
_cell_angle_alpha 90.000000
_cell_angle_beta 152.716432
_cell_angle_gamma 90.000000
_cell_volume 1654.886178
_symmetry_space_group_name_H-M "P 2/M"
_symmetry_group_IT_number 10
_symmetry_cell_setting 'monoclinic'
loop_
_space_group_symop_operation_xyz
x,y,z
-x,y,-z
-x,-y,-z
x,-y,z
loop_
_atom_site_type_symbol
_atom_site_label
_atom_site_fract_x
_atom_site_fract_y
_atom_site_fract_z
Si Si1 0.974233 0.828658 0.649963
Si Si2 0.132169 0.180041 0.195611
Si Si3 0.406950 0.820439 0.271475
Si Si4 0.814684 0.679303 0.562741
Si Si5 0.175111 0.325745 0.676781
Si Si6 0.663381 0.820282 0.648610
Si Si7 0.215805 0.172617 0.896607
Si Si8 0.372633 0.324259 0.814513
O O1 0.930028 0.723484 0.664153
O O2 0.925221 0.775312 0.497900
O O3 0.115216 0.818779 0.831641
O O4 0.932893 0.000000 0.612192
O O5 0.180015 0.243210 0.343610
O O6 0.221109 0.242023 0.244427
O O7 0.132894 0.000000 0.201928
O O8 0.000000 0.239018 0.000000
O O9 0.542553 0.766312 0.443225
O O10 0.344413 0.756897 0.270064
O O11 0.402315 0.000000 0.272053
O O12 0.335403 0.766556 0.097539
O O13 0.813067 0.500000 0.570902
O O14 0.698821 0.738819 0.359006
O O15 0.137139 0.500000 0.618410
O O16 0.187293 0.283547 0.785905
O O17 0.298669 0.294812 0.797022
O O18 0.670297 0.000000 0.657554
O O19 0.228639 0.000000 0.882057
O O20 0.392551 0.500000 0.824377
O O21 0.500000 0.245165 0.000000
#
# Coordination Sequence:
#
# PCOD8062849 Si02
#       8
#     4   4   4   4   4   4   4   4
#     4  10  20  34  53  74 103 137 172 212 257 306
#     4  10  21  34  54  81 109 140 179 221 264 314
#     4   8  15  29  50  75 101 133 173 216 262 306
#     4  10  21  36  54  78 107 139 175 214 265 318
#     4  10  20  33  50  74 105 138 172 208 254 307
#     4   8  15  30  51  74 103 135 170 216 263 306
#     4  10  20  31  50  77 102 131 172 216 258 305
#     4   8  16  33  54  73  97 135 177 211 250 308
#
# _framework density 19.336677000000002
#
# number of rings (size 3 to 8) (size 9 to 14) (size 15 to 20)
#    0.000    2.750    0.000    3.000    1.750    3.750 
#    0.000    0.000    0.000   12.750    0.000    1.750 
#    0.000    0.000    0.000    0.000    0.000    0.000 
#
# Total GULP energy -396641.909894 kJ/mol
# GULP energy per Si atom -12395.059684 kJ/mol
# Density = 1.929267 g / cm^3
# Si number density = 19.336677 Si / 1000 Ang^3
#
#
#
# Elastic Constant Matrix: (Units=GPa)
#
#
# Indices 1 2 3 4 5 6 
#
# 1 100.9294 11.5624 45.4740 0.0000 6.6283 0.0000
# 2 11.5624 23.9301 15.8621 0.0000 4.7739 0.0000
# 3 45.4740 15.8621 87.9461 0.0000 12.9293 0.0000
# 4 0.0000 0.0000 0.0000 17.0051 0.0000 -5.2299
# 5 6.6283 4.7739 12.9293 0.0000 29.3300 0.0000
# 6 0.0000 0.0000 0.0000 -5.2299 0.0000 22.3021
#
#
#
# Elastic Compliance Matrix: (Units=1/GPa)
#
#
# Indices 1 2 3 4 5 6 
#
# 1 0.013008 -0.002100 -0.006379 0.000000 0.000214 0.000000
# 2 -0.002100 0.048297 -0.006992 0.000000 -0.004304 0.000000
# 3 -0.006379 -0.006992 0.016629 0.000000 -0.004750 0.000000
# 4 0.000000 0.000000 0.000000 0.063377 0.000000 0.014862
# 5 0.000214 -0.004304 -0.004750 0.000000 0.036841 0.000000
# 6 0.000000 0.000000 0.000000 0.014862 0.000000 0.048324
#
#
# Mechanical properties :
#
#
# Convention : Reuss Voigt Hill
#
# Bulk Modulus (GPa) = 21.28052 39.84471 30.56261
# Shear Modulus (GPa) = 18.30957 23.05457 20.68207
#
# Velocity S-wave (km/s) = 3.08048 3.45667 3.27399
# Velocity P-wave (km/s) = 4.86638 6.04830 5.48925
#
# Compressibility (1/GPa) = 0.04699134
#
# Stress axis : x y z
#
# Youngs Moduli (GPa) = 76.87291 20.70542 60.13766
#
# Poissons Ratio (x) = 0.04348 0.38362
# Poissons Ratio (y) = 0.16141 0.42051
# Poissons Ratio (z) = 0.49037 0.14478
#
# Static dielectric constant tensor:
#      x y z
#    x 3.573950 0.000000 0.144140 
#    y 0.000000 3.156650 0.000000 
#    z 0.144140 0.000000 3.922660 
# 
# 
# High freq. dielectric constant tensor:
#      x y z
#    x 1.750970 0.000000 0.003230 
#    y 0.000000 1.711970 0.000000 
#    z 0.003230 0.000000 1.760750 
# 
# From -- ./inp_files/71635.got.cif
#   From: 2010.06.25/outbox.cif.g09.slc.cpg/sg10_36_cif.got.tgz:71635.got - 2010.06.27 22:07:45.
