data_PCOD8062743
_publ_section_title
;
Structure prediction by ZEFSAII (Michael W. Deem and Ramdas Pophale) SiO2 
 PCOD8062743
Probable space group: P 2/M
;
_chemical_formula_sum "Si O2"
_cell_formula_units_Z 32
_cell_length_a 20.317206
_cell_length_b 8.811205
_cell_length_c 25.360075
_cell_angle_alpha 90.000000
_cell_angle_beta 22.696201
_cell_angle_gamma 90.000000
_cell_volume 1751.711401
_symmetry_space_group_name_H-M "P 2/M"
_symmetry_group_IT_number 10
_symmetry_cell_setting 'monoclinic'
loop_
_space_group_symop_operation_xyz
x,y,z
-x,y,-z
-x,-y,-z
x,-y,z
loop_
_atom_site_type_symbol
_atom_site_label
_atom_site_fract_x
_atom_site_fract_y
_atom_site_fract_z
Si Si1 0.345706 0.320500 0.146420
Si Si2 0.337466 0.821165 0.890754
Si Si3 0.152255 0.176818 0.847317
Si Si4 0.032089 0.321228 0.830875
Si Si5 0.830218 0.821198 0.374414
Si Si6 0.536571 0.674241 0.102417
Si Si7 0.873982 0.674300 0.782961
Si Si8 0.467224 0.179693 0.683379
O O1 0.368107 0.500000 0.126896
O O2 0.371097 0.273772 0.189221
O O3 0.170145 0.277876 0.245567
O O4 0.500000 0.243878 0.000000
O O5 0.461533 0.778559 0.847288
O O6 0.419595 0.756090 0.776309
O O7 0.311277 0.000000 0.907138
O O8 0.154822 0.747769 0.034975
O O9 0.327213 0.233679 0.744475
O O10 0.127490 0.274235 0.813431
O O11 0.157677 0.000000 0.827872
O O12 0.000000 0.209727 0.000000
O O13 0.014834 0.500000 0.840356
O O14 0.143415 0.263582 0.699913
O O15 0.651898 0.760517 0.529721
O O16 0.976879 0.783612 0.308023
O O17 0.826702 0.000000 0.366615
O O18 0.518669 0.500000 0.133557
O O19 0.708250 0.696505 0.941755
O O20 0.935974 0.500000 0.740062
O O21 0.465446 0.000000 0.687825
#
# Coordination Sequence:
#
# PCOD8062743 Si02
#       8
#     4   4   4   4   4   4   4   4
#     4   7  12  24  44  71 105 143 174 209 264 318
#     4  11  20  35  57  81 107 141 183 224 267 316
#     4  10  19  38  64  83 104 138 180 223 267 317
#     4  12  24  37  55  83 113 141 176 220 269 319
#     4  11  22  37  56  79 109 145 182 219 264 318
#     4   9  16  28  49  79 110 138 175 222 268 314
#     4   9  16  29  50  76 108 143 178 217 264 316
#     4   9  21  39  58  80 106 140 180 220 267 324
#
# _framework density 18.267848999999998
#
# number of rings (size 3 to 8) (size 9 to 14) (size 15 to 20)
#    0.000    2.250    2.500    3.375    0.000    0.750 
#    0.000    6.875    0.000    3.000    0.000    5.250 
#    0.000    0.000    0.000    0.000    0.000    0.000 
#
# Total GULP energy -396628.930972 kJ/mol
# GULP energy per Si atom -12394.654093 kJ/mol
# Density = 1.822627 g / cm^3
# Si number density = 18.267849 Si / 1000 Ang^3
#
#
#
# Elastic Constant Matrix: (Units=GPa)
#
#
# Indices 1 2 3 4 5 6 
#
# 1 155.2819 39.1323 43.7048 0.0000 -6.6189 0.0000
# 2 39.1323 63.5895 27.3529 0.0000 3.0532 0.0000
# 3 43.7048 27.3529 66.7621 0.0000 4.9131 0.0000
# 4 0.0000 0.0000 0.0000 1.5384 0.0000 -5.5669
# 5 -6.6189 3.0532 4.9131 0.0000 22.9749 0.0000
# 6 0.0000 0.0000 0.0000 -5.5669 0.0000 31.6690
#
#
#
# Elastic Compliance Matrix: (Units=1/GPa)
#
#
# Indices 1 2 3 4 5 6 
#
# 1 0.008817 -0.003652 -0.004570 0.000000 0.004003 0.000000
# 2 -0.003652 0.020621 -0.005871 0.000000 -0.002537 0.000000
# 3 -0.004570 -0.005871 0.020742 0.000000 -0.004972 0.000000
# 4 0.000000 0.000000 0.000000 1.786191 0.000000 0.313985
# 5 0.004003 -0.002537 -0.004972 0.000000 0.046079 0.000000
# 6 0.000000 0.000000 0.000000 0.313985 0.000000 0.086770
#
#
# Mechanical properties :
#
#
# Convention : Reuss Voigt Hill
#
# Bulk Modulus (GPa) = 45.46959 56.22373 50.84666
# Shear Modulus (GPa) = 2.49409 22.93271 12.71340
#
# Velocity S-wave (km/s) = 1.16972 3.54695 2.64094
# Velocity P-wave (km/s) = 5.17386 6.90063 6.09867
#
# Compressibility (1/GPa) = 0.02199272
#
# Stress axis : x y z
#
# Youngs Moduli (GPa) = 113.41387 48.49526 48.21233
#
# Poissons Ratio (x) = 0.17712 0.22034
# Poissons Ratio (y) = 0.41423 0.28304
# Poissons Ratio (z) = 0.51833 0.28470
#
# Static dielectric constant tensor:
#      x y z
#    x 3.913790 0.000000 -0.131320 
#    y 0.000000 3.112760 0.000000 
#    z -0.131320 0.000000 3.238330 
# 
# 
# High freq. dielectric constant tensor:
#      x y z
#    x 1.732360 0.000000 -0.010980 
#    y 0.000000 1.683710 0.000000 
#    z -0.010980 0.000000 1.674430 
# 
# From -- ./inp_files/93589.got.cif
#   From: 2010.06.25/outbox.cif.g09.slc.cpg/sg10_47_cif.got.tgz:93589.got - 2010.06.27 22:07:45.
