data_PCOD8062153
_publ_section_title
;
Structure prediction by ZEFSAII (Michael W. Deem and Ramdas Pophale) SiO2 
 PCOD8062153
Probable space group: P 2/M
;
_chemical_formula_sum "Si O2"
_cell_formula_units_Z 20
_cell_length_a 8.848887
_cell_length_b 13.289425
_cell_length_c 20.670444
_cell_angle_alpha 90.000000
_cell_angle_beta 29.767755
_cell_angle_gamma 90.000000
_cell_volume 1206.844268
_symmetry_space_group_name_H-M "P 2/M"
_symmetry_group_IT_number 10
_symmetry_cell_setting 'monoclinic'
loop_
_space_group_symop_operation_xyz
x,y,z
-x,y,-z
-x,-y,-z
x,-y,z
loop_
_atom_site_type_symbol
_atom_site_label
_atom_site_fract_x
_atom_site_fract_y
_atom_site_fract_z
Si Si1 0.634465 0.116637 0.261786
Si Si2 0.634618 0.788895 0.765404
Si Si3 0.711975 0.796759 0.982696
Si Si4 0.292188 0.386989 0.936875
Si Si5 0.721395 0.883598 0.476997
O O1 0.502358 0.177297 0.251247
O O2 0.446718 0.146860 0.394892
O O3 0.984408 0.141873 0.144314
O O4 0.597583 0.000000 0.259964
O O5 0.573621 0.668322 0.795065
O O6 0.989504 0.811940 0.638153
O O7 0.456012 0.843451 0.891324
O O8 0.500000 0.808742 0.000000
O O9 0.784452 0.678246 0.969956
O O10 0.388659 0.500000 0.920248
O O11 0.000000 0.387439 0.000000
O O12 0.500000 0.861749 0.500000
O O13 0.825924 0.000000 0.439330
#
# Coordination Sequence:
#
# PCOD8062153 Si02
#       5
#     4   4   4   4   4
#     4  11  21  34  52  78 109 143 180 213 259 317
#     4  10  19  35  53  79 101 143 177 221 257 311
#     4  10  20  34  53  82 107 139 173 221 271 308
#     4   9  18  36  58  80 105 134 177 224 272 315
#     4  10  21  35  53  77 108 145 176 212 265 320
#
# _framework density 16.572147000000001
#
# number of rings (size 3 to 8) (size 9 to 14) (size 15 to 20)
#    1.200    0.800    2.000    3.000    0.000    4.800 
#    0.000    0.000    0.000    4.200    0.000    0.000 
#    0.000    0.000    0.000    0.000    0.000    0.000 
#
# Total GULP energy -247873.206748 kJ/mol
# GULP energy per Si atom -12393.660337 kJ/mol
# Density = 1.653443 g / cm^3
# Si number density = 16.572147 Si / 1000 Ang^3
#
#
#
# Elastic Constant Matrix: (Units=GPa)
#
#
# Indices 1 2 3 4 5 6 
#
# 1 84.8921 4.2410 23.8776 0.0000 -0.2574 0.0000
# 2 4.2410 32.1901 28.6758 0.0000 7.7001 0.0000
# 3 23.8776 28.6758 108.3260 0.0000 -4.8044 0.0000
# 4 0.0000 0.0000 0.0000 8.3124 0.0000 1.6149
# 5 -0.2574 7.7001 -4.8044 0.0000 28.3684 0.0000
# 6 0.0000 0.0000 0.0000 1.6149 0.0000 44.3364
#
#
#
# Elastic Compliance Matrix: (Units=1/GPa)
#
#
# Indices 1 2 3 4 5 6 
#
# 1 0.012602 0.001354 -0.003171 0.000000 -0.000790 0.000000
# 2 0.001354 0.046143 -0.013167 0.000000 -0.014742 0.000000
# 3 -0.003171 -0.013167 0.013676 0.000000 0.005861 0.000000
# 4 0.000000 0.000000 0.000000 0.121160 0.000000 -0.004413
# 5 -0.000790 -0.014742 0.005861 0.000000 0.040238 0.000000
# 6 0.000000 0.000000 0.000000 -0.004413 0.000000 0.022716
#
#
# Mechanical properties :
#
#
# Convention : Reuss Voigt Hill
#
# Bulk Modulus (GPa) = 23.55627 37.66634 30.61130
# Shear Modulus (GPa) = 16.63045 27.44434 22.03740
#
# Velocity S-wave (km/s) = 3.17127 4.07388 3.65058
# Velocity P-wave (km/s) = 5.25876 6.70124 6.02334
#
# Compressibility (1/GPa) = 0.04245155
#
# Stress axis : x y z
#
# Youngs Moduli (GPa) = 79.35526 21.67166 73.12130
#
# Poissons Ratio (x) = -0.02934 0.23187
# Poissons Ratio (y) = -0.10742 0.96280
# Poissons Ratio (z) = 0.25164 0.28535
#
# Static dielectric constant tensor:
#      x y z
#    x 3.302550 0.000000 -0.283610 
#    y 0.000000 3.081890 0.000000 
#    z -0.283610 0.000000 3.665880 
# 
# 
# High freq. dielectric constant tensor:
#      x y z
#    x 1.652480 0.000000 -0.000870 
#    y 0.000000 1.615650 0.000000 
#    z -0.000870 0.000000 1.635400 
# 
# From -- ./inp_files/18679.got.cif
#   From: 2010.06.25/outbox.cif.g09.slc.cpg/sg10_10_cif.got.tgz:18679.got - 2010.06.27 22:07:45.
