data_PCOD8062414
_publ_section_title
;
Structure prediction by ZEFSAII (Michael W. Deem and Ramdas Pophale) SiO2 
 PCOD8062414
Probable space group: P 2/M
;
_chemical_formula_sum "Si O2"
_cell_formula_units_Z 28
_cell_length_a 25.597698
_cell_length_b 9.130604
_cell_length_c 9.964302
_cell_angle_alpha 90.000000
_cell_angle_beta 39.898809
_cell_angle_gamma 90.000000
_cell_volume 1493.822729
_symmetry_space_group_name_H-M "P 2/M"
_symmetry_group_IT_number 10
_symmetry_cell_setting 'monoclinic'
loop_
_space_group_symop_operation_xyz
x,y,z
-x,y,-z
-x,-y,-z
x,-y,z
loop_
_atom_site_type_symbol
_atom_site_label
_atom_site_fract_x
_atom_site_fract_y
_atom_site_fract_z
Si Si1 0.347345 0.831759 0.072756
Si Si2 0.069463 0.674212 0.764575
Si Si3 0.226182 0.164730 0.073829
Si Si4 0.248514 0.326208 0.492220
Si Si5 0.688052 0.169469 0.373878
Si Si6 0.514851 0.172971 0.618523
Si Si7 0.932106 0.673559 0.533407
O O1 0.301701 0.806210 0.022740
O O2 0.312075 0.728752 0.256778
O O3 0.340124 0.000000 0.134256
O O4 0.441082 0.787075 0.863691
O O5 0.068170 0.500000 0.771468
O O6 0.158051 0.731851 0.634926
O O7 0.050911 0.731376 0.650729
O O8 0.000000 0.738711 0.000000
O O9 0.155901 0.278406 0.244102
O O10 0.192899 0.000000 0.158808
O O11 0.255351 0.190495 0.866120
O O12 0.251084 0.500000 0.490082
O O13 0.272179 0.265595 0.589453
O O14 0.598105 0.232836 0.519589
O O15 0.683951 0.000000 0.426672
O O16 0.500000 0.242418 0.500000
O O17 0.523659 0.000000 0.582845
O O18 0.933794 0.500000 0.532283
O O19 0.000000 0.738819 0.500000
#
# Coordination Sequence:
#
# PCOD8062414 Si02
#       7
#     4   4   4   4   4   4   4
#     4  10  19  35  61  85 109 146 187 230 278 330
#     4   9  19  36  55  77 106 142 184 227 269 318
#     4  10  20  35  58  85 115 145 178 232 288 329
#     4  11  23  38  57  81 114 152 185 226 277 334
#     4  10  21  37  58  85 114 145 187 234 275 326
#     4   9  16  32  59  86 109 141 190 235 272 322
#     4  10  21  36  58  84 109 143 189 232 269 327
#
# _framework density 18.743856999999998
#
# number of rings (size 3 to 8) (size 9 to 14) (size 15 to 20)
#    0.000    2.143    2.857    0.429    2.000    1.429 
#    0.000    3.571    0.000    3.000    0.000    0.000 
#    0.000    0.000    0.000    0.000    0.000    0.000 
#
# Total GULP energy -347231.728801 kJ/mol
# GULP energy per Si atom -12401.133171 kJ/mol
# Density = 1.870120 g / cm^3
# Si number density = 18.743857 Si / 1000 Ang^3
#
#
#
# Elastic Constant Matrix: (Units=GPa)
#
#
# Indices 1 2 3 4 5 6 
#
# 1 135.5336 28.8466 69.0883 0.0000 6.7109 0.0000
# 2 28.8466 34.0687 29.3263 0.0000 5.6494 0.0000
# 3 69.0883 29.3263 120.6420 0.0000 -0.5708 0.0000
# 4 0.0000 0.0000 0.0000 31.4108 0.0000 -4.7358
# 5 6.7109 5.6494 -0.5708 0.0000 34.6820 0.0000
# 6 0.0000 0.0000 0.0000 -4.7358 0.0000 27.2784
#
#
#
# Elastic Compliance Matrix: (Units=1/GPa)
#
#
# Indices 1 2 3 4 5 6 
#
# 1 0.011113 -0.004654 -0.005240 0.000000 -0.001478 0.000000
# 2 -0.004654 0.040449 -0.007195 0.000000 -0.005807 0.000000
# 3 -0.005240 -0.007195 0.013050 0.000000 0.002401 0.000000
# 4 0.000000 0.000000 0.000000 0.032692 0.000000 0.005676
# 5 -0.001478 -0.005807 0.002401 0.000000 0.030105 0.000000
# 6 0.000000 0.000000 0.000000 0.005676 0.000000 0.037644
#
#
# Mechanical properties :
#
#
# Convention : Reuss Voigt Hill
#
# Bulk Modulus (GPa) = 32.85697 60.52963 46.69330
# Shear Modulus (GPa) = 23.88053 29.53979 26.71016
#
# Velocity S-wave (km/s) = 3.57325 3.97416 3.77902
# Velocity P-wave (km/s) = 5.88147 7.30902 6.63375
#
# Compressibility (1/GPa) = 0.03043494
#
# Stress axis : x y z
#
# Youngs Moduli (GPa) = 89.98505 24.72231 76.62846
#
# Poissons Ratio (x) = 0.11506 0.40151
# Poissons Ratio (y) = 0.41879 0.55133
# Poissons Ratio (z) = 0.47150 0.17787
#
# Static dielectric constant tensor:
#      x y z
#    x 3.681780 0.000000 -0.061860 
#    y 0.000000 3.089530 0.000000 
#    z -0.061860 0.000000 3.813240 
# 
# 
# High freq. dielectric constant tensor:
#      x y z
#    x 1.738880 0.000000 0.000280 
#    y 0.000000 1.688930 0.000000 
#    z 0.000280 0.000000 1.740360 
# 
# From -- ./inp_files/36930.got.cif
#   From: 2010.06.25/outbox.cif.g09.slc.cpg/sg10_19_cif.got.tgz:36930.got - 2010.06.27 22:07:45.
