data_PCOD8062223
_publ_section_title
;
Structure prediction by ZEFSAII (Michael W. Deem and Ramdas Pophale) SiO2 
 PCOD8062223
Probable space group: P 2/M
;
_chemical_formula_sum "Si O2"
_cell_formula_units_Z 24
_cell_length_a 14.047168
_cell_length_b 8.735745
_cell_length_c 10.236628
_cell_angle_alpha 90.000000
_cell_angle_beta 90.202635
_cell_angle_gamma 90.000000
_cell_volume 1256.154128
_symmetry_space_group_name_H-M "P 2/M"
_symmetry_group_IT_number 10
_symmetry_cell_setting 'monoclinic'
loop_
_space_group_symop_operation_xyz
x,y,z
-x,y,-z
-x,-y,-z
x,-y,z
loop_
_atom_site_type_symbol
_atom_site_label
_atom_site_fract_x
_atom_site_fract_y
_atom_site_fract_z
Si Si1 0.930085 0.328345 0.878993
Si Si2 0.552239 0.817994 0.370210
Si Si3 0.247069 0.177994 0.003926
Si Si4 0.047494 0.682055 0.632753
Si Si5 0.253748 0.681206 0.719182
Si Si6 0.557525 0.819470 0.879595
O O1 0.891146 0.500000 0.850596
O O2 0.984495 0.259366 0.754032
O O3 0.845660 0.214115 0.912941
O O4 0.000000 0.334863 0.000000
O O5 0.500000 0.759596 0.500000
O O6 0.658585 0.752247 0.359964
O O7 0.486391 0.752020 0.253400
O O8 0.560721 0.000000 0.368177
O O9 0.253714 0.271799 0.870501
O O10 0.251289 0.000000 0.966278
O O11 0.332623 0.224594 0.101411
O O12 0.047420 0.500000 0.632479
O O13 0.156107 0.740305 0.650250
O O14 0.000000 0.747519 0.500000
O O15 0.260812 0.500000 0.712392
O O16 0.542710 0.000000 0.876370
O O17 0.500000 0.747403 0.000000
#
# Coordination Sequence:
#
# PCOD8062223 Si02
#       6
#     4   4   4   4   4   4
#     4  10  19  35  56  81 111 143 182 227 274 324
#     4  10  21  38  59  82 111 149 185 221 275 336
#     4  11  21  34  57  84 111 145 188 229 273 324
#     4   9  19  36  57  79 109 150 184 217 273 338
#     4  11  21  36  58  83 111 143 185 231 278 325
#     4   9  17  33  55  78 107 143 182 221 266 324
#
# _framework density 19.105934999999999
#
# number of rings (size 3 to 8) (size 9 to 14) (size 15 to 20)
#    0.000    2.000    3.333    1.000    0.000    2.000 
#    0.000    2.500    0.000    3.500    0.000    0.000 
#    0.000    0.000    0.000    0.000    0.000    0.000 
#
# Total GULP energy -297568.994116 kJ/mol
# GULP energy per Si atom -12398.708088 kJ/mol
# Density = 1.906245 g / cm^3
# Si number density = 19.105935 Si / 1000 Ang^3
#
#
#
# Elastic Constant Matrix: (Units=GPa)
#
#
# Indices 1 2 3 4 5 6 
#
# 1 161.5388 27.8227 81.5629 0.0000 -8.8081 0.0000
# 2 27.8227 28.6085 19.0842 0.0000 -0.5793 0.0000
# 3 81.5629 19.0842 162.2223 0.0000 -6.2489 0.0000
# 4 0.0000 0.0000 0.0000 21.7633 0.0000 0.6588
# 5 -8.8081 -0.5793 -6.2489 0.0000 36.8632 0.0000
# 6 0.0000 0.0000 0.0000 0.6588 0.0000 38.9258
#
#
#
# Elastic Compliance Matrix: (Units=1/GPa)
#
#
# Indices 1 2 3 4 5 6 
#
# 1 0.009344 -0.006469 -0.003880 0.000000 0.001473 0.000000
# 2 -0.006469 0.042411 -0.001782 0.000000 -0.001181 0.000000
# 3 -0.003880 -0.001782 0.008343 0.000000 0.000459 0.000000
# 4 0.000000 0.000000 0.000000 0.045972 0.000000 -0.000778
# 5 0.001473 -0.001181 0.000459 0.000000 0.027539 0.000000
# 6 0.000000 0.000000 0.000000 -0.000778 0.000000 0.025703
#
#
# Mechanical properties :
#
#
# Convention : Reuss Voigt Hill
#
# Bulk Modulus (GPa) = 27.90603 67.70102 47.80352
# Shear Modulus (GPa) = 25.57274 34.43712 30.00493
#
# Velocity S-wave (km/s) = 3.66248 4.25011 3.96719
# Velocity P-wave (km/s) = 5.70287 7.71985 6.78670
#
# Compressibility (1/GPa) = 0.03583455
#
# Stress axis : x y z
#
# Youngs Moduli (GPa) = 107.01754 23.57867 119.86525
#
# Poissons Ratio (x) = 0.15254 0.46512
# Poissons Ratio (y) = 0.69232 0.21362
# Poissons Ratio (z) = 0.41526 0.04202
#
# Static dielectric constant tensor:
#      x y z
#    x 3.551800 0.000000 0.084930 
#    y 0.000000 3.165080 0.000000 
#    z 0.084930 0.000000 3.697170 
# 
# 
# High freq. dielectric constant tensor:
#      x y z
#    x 1.757900 0.000000 0.000280 
#    y 0.000000 1.707910 0.000000 
#    z 0.000280 0.000000 1.744970 
# 
# From -- ./inp_files/27233.got.cif
#   From: 2010.06.25/outbox.cif.g09.slc.cpg/sg10_14_cif.got.tgz:27233.got - 2010.06.27 22:07:45.
