data_PCOD8062450
_publ_section_title
;
Structure prediction by ZEFSAII (Michael W. Deem and Ramdas Pophale) SiO2 
 PCOD8062450
Probable space group: P 2/M
;
_chemical_formula_sum "Si O2"
_cell_formula_units_Z 22
_cell_length_a 8.543988
_cell_length_b 14.378406
_cell_length_c 8.526604
_cell_angle_alpha 90.000000
_cell_angle_beta 83.112956
_cell_angle_gamma 90.000000
_cell_volume 1039.926023
_symmetry_space_group_name_H-M "P 2/M"
_symmetry_group_IT_number 10
_symmetry_cell_setting 'monoclinic'
loop_
_space_group_symop_operation_xyz
x,y,z
-x,y,-z
-x,-y,-z
x,-y,z
loop_
_atom_site_type_symbol
_atom_site_label
_atom_site_fract_x
_atom_site_fract_y
_atom_site_fract_z
Si Si1 0.000000 0.699103 0.000000
Si Si2 0.680968 0.396777 0.485426
Si Si3 0.215955 0.234630 0.713653
Si Si4 0.674916 0.104461 0.549115
Si Si5 0.455724 0.215618 0.165215
Si Si6 0.267758 0.395245 0.162459
O O1 0.090209 0.769198 0.869622
O O2 0.888514 0.631657 0.913788
O O3 0.500000 0.357966 0.500000
O O4 0.680596 0.500000 0.413295
O O5 0.797251 0.334978 0.367074
O O6 0.757111 0.395055 0.647943
O O7 0.199697 0.152721 0.585534
O O8 0.390852 0.227890 0.753387
O O9 0.500000 0.102467 0.500000
O O10 0.674003 0.161041 0.714476
O O11 0.734864 0.000000 0.573582
O O12 0.396217 0.316334 0.111998
O O13 0.500000 0.159261 0.000000
O O14 0.321222 0.500000 0.104329
#
# Coordination Sequence:
#
# PCOD8062450 Si02
#       6
#     2   4   4   4   4   4
#     4  12  27  40  55  86 130 178 201 248 303 364
#     4  10  19  35  63  90 113 155 213 262 300 354
#     4  11  21  39  62  88 126 162 204 251 306 369
#     4   9  19  38  67  96 119 149 197 261 320 365
#     4  11  20  38  65  93 122 158 203 256 305 359
#     4  11  23  40  59  89 126 165 210 251 298 356
#
# _framework density 21.155352000000001
#
# number of rings (size 3 to 8) (size 9 to 14) (size 15 to 20)
#    0.000    1.455    5.455    0.818    0.000    2.909 
#    0.000    2.273    0.000    2.182    0.000    0.000 
#    0.000    0.000    0.000    0.000    0.000    0.000 
#
# Total GULP energy -272610.919525 kJ/mol
# GULP energy per Si atom -12391.405433 kJ/mol
# Density = 2.110720 g / cm^3
# Si number density = 21.155352 Si / 1000 Ang^3
#
#
#
# Elastic Constant Matrix: (Units=GPa)
#
#
# Indices 1 2 3 4 5 6 
#
# 1 50.5650 36.1745 47.0028 0.0000 -11.7993 0.0000
# 2 36.1745 144.4734 70.7426 0.0000 -24.8084 0.0000
# 3 47.0028 70.7426 145.4738 0.0000 -19.5187 0.0000
# 4 0.0000 0.0000 0.0000 15.0392 0.0000 -1.4201
# 5 -11.7993 -24.8084 -19.5187 0.0000 40.5418 0.0000
# 6 0.0000 0.0000 0.0000 -1.4201 0.0000 13.7785
#
#
#
# Elastic Compliance Matrix: (Units=1/GPa)
#
#
# Indices 1 2 3 4 5 6 
#
# 1 0.029943 -0.003199 -0.007710 0.000000 0.003045 0.000000
# 2 -0.003199 0.009968 -0.003336 0.000000 0.003563 0.000000
# 3 -0.007710 -0.003336 0.011132 0.000000 0.001074 0.000000
# 4 0.000000 0.000000 0.000000 0.067146 0.000000 0.006920
# 5 0.003045 0.003563 0.001074 0.000000 0.028249 0.000000
# 6 0.000000 0.000000 0.000000 0.006920 0.000000 0.073290
#
#
# Mechanical properties :
#
#
# Convention : Reuss Voigt Hill
#
# Bulk Modulus (GPa) = 44.34186 72.03911 58.19049
# Shear Modulus (GPa) = 19.55147 26.31138 22.93143
#
# Velocity S-wave (km/s) = 3.04334 3.53047 3.29592
# Velocity P-wave (km/s) = 5.77536 7.12357 6.48460
#
# Compressibility (1/GPa) = 0.02255206
#
# Stress axis : x y z
#
# Youngs Moduli (GPa) = 33.39693 100.32354 89.83507
#
# Poissons Ratio (x) = 0.32094 0.69266
# Poissons Ratio (y) = 0.10684 0.29966
# Poissons Ratio (z) = 0.25750 0.33464
#
# Static dielectric constant tensor:
#      x y z
#    x 3.401750 0.000000 0.030220 
#    y 0.000000 4.012090 0.000000 
#    z 0.030220 0.000000 4.273670 
# 
# 
# High freq. dielectric constant tensor:
#      x y z
#    x 1.790840 0.000000 0.004400 
#    y 0.000000 1.814390 0.000000 
#    z 0.004400 0.000000 1.846570 
# 
# From -- ./inp_files/18830.got.cif
#   From: 2010.06.25/outbox.cif.g09.slc.cpg/sg10_10_cif.got.tgz:18830.got - 2010.06.27 22:07:45.
