data_PCOD8062313
_publ_section_title
;
Structure prediction by ZEFSAII (Michael W. Deem and Ramdas Pophale) SiO2 
 PCOD8062313
Probable space group: P 2/M
;
_chemical_formula_sum "Si O2"
_cell_formula_units_Z 32
_cell_length_a 18.497523
_cell_length_b 12.860367
_cell_length_c 9.002807
_cell_angle_alpha 90.000000
_cell_angle_beta 130.798333
_cell_angle_gamma 90.000000
_cell_volume 1621.245664
_symmetry_space_group_name_H-M "P 2/M"
_symmetry_group_IT_number 10
_symmetry_cell_setting 'monoclinic'
loop_
_space_group_symop_operation_xyz
x,y,z
-x,y,-z
-x,-y,-z
x,-y,z
loop_
_atom_site_type_symbol
_atom_site_label
_atom_site_fract_x
_atom_site_fract_y
_atom_site_fract_z
Si Si1 0.429043 0.621516 0.607814
Si Si2 0.311238 0.309292 0.701006
Si Si3 0.261510 0.703679 0.202158
Si Si4 0.862714 0.618434 0.707340
Si Si5 0.642530 0.615583 0.929025
Si Si6 0.202884 0.884165 0.606578
Si Si7 0.978396 0.812066 0.804412
Si Si8 0.832065 0.122544 0.095519
O O1 0.404607 0.500000 0.541154
O O2 0.407596 0.651365 0.750425
O O3 0.360121 0.699636 0.426214
O O4 0.539282 0.646017 0.720055
O O5 0.222783 0.380469 0.527572
O O6 0.281932 0.189177 0.634726
O O7 0.328673 0.311446 0.898650
O O8 0.173084 0.666989 0.184015
O O9 0.275715 0.623625 0.085289
O O10 0.246315 0.818811 0.112895
O O11 0.897539 0.500000 0.775318
O O12 0.951227 0.688887 0.771755
O O13 0.635875 0.500000 0.984008
O O14 0.107527 0.878068 0.380454
O O15 0.182134 0.853018 0.749718
O O16 0.244109 0.000000 0.654725
O O17 0.066728 0.829020 0.813983
O O18 0.000000 0.853252 0.000000
O O19 0.826531 0.000000 0.054114
#
# Coordination Sequence:
#
# PCOD8062313 Si02
#       8
#     4   4   4   4   4   4   4   4
#     4  10  21  36  55  85 122 151 181 228 285 330
#     4  10  19  35  58  84 116 147 192 228 276 334
#     4  11  20  37  55  84 112 151 190 232 274 333
#     4  10  21  38  56  80 123 158 179 221 283 337
#     4  11  20  33  59  87 113 149 191 230 272 335
#     4  10  22  40  62  82 113 150 184 236 291 328
#     4  11  22  39  59  91 112 142 190 231 275 333
#     4  11  23  41  60  81 111 148 189 239 288 328
#
# _framework density 19.737908999999998
#
# number of rings (size 3 to 8) (size 9 to 14) (size 15 to 20)
#    0.000    1.500    2.500    4.500    0.000    4.250 
#    0.000    0.000    0.000    6.000    0.000    0.000 
#    0.000    0.000    0.000    0.000    0.000    0.000 
#
# Total GULP energy -396670.831302 kJ/mol
# GULP energy per Si atom -12395.963478 kJ/mol
# Density = 1.969298 g / cm^3
# Si number density = 19.737909 Si / 1000 Ang^3
#
#
#
# Elastic Constant Matrix: (Units=GPa)
#
#
# Indices 1 2 3 4 5 6 
#
# 1 63.9377 44.8801 4.1849 0.0000 6.6005 0.0000
# 2 44.8801 116.5772 40.3083 0.0000 3.3652 0.0000
# 3 4.1849 40.3083 84.6958 0.0000 -0.6630 0.0000
# 4 0.0000 0.0000 0.0000 27.5206 0.0000 -5.0561
# 5 6.6005 3.3652 -0.6630 0.0000 22.9872 0.0000
# 6 0.0000 0.0000 0.0000 -5.0561 0.0000 25.1768
#
#
#
# Elastic Compliance Matrix: (Units=1/GPa)
#
#
# Indices 1 2 3 4 5 6 
#
# 1 0.022860 -0.009877 0.003532 0.000000 -0.005016 0.000000
# 2 -0.009877 0.014598 -0.006455 0.000000 0.000513 0.000000
# 3 0.003532 -0.006455 0.014707 0.000000 0.000355 0.000000
# 4 0.000000 0.000000 0.000000 0.037728 0.000000 0.007577
# 5 -0.005016 0.000513 0.000355 0.000000 0.044878 0.000000
# 6 0.000000 0.000000 0.000000 0.007577 0.000000 0.041241
#
#
# Mechanical properties :
#
#
# Convention : Reuss Voigt Hill
#
# Bulk Modulus (GPa) = 37.64471 49.32858 43.48664
# Shear Modulus (GPa) = 23.75661 26.85941 25.30801
#
# Velocity S-wave (km/s) = 3.47306 3.69291 3.58467
# Velocity P-wave (km/s) = 5.93267 6.57491 6.26203
#
# Compressibility (1/GPa) = 0.02656416
#
# Stress axis : x y z
#
# Youngs Moduli (GPa) = 43.74463 68.50388 67.99290
#
# Poissons Ratio (x) = 0.67662 -0.24014
# Poissons Ratio (y) = 0.43207 0.43891
# Poissons Ratio (z) = -0.15450 0.44221
#
# Static dielectric constant tensor:
#      x y z
#    x 3.664590 0.000000 -0.129760 
#    y 0.000000 3.493610 0.000000 
#    z -0.129760 0.000000 3.670560 
# 
# 
# High freq. dielectric constant tensor:
#      x y z
#    x 1.763960 0.000000 -0.012980 
#    y 0.000000 1.755250 0.000000 
#    z -0.012980 0.000000 1.778120 
# 
# From -- ./inp_files/34836.got.cif
#   From: 2010.06.25/outbox.cif.g09.slc.cpg/sg10_18_cif.got.tgz:34836.got - 2010.06.27 22:07:45.
