data_PCOD8062867
_publ_section_title
;
Structure prediction by ZEFSAII (Michael W. Deem and Ramdas Pophale) SiO2 
 PCOD8062867
Probable space group: P 2/M
;
_chemical_formula_sum "Si O2"
_cell_formula_units_Z 32
_cell_length_a 26.474286
_cell_length_b 16.368141
_cell_length_c 26.154078
_cell_angle_alpha 90.000000
_cell_angle_beta 11.273936
_cell_angle_gamma 90.000000
_cell_volume 2215.694494
_symmetry_space_group_name_H-M "P 2/M"
_symmetry_group_IT_number 10
_symmetry_cell_setting 'monoclinic'
loop_
_space_group_symop_operation_xyz
x,y,z
-x,y,-z
-x,-y,-z
x,-y,z
loop_
_atom_site_type_symbol
_atom_site_label
_atom_site_fract_x
_atom_site_fract_y
_atom_site_fract_z
Si Si1 0.255490 0.097409 0.274031
Si Si2 0.272409 0.097556 0.372790
Si Si3 0.782640 0.903081 0.920613
Si Si4 0.753215 0.091406 0.269573
Si Si5 0.489918 0.688808 0.449218
Si Si6 0.374618 0.851118 0.500200
Si Si7 0.119350 0.903701 0.061919
Si Si8 0.991021 0.590414 0.948707
O O1 0.266442 0.131081 0.320863
O O2 0.000000 0.131055 0.500000
O O3 0.255484 0.000000 0.274397
O O4 0.500000 0.131065 0.000000
O O5 0.524562 0.132484 0.150955
O O6 0.273852 0.000000 0.371260
O O7 0.025283 0.131954 0.648305
O O8 0.794256 0.874823 0.967716
O O9 0.781079 0.000000 0.918855
O O10 0.500000 0.138194 0.500000
O O11 0.747238 0.087838 0.336480
O O12 0.756270 0.000000 0.243428
O O13 0.000000 0.138550 0.000000
O O14 0.500000 0.708876 0.500000
O O15 0.428271 0.766906 0.475711
O O16 0.757686 0.649935 0.163825
O O17 0.263453 0.625866 0.659847
O O18 0.643360 0.884709 0.211507
O O19 0.140912 0.850933 0.691184
O O20 0.053189 0.000000 0.126056
O O21 0.951737 0.500000 0.963543
O O22 0.000000 0.582117 0.000000
#
# Coordination Sequence:
#
# PCOD8062867 Si02
#       8
#     4   4   4   4   4   4   4   4
#     4   9  15  21  30  47  69  89 107 130 171 231
#     4   9  15  24  37  50  66  87 112 147 187 227
#     4   9  17  28  40  52  64  85 122 162 195 225
#     4  10  20  32  44  56  71  94 123 151 182 226
#     4  10  20  32  47  67  87 105 123 146 182 229
#     4  12  22  33  46  61  81 101 124 160 201 235
#     4  11  22  34  46  58  74 100 136 174 207 237
#     4   9  17  31  50  69  87 105 123 141 165 210
#
# _framework density 14.442424000000001
#
# number of rings (size 3 to 8) (size 9 to 14) (size 15 to 20)
#    0.000    2.125    0.000    4.875    0.000    9.000 
#    0.000    0.000    0.000    0.000    0.000    0.000 
#    0.000    0.000    0.000    0.000    0.000    0.000 
#
# Total GULP energy -396620.166050 kJ/mol
# GULP energy per Si atom -12394.380189 kJ/mol
# Density = 1.440955 g / cm^3
# Si number density = 14.442424 Si / 1000 Ang^3
#
#
#
# Elastic Constant Matrix: (Units=GPa)
#
#
# Indices 1 2 3 4 5 6 
#
# 1 89.1928 22.0810 42.5485 0.0000 -7.3438 0.0000
# 2 22.0810 42.3088 21.0500 0.0000 -5.6489 0.0000
# 3 42.5485 21.0500 125.6008 0.0000 -9.7446 0.0000
# 4 0.0000 0.0000 0.0000 1.9651 0.0000 -4.9377
# 5 -7.3438 -5.6489 -9.7446 0.0000 30.5996 0.0000
# 6 0.0000 0.0000 0.0000 -4.9377 0.0000 3.8736
#
#
#
# Elastic Compliance Matrix: (Units=1/GPa)
#
#
# Indices 1 2 3 4 5 6 
#
# 1 0.014534 -0.005475 -0.003910 0.000000 0.001232 0.000000
# 2 -0.005475 0.028213 -0.002637 0.000000 0.003055 0.000000
# 3 -0.003910 -0.002637 0.009861 0.000000 0.001715 0.000000
# 4 0.000000 0.000000 0.000000 -0.230992 0.000000 -0.294450
# 5 0.001232 0.003055 0.001715 0.000000 0.034086 0.000000
# 6 0.000000 0.000000 0.000000 -0.294450 0.000000 -0.117184
#
#
# Mechanical properties :
#
#
# Convention : Reuss Voigt Hill
#
# Bulk Modulus (GPa) = 35.00914 47.60681 41.30797
# Shear Modulus (GPa) = -21.93793 18.71586 -1.61104
#
# Velocity S-wave (km/s) = -3.90165 3.60376 -1.05731
# Velocity P-wave (km/s) = 1.99898 7.09583 5.21281
#
# Compressibility (1/GPa) = 0.02856397
#
# Stress axis : x y z
#
# Youngs Moduli (GPa) = 68.80434 35.44477 101.40624
#
# Poissons Ratio (x) = 0.19407 0.39653
# Poissons Ratio (y) = 0.37672 0.26736
# Poissons Ratio (z) = 0.26905 0.09345
#
# Static dielectric constant tensor:
#      x y z
#    x 2.847530 0.000000 -0.127230 
#    y 0.000000 2.402320 0.000000 
#    z -0.127230 0.000000 3.485780 
# 
# 
# High freq. dielectric constant tensor:
#      x y z
#    x 1.536460 0.000000 -0.007760 
#    y 0.000000 1.482610 0.000000 
#    z -0.007760 0.000000 1.581300 
# 
# From -- ./inp_files/13300.got.cif
#   From: 2010.06.25/outbox.cif.g09.slc.cpg/sg10_7_cif.got.tgz:13300.got - 2010.06.27 22:07:45.
