data_PCOD8062432
_publ_section_title
;
Structure prediction by ZEFSAII (Michael W. Deem and Ramdas Pophale) SiO2 
 PCOD8062432
Probable space group: P 2/M
;
_chemical_formula_sum "Si O2"
_cell_formula_units_Z 20
_cell_length_a 13.544513
_cell_length_b 12.030185
_cell_length_c 10.488732
_cell_angle_alpha 90.000000
_cell_angle_beta 149.525363
_cell_angle_gamma 90.000000
_cell_volume 866.764321
_symmetry_space_group_name_H-M "P 2/M"
_symmetry_group_IT_number 10
_symmetry_cell_setting 'monoclinic'
loop_
_space_group_symop_operation_xyz
x,y,z
-x,y,-z
-x,-y,-z
x,-y,z
loop_
_atom_site_type_symbol
_atom_site_label
_atom_site_fract_x
_atom_site_fract_y
_atom_site_fract_z
Si Si1 0.013576 0.694685 0.869638
Si Si2 0.888408 0.500000 0.560249
Si Si3 0.383138 0.281830 0.125182
Si Si4 0.319751 0.500000 0.926857
Si Si5 0.772580 0.118178 0.248049
Si Si6 0.725807 0.871182 0.487840
O O1 0.881272 0.610887 0.638652
O O2 0.933068 0.820168 0.760025
O O3 0.000000 0.656144 0.000000
O O4 0.241081 0.693481 0.085701
O O5 0.702713 0.500000 0.254047
O O6 0.096197 0.500000 0.722167
O O7 0.562586 0.206468 0.373860
O O8 0.440865 0.396511 0.119548
O O9 0.265598 0.217969 0.886670
O O10 0.689839 0.142138 0.296837
O O11 0.000000 0.102516 0.500000
O O12 0.680901 0.000000 0.098043
O O13 0.717118 0.000000 0.522142
#
# Coordination Sequence:
#
# PCOD8062432 Si02
#       6
#     4   2   4   2   4   4
#     4  11  24  42  63  87 122 168 214 256 299 352
#     4   9  19  39  66  93 122 158 201 253 311 372
#     4  11  22  39  62  92 129 160 198 257 307 368
#     4   9  20  35  64  98 125 156 195 246 320 381
#     4  10  19  35  61  89 121 157 192 246 315 372
#     4  11  24  40  63  94 123 161 208 251 310 371
#
# _framework density 23.074324000000001
#
# number of rings (size 3 to 8) (size 9 to 14) (size 15 to 20)
#    0.000    1.600    2.000    2.700    2.800    4.400 
#    0.000    4.000    0.000    4.800    0.000    0.000 
#    0.000    0.000    0.000    0.000    0.000    0.000 
#
# Total GULP energy -247955.337148 kJ/mol
# GULP energy per Si atom -12397.766857 kJ/mol
# Density = 2.302181 g / cm^3
# Si number density = 23.074324 Si / 1000 Ang^3
#
#
#
# Elastic Constant Matrix: (Units=GPa)
#
#
# Indices 1 2 3 4 5 6 
#
# 1 114.2881 41.8824 12.8532 0.0000 -4.2079 0.0000
# 2 41.8824 164.7433 28.1677 0.0000 -3.2490 0.0000
# 3 12.8532 28.1677 29.9313 0.0000 -2.6711 0.0000
# 4 0.0000 0.0000 0.0000 26.5881 0.0000 7.6478
# 5 -4.2079 -3.2490 -2.6711 0.0000 27.6564 0.0000
# 6 0.0000 0.0000 0.0000 7.6478 0.0000 24.0347
#
#
#
# Elastic Compliance Matrix: (Units=1/GPa)
#
#
# Indices 1 2 3 4 5 6 
#
# 1 0.009800 -0.002106 -0.002134 0.000000 0.001038 0.000000
# 2 -0.002106 0.007688 -0.006333 0.000000 -0.000029 0.000000
# 3 -0.002134 -0.006333 0.040540 0.000000 0.002847 0.000000
# 4 0.000000 0.000000 0.000000 0.041400 0.000000 -0.013173
# 5 0.001038 -0.000029 0.002847 0.000000 0.036587 0.000000
# 6 0.000000 0.000000 0.000000 -0.013173 0.000000 0.045798
#
#
# Mechanical properties :
#
#
# Convention : Reuss Voigt Hill
#
# Bulk Modulus (GPa) = 27.11348 52.75215 39.93281
# Shear Modulus (GPa) = 23.22855 30.72647 26.97751
#
# Velocity S-wave (km/s) = 3.17627 3.65311 3.42300
# Velocity P-wave (km/s) = 5.02271 6.38005 5.74163
#
# Compressibility (1/GPa) = 0.03688202
#
# Stress axis : x y z
#
# Youngs Moduli (GPa) = 102.04313 130.07776 24.66709
#
# Poissons Ratio (x) = 0.27396 0.05263
# Poissons Ratio (y) = 0.21491 0.15621
# Poissons Ratio (z) = 0.21772 0.82377
#
# Static dielectric constant tensor:
#      x y z
#    x 4.141010 0.000000 0.248860 
#    y 0.000000 4.680860 0.000000 
#    z 0.248860 0.000000 3.817970 
# 
# 
# High freq. dielectric constant tensor:
#      x y z
#    x 1.902480 0.000000 0.026510 
#    y 0.000000 1.929380 0.000000 
#    z 0.026510 0.000000 1.892190 
# 
# From -- ./inp_files/51140.got.cif
#   From: 2010.06.25/outbox.cif.g09.slc.cpg/sg10_26_cif.got.tgz:51140.got - 2010.06.27 22:07:45.
