data_PCOD8062983
_publ_section_title
;
Structure prediction by ZEFSAII (Michael W. Deem and Ramdas Pophale) SiO2 
 PCOD8062983
Probable space group: P 2/M
;
_chemical_formula_sum "Si O2"
_cell_formula_units_Z 24
_cell_length_a 10.325524
_cell_length_b 11.344828
_cell_length_c 12.279353
_cell_angle_alpha 90.000000
_cell_angle_beta 50.087936
_cell_angle_gamma 90.000000
_cell_volume 1103.310859
_symmetry_space_group_name_H-M "P 2/M"
_symmetry_group_IT_number 10
_symmetry_cell_setting 'monoclinic'
loop_
_space_group_symop_operation_xyz
x,y,z
-x,y,-z
-x,-y,-z
x,-y,z
loop_
_atom_site_type_symbol
_atom_site_label
_atom_site_fract_x
_atom_site_fract_y
_atom_site_fract_z
Si Si1 0.980390 0.000000 0.828203
Si Si2 0.308359 0.362835 0.418813
Si Si3 0.874876 0.363107 0.978129
Si Si4 0.592458 0.205027 0.348859
Si Si5 0.079022 0.755315 0.701593
Si Si6 0.517252 0.637931 0.110081
Si Si7 0.274665 0.000000 0.846469
O O1 0.998420 0.113773 0.740241
O O2 0.128576 0.000000 0.835582
O O3 0.801557 0.000000 0.989985
O O4 0.278920 0.500000 0.461441
O O5 0.478809 0.319143 0.384506
O O6 0.146124 0.287397 0.546833
O O7 0.343357 0.341383 0.270975
O O8 0.875508 0.500000 0.001462
O O9 0.938991 0.335356 0.821441
O O10 0.682420 0.312149 0.087318
O O11 0.000000 0.300712 0.000000
O O12 0.500000 0.137535 0.500000
O O13 0.772438 0.253336 0.289805
O O14 0.609949 0.115469 0.237123
O O15 0.553797 0.500000 0.074986
O O16 0.500000 0.697404 0.000000
#
# Coordination Sequence:
#
# PCOD8062983 Si02
#       7
#     2   4   4   4   4   4   2
#     4   9  20  30  46  70 103 146 189 230 269 315
#     4  10  20  33  51  76 106 141 178 222 278 337
#     4  10  20  32  53  84 115 143 178 224 277 333
#     4   9  18  29  47  75 109 145 179 222 274 331
#     4  10  20  32  49  73 110 143 183 224 273 319
#     4   9  19  36  55  77 109 146 183 223 270 331
#     4   9  17  30  46  68 104 146 186 227 272 317
#
# _framework density 21.75271
#
# number of rings (size 3 to 8) (size 9 to 14) (size 15 to 20)
#    0.000    2.500    0.000    1.750    7.000    7.000 
#    0.000    0.833    0.000    4.000    0.000    6.417 
#    0.000    0.000    0.000    0.000    0.000    0.000 
#
# Total GULP energy -297347.132446 kJ/mol
# GULP energy per Si atom -12389.463852 kJ/mol
# Density = 2.170320 g / cm^3
# Si number density = 21.752710 Si / 1000 Ang^3
#
#
#
# Elastic Constant Matrix: (Units=GPa)
#
#
# Indices 1 2 3 4 5 6 
#
# 1 34.1166 6.7830 24.6118 0.0000 5.3917 0.0000
# 2 6.7830 82.6738 62.1309 0.0000 -0.5501 0.0000
# 3 24.6118 62.1309 189.3148 0.0000 -10.0606 0.0000
# 4 0.0000 0.0000 0.0000 42.2134 0.0000 -6.4411
# 5 5.3917 -0.5501 -10.0606 0.0000 25.9642 0.0000
# 6 0.0000 0.0000 0.0000 -6.4411 0.0000 4.2368
#
#
#
# Elastic Compliance Matrix: (Units=1/GPa)
#
#
# Indices 1 2 3 4 5 6 
#
# 1 0.034381 0.001120 -0.005325 0.000000 -0.009179 0.000000
# 2 0.001120 0.016169 -0.005561 0.000000 -0.002045 0.000000
# 3 -0.005325 -0.005561 0.008017 0.000000 0.004094 0.000000
# 4 0.000000 0.000000 0.000000 0.030844 0.000000 0.046892
# 5 -0.009179 -0.002045 0.004094 0.000000 0.041964 0.000000
# 6 0.000000 0.000000 0.000000 0.046892 0.000000 0.307318
#
#
# Mechanical properties :
#
#
# Convention : Reuss Voigt Hill
#
# Bulk Modulus (GPa) = 25.61782 54.79517 40.20649
# Shear Modulus (GPa) = 10.61038 28.65484 19.63261
#
# Velocity S-wave (km/s) = 2.21095 3.63340 3.00748
# Velocity P-wave (km/s) = 4.28021 6.54575 5.53024
#
# Compressibility (1/GPa) = 0.03903533
#
# Stress axis : x y z
#
# Youngs Moduli (GPa) = 29.08615 61.84553 124.73389
#
# Poissons Ratio (x) = -0.06927 0.66421
# Poissons Ratio (y) = -0.03258 0.69363
# Poissons Ratio (z) = 0.15488 0.34391
#
# Static dielectric constant tensor:
#      x y z
#    x 3.527110 0.000000 -0.174810 
#    y 0.000000 3.729770 0.000000 
#    z -0.174810 0.000000 4.474530 
# 
# 
# High freq. dielectric constant tensor:
#      x y z
#    x 1.789210 0.000000 -0.021340 
#    y 0.000000 1.834360 0.000000 
#    z -0.021340 0.000000 1.882380 
# 
# From -- ./inp_files/46530.got.cif
#   From: 2010.06.25/outbox.cif.g09.slc.cpg/sg10_24_cif.got.tgz:46530.got - 2010.06.27 22:07:45.
