data_PCOD8062155
_publ_section_title
;
Structure prediction by ZEFSAII (Michael W. Deem and Ramdas Pophale) SiO2 
 PCOD8062155
Probable space group: P 2/M
;
_chemical_formula_sum "Si O2"
_cell_formula_units_Z 24
_cell_length_a 11.870127
_cell_length_b 9.005640
_cell_length_c 23.529029
_cell_angle_alpha 90.000000
_cell_angle_beta 32.578571
_cell_angle_gamma 90.000000
_cell_volume 1354.328142
_symmetry_space_group_name_H-M "P 2/M"
_symmetry_group_IT_number 10
_symmetry_cell_setting 'monoclinic'
loop_
_space_group_symop_operation_xyz
x,y,z
-x,y,-z
-x,-y,-z
x,-y,z
loop_
_atom_site_type_symbol
_atom_site_label
_atom_site_fract_x
_atom_site_fract_y
_atom_site_fract_z
Si Si1 0.481061 0.674153 0.642549
Si Si2 0.254263 0.165223 0.557594
Si Si3 0.234766 0.825723 0.386531
Si Si4 0.226209 0.167284 0.262004
Si Si5 0.124021 0.171472 0.738227
Si Si6 0.290773 0.327866 0.123083
O O1 0.456943 0.500000 0.660326
O O2 0.609530 0.710270 0.530904
O O3 0.596639 0.740021 0.647848
O O4 0.249598 0.745743 0.735041
O O5 0.258525 0.191025 0.623281
O O6 0.022473 0.179455 0.632189
O O7 0.342020 0.000000 0.505846
O O8 0.299000 0.789837 0.294317
O O9 0.000000 0.768886 0.500000
O O10 0.249050 0.000000 0.394091
O O11 0.326554 0.276415 0.172911
O O12 0.294942 0.000000 0.217094
O O13 0.895107 0.239905 0.828319
O O14 0.094963 0.000000 0.766426
O O15 0.231859 0.500000 0.148112
O O16 0.500000 0.293844 0.000000
#
# Coordination Sequence:
#
# PCOD8062155 Si02
#       6
#     4   4   4   4   4   4
#     4  12  23  31  46  75 110 144 176 215 263 312
#     4   9  17  32  50  71 101 140 180 216 256 305
#     4  10  19  35  54  72 104 148 187 217 250 302
#     4   9  18  33  55  79 103 139 183 221 254 300
#     4  10  21  36  54  74 100 138 181 220 259 310
#     4  10  21  37  58  83 110 135 162 213 279 325
#
# _framework density 17.720963999999999
#
# number of rings (size 3 to 8) (size 9 to 14) (size 15 to 20)
#    0.000    2.000    1.667    4.000    0.000    7.667 
#    0.000    0.000    0.000    1.000    0.000    7.000 
#    0.000    0.000    0.000    0.000    0.000    0.000 
#
# Total GULP energy -297616.518806 kJ/mol
# GULP energy per Si atom -12400.688284 kJ/mol
# Density = 1.768063 g / cm^3
# Si number density = 17.720964 Si / 1000 Ang^3
#
#
#
# Elastic Constant Matrix: (Units=GPa)
#
#
# Indices 1 2 3 4 5 6 
#
# 1 134.6060 74.8039 45.6125 0.0000 -11.9924 0.0000
# 2 74.8039 121.9219 53.5827 0.0000 -4.9925 0.0000
# 3 45.6125 53.5827 70.2354 0.0000 3.4571 0.0000
# 4 0.0000 0.0000 0.0000 25.2411 0.0000 0.2476
# 5 -11.9924 -4.9925 3.4571 0.0000 7.5798 0.0000
# 6 0.0000 0.0000 0.0000 0.2476 0.0000 23.4167
#
#
#
# Elastic Compliance Matrix: (Units=1/GPa)
#
#
# Indices 1 2 3 4 5 6 
#
# 1 0.014524 -0.005030 -0.006714 0.000000 0.022729 0.000000
# 2 -0.005030 0.015406 -0.008791 0.000000 0.006199 0.000000
# 3 -0.006714 -0.008791 0.026713 0.000000 -0.028596 0.000000
# 4 0.000000 0.000000 0.000000 0.039622 0.000000 -0.000419
# 5 0.022729 0.006199 -0.028596 0.000000 0.185014 0.000000
# 6 0.000000 0.000000 0.000000 -0.000419 0.000000 0.042709
#
#
# Mechanical properties :
#
#
# Convention : Reuss Voigt Hill
#
# Bulk Modulus (GPa) = 64.21807 74.97350 69.59579
# Shear Modulus (GPa) = 13.50443 21.43181 17.46812
#
# Velocity S-wave (km/s) = 2.76354 3.48142 3.14304
# Velocity P-wave (km/s) = 6.81909 7.65245 7.24776
#
# Compressibility (1/GPa) = 0.01557194
#
# Stress axis : x y z
#
# Youngs Moduli (GPa) = 68.84981 64.91158 37.43556
#
# Poissons Ratio (x) = 0.32650 0.25134
# Poissons Ratio (y) = 0.34631 0.32911
# Poissons Ratio (z) = 0.46225 0.57067
#
# Static dielectric constant tensor:
#      x y z
#    x 3.478180 0.000000 -0.014930 
#    y 0.000000 3.274020 0.000000 
#    z -0.014930 0.000000 2.979960 
# 
# 
# High freq. dielectric constant tensor:
#      x y z
#    x 1.695520 0.000000 -0.007700 
#    y 0.000000 1.685530 0.000000 
#    z -0.007700 0.000000 1.648520 
# 
# From -- ./inp_files/45182.got.cif
#   From: 2010.06.25/outbox.cif.g09.slc.cpg/sg10_23_cif.got.tgz:45182.got - 2010.06.27 22:07:45.
