data_PCOD8062396
_publ_section_title
;
Structure prediction by ZEFSAII (Michael W. Deem and Ramdas Pophale) SiO2 
 PCOD8062396
Probable space group: P 2/M
;
_chemical_formula_sum "Si O2"
_cell_formula_units_Z 32
_cell_length_a 29.680935
_cell_length_b 8.477416
_cell_length_c 12.375733
_cell_angle_alpha 90.000000
_cell_angle_beta 30.677177
_cell_angle_gamma 90.000000
_cell_volume 1588.739783
_symmetry_space_group_name_H-M "P 2/M"
_symmetry_group_IT_number 10
_symmetry_cell_setting 'monoclinic'
loop_
_space_group_symop_operation_xyz
x,y,z
-x,y,-z
-x,-y,-z
x,-y,z
loop_
_atom_site_type_symbol
_atom_site_label
_atom_site_fract_x
_atom_site_fract_y
_atom_site_fract_z
Si Si1 0.123286 0.315336 0.558453
Si Si2 0.564164 0.311834 0.274023
Si Si3 0.474688 0.684962 0.886859
Si Si4 0.626753 0.817453 0.709258
Si Si5 0.239066 0.314525 0.121528
Si Si6 0.064167 0.181747 0.089835
Si Si7 0.906370 0.686780 0.744559
Si Si8 0.813720 0.317458 0.337210
O O1 0.099136 0.500000 0.602226
O O2 0.203770 0.272321 0.313336
O O3 0.151471 0.261042 0.618762
O O4 0.039328 0.217195 0.693187
O O5 0.500000 0.244765 0.500000
O O6 0.564323 0.500000 0.276016
O O7 0.531673 0.253000 0.223224
O O8 0.662501 0.244129 0.094178
O O9 0.455691 0.500000 0.930905
O O10 0.571462 0.721155 0.734093
O O11 0.400367 0.768289 0.113479
O O12 0.729144 0.783890 0.477904
O O13 0.606131 0.000000 0.734451
O O14 0.243326 0.500000 0.097557
O O15 0.172024 0.247939 0.169896
O O16 0.107369 0.224316 0.114868
O O17 0.081272 0.000000 0.027326
O O18 0.108229 0.289480 0.907821
O O19 0.901297 0.500000 0.773774
O O20 0.000000 0.733624 0.500000
O O21 0.786786 0.500000 0.395854
#
# Coordination Sequence:
#
# PCOD8062396 Si02
#       8
#     4   4   4   4   4   4   4   4
#     4  10  20  38  61  83 109 148 199 245 289 347
#     4   9  18  32  53  86 120 147 187 247 300 337
#     4  10  19  35  60  86 115 153 201 242 284 349
#     4  11  22  37  58  85 119 153 190 241 300 352
#     4   9  17  32  57  84 111 146 193 248 299 341
#     4  12  25  38  55  83 122 157 189 237 297 354
#     4  10  19  36  61  83 109 150 202 247 285 341
#     4  11  23  39  61  86 115 151 196 242 289 352
#
# _framework density 20.141750999999999
#
# number of rings (size 3 to 8) (size 9 to 14) (size 15 to 20)
#    0.000    1.750    1.250    4.875    0.000    5.750 
#    0.000    2.500    0.000    3.000    0.000    0.000 
#    0.000    0.000    0.000    0.000    0.000    0.000 
#
# Total GULP energy -396912.197103 kJ/mol
# GULP energy per Si atom -12403.506159 kJ/mol
# Density = 2.009591 g / cm^3
# Si number density = 20.141751 Si / 1000 Ang^3
#
#
#
# Elastic Constant Matrix: (Units=GPa)
#
#
# Indices 1 2 3 4 5 6 
#
# 1 149.9538 14.0139 73.2436 0.0000 6.0597 0.0000
# 2 14.0139 38.8042 9.8384 0.0000 1.8668 0.0000
# 3 73.2436 9.8384 129.2650 0.0000 2.7380 0.0000
# 4 0.0000 0.0000 0.0000 16.2923 0.0000 -2.1970
# 5 6.0597 1.8668 2.7380 0.0000 29.0130 0.0000
# 6 0.0000 0.0000 0.0000 -2.1970 0.0000 7.6686
#
#
#
# Elastic Compliance Matrix: (Units=1/GPa)
#
#
# Indices 1 2 3 4 5 6 
#
# 1 0.009435 -0.002033 -0.005163 0.000000 -0.001353 0.000000
# 2 -0.002033 0.026781 -0.000860 0.000000 -0.001217 0.000000
# 3 -0.005163 -0.000860 0.010724 0.000000 0.000122 0.000000
# 4 0.000000 0.000000 0.000000 0.063845 0.000000 0.018292
# 5 -0.001353 -0.001217 0.000122 0.000000 0.034817 0.000000
# 6 0.000000 0.000000 0.000000 0.018292 0.000000 0.135643
#
#
# Mechanical properties :
#
#
# Convention : Reuss Voigt Hill
#
# Bulk Modulus (GPa) = 32.43827 56.91278 44.67552
# Shear Modulus (GPa) = 16.25304 25.32324 20.78814
#
# Velocity S-wave (km/s) = 2.84374 3.54962 3.21610
# Velocity P-wave (km/s) = 5.18868 6.71693 6.00165
#
# Compressibility (1/GPa) = 0.03082779
#
# Stress axis : x y z
#
# Youngs Moduli (GPa) = 105.98770 37.33928 93.24716
#
# Poissons Ratio (x) = 0.07593 0.48140
# Poissons Ratio (y) = 0.21552 0.08023
# Poissons Ratio (z) = 0.54718 0.03213
#
# Static dielectric constant tensor:
#      x y z
#    x 3.859710 0.000000 -0.020180 
#    y 0.000000 3.311180 0.000000 
#    z -0.020180 0.000000 3.702560 
# 
# 
# High freq. dielectric constant tensor:
#      x y z
#    x 1.798800 0.000000 -0.000860 
#    y 0.000000 1.755830 0.000000 
#    z -0.000860 0.000000 1.788380 
# 
# From -- ./inp_files/58162.got.cif
#   From: 2010.06.25/outbox.cif.g09.slc.cpg/sg10_30_cif.got.tgz:58162.got - 2010.06.27 22:07:45.
