data_PCOD8062409
_publ_section_title
;
Structure prediction by ZEFSAII (Michael W. Deem and Ramdas Pophale) SiO2 
 PCOD8062409
Probable space group: P 2/M
;
_chemical_formula_sum "Si O2"
_cell_formula_units_Z 28
_cell_length_a 11.717399
_cell_length_b 8.827701
_cell_length_c 15.657161
_cell_angle_alpha 90.000000
_cell_angle_beta 123.031916
_cell_angle_gamma 90.000000
_cell_volume 1357.769514
_symmetry_space_group_name_H-M "P 2/M"
_symmetry_group_IT_number 10
_symmetry_cell_setting 'monoclinic'
loop_
_space_group_symop_operation_xyz
x,y,z
-x,y,-z
-x,-y,-z
x,-y,z
loop_
_atom_site_type_symbol
_atom_site_label
_atom_site_fract_x
_atom_site_fract_y
_atom_site_fract_z
Si Si1 0.662337 0.821619 0.737802
Si Si2 0.138132 0.179283 0.327167
Si Si3 0.407252 0.678043 0.705259
Si Si4 0.585034 0.173228 0.115751
Si Si5 0.141675 0.825918 0.864454
Si Si6 0.157106 0.675069 0.045783
Si Si7 0.145713 0.178993 0.522222
O O1 0.735010 0.770149 0.679477
O O2 0.516047 0.741333 0.681520
O O3 0.755563 0.775834 0.854969
O O4 0.639276 0.000000 0.730081
O O5 0.158841 0.242384 0.431028
O O6 0.998275 0.243297 0.229839
O O7 0.123447 0.000000 0.325463
O O8 0.402731 0.500000 0.695984
O O9 0.454310 0.725542 0.819243
O O10 0.259326 0.744545 0.626612
O O11 0.745683 0.186421 0.163393
O O12 0.543588 0.000000 0.119170
O O13 0.500000 0.232940 0.000000
O O14 0.123212 0.000000 0.886724
O O15 0.191149 0.726244 0.964039
O O16 0.196689 0.500000 0.074263
O O17 0.000000 0.706356 0.000000
O O18 0.000000 0.226111 0.500000
O O19 0.167484 0.000000 0.535394
#
# Coordination Sequence:
#
# PCOD8062409 Si02
#       7
#     4   4   4   4   4   4   4
#     4  11  22  39  62  86 119 161 212 258 297 353
#     4   9  19  35  60  91 115 150 204 258 301 345
#     4  12  26  42  61  89 127 163 198 244 309 373
#     4  10  21  38  62  91 120 156 204 252 299 355
#     4  10  19  35  60  89 120 156 206 256 299 353
#     4  11  22  35  54  87 130 168 200 239 300 366
#     4  10  21  42  70  94 119 153 200 253 302 357
#
# _framework density 20.622057000000002
#
# number of rings (size 3 to 8) (size 9 to 14) (size 15 to 20)
#    0.000    1.571    1.429    3.857    0.000    5.714 
#    0.000    5.000    0.000    0.000    0.000    0.000 
#    0.000    0.000    0.000    0.000    0.000    0.000 
#
# Total GULP energy -347351.383234 kJ/mol
# GULP energy per Si atom -12405.406544 kJ/mol
# Density = 2.057512 g / cm^3
# Si number density = 20.622057 Si / 1000 Ang^3
#
#
#
# Elastic Constant Matrix: (Units=GPa)
#
#
# Indices 1 2 3 4 5 6 
#
# 1 135.3275 50.8311 54.7979 0.0000 -0.7979 0.0000
# 2 50.8311 56.4211 32.5014 0.0000 5.1872 0.0000
# 3 54.7979 32.5014 116.7146 0.0000 -5.5042 0.0000
# 4 0.0000 0.0000 0.0000 11.9676 0.0000 0.9564
# 5 -0.7979 5.1872 -5.5042 0.0000 36.9337 0.0000
# 6 0.0000 0.0000 0.0000 0.9564 0.0000 18.1188
#
#
#
# Elastic Compliance Matrix: (Units=1/GPa)
#
#
# Indices 1 2 3 4 5 6 
#
# 1 0.012108 -0.009249 -0.003057 0.000000 0.001105 0.000000
# 2 -0.009249 0.028738 -0.003887 0.000000 -0.004815 0.000000
# 3 -0.003057 -0.003887 0.011187 0.000000 0.002147 0.000000
# 4 0.000000 0.000000 0.000000 0.083913 0.000000 -0.004429
# 5 0.001105 -0.004815 0.002147 0.000000 0.028096 0.000000
# 6 0.000000 0.000000 0.000000 -0.004429 0.000000 0.055425
#
#
# Mechanical properties :
#
#
# Convention : Reuss Voigt Hill
#
# Bulk Modulus (GPa) = 50.89953 64.96933 57.93443
# Shear Modulus (GPa) = 19.34963 24.75954 22.05458
#
# Velocity S-wave (km/s) = 3.06649 3.46878 3.27382
# Velocity P-wave (km/s) = 6.10520 6.90046 6.51498
#
# Compressibility (1/GPa) = 0.01964655
#
# Stress axis : x y z
#
# Youngs Moduli (GPa) = 82.59075 34.79664 89.38928
#
# Poissons Ratio (x) = 0.32183 0.27327
# Poissons Ratio (y) = 0.76387 0.34750
# Poissons Ratio (z) = 0.25249 0.13527
#
# Static dielectric constant tensor:
#      x y z
#    x 3.986030 0.000000 -0.029780 
#    y 0.000000 3.447500 0.000000 
#    z -0.029780 0.000000 3.744440 
# 
# 
# High freq. dielectric constant tensor:
#      x y z
#    x 1.823800 0.000000 0.000740 
#    y 0.000000 1.779740 0.000000 
#    z 0.000740 0.000000 1.807010 
# 
# From -- ./inp_files/49125.got.cif
#   From: 2010.06.25/outbox.cif.g09.slc.cpg/sg10_25_cif.got.tgz:49125.got - 2010.06.27 22:07:45.
