data_PCOD8062560
_publ_section_title
;
Structure prediction by ZEFSAII (Michael W. Deem and Ramdas Pophale) SiO2 
 PCOD8062560
Probable space group: P 2/M
;
_chemical_formula_sum "Si O2"
_cell_formula_units_Z 28
_cell_length_a 9.654404
_cell_length_b 8.959503
_cell_length_c 28.054311
_cell_angle_alpha 90.000000
_cell_angle_beta 37.305662
_cell_angle_gamma 90.000000
_cell_volume 1470.718776
_symmetry_space_group_name_H-M "P 2/M"
_symmetry_group_IT_number 10
_symmetry_cell_setting 'monoclinic'
loop_
_space_group_symop_operation_xyz
x,y,z
-x,y,-z
-x,-y,-z
x,-y,z
loop_
_atom_site_type_symbol
_atom_site_label
_atom_site_fract_x
_atom_site_fract_y
_atom_site_fract_z
Si Si1 0.510552 0.668447 0.285731
Si Si2 0.481269 0.176048 0.861221
Si Si3 0.745391 0.835455 0.454773
Si Si4 0.755291 0.326755 0.548743
Si Si5 0.844043 0.329583 0.698911
Si Si6 0.350739 0.323512 0.994790
Si Si7 0.136536 0.174492 0.872482
O O1 0.607760 0.500000 0.254600
O O2 0.441067 0.706024 0.358601
O O3 0.282517 0.683923 0.316894
O O4 0.702270 0.784254 0.216167
O O5 0.714635 0.235017 0.774455
O O6 0.459888 0.250873 0.918287
O O7 0.264688 0.217759 0.886810
O O8 0.497759 0.000000 0.863225
O O9 0.500000 0.848230 0.500000
O O10 0.696272 0.767803 0.519382
O O11 0.903380 0.733756 0.377888
O O12 0.857657 0.000000 0.428594
O O13 0.763409 0.500000 0.532658
O O14 0.000000 0.272942 0.500000
O O15 0.859538 0.500000 0.712204
O O16 0.348187 0.500000 0.989020
O O17 0.500000 0.276487 0.000000
O O18 0.093494 0.266670 0.070500
O O19 0.079097 0.000000 0.886944
#
# Coordination Sequence:
#
# PCOD8062560 Si02
#       7
#     4   4   4   4   4   4   4
#     4   9  18  34  58  87 116 145 186 240 287 334
#     4  10  21  38  62  91 118 147 187 234 286 342
#     4  11  24  39  54  80 118 157 196 238 286 341
#     4  10  19  36  60  86 113 147 193 241 288 340
#     4  10  19  36  61  86 114 150 192 237 285 336
#     4  11  24  41  60  85 117 153 194 233 278 337
#     4  10  21  37  60  89 118 149 188 233 284 342
#
# _framework density 19.038309000000002
#
# number of rings (size 3 to 8) (size 9 to 14) (size 15 to 20)
#    0.000    1.857    1.429    2.571    0.000    7.143 
#    2.571    0.000    0.000    0.000    0.000    0.000 
#    0.000    0.000    0.000    0.000    0.000    0.000 
#
# Total GULP energy -347267.760959 kJ/mol
# GULP energy per Si atom -12402.420034 kJ/mol
# Density = 1.899498 g / cm^3
# Si number density = 19.038309 Si / 1000 Ang^3
#
#
#
# Elastic Constant Matrix: (Units=GPa)
#
#
# Indices 1 2 3 4 5 6 
#
# 1 95.2627 56.0942 60.2709 0.0000 14.4990 0.0000
# 2 56.0942 95.1803 55.6251 0.0000 9.6427 0.0000
# 3 60.2709 55.6251 119.7780 0.0000 5.6858 0.0000
# 4 0.0000 0.0000 0.0000 44.4165 0.0000 4.5079
# 5 14.4990 9.6427 5.6858 0.0000 19.9248 0.0000
# 6 0.0000 0.0000 0.0000 4.5079 0.0000 29.3277
#
#
#
# Elastic Compliance Matrix: (Units=1/GPa)
#
#
# Indices 1 2 3 4 5 6 
#
# 1 0.020219 -0.007246 -0.006363 0.000000 -0.009391 0.000000
# 2 -0.007246 0.017555 -0.004413 0.000000 -0.001964 0.000000
# 3 -0.006363 -0.004413 0.013461 0.000000 0.002925 0.000000
# 4 0.000000 0.000000 0.000000 0.022871 0.000000 -0.003515
# 5 -0.009391 -0.001964 0.002925 0.000000 0.057138 0.000000
# 6 0.000000 0.000000 0.000000 -0.003515 0.000000 0.034638
#
#
# Mechanical properties :
#
#
# Convention : Reuss Voigt Hill
#
# Bulk Modulus (GPa) = 65.83041 72.68906 69.25973
# Shear Modulus (GPa) = 24.15576 27.94920 26.05248
#
# Velocity S-wave (km/s) = 3.56588 3.83567 3.70323
# Velocity P-wave (km/s) = 7.18380 7.60788 7.39888
#
# Compressibility (1/GPa) = 0.01519055
#
# Stress axis : x y z
#
# Youngs Moduli (GPa) = 49.45816 56.96433 74.28674
#
# Poissons Ratio (x) = 0.41276 0.47270
# Poissons Ratio (y) = 0.35837 0.32784
# Poissons Ratio (z) = 0.31471 0.25140
#
# Static dielectric constant tensor:
#      x y z
#    x 3.246040 0.000000 0.043850 
#    y 0.000000 3.624500 0.000000 
#    z 0.043850 0.000000 3.519770 
# 
# 
# High freq. dielectric constant tensor:
#      x y z
#    x 1.720880 0.000000 0.005420 
#    y 0.000000 1.750470 0.000000 
#    z 0.005420 0.000000 1.752700 
# 
# From -- ./inp_files/37116.got.cif
#   From: 2010.06.25/outbox.cif.g09.slc.cpg/sg10_19_cif.got.tgz:37116.got - 2010.06.27 22:07:45.
