data_PCOD8062211
_publ_section_title
;
Structure prediction by ZEFSAII (Michael W. Deem and Ramdas Pophale) SiO2 
 PCOD8062211
Probable space group: P 2/M
;
_chemical_formula_sum "Si O2"
_cell_formula_units_Z 28
_cell_length_a 11.018702
_cell_length_b 9.188392
_cell_length_c 15.208734
_cell_angle_alpha 90.000000
_cell_angle_beta 65.686989
_cell_angle_gamma 90.000000
_cell_volume 1403.230642
_symmetry_space_group_name_H-M "P 2/M"
_symmetry_group_IT_number 10
_symmetry_cell_setting 'monoclinic'
loop_
_space_group_symop_operation_xyz
x,y,z
-x,y,-z
-x,-y,-z
x,-y,z
loop_
_atom_site_type_symbol
_atom_site_label
_atom_site_fract_x
_atom_site_fract_y
_atom_site_fract_z
Si Si1 0.510712 0.336494 0.594470
Si Si2 0.188560 0.337822 0.439656
Si Si3 0.104086 0.332670 0.649048
Si Si4 0.718878 0.827815 0.266755
Si Si5 0.344919 0.827370 0.052819
Si Si6 0.190173 0.332159 0.247829
Si Si7 0.152160 0.172721 0.952460
O O1 0.500000 0.271633 0.500000
O O2 0.451534 0.500000 0.616343
O O3 0.662342 0.334717 0.573075
O O4 0.430547 0.234315 0.686130
O O5 0.137534 0.500000 0.433138
O O6 0.097869 0.277322 0.547881
O O7 0.185927 0.257230 0.346292
O O8 0.155714 0.500000 0.632863
O O9 0.205189 0.232712 0.671287
O O10 0.962067 0.321376 0.740065
O O11 0.786629 0.772295 0.157219
O O12 0.716599 0.000000 0.271740
O O13 0.288509 0.760354 0.158879
O O14 0.336300 0.000000 0.061613
O O15 0.500000 0.778156 0.000000
O O16 0.250536 0.769892 0.000888
O O17 0.240139 0.500000 0.233498
O O18 0.147757 0.000000 0.959199
O O19 0.000000 0.234125 0.000000
#
# Coordination Sequence:
#
# PCOD8062211 Si02
#       7
#     4   4   4   4   4   4   4
#     4  10  19  35  56  78 110 151 187 220 269 334
#     4   9  18  34  56  81 111 149 185 217 268 336
#     4  10  19  36  58  82 114 149 184 219 270 339
#     4  11  22  34  56  85 112 142 184 234 279 322
#     4  10  22  40  60  80 109 151 192 231 282 344
#     4  10  21  36  59  86 110 142 186 235 276 319
#     4   9  19  37  58  79 107 146 188 228 280 341
#
# _framework density 19.953955000000001
#
# number of rings (size 3 to 8) (size 9 to 14) (size 15 to 20)
#    0.000    2.143    1.429    1.714    2.000    4.000 
#    0.000    2.143    0.000    5.571    0.000    0.000 
#    0.000    0.000    0.000    0.000    0.000    0.000 
#
# Total GULP energy -347011.424461 kJ/mol
# GULP energy per Si atom -12393.265159 kJ/mol
# Density = 1.990854 g / cm^3
# Si number density = 19.953955 Si / 1000 Ang^3
#
#
#
# Elastic Constant Matrix: (Units=GPa)
#
#
# Indices 1 2 3 4 5 6 
#
# 1 81.8282 16.1794 43.2058 0.0000 -8.0180 0.0000
# 2 16.1794 37.9016 36.5536 0.0000 -6.7595 0.0000
# 3 43.2058 36.5536 156.4766 0.0000 -12.7808 0.0000
# 4 0.0000 0.0000 0.0000 29.4866 0.0000 -0.4013
# 5 -8.0180 -6.7595 -12.7808 0.0000 38.3138 0.0000
# 6 0.0000 0.0000 0.0000 -0.4013 0.0000 14.2434
#
#
#
# Elastic Compliance Matrix: (Units=1/GPa)
#
#
# Indices 1 2 3 4 5 6 
#
# 1 0.014649 -0.002847 -0.003259 0.000000 0.001476 0.000000
# 2 -0.002847 0.035059 -0.007142 0.000000 0.003207 0.000000
# 3 -0.003259 -0.007142 0.009047 0.000000 0.001076 0.000000
# 4 0.000000 0.000000 0.000000 0.033927 0.000000 0.000956
# 5 0.001476 0.003207 0.001076 0.000000 0.027334 0.000000
# 6 0.000000 0.000000 0.000000 0.000956 0.000000 0.070235
#
#
# Mechanical properties :
#
#
# Convention : Reuss Voigt Hill
#
# Bulk Modulus (GPa) = 30.99882 52.00934 41.50408
# Shear Modulus (GPa) = 21.97801 28.42660 25.20231
#
# Velocity S-wave (km/s) = 3.32239 3.77849 3.55776
# Velocity P-wave (km/s) = 5.50333 6.71992 6.14182
#
# Compressibility (1/GPa) = 0.03225930
#
# Stress axis : x y z
#
# Youngs Moduli (GPa) = 68.26324 28.52307 110.53445
#
# Poissons Ratio (x) = 0.08120 0.36026
# Poissons Ratio (y) = 0.19433 0.78944
# Poissons Ratio (z) = 0.22249 0.20371
#
# Static dielectric constant tensor:
#      x y z
#    x 3.887190 0.000000 -0.037930 
#    y 0.000000 3.247700 0.000000 
#    z -0.037930 0.000000 3.845210 
# 
# 
# High freq. dielectric constant tensor:
#      x y z
#    x 1.794050 0.000000 -0.006450 
#    y 0.000000 1.727270 0.000000 
#    z -0.006450 0.000000 1.792690 
# 
# From -- ./inp_files/49109.got.cif
#   From: 2010.06.25/outbox.cif.g09.slc.cpg/sg10_25_cif.got.tgz:49109.got - 2010.06.27 22:07:45.
