data_PCOD8062851
_publ_section_title
;
Structure prediction by ZEFSAII (Michael W. Deem and Ramdas Pophale) SiO2 
 PCOD8062851
Probable space group: P 2/M
;
_chemical_formula_sum "Si O2"
_cell_formula_units_Z 32
_cell_length_a 24.607328
_cell_length_b 9.124091
_cell_length_c 16.433617
_cell_angle_alpha 90.000000
_cell_angle_beta 152.416277
_cell_angle_gamma 90.000000
_cell_volume 1708.479334
_symmetry_space_group_name_H-M "P 2/M"
_symmetry_group_IT_number 10
_symmetry_cell_setting 'monoclinic'
loop_
_space_group_symop_operation_xyz
x,y,z
-x,y,-z
-x,-y,-z
x,-y,z
loop_
_atom_site_type_symbol
_atom_site_label
_atom_site_fract_x
_atom_site_fract_y
_atom_site_fract_z
Si Si1 0.705893 0.328879 0.897443
Si Si2 0.136893 0.831029 0.191533
Si Si3 0.164534 0.326053 0.647974
Si Si4 0.910733 0.672032 0.278759
Si Si5 0.512125 0.170010 0.343991
Si Si6 0.688179 0.327214 0.687899
Si Si7 0.630892 0.674402 0.195575
Si Si8 0.692221 0.832110 0.441502
O O1 0.679411 0.500000 0.874751
O O2 0.616674 0.238217 0.835465
O O3 0.697899 0.280215 0.794076
O O4 0.836663 0.287419 0.100758
O O5 0.196135 0.728100 0.203750
O O6 0.187671 0.793636 0.349173
O O7 0.169055 0.000000 0.215073
O O8 0.000000 0.800536 0.000000
O O9 0.174135 0.500000 0.656498
O O10 0.157571 0.267726 0.731669
O O11 0.278867 0.263314 0.752983
O O12 0.043619 0.268273 0.444907
O O13 0.921386 0.500000 0.306467
O O14 0.572592 0.252094 0.499524
O O15 0.582095 0.198546 0.354029
O O16 0.505182 0.000000 0.356047
O O17 0.676719 0.500000 0.661840
O O18 0.630610 0.500000 0.199266
O O19 0.677152 0.730033 0.343768
O O20 0.500000 0.732552 0.000000
O O21 0.694390 0.000000 0.415247
#
# Coordination Sequence:
#
# PCOD8062851 Si02
#       8
#     4   4   4   4   4   4   4   4
#     4  10  20  31  50  79 104 130 170 219 266 311
#     4   9  19  37  58  77 103 143 186 221 260 320
#     4   8  15  30  49  72 103 135 170 207 252 313
#     4   8  15  29  50  72  99 138 171 204 254 309
#     4  10  21  36  53  72 101 141 179 211 256 320
#     4  10  20  33  49  77 110 136 171 217 267 315
#     4  10  21  33  52  83 110 134 174 224 269 315
#     4   9  20  37  53  74 103 138 178 214 262 320
#
# _framework density 18.730104999999998
#
# number of rings (size 3 to 8) (size 9 to 14) (size 15 to 20)
#    0.000    2.750    0.000    2.625    1.750    6.500 
#    0.000    1.250    0.000    0.750    0.000    1.750 
#    0.000    0.000    0.000    0.000    0.000    0.000 
#
# Total GULP energy -396661.192392 kJ/mol
# GULP energy per Si atom -12395.662262 kJ/mol
# Density = 1.868747 g / cm^3
# Si number density = 18.730105 Si / 1000 Ang^3
#
#
#
# Elastic Constant Matrix: (Units=GPa)
#
#
# Indices 1 2 3 4 5 6 
#
# 1 97.7461 23.8923 58.3016 0.0000 8.2358 0.0000
# 2 23.8923 34.3303 21.4906 0.0000 -0.1087 0.0000
# 3 58.3016 21.4906 109.5202 0.0000 12.0339 0.0000
# 4 0.0000 0.0000 0.0000 20.0376 0.0000 -0.2600
# 5 8.2358 -0.1087 12.0339 0.0000 27.6065 0.0000
# 6 0.0000 0.0000 0.0000 -0.2600 0.0000 20.4988
#
#
#
# Elastic Compliance Matrix: (Units=1/GPa)
#
#
# Indices 1 2 3 4 5 6 
#
# 1 0.016327 -0.006898 -0.007142 0.000000 -0.001785 0.000000
# 2 -0.006898 0.036380 -0.003895 0.000000 0.003899 0.000000
# 3 -0.007142 -0.003895 0.014142 0.000000 -0.004049 0.000000
# 4 0.000000 0.000000 0.000000 0.049914 0.000000 0.000633
# 5 -0.001785 0.003899 -0.004049 0.000000 0.038536 0.000000
# 6 0.000000 0.000000 0.000000 0.000633 0.000000 0.048791
#
#
# Mechanical properties :
#
#
# Convention : Reuss Voigt Hill
#
# Bulk Modulus (GPa) = 32.27957 49.88507 41.08232
# Shear Modulus (GPa) = 19.97715 22.82272 21.39994
#
# Velocity S-wave (km/s) = 3.26940 3.49450 3.38382
# Velocity P-wave (km/s) = 5.61457 6.55541 6.10315
#
# Compressibility (1/GPa) = 0.03097935
#
# Stress axis : x y z
#
# Youngs Moduli (GPa) = 61.24928 27.48772 70.71234
#
# Poissons Ratio (x) = 0.18960 0.50501
# Poissons Ratio (y) = 0.42247 0.27544
# Poissons Ratio (z) = 0.43743 0.10707
#
# Static dielectric constant tensor:
#      x y z
#    x 3.466050 0.000000 0.146380 
#    y 0.000000 3.136300 0.000000 
#    z 0.146380 0.000000 3.648980 
# 
# 
# High freq. dielectric constant tensor:
#      x y z
#    x 1.723680 0.000000 0.004060 
#    y 0.000000 1.696250 0.000000 
#    z 0.004060 0.000000 1.738580 
# 
# From -- ./inp_files/71668.got.cif
#   From: 2010.06.25/outbox.cif.g09.slc.cpg/sg10_36_cif.got.tgz:71668.got - 2010.06.27 22:07:45.
