data_PCOD8062904
_publ_section_title
;
Structure prediction by ZEFSAII (Michael W. Deem and Ramdas Pophale) SiO2 
 PCOD8062904
Probable space group: P 2/M
;
_chemical_formula_sum "Si O2"
_cell_formula_units_Z 26
_cell_length_a 21.431669
_cell_length_b 16.254192
_cell_length_c 21.260709
_cell_angle_alpha 90.000000
_cell_angle_beta 13.804291
_cell_angle_gamma 90.000000
_cell_volume 1767.180143
_symmetry_space_group_name_H-M "P 2/M"
_symmetry_group_IT_number 10
_symmetry_cell_setting 'monoclinic'
loop_
_space_group_symop_operation_xyz
x,y,z
-x,y,-z
-x,-y,-z
x,-y,z
loop_
_atom_site_type_symbol
_atom_site_label
_atom_site_fract_x
_atom_site_fract_y
_atom_site_fract_z
Si Si1 0.464519 0.901814 0.964213
Si Si2 0.731868 0.000000 0.224860
Si Si3 0.955388 0.095026 0.258196
Si Si4 0.975846 0.408552 0.949458
Si Si5 0.063240 0.902135 0.581440
Si Si6 0.585729 0.860745 0.274318
Si Si7 0.522652 0.690810 0.552194
O O1 0.195428 0.868057 0.199084
O O2 0.468112 0.000000 0.961651
O O3 0.500000 0.867521 0.000000
O O4 0.693435 0.866788 0.695934
O O5 0.500000 0.000000 0.500000
O O6 0.716114 0.918505 0.198880
O O7 0.000000 0.000000 0.000000
O O8 0.920555 0.129176 0.362887
O O9 0.679075 0.100630 0.493486
O O10 0.047309 0.000000 0.167561
O O11 0.188160 0.148955 0.999598
O O12 0.000197 0.500000 0.895999
O O13 0.198587 0.349056 0.703563
O O14 0.000000 0.415013 0.000000
O O15 0.693919 0.371628 0.209486
O O16 0.067218 0.000000 0.576476
O O17 0.509510 0.774898 0.379378
O O18 0.500000 0.707784 0.500000
#
# Coordination Sequence:
#
# PCOD8062904 Si02
#       7
#     4   2   4   4   4   4   4
#     4   9  15  24  37  57  79  97 120 160 217 266
#     4  12  24  36  48  60  78 106 141 182 229 270
#     4  11  20  34  46  58  78 109 152 185 215 251
#     4   9  17  31  50  69  87 105 123 151 204 273
#     4   9  17  26  40  56  73 101 133 170 209 252
#     4  12  22  35  47  62  82 110 144 185 222 258
#     4  10  20  32  47  67  87 105 131 170 217 267
#
# _framework density 14.712705
#
# number of rings (size 3 to 8) (size 9 to 14) (size 15 to 20)
#    0.000    1.846    1.538    4.154    0.000    8.000 
#    0.000    0.000    0.000    0.000    0.000    0.000 
#    0.000    0.000    0.000    0.000    0.000    0.000 
#
# Total GULP energy -322398.649081 kJ/mol
# GULP energy per Si atom -12399.948042 kJ/mol
# Density = 1.467922 g / cm^3
# Si number density = 14.712705 Si / 1000 Ang^3
#
#
#
# Elastic Constant Matrix: (Units=GPa)
#
#
# Indices 1 2 3 4 5 6 
#
# 1 77.4924 27.4151 40.0911 0.0000 7.3090 0.0000
# 2 27.4151 63.6265 25.7070 0.0000 6.9826 0.0000
# 3 40.0911 25.7070 123.8881 0.0000 8.9476 0.0000
# 4 0.0000 0.0000 0.0000 9.2971 0.0000 1.0530
# 5 7.3090 6.9826 8.9476 0.0000 28.4837 0.0000
# 6 0.0000 0.0000 0.0000 1.0530 0.0000 4.5192
#
#
#
# Elastic Compliance Matrix: (Units=1/GPa)
#
#
# Indices 1 2 3 4 5 6 
#
# 1 0.017244 -0.005498 -0.004315 0.000000 -0.001722 0.000000
# 2 -0.005498 0.019190 -0.002011 0.000000 -0.002662 0.000000
# 3 -0.004315 -0.002011 0.009997 0.000000 -0.001540 0.000000
# 4 0.000000 0.000000 0.000000 0.110476 0.000000 -0.025741
# 5 -0.001722 -0.002662 -0.001540 0.000000 0.036686 0.000000
# 6 0.000000 0.000000 0.000000 -0.025741 0.000000 0.227276
#
#
# Mechanical properties :
#
#
# Convention : Reuss Voigt Hill
#
# Bulk Modulus (GPa) = 43.89069 50.15928 47.02499
# Shear Modulus (GPa) = 11.05922 19.91290 15.48606
#
# Velocity S-wave (km/s) = 2.74465 3.68292 3.24784
# Velocity P-wave (km/s) = 6.31987 7.22853 6.78942
#
# Compressibility (1/GPa) = 0.02278387
#
# Stress axis : x y z
#
# Youngs Moduli (GPa) = 57.98987 52.11036 100.03309
#
# Poissons Ratio (x) = 0.28649 0.43167
# Poissons Ratio (y) = 0.31881 0.20113
# Poissons Ratio (z) = 0.25024 0.10477
#
# Static dielectric constant tensor:
#      x y z
#    x 2.860070 0.000000 0.027140 
#    y 0.000000 2.546710 0.000000 
#    z 0.027140 0.000000 3.164020 
# 
# 
# High freq. dielectric constant tensor:
#      x y z
#    x 1.545590 0.000000 -0.000380 
#    y 0.000000 1.507680 0.000000 
#    z -0.000380 0.000000 1.591170 
# 
# From -- ./inp_files/11174.got.cif
#   From: 2010.06.25/outbox.cif.g09.slc.cpg/sg10_6_cif.got.tgz:11174.got - 2010.06.27 22:07:45.
