data_PCOD8062354
_publ_section_title
;
Structure prediction by ZEFSAII (Michael W. Deem and Ramdas Pophale) SiO2 
 PCOD8062354
Probable space group: P 2/M
;
_chemical_formula_sum "Si O2"
_cell_formula_units_Z 32
_cell_length_a 27.213386
_cell_length_b 9.072949
_cell_length_c 21.327353
_cell_angle_alpha 90.000000
_cell_angle_beta 161.219632
_cell_angle_gamma 90.000000
_cell_volume 1695.292811
_symmetry_space_group_name_H-M "P 2/M"
_symmetry_group_IT_number 10
_symmetry_cell_setting 'monoclinic'
loop_
_space_group_symop_operation_xyz
x,y,z
-x,y,-z
-x,-y,-z
x,-y,z
loop_
_atom_site_type_symbol
_atom_site_label
_atom_site_fract_x
_atom_site_fract_y
_atom_site_fract_z
Si Si1 0.604503 0.329512 0.807042
Si Si2 0.615964 0.830016 0.272798
Si Si3 0.157112 0.827156 0.221808
Si Si4 0.188144 0.830374 0.612385
Si Si5 0.708204 0.671734 0.501968
Si Si6 0.303136 0.670365 0.873493
Si Si7 0.115401 0.330544 0.769505
Si Si8 0.466822 0.173125 0.529124
O O1 0.609788 0.500000 0.795944
O O2 0.462131 0.295449 0.679911
O O3 0.591201 0.240823 0.726394
O O4 0.755935 0.279140 0.026022
O O5 0.685445 0.811389 0.288069
O O6 0.724839 0.748991 0.454571
O O7 0.601605 0.000000 0.274691
O O8 0.449966 0.759085 0.072780
O O9 0.170166 0.740943 0.303059
O O10 0.295550 0.782633 0.342799
O O11 0.159037 0.000000 0.238988
O O12 0.000000 0.777733 0.000000
O O13 0.236707 0.730725 0.728910
O O14 0.027442 0.774958 0.391361
O O15 0.174689 0.000000 0.617402
O O16 0.743351 0.500000 0.537172
O O17 0.349448 0.500000 0.921288
O O18 0.173141 0.689008 0.768453
O O19 0.068985 0.500000 0.725417
O O20 0.500000 0.236530 0.500000
O O21 0.490836 0.000000 0.559480
#
# Coordination Sequence:
#
# PCOD8062354 Si02
#       8
#     4   4   4   4   4   4   4   4
#     4   9  18  35  57  81 109 141 182 229 270 322
#     4  11  23  39  58  82 115 149 187 233 280 332
#     4   9  18  34  55  79 110 146 181 221 273 326
#     4  11  25  40  54  83 118 148 185 232 282 332
#     4  10  19  35  59  84 110 143 189 234 272 326
#     4  11  22  39  63  86 109 145 189 231 280 337
#     4  10  21  39  59  82 113 147 186 231 281 333
#     4   9  18  33  53  79 108 141 181 221 264 321
#
# _framework density 18.875796000000001
#
# number of rings (size 3 to 8) (size 9 to 14) (size 15 to 20)
#    0.000    2.000    1.250    2.250    0.000    7.500 
#    2.250    0.000    0.000    0.000    0.000    0.000 
#    0.000    0.000    0.000    0.000    0.000    0.000 
#
# Total GULP energy -396938.200101 kJ/mol
# GULP energy per Si atom -12404.318753 kJ/mol
# Density = 1.883283 g / cm^3
# Si number density = 18.875796 Si / 1000 Ang^3
#
#
#
# Elastic Constant Matrix: (Units=GPa)
#
#
# Indices 1 2 3 4 5 6 
#
# 1 70.0729 32.3270 23.3714 0.0000 -23.4274 0.0000
# 2 32.3270 72.1600 34.3406 0.0000 -8.3387 0.0000
# 3 23.3714 34.3406 95.7841 0.0000 -20.9367 0.0000
# 4 0.0000 0.0000 0.0000 35.9620 0.0000 -7.8493
# 5 -23.4274 -8.3387 -20.9367 0.0000 30.1669 0.0000
# 6 0.0000 0.0000 0.0000 -7.8493 0.0000 28.2320
#
#
#
# Elastic Compliance Matrix: (Units=1/GPa)
#
#
# Indices 1 2 3 4 5 6 
#
# 1 0.023730 -0.009263 0.001178 0.000000 0.016685 0.000000
# 2 -0.009263 0.020333 -0.006334 0.000000 -0.005970 0.000000
# 3 0.001178 -0.006334 0.014430 0.000000 0.009179 0.000000
# 4 0.000000 0.000000 0.000000 0.029604 0.000000 0.008231
# 5 0.016685 -0.005970 0.009179 0.000000 0.050827 0.000000
# 6 0.000000 0.000000 0.000000 0.008231 0.000000 0.037709
#
#
# Mechanical properties :
#
#
# Convention : Reuss Voigt Hill
#
# Bulk Modulus (GPa) = 33.72278 46.45502 40.08890
# Shear Modulus (GPa) = 23.21743 28.73737 25.97740
#
# Velocity S-wave (km/s) = 3.51096 3.90609 3.71378
# Velocity P-wave (km/s) = 5.86005 6.70878 6.29872
#
# Compressibility (1/GPa) = 0.02965354
#
# Stress axis : x y z
#
# Youngs Moduli (GPa) = 42.14114 49.18222 69.30010
#
# Poissons Ratio (x) = 0.45559 -0.08164
# Poissons Ratio (y) = 0.39036 0.43897
# Poissons Ratio (z) = -0.04965 0.31153
#
# Static dielectric constant tensor:
#      x y z
#    x 3.473310 0.000000 -0.136580 
#    y 0.000000 3.483480 0.000000 
#    z -0.136580 0.000000 3.504180 
# 
# 
# High freq. dielectric constant tensor:
#      x y z
#    x 1.729640 0.000000 -0.013930 
#    y 0.000000 1.737140 0.000000 
#    z -0.013930 0.000000 1.734220 
# 
# From -- ./inp_files/87055.got.cif
#   From: 2010.06.25/outbox.cif.g09.slc.cpg/sg10_44_cif.got.tgz:87055.got - 2010.06.27 22:07:45.
