data_PCOD8062824
_publ_section_title
;
Structure prediction by ZEFSAII (Michael W. Deem and Ramdas Pophale) SiO2 
 PCOD8062824
Probable space group: P 2/M
;
_chemical_formula_sum "Si O2"
_cell_formula_units_Z 28
_cell_length_a 24.859542
_cell_length_b 8.881174
_cell_length_c 22.374882
_cell_angle_alpha 90.000000
_cell_angle_beta 162.326414
_cell_angle_gamma 90.000000
_cell_volume 1499.744274
_symmetry_space_group_name_H-M "P 2/M"
_symmetry_group_IT_number 10
_symmetry_cell_setting 'monoclinic'
loop_
_space_group_symop_operation_xyz
x,y,z
-x,y,-z
-x,-y,-z
x,-y,z
loop_
_atom_site_type_symbol
_atom_site_label
_atom_site_fract_x
_atom_site_fract_y
_atom_site_fract_z
Si Si1 0.588091 0.320985 0.653701
Si Si2 0.977520 0.320985 0.043129
Si Si3 0.793909 0.836276 0.293911
Si Si4 0.391593 0.821258 0.674802
Si Si5 0.260479 0.180097 0.890720
Si Si6 0.673925 0.678839 0.521780
Si Si7 0.130202 0.819900 0.499956
O O1 0.500000 0.256087 0.500000
O O2 0.580634 0.500000 0.643368
O O3 0.479499 0.262616 0.595998
O O4 0.791024 0.264035 0.873071
O O5 0.982097 0.500000 0.044831
O O6 0.137002 0.262619 0.253500
O O7 0.000000 0.256086 0.000000
O O8 0.000000 0.858330 0.500000
O O9 0.776397 0.753836 0.340152
O O10 0.702191 0.000000 0.202195
O O11 0.712631 0.753833 0.148883
O O12 0.580701 0.762665 0.899403
O O13 0.358864 0.749881 0.576587
O O14 0.237951 0.762673 0.556642
O O15 0.388677 0.000000 0.666039
O O16 0.260333 0.000000 0.885980
O O17 0.073652 0.236391 0.720917
O O18 0.671135 0.500000 0.513405
O O19 0.134651 0.000000 0.509000
#
# Coordination Sequence:
#
# PCOD8062824 Si02
#       7
#     4   4   4   4   4   4   4
#     4   9  15  26  47  73  93 109 137 182 229 263
#     4   9  15  26  47  73  93 109 137 182 229 263
#     4   7  10  19  37  61  86 110 142 190 236 262
#     4  10  20  31  44  64  92 126 156 178 212 270
#     4   8  14  25  41  62  89 118 149 188 230 265
#     4  10  20  32  47  69  95 118 146 184 222 263
#     4   8  14  25  41  62  89 118 149 188 230 265
#
# _framework density 18.669848999999999
#
# number of rings (size 3 to 8) (size 9 to 14) (size 15 to 20)
#    0.000    3.286    1.429    1.714    0.000    1.714 
#    0.000    2.857    0.000    0.857    0.000    2.000 
#    0.000    3.429    0.000    0.000    0.000    0.000 
#
# Total GULP energy -346865.747219 kJ/mol
# GULP energy per Si atom -12388.062401 kJ/mol
# Density = 1.862736 g / cm^3
# Si number density = 18.669849 Si / 1000 Ang^3
#
#
#
# Elastic Constant Matrix: (Units=GPa)
#
#
# Indices 1 2 3 4 5 6 
#
# 1 191.8276 16.2905 109.3251 0.0000 -8.5753 0.0000
# 2 16.2905 6.9695 14.3574 0.0000 -2.1324 0.0000
# 3 109.3251 14.3574 177.5119 0.0000 -7.1884 0.0000
# 4 0.0000 0.0000 0.0000 12.4944 0.0000 -10.6813
# 5 -8.5753 -2.1324 -7.1884 0.0000 38.8830 0.0000
# 6 0.0000 0.0000 0.0000 -10.6813 0.0000 22.2042
#
#
#
# Elastic Compliance Matrix: (Units=1/GPa)
#
#
# Indices 1 2 3 4 5 6 
#
# 1 0.008709 -0.011036 -0.004451 0.000000 0.000493 0.000000
# 2 -0.011036 0.188021 -0.008152 0.000000 0.006370 0.000000
# 3 -0.004451 -0.008152 0.009044 0.000000 0.000243 0.000000
# 4 0.000000 0.000000 0.000000 0.135940 0.000000 0.065393
# 5 0.000493 0.006370 0.000243 0.000000 0.026221 0.000000
# 6 0.000000 0.000000 0.000000 0.065393 0.000000 0.076494
#
#
# Mechanical properties :
#
#
# Convention : Reuss Voigt Hill
#
# Bulk Modulus (GPa) = 6.30939 72.91722 39.61330
# Shear Modulus (GPa) = 9.18208 30.47206 19.82707
#
# Velocity S-wave (km/s) = 2.22009 4.04437 3.26234
# Velocity P-wave (km/s) = 3.15572 7.80706 5.95436
#
# Compressibility (1/GPa) = 0.15849398
#
# Stress axis : x y z
#
# Youngs Moduli (GPa) = 114.82394 5.31857 110.57106
#
# Poissons Ratio (x) = 0.05870 0.49216
# Poissons Ratio (y) = 1.26723 0.90142
# Poissons Ratio (z) = 0.51109 0.04336
#
# Static dielectric constant tensor:
#      x y z
#    x 3.684890 0.000000 0.044730 
#    y 0.000000 2.584920 0.000000 
#    z 0.044730 0.000000 3.725550 
# 
# 
# High freq. dielectric constant tensor:
#      x y z
#    x 1.735450 0.000000 -0.000230 
#    y 0.000000 1.630950 0.000000 
#    z -0.000230 0.000000 1.735230 
# 
# From -- ./inp_files/79593.got.cif
#   From: 2010.06.25/outbox.cif.g09.slc.cpg/sg10_40_cif.got.tgz:79593.got - 2010.06.27 22:07:45.
