data_PCOD8062641
_publ_section_title
;
Structure prediction by ZEFSAII (Michael W. Deem and Ramdas Pophale) SiO2 
 PCOD8062641
Probable space group: P 2/M
;
_chemical_formula_sum "Si O2"
_cell_formula_units_Z 32
_cell_length_a 26.713928
_cell_length_b 12.956717
_cell_length_c 9.587309
_cell_angle_alpha 90.000000
_cell_angle_beta 27.975192
_cell_angle_gamma 90.000000
_cell_volume 1556.628225
_symmetry_space_group_name_H-M "P 2/M"
_symmetry_group_IT_number 10
_symmetry_cell_setting 'monoclinic'
loop_
_space_group_symop_operation_xyz
x,y,z
-x,y,-z
-x,-y,-z
x,-y,z
loop_
_atom_site_type_symbol
_atom_site_label
_atom_site_fract_x
_atom_site_fract_y
_atom_site_fract_z
Si Si1 0.478876 0.227972 0.903640
Si Si2 0.113038 0.116684 0.796598
Si Si3 0.329092 0.378407 0.642491
Si Si4 0.948016 0.617164 0.272361
Si Si5 0.154541 0.684282 0.848610
Si Si6 0.681006 0.387553 0.748965
Si Si7 0.268209 0.310567 0.091417
Si Si8 0.322916 0.884074 0.090626
O O1 0.573763 0.297534 0.606980
O O2 0.500000 0.170738 0.000000
O O3 0.388384 0.309650 0.171836
O O4 0.429534 0.146318 0.916102
O O5 0.132911 0.193432 0.878271
O O6 0.214966 0.128566 0.444696
O O7 0.109333 0.000000 0.864953
O O8 0.000000 0.141857 0.000000
O O9 0.358576 0.500000 0.541533
O O10 0.234911 0.339630 0.775054
O O11 0.285141 0.369582 0.906860
O O12 0.905582 0.500000 0.363317
O O13 0.854813 0.689380 0.559305
O O14 0.000000 0.659608 0.000000
O O15 0.042877 0.626771 0.153616
O O16 0.197185 0.633395 0.597510
O O17 0.642027 0.500000 0.803218
O O18 0.664671 0.369685 0.953654
O O19 0.310251 0.191711 0.988080
O O20 0.338498 0.000000 0.997155
#
# Coordination Sequence:
#
# PCOD8062641 Si02
#       8
#     4   4   4   4   4   4   4   4
#     4  11  22  39  61  88 121 159 204 256 302 362
#     4  10  19  36  64  95 124 158 203 260 312 356
#     4  12  26  41  59  87 129 168 201 250 312 366
#     4  11  20  33  60  90 121 161 202 245 299 363
#     4  12  21  36  58  92 123 158 207 249 298 362
#     4  11  20  34  58  84 116 156 202 248 291 354
#     4  11  23  41  58  89 126 159 203 255 304 369
#     4  10  21  40  64  90 118 157 207 259 308 361
#
# _framework density 20.557251999999998
#
# number of rings (size 3 to 8) (size 9 to 14) (size 15 to 20)
#    0.000    1.000    5.000    3.750    0.000    3.250 
#    0.000    6.875    0.000    0.000    0.000    4.375 
#    0.000    0.000    0.000    0.000    0.000    0.000 
#
# Total GULP energy -396521.317077 kJ/mol
# GULP energy per Si atom -12391.291159 kJ/mol
# Density = 2.051046 g / cm^3
# Si number density = 20.557252 Si / 1000 Ang^3
#
#
#
# Elastic Constant Matrix: (Units=GPa)
#
#
# Indices 1 2 3 4 5 6 
#
# 1 88.5754 35.7694 33.6978 0.0000 -6.0326 0.0000
# 2 35.7694 129.8086 10.3225 0.0000 -3.0685 0.0000
# 3 33.6978 10.3225 61.3059 0.0000 -5.9959 0.0000
# 4 0.0000 0.0000 0.0000 22.4259 0.0000 -5.0962
# 5 -6.0326 -3.0685 -5.9959 0.0000 32.6250 0.0000
# 6 0.0000 0.0000 0.0000 -5.0962 0.0000 22.4728
#
#
#
# Elastic Compliance Matrix: (Units=1/GPa)
#
#
# Indices 1 2 3 4 5 6 
#
# 1 0.015918 -0.003723 -0.008013 0.000000 0.001121 0.000000
# 2 -0.003723 0.008687 0.000607 0.000000 0.000240 0.000000
# 3 -0.008013 0.000607 0.020849 0.000000 0.002407 0.000000
# 4 0.000000 0.000000 0.000000 0.047014 0.000000 0.010662
# 5 0.001121 0.000240 0.002407 0.000000 0.031323 0.000000
# 6 0.000000 0.000000 0.000000 0.010662 0.000000 0.046916
#
#
# Mechanical properties :
#
#
# Convention : Reuss Voigt Hill
#
# Bulk Modulus (GPa) = 43.10948 48.80769 45.95859
# Shear Modulus (GPa) = 24.91309 28.83142 26.87226
#
# Velocity S-wave (km/s) = 3.48500 3.74905 3.61943
# Velocity P-wave (km/s) = 6.09996 6.52184 6.31443
#
# Compressibility (1/GPa) = 0.02319675
#
# Stress axis : x y z
#
# Youngs Moduli (GPa) = 62.82205 115.11676 47.96291
#
# Poissons Ratio (x) = 0.42853 0.38434
# Poissons Ratio (y) = 0.23386 -0.02911
# Poissons Ratio (z) = 0.50341 -0.06988
#
# Static dielectric constant tensor:
#      x y z
#    x 3.720850 0.000000 -0.342280 
#    y 0.000000 3.851390 0.000000 
#    z -0.342280 0.000000 3.649960 
# 
# 
# High freq. dielectric constant tensor:
#      x y z
#    x 1.797580 0.000000 -0.032810 
#    y 0.000000 1.806730 0.000000 
#    z -0.032810 0.000000 1.789920 
# 
# From -- ./inp_files/37689.got.cif
#   From: 2010.06.25/outbox.cif.g09.slc.cpg/sg10_19_cif.got.tgz:37689.got - 2010.06.27 22:07:45.
