data_PCOD8062338
_publ_section_title
;
Structure prediction by ZEFSAII (Michael W. Deem and Ramdas Pophale) SiO2 
 PCOD8062338
Probable space group: P 2/M
;
_chemical_formula_sum "Si O2"
_cell_formula_units_Z 32
_cell_length_a 21.629424
_cell_length_b 8.788592
_cell_length_c 27.924321
_cell_angle_alpha 90.000000
_cell_angle_beta 18.742549
_cell_angle_gamma 90.000000
_cell_volume 1705.609723
_symmetry_space_group_name_H-M "P 2/M"
_symmetry_group_IT_number 10
_symmetry_cell_setting 'monoclinic'
loop_
_space_group_symop_operation_xyz
x,y,z
-x,y,-z
-x,-y,-z
x,-y,z
loop_
_atom_site_type_symbol
_atom_site_label
_atom_site_fract_x
_atom_site_fract_y
_atom_site_fract_z
Si Si1 0.695885 0.320968 0.098505
Si Si2 0.922041 0.823809 0.664852
Si Si3 0.711895 0.821791 0.341259
Si Si4 0.426913 0.822091 0.148181
Si Si5 0.034379 0.821790 0.176559
Si Si6 0.660505 0.176554 0.679698
Si Si7 0.828070 0.321974 0.831600
Si Si8 0.981651 0.180858 0.959058
O O1 0.715761 0.500000 0.086957
O O2 0.473262 0.272160 0.258409
O O3 0.798941 0.260683 0.975230
O O4 0.787839 0.249452 0.078831
O O5 0.751986 0.779126 0.753769
O O6 0.911900 0.718939 0.718643
O O7 0.119361 0.787476 0.493185
O O8 0.907779 0.000000 0.690629
O O9 0.500000 0.744788 0.500000
O O10 0.826018 0.785779 0.306537
O O11 0.833732 0.758655 0.206582
O O12 0.686412 0.000000 0.352228
O O13 0.376992 0.771958 0.238479
O O14 0.476066 0.000000 0.109203
O O15 0.608106 0.729439 0.996307
O O16 0.037427 0.762059 0.228259
O O17 0.079939 0.000000 0.141524
O O18 0.612346 0.000000 0.707839
O O19 0.842530 0.500000 0.829945
O O20 0.966041 0.000000 0.967183
O O21 0.000000 0.237735 0.000000
#
# Coordination Sequence:
#
# PCOD8062338 Si02
#       8
#     4   4   4   4   4   4   4   4
#     4  11  21  34  56  84 115 149 186 226 279 338
#     4  10  22  39  58  84 113 146 188 236 287 335
#     4   8  15  30  54  82 107 131 171 227 275 314
#     4  10  20  37  63  86 108 142 190 240 281 334
#     4  10  19  35  59  82 108 145 192 235 272 324
#     4  10  20  37  61  85 111 145 190 237 282 333
#     4  12  24  37  55  82 117 153 188 229 283 339
#     4   9  18  34  56  81 109 143 186 229 270 321
#
# _framework density 18.761617999999999
#
# number of rings (size 3 to 8) (size 9 to 14) (size 15 to 20)
#    0.000    2.000    1.250    4.125    0.000    4.250 
#    2.250    0.000    0.000   11.625    0.000    0.000 
#    0.000    0.000    0.000    0.000    0.000    0.000 
#
# Total GULP energy -396873.449163 kJ/mol
# GULP energy per Si atom -12402.295286 kJ/mol
# Density = 1.871892 g / cm^3
# Si number density = 18.761618 Si / 1000 Ang^3
#
#
#
# Elastic Constant Matrix: (Units=GPa)
#
#
# Indices 1 2 3 4 5 6 
#
# 1 133.3056 26.7564 34.6777 0.0000 -8.5174 0.0000
# 2 26.7564 45.2233 10.8682 0.0000 -3.7436 0.0000
# 3 34.6777 10.8682 62.1261 0.0000 -11.0652 0.0000
# 4 0.0000 0.0000 0.0000 4.0872 0.0000 4.4423
# 5 -8.5174 -3.7436 -11.0652 0.0000 30.3757 0.0000
# 6 0.0000 0.0000 0.0000 4.4423 0.0000 15.8221
#
#
#
# Elastic Compliance Matrix: (Units=1/GPa)
#
#
# Indices 1 2 3 4 5 6 
#
# 1 0.009616 -0.004572 -0.004479 0.000000 0.000502 0.000000
# 2 -0.004572 0.025318 -0.001657 0.000000 0.001235 0.000000
# 3 -0.004479 -0.001657 0.019918 0.000000 0.005796 0.000000
# 4 0.000000 0.000000 0.000000 0.352117 0.000000 -0.098862
# 5 0.000502 0.001235 0.005796 0.000000 0.035325 0.000000
# 6 0.000000 0.000000 0.000000 -0.098862 0.000000 0.090960
#
#
# Mechanical properties :
#
#
# Convention : Reuss Voigt Hill
#
# Bulk Modulus (GPa) = 29.90664 42.80661 36.35662
# Shear Modulus (GPa) = 8.83680 21.28053 15.05867
#
# Velocity S-wave (km/s) = 2.17262 3.37153 2.83615
# Velocity P-wave (km/s) = 4.71896 6.16619 5.49047
#
# Compressibility (1/GPa) = 0.03343740
#
# Stress axis : x y z
#
# Youngs Moduli (GPa) = 103.99088 39.49786 50.20499
#
# Poissons Ratio (x) = 0.18057 0.22484
# Poissons Ratio (y) = 0.47541 0.08321
# Poissons Ratio (z) = 0.46573 0.06546
#
# Static dielectric constant tensor:
#      x y z
#    x 3.598460 0.000000 -0.097210 
#    y 0.000000 3.250280 0.000000 
#    z -0.097210 0.000000 3.525070 
# 
# 
# High freq. dielectric constant tensor:
#      x y z
#    x 1.738330 0.000000 -0.009590 
#    y 0.000000 1.708560 0.000000 
#    z -0.009590 0.000000 1.724440 
# 
# From -- ./inp_files/86726.got.cif
#   From: 2010.06.25/outbox.cif.g09.slc.cpg/sg10_44_cif.got.tgz:86726.got - 2010.06.27 22:07:45.
