data_PCOD8062823
_publ_section_title
;
Structure prediction by ZEFSAII (Michael W. Deem and Ramdas Pophale) SiO2 
 PCOD8062823
Probable space group: P 2/M
;
_chemical_formula_sum "Si O2"
_cell_formula_units_Z 32
_cell_length_a 15.323031
_cell_length_b 19.051848
_cell_length_c 20.927536
_cell_angle_alpha 90.000000
_cell_angle_beta 19.371725
_cell_angle_gamma 90.000000
_cell_volume 2026.467397
_symmetry_space_group_name_H-M "P 2/M"
_symmetry_group_IT_number 10
_symmetry_cell_setting 'monoclinic'
loop_
_space_group_symop_operation_xyz
x,y,z
-x,y,-z
-x,-y,-z
x,-y,z
loop_
_atom_site_type_symbol
_atom_site_label
_atom_site_fract_x
_atom_site_fract_y
_atom_site_fract_z
Si Si1 0.044091 0.679783 0.072010
Si Si2 0.253658 0.079960 0.623180
Si Si3 0.572632 0.161141 0.304505
Si Si4 0.935868 0.838864 0.941261
Si Si5 0.579675 0.320219 0.304234
Si Si6 0.737661 0.577705 0.975141
Si Si7 0.886430 0.577705 0.400753
Si Si8 0.189377 0.579850 0.310613
O O1 0.097771 0.758901 0.058891
O O2 0.100930 0.626190 0.088791
O O3 0.740946 0.671626 0.259063
O O4 0.232720 0.660660 0.883633
O O5 0.500000 0.085750 0.500000
O O6 0.333761 0.115062 0.499459
O O7 0.999084 0.115065 0.834131
O O8 0.177575 0.000000 0.661209
O O9 0.471103 0.241101 0.372248
O O10 0.822594 0.156137 0.177410
O O11 0.673205 0.137238 0.163409
O O12 0.342049 0.373817 0.468256
O O13 0.684963 0.500000 0.042345
O O14 0.905174 0.567013 0.797416
O O15 0.464543 0.615185 0.141982
O O16 0.775710 0.500000 0.496967
O O17 0.038393 0.615184 0.355063
O O18 0.253986 0.500000 0.246007
O O19 0.000000 0.585753 0.500000
#
# Coordination Sequence:
#
# PCOD8062823 Si02
#       8
#     4   4   4   4   4   4   4   4
#     4   9  18  31  45  61  83 116 154 185 218 261
#     4   9  16  24  38  60  81 108 145 178 213 256
#     4   8  15  27  40  56  81 112 145 180 216 257
#     4   8  15  27  40  56  81 112 145 180 216 257
#     4   9  18  31  45  61  83 116 154 185 218 261
#     4  10  20  31  44  64  87 111 143 185 229 268
#     4  10  20  31  44  64  87 111 143 185 229 268
#     4   9  17  31  49  63  79 107 141 178 223 272
#
# _framework density 15.791026
#
# number of rings (size 3 to 8) (size 9 to 14) (size 15 to 20)
#    0.000    3.000    0.000    2.625    1.750    4.500 
#    0.000    5.000    0.000    0.000    0.000    0.000 
#    0.000    0.000    0.000    2.250    0.000   14.500 
#
# Total GULP energy -396469.980908 kJ/mol
# GULP energy per Si atom -12389.686903 kJ/mol
# Density = 1.575509 g / cm^3
# Si number density = 15.791026 Si / 1000 Ang^3
#
#
#
# Elastic Constant Matrix: (Units=GPa)
#
#
# Indices 1 2 3 4 5 6 
#
# 1 68.4951 38.0630 33.5997 0.0000 6.0281 0.0000
# 2 38.0630 75.0870 44.5771 0.0000 8.1826 0.0000
# 3 33.5997 44.5771 80.6721 0.0000 9.2737 0.0000
# 4 0.0000 0.0000 0.0000 17.1454 0.0000 12.1095
# 5 6.0281 8.1826 9.2737 0.0000 23.9211 0.0000
# 6 0.0000 0.0000 0.0000 12.1095 0.0000 7.5080
#
#
#
# Elastic Compliance Matrix: (Units=1/GPa)
#
#
# Indices 1 2 3 4 5 6 
#
# 1 0.021311 -0.008179 -0.004250 0.000000 -0.000925 0.000000
# 2 -0.008179 0.023121 -0.009103 0.000000 -0.002319 0.000000
# 3 -0.004250 -0.009103 0.019588 0.000000 -0.003409 0.000000
# 4 0.000000 0.000000 0.000000 -0.419140 0.000000 0.676025
# 5 -0.000925 -0.002319 -0.003409 0.000000 0.044152 0.000000
# 6 0.000000 0.000000 0.000000 0.676025 0.000000 -0.957159
#
#
# Mechanical properties :
#
#
# Convention : Reuss Voigt Hill
#
# Bulk Modulus (GPa) = 47.71965 50.74821 49.23393
# Shear Modulus (GPa) = -4.10483 16.91584 6.40551
#
# Velocity S-wave (km/s) = -1.61404 3.27652 2.01624
# Velocity P-wave (km/s) = 5.17799 6.82065 6.05528
#
# Compressibility (1/GPa) = 0.02095573
#
# Stress axis : x y z
#
# Youngs Moduli (GPa) = 46.92434 43.25130 51.05198
#
# Poissons Ratio (x) = 0.35375 0.21698
# Poissons Ratio (y) = 0.38379 0.46472
# Poissons Ratio (z) = 0.19944 0.39371
#
# Static dielectric constant tensor:
#      x y z
#    x 2.785480 0.000000 0.322700 
#    y 0.000000 2.946300 0.000000 
#    z 0.322700 0.000000 3.041930 
# 
# 
# High freq. dielectric constant tensor:
#      x y z
#    x 1.578930 0.000000 0.029980 
#    y 0.000000 1.581680 0.000000 
#    z 0.029980 0.000000 1.602760 
# 
# From -- ./inp_files/85472.got.cif
#   From: 2010.06.25/outbox.cif.g09.slc.cpg/sg10_43_cif.got.tgz:85472.got - 2010.06.27 22:07:45.
