data_PCOD8062129
_publ_section_title
;
Structure prediction by ZEFSAII (Michael W. Deem and Ramdas Pophale) SiO2 
 PCOD8062129
Probable space group: P 2/M
;
_chemical_formula_sum "Si O2"
_cell_formula_units_Z 28
_cell_length_a 9.854365
_cell_length_b 7.931846
_cell_length_c 31.377486
_cell_angle_alpha 90.000000
_cell_angle_beta 35.371734
_cell_angle_gamma 90.000000
_cell_volume 1419.740056
_symmetry_space_group_name_H-M "P 2/M"
_symmetry_group_IT_number 10
_symmetry_cell_setting 'monoclinic'
loop_
_space_group_symop_operation_xyz
x,y,z
-x,y,-z
-x,-y,-z
x,-y,z
loop_
_atom_site_type_symbol
_atom_site_label
_atom_site_fract_x
_atom_site_fract_y
_atom_site_fract_z
Si Si1 0.878553 0.188861 0.791351
Si Si2 0.174173 0.300556 0.492216
Si Si3 0.039262 0.304030 0.620411
Si Si4 0.693099 0.198316 0.368620
Si Si5 0.410785 0.186689 0.218230
Si Si6 0.697479 0.500000 0.127380
Si Si7 0.495732 0.189502 0.050890
Si Si8 0.751626 0.500000 0.019016
O O1 0.678756 0.202130 0.806847
O O2 0.756361 0.257964 0.866005
O O3 0.116693 0.279712 0.713575
O O4 0.957894 0.000000 0.780423
O O5 0.169475 0.500000 0.492454
O O6 0.437841 0.239536 0.415830
O O7 0.000000 0.228695 0.500000
O O8 0.101825 0.233612 0.557452
O O9 0.979138 0.500000 0.633798
O O10 0.808133 0.205945 0.694043
O O11 0.256873 0.275163 0.597211
O O12 0.732242 0.000000 0.363026
O O13 0.603398 0.333100 0.175956
O O14 0.520911 0.000000 0.197900
O O15 0.618084 0.500000 0.098484
O O16 0.972204 0.500000 0.053294
O O17 0.690483 0.326129 0.011571
O O18 0.546127 0.000000 0.057188
O O19 0.500000 0.173591 0.000000
#
# Coordination Sequence:
#
# PCOD8062129 Si02
#       8
#     4   4   4   4   4   2   4   2
#     4   8  16  32  54  81 110 141 185 238 286 330
#     4  10  22  39  55  78 117 157 190 230 285 347
#     4  10  19  34  60  85 112 148 193 243 290 335
#     4  10  20  34  56  85 113 143 190 245 288 338
#     4  10  19  35  58  85 116 150 191 239 285 335
#     4  11  22  36  56  86 117 155 184 234 290 345
#     4  10  20  37  60  82 113 153 193 242 291 337
#     4  11  23  36  56  84 118 149 195 231 285 354
#
# _framework density 19.721919
#
# number of rings (size 3 to 8) (size 9 to 14) (size 15 to 20)
#    0.000    2.143    2.143    2.357    0.000    3.714 
#    1.286    2.857    0.000    1.714    0.000    0.000 
#    0.000    0.000    0.000    0.000    0.000    0.000 
#
# Total GULP energy -346928.894937 kJ/mol
# GULP energy per Si atom -12390.317676 kJ/mol
# Density = 1.967703 g / cm^3
# Si number density = 19.721919 Si / 1000 Ang^3
#
#
#
# Elastic Constant Matrix: (Units=GPa)
#
#
# Indices 1 2 3 4 5 6 
#
# 1 75.0375 24.1748 50.4690 0.0000 4.2124 0.0000
# 2 24.1748 98.0854 31.4288 0.0000 -8.5641 0.0000
# 3 50.4690 31.4288 130.0030 0.0000 7.4364 0.0000
# 4 0.0000 0.0000 0.0000 26.0649 0.0000 -3.0289
# 5 4.2124 -8.5641 7.4364 0.0000 24.6625 0.0000
# 6 0.0000 0.0000 0.0000 -3.0289 0.0000 14.5736
#
#
#
# Elastic Compliance Matrix: (Units=1/GPa)
#
#
# Indices 1 2 3 4 5 6 
#
# 1 0.018676 -0.002721 -0.006467 0.000000 -0.002185 0.000000
# 2 -0.002721 0.012017 -0.002151 0.000000 0.005286 0.000000
# 3 -0.006467 -0.002151 0.010890 0.000000 -0.002926 0.000000
# 4 0.000000 0.000000 0.000000 0.039315 0.000000 0.008171
# 5 -0.002185 0.005286 -0.002926 0.000000 0.043638 0.000000
# 6 0.000000 0.000000 0.000000 0.008171 0.000000 0.070315
#
#
# Mechanical properties :
#
#
# Convention : Reuss Voigt Hill
#
# Bulk Modulus (GPa) = 52.90083 57.25235 55.07659
# Shear Modulus (GPa) = 22.33812 26.19710 24.26761
#
# Velocity S-wave (km/s) = 3.36914 3.64857 3.51164
# Velocity P-wave (km/s) = 6.48201 6.84414 6.66553
#
# Compressibility (1/GPa) = 0.01890329
#
# Stress axis : x y z
#
# Youngs Moduli (GPa) = 53.54482 83.21740 91.82551
#
# Poissons Ratio (x) = 0.22647 0.59387
# Poissons Ratio (y) = 0.14572 0.19751
# Poissons Ratio (z) = 0.34629 0.17900
#
# Static dielectric constant tensor:
#      x y z
#    x 3.338810 0.000000 0.120940 
#    y 0.000000 3.894670 0.000000 
#    z 0.120940 0.000000 3.911520 
# 
# 
# High freq. dielectric constant tensor:
#      x y z
#    x 1.720070 0.000000 0.004550 
#    y 0.000000 1.770300 0.000000 
#    z 0.004550 0.000000 1.787830 
# 
# From -- ./inp_files/92026.got.cif
#   From: 2010.06.25/outbox.cif.g09.slc.cpg/sg10_47_cif.got.tgz:92026.got - 2010.06.27 22:07:45.
