data_PCOD8062546
_publ_section_title
;
Structure prediction by ZEFSAII (Michael W. Deem and Ramdas Pophale) SiO2 
 PCOD8062546
Probable space group: P 2/M
;
_chemical_formula_sum "Si O2"
_cell_formula_units_Z 32
_cell_length_a 12.108910
_cell_length_b 8.944889
_cell_length_c 20.539123
_cell_angle_alpha 90.000000
_cell_angle_beta 128.001077
_cell_angle_gamma 90.000000
_cell_volume 1753.023220
_symmetry_space_group_name_H-M "P 2/M"
_symmetry_group_IT_number 10
_symmetry_cell_setting 'monoclinic'
loop_
_space_group_symop_operation_xyz
x,y,z
-x,y,-z
-x,-y,-z
x,-y,z
loop_
_atom_site_type_symbol
_atom_site_label
_atom_site_fract_x
_atom_site_fract_y
_atom_site_fract_z
Si Si1 0.089986 0.323510 0.972266
Si Si2 0.102032 0.173624 0.479113
Si Si3 0.943612 0.828770 0.288377
Si Si4 0.927720 0.323883 0.786294
Si Si5 0.657510 0.171943 0.248066
Si Si6 0.654140 0.823593 0.731423
Si Si7 0.364640 0.323692 0.624931
Si Si8 0.346267 0.171632 0.118971
O O1 0.093943 0.500000 0.975807
O O2 0.021828 0.266015 0.880654
O O3 0.248986 0.265852 0.035330
O O4 0.000000 0.259078 0.000000
O O5 0.243700 0.270023 0.531963
O O6 0.000000 0.225704 0.500000
O O7 0.027427 0.207247 0.384162
O O8 0.140340 0.000000 0.501228
O O9 0.779065 0.796923 0.240231
O O10 0.993301 0.716876 0.250981
O O11 0.967599 0.000000 0.275278
O O12 0.902658 0.500000 0.781130
O O13 0.778410 0.242134 0.732950
O O14 0.678344 0.276260 0.317904
O O15 0.508309 0.203595 0.159463
O O16 0.663104 0.000000 0.275164
O O17 0.509264 0.751872 0.654701
O O18 0.680129 0.779462 0.816018
O O19 0.644729 0.000000 0.718364
O O20 0.382038 0.500000 0.627507
O O21 0.306972 0.000000 0.094721
#
# Coordination Sequence:
#
# PCOD8062546 Si02
#       8
#     4   4   4   4   4   4   4   4
#     4  10  20  35  54  78 112 148 183 222 276 338
#     4  10  19  36  60  83 110 147 189 232 273 323
#     4  10  21  38  60  81 110 151 188 225 276 334
#     4  11  23  38  56  81 115 149 183 230 282 333
#     4   9  18  36  56  80 112 148 188 228 275 329
#     4  10  20  36  57  81 111 147 188 228 276 334
#     4  11  21  32  54  87 118 144 179 232 283 325
#     4   9  18  31  55  85 108 135 183 240 274 310
#
# _framework density 18.254179000000001
#
# number of rings (size 3 to 8) (size 9 to 14) (size 15 to 20)
#    0.000    2.000    2.500    2.625    0.000    4.500 
#    0.000    1.250    0.000    7.500    0.000    0.000 
#    0.000    0.000    0.000    0.000    0.000    0.000 
#
# Total GULP energy -396906.303792 kJ/mol
# GULP energy per Si atom -12403.321993 kJ/mol
# Density = 1.821263 g / cm^3
# Si number density = 18.254179 Si / 1000 Ang^3
#
#
#
# Elastic Constant Matrix: (Units=GPa)
#
#
# Indices 1 2 3 4 5 6 
#
# 1 118.2522 43.7671 59.6473 0.0000 15.2384 0.0000
# 2 43.7671 73.8178 40.1040 0.0000 8.9870 0.0000
# 3 59.6473 40.1040 100.7432 0.0000 15.2434 0.0000
# 4 0.0000 0.0000 0.0000 28.9873 0.0000 -1.4911
# 5 15.2384 8.9870 15.2434 0.0000 31.4489 0.0000
# 6 0.0000 0.0000 0.0000 -1.4911 0.0000 21.7591
#
#
#
# Elastic Compliance Matrix: (Units=1/GPa)
#
#
# Indices 1 2 3 4 5 6 
#
# 1 0.013320 -0.004489 -0.005738 0.000000 -0.002390 0.000000
# 2 -0.004489 0.018886 -0.004719 0.000000 -0.000934 0.000000
# 3 -0.005738 -0.004719 0.015731 0.000000 -0.003496 0.000000
# 4 0.000000 0.000000 0.000000 0.034620 0.000000 0.002372
# 5 -0.002390 -0.000934 -0.003496 0.000000 0.034917 0.000000
# 6 0.000000 0.000000 0.000000 0.002372 0.000000 0.046120
#
#
# Mechanical properties :
#
#
# Convention : Reuss Voigt Hill
#
# Bulk Modulus (GPa) = 55.41595 64.42777 59.92186
# Shear Modulus (GPa) = 25.06241 26.39204 25.72722
#
# Velocity S-wave (km/s) = 3.70938 3.80650 3.75825
# Velocity P-wave (km/s) = 6.98354 7.39532 7.19238
#
# Compressibility (1/GPa) = 0.01804535
#
# Stress axis : x y z
#
# Youngs Moduli (GPa) = 75.07331 52.94906 63.56946
#
# Poissons Ratio (x) = 0.23771 0.36475
# Poissons Ratio (y) = 0.33704 0.29997
# Poissons Ratio (z) = 0.43075 0.24985
#
# Static dielectric constant tensor:
#      x y z
#    x 3.322700 0.000000 0.232270 
#    y 0.000000 3.241520 0.000000 
#    z 0.232270 0.000000 3.346150 
# 
# 
# High freq. dielectric constant tensor:
#      x y z
#    x 1.698480 0.000000 0.024530 
#    y 0.000000 1.703700 0.000000 
#    z 0.024530 0.000000 1.701680 
# 
# From -- ./inp_files/55182.got.cif
#   From: 2010.06.25/outbox.cif.g09.slc.cpg/sg10_28_cif.got.tgz:55182.got - 2010.06.27 22:07:45.
