data_PCOD8062469
_publ_section_title
;
Structure prediction by ZEFSAII (Michael W. Deem and Ramdas Pophale) SiO2 
 PCOD8062469
Probable space group: P 2/M
;
_chemical_formula_sum "Si O2"
_cell_formula_units_Z 26
_cell_length_a 13.446639
_cell_length_b 17.783931
_cell_length_c 6.139106
_cell_angle_alpha 90.000000
_cell_angle_beta 64.776912
_cell_angle_gamma 90.000000
_cell_volume 1328.097091
_symmetry_space_group_name_H-M "P 2/M"
_symmetry_group_IT_number 10
_symmetry_cell_setting 'monoclinic'
loop_
_space_group_symop_operation_xyz
x,y,z
-x,y,-z
-x,-y,-z
x,-y,z
loop_
_atom_site_type_symbol
_atom_site_label
_atom_site_fract_x
_atom_site_fract_y
_atom_site_fract_z
Si Si1 0.758334 0.175017 0.627417
Si Si2 0.878085 0.767880 0.127654
Si Si3 0.179655 0.915712 0.053464
Si Si4 0.688740 0.293630 0.019298
Si Si5 0.500000 0.337323 0.500000
Si Si6 0.385518 0.417194 0.225535
Si Si7 0.378520 0.916380 0.573942
O O1 0.842324 0.227957 0.414372
O O2 0.825481 0.108957 0.688342
O O3 0.671172 0.141808 0.545834
O O4 0.688315 0.221084 0.867475
O O5 0.796689 0.712106 0.071783
O O6 0.884012 0.853593 0.030060
O O7 0.000000 0.732925 0.000000
O O8 0.128587 0.000000 0.074206
O O9 0.307417 0.916469 0.861173
O O10 0.576500 0.288782 0.265880
O O11 0.693047 0.366203 0.855041
O O12 0.411065 0.385360 0.443513
O O13 0.330824 0.500000 0.301200
O O14 0.500000 0.425047 0.000000
O O15 0.500000 0.886298 0.500000
O O16 0.381644 0.000000 0.468508
#
# Coordination Sequence:
#
# PCOD8062469 Si02
#       7
#     4   4   4   4   2   4   4
#     4  10  20  37  51  79 105 143 185 228 281 329
#     4  10  22  40  57  77 108 145 189 237 284 327
#     4   9  19  35  53  76 103 136 185 238 285 331
#     4  10  21  37  54  85 117 148 182 222 271 325
#     4  10  19  36  56  88 123 146 178 214 269 324
#     4   9  18  34  57  84 116 152 183 215 259 320
#     4   9  18  34  51  72 104 143 185 226 272 328
#
# _framework density 19.576881
#
# number of rings (size 3 to 8) (size 9 to 14) (size 15 to 20)
#    0.000    2.462    0.000    1.615    0.000    4.615 
#   41.538    3.077    0.000    0.462    0.000    4.308 
#    0.000    0.000    0.000    0.000    0.000    0.000 
#
# Total GULP energy -322218.110870 kJ/mol
# GULP energy per Si atom -12393.004264 kJ/mol
# Density = 1.953232 g / cm^3
# Si number density = 19.576881 Si / 1000 Ang^3
#
#
#
# Elastic Constant Matrix: (Units=GPa)
#
#
# Indices 1 2 3 4 5 6 
#
# 1 87.3529 30.1093 39.8947 0.0000 -4.5236 0.0000
# 2 30.1093 80.9065 29.2232 0.0000 5.6484 0.0000
# 3 39.8947 29.2232 100.9677 0.0000 13.4231 0.0000
# 4 0.0000 0.0000 0.0000 10.6353 0.0000 4.0930
# 5 -4.5236 5.6484 13.4231 0.0000 24.2973 0.0000
# 6 0.0000 0.0000 0.0000 4.0930 0.0000 20.9767
#
#
#
# Elastic Compliance Matrix: (Units=1/GPa)
#
#
# Indices 1 2 3 4 5 6 
#
# 1 0.016095 -0.004303 -0.006093 0.000000 0.007363 0.000000
# 2 -0.004303 0.014980 -0.002230 0.000000 -0.003052 0.000000
# 3 -0.006093 -0.002230 0.014072 0.000000 -0.008390 0.000000
# 4 0.000000 0.000000 0.000000 0.101660 0.000000 -0.019836
# 5 0.007363 -0.003052 -0.008390 0.000000 0.047872 0.000000
# 6 0.000000 0.000000 0.000000 -0.019836 0.000000 0.051542
#
#
# Mechanical properties :
#
#
# Convention : Reuss Voigt Hill
#
# Bulk Modulus (GPa) = 50.26172 51.96461 51.11317
# Shear Modulus (GPa) = 17.97881 22.51519 20.24700
#
# Velocity S-wave (km/s) = 3.03375 3.39498 3.21943
# Velocity P-wave (km/s) = 6.16452 6.47837 6.32339
#
# Compressibility (1/GPa) = 0.01989586
#
# Stress axis : x y z
#
# Youngs Moduli (GPa) = 62.13114 66.75692 71.06111
#
# Poissons Ratio (x) = 0.28726 0.43297
# Poissons Ratio (y) = 0.26735 0.15844
# Poissons Ratio (z) = 0.37856 0.14885
#
# Static dielectric constant tensor:
#      x y z
#    x 3.361340 0.000000 0.232690 
#    y 0.000000 3.767080 0.000000 
#    z 0.232690 0.000000 3.910970 
# 
# 
# High freq. dielectric constant tensor:
#      x y z
#    x 1.735360 0.000000 0.019590 
#    y 0.000000 1.746600 0.000000 
#    z 0.019590 0.000000 1.766920 
# 
# From -- ./inp_files/9594.got.cif
#   From: 2010.06.25/outbox.cif.g09.slc.cpg/sg10_5_cif.got.tgz:9594.got - 2010.06.27 22:07:45.
