data_PCOD8062935
_publ_section_title
;
Structure prediction by ZEFSAII (Michael W. Deem and Ramdas Pophale) SiO2 
 PCOD8062935
Probable space group: P 2/M
;
_chemical_formula_sum "Si O2"
_cell_formula_units_Z 28
_cell_length_a 9.094192
_cell_length_b 9.207785
_cell_length_c 29.198082
_cell_angle_alpha 90.000000
_cell_angle_beta 38.861654
_cell_angle_gamma 90.000000
_cell_volume 1534.077307
_symmetry_space_group_name_H-M "P 2/M"
_symmetry_group_IT_number 10
_symmetry_cell_setting 'monoclinic'
loop_
_space_group_symop_operation_xyz
x,y,z
-x,y,-z
-x,-y,-z
x,-y,z
loop_
_atom_site_type_symbol
_atom_site_label
_atom_site_fract_x
_atom_site_fract_y
_atom_site_fract_z
Si Si1 0.055741 0.326430 0.843725
Si Si2 0.088842 0.672250 0.297559
Si Si3 0.263017 0.168170 0.426140
Si Si4 0.674644 0.340897 0.000000
Si Si5 0.606282 0.168169 0.426140
Si Si6 0.576636 0.672249 0.702441
Si Si7 0.725636 0.326430 0.843725
O O1 0.043140 0.500000 0.848964
O O2 0.322263 0.271157 0.780606
O O3 0.911025 0.262521 0.923166
O O4 0.936475 0.271824 0.825410
O O5 0.062762 0.500000 0.302728
O O6 0.233603 0.725055 0.306559
O O7 0.225292 0.728843 0.219394
O O8 0.833052 0.738981 0.360092
O O9 0.413195 0.199388 0.434722
O O10 0.366490 0.261018 0.360091
O O11 0.000000 0.220166 0.500000
O O12 0.268374 0.000000 0.410592
O O13 0.748657 0.500000 1.000000
O O14 0.500000 0.357609 0.000000
O O15 0.526853 0.262521 0.076835
O O16 0.500000 0.220164 0.500000
O O17 0.678671 0.000000 0.410590
O O18 0.576405 0.500000 0.697271
O O19 0.712039 0.500000 0.848965
#
# Coordination Sequence:
#
# PCOD8062935 Si02
#       7
#     4   4   4   4   4   4   4
#     4   8  13  23  40  62  90 124 160 197 235 275
#     4  10  20  32  47  71 102 132 161 194 234 280
#     4  10  21  37  56  75  94 120 156 196 238 285
#     4   7  10  18  35  59  86 119 158 195 232 274
#     4  10  21  37  56  75  94 120 156 196 238 285
#     4  10  20  32  47  71 102 132 161 194 234 280
#     4   8  13  23  40  62  90 124 160 197 235 275
#
# _framework density 18.252013000000002
#
# number of rings (size 3 to 8) (size 9 to 14) (size 15 to 20)
#    0.000    3.000    0.000    3.429    0.000    4.000 
#    0.000    0.714    0.000    4.286    0.000    1.000 
#    0.000    8.000    0.000    0.000    0.000    0.000 
#
# Total GULP energy -346962.676113 kJ/mol
# GULP energy per Si atom -12391.524147 kJ/mol
# Density = 1.821047 g / cm^3
# Si number density = 18.252013 Si / 1000 Ang^3
#
#
#
# Elastic Constant Matrix: (Units=GPa)
#
#
# Indices 1 2 3 4 5 6 
#
# 1 92.1146 20.1184 63.1176 0.0000 0.5098 0.0000
# 2 20.1184 15.4066 27.8207 0.0000 0.0992 0.0000
# 3 63.1176 27.8207 173.6532 0.0000 0.5395 0.0000
# 4 0.0000 0.0000 0.0000 -11.6038 0.0000 -0.3895
# 5 0.5098 0.0992 0.5395 0.0000 34.2993 0.0000
# 6 0.0000 0.0000 0.0000 -0.3895 0.0000 18.6891
#
#
#
# Elastic Compliance Matrix: (Units=1/GPa)
#
#
# Indices 1 2 3 4 5 6 
#
# 1 0.016659 -0.015224 -0.003616 0.000000 -0.000147 0.000000
# 2 -0.015224 0.105241 -0.011327 0.000000 0.000100 0.000000
# 3 -0.003616 -0.011327 0.008888 0.000000 -0.000053 0.000000
# 4 0.000000 0.000000 0.000000 -0.086118 0.000000 -0.001795
# 5 -0.000147 0.000100 -0.000053 0.000000 0.029158 0.000000
# 6 0.000000 0.000000 0.000000 -0.001795 0.000000 0.053470
#
#
# Mechanical properties :
#
#
# Convention : Reuss Voigt Hill
#
# Bulk Modulus (GPa) = 14.19373 55.92087 35.05730
# Shear Modulus (GPa) = 23.68361 19.61810 21.65086
#
# Velocity S-wave (km/s) = 3.60611 3.28204 3.44789
# Velocity P-wave (km/s) = 5.01320 6.71320 5.92449
#
# Compressibility (1/GPa) = 0.07045366
#
# Stress axis : x y z
#
# Youngs Moduli (GPa) = 60.02601 9.50199 112.51550
#
# Poissons Ratio (x) = 0.14466 0.40682
# Poissons Ratio (y) = 0.91386 1.27448
# Poissons Ratio (z) = 0.21703 0.10763
#
# Static dielectric constant tensor:
#      x y z
#    x 3.370250 0.000000 0.006870 
#    y 0.000000 2.826190 0.000000 
#    z 0.006870 0.000000 3.904160 
# 
# 
# High freq. dielectric constant tensor:
#      x y z
#    x 1.698450 0.000000 0.000470 
#    y 0.000000 1.643880 0.000000 
#    z 0.000470 0.000000 1.735090 
# 
# From -- ./inp_files/94492.got.cif
#   From: 2010.06.25/outbox.cif.g09.slc.cpg/sg10_48_cif.got.tgz:94492.got - 2010.06.27 22:07:45.
