data_PCOD8062871
_publ_section_title
;
Structure prediction by ZEFSAII (Michael W. Deem and Ramdas Pophale) SiO2 
 PCOD8062871
Probable space group: P 2/M
;
_chemical_formula_sum "Si O2"
_cell_formula_units_Z 32
_cell_length_a 12.477336
_cell_length_b 13.966520
_cell_length_c 17.782522
_cell_angle_alpha 90.000000
_cell_angle_beta 149.668307
_cell_angle_gamma 90.000000
_cell_volume 1564.945522
_symmetry_space_group_name_H-M "P 2/M"
_symmetry_group_IT_number 10
_symmetry_cell_setting 'monoclinic'
loop_
_space_group_symop_operation_xyz
x,y,z
-x,y,-z
-x,-y,-z
x,-y,z
loop_
_atom_site_type_symbol
_atom_site_label
_atom_site_fract_x
_atom_site_fract_y
_atom_site_fract_z
Si Si1 0.767965 0.612341 0.869362
Si Si2 0.982786 0.279510 0.706106
Si Si3 0.948180 0.110704 0.786938
Si Si4 0.417966 0.111114 0.137139
Si Si5 0.622612 0.242483 0.145908
Si Si6 0.231001 0.110557 0.171436
Si Si7 0.439491 0.613502 0.548068
Si Si8 0.695243 0.388057 0.996034
O O1 0.786253 0.500000 0.866753
O O2 0.615687 0.654841 0.712461
O O3 0.684424 0.635935 0.901400
O O4 0.000000 0.660019 0.000000
O O5 0.906955 0.175823 0.689530
O O6 0.781026 0.340516 0.559158
O O7 0.131112 0.261411 0.723196
O O8 0.102280 0.336489 0.844892
O O9 0.777084 0.146547 0.747044
O O10 0.906438 0.000000 0.740742
O O11 0.190790 0.124107 0.959951
O O12 0.595999 0.171364 0.200481
O O13 0.398269 0.153869 0.211467
O O14 0.486622 0.000000 0.178295
O O15 0.520399 0.346512 0.099877
O O16 0.500000 0.196023 0.000000
O O17 0.285809 0.000000 0.205866
O O18 0.000000 0.127993 0.000000
O O19 0.500000 0.643499 0.500000
O O20 0.416380 0.500000 0.541316
O O21 0.711340 0.500000 0.022507
#
# Coordination Sequence:
#
# PCOD8062871 Si02
#       8
#     4   4   4   4   4   4   4   4
#     4   9  18  36  61  86 110 139 182 239 293 342
#     4  11  21  34  54  85 120 156 195 235 289 348
#     4   9  16  29  49  79 116 153 194 243 294 341
#     4   9  15  28  47  72 113 156 197 250 296 334
#     4  10  20  32  44  76 115 156 201 240 281 340
#     4   7  12  23  41  66 101 143 188 241 298 344
#     4  10  21  39  61  86 117 150 188 234 291 354
#     4  10  20  35  52  77 114 154 199 241 282 333
#
# _framework density 20.447997999999998
#
# number of rings (size 3 to 8) (size 9 to 14) (size 15 to 20)
#    0.000    2.625    2.500    2.625    0.000    5.500 
#    4.500    0.625    0.000    2.625    0.000    1.750 
#    0.000    2.500    0.000    0.000    0.000    0.000 
#
# Total GULP energy -396542.377128 kJ/mol
# GULP energy per Si atom -12391.949285 kJ/mol
# Density = 2.040146 g / cm^3
# Si number density = 20.447998 Si / 1000 Ang^3
#
#
#
# Elastic Constant Matrix: (Units=GPa)
#
#
# Indices 1 2 3 4 5 6 
#
# 1 163.5804 52.7119 60.2282 0.0000 15.4987 0.0000
# 2 52.7119 76.7907 22.4644 0.0000 2.2752 0.0000
# 3 60.2282 22.4644 93.7799 0.0000 6.7195 0.0000
# 4 0.0000 0.0000 0.0000 11.7649 0.0000 5.0431
# 5 15.4987 2.2752 6.7195 0.0000 25.1909 0.0000
# 6 0.0000 0.0000 0.0000 5.0431 0.0000 35.0059
#
#
#
# Elastic Compliance Matrix: (Units=1/GPa)
#
#
# Indices 1 2 3 4 5 6 
#
# 1 0.010037 -0.005340 -0.004852 0.000000 -0.004399 0.000000
# 2 -0.005340 0.016848 -0.000747 0.000000 0.001963 0.000000
# 3 -0.004852 -0.000747 0.014007 0.000000 -0.000684 0.000000
# 4 0.000000 0.000000 0.000000 0.090593 0.000000 -0.013051
# 5 -0.004399 0.001963 -0.000684 0.000000 0.042408 0.000000
# 6 0.000000 0.000000 0.000000 -0.013051 0.000000 0.030447
#
#
# Mechanical properties :
#
#
# Convention : Reuss Voigt Hill
#
# Bulk Modulus (GPa) = 52.59035 67.21779 59.90407
# Shear Modulus (GPa) = 21.50010 27.64212 24.57111
#
# Velocity S-wave (km/s) = 3.24613 3.68071 3.47023
# Velocity P-wave (km/s) = 6.31068 7.14195 6.73914
#
# Compressibility (1/GPa) = 0.01901490
#
# Stress axis : x y z
#
# Youngs Moduli (GPa) = 99.62997 59.35261 71.39220
#
# Poissons Ratio (x) = 0.31695 0.34638
# Poissons Ratio (y) = 0.53204 0.05333
# Poissons Ratio (z) = 0.48338 0.04434
#
# Static dielectric constant tensor:
#      x y z
#    x 4.075890 0.000000 -0.032900 
#    y 0.000000 3.694200 0.000000 
#    z -0.032900 0.000000 3.276830 
# 
# 
# High freq. dielectric constant tensor:
#      x y z
#    x 1.812810 0.000000 0.001950 
#    y 0.000000 1.802990 0.000000 
#    z 0.001950 0.000000 1.741170 
# 
# From -- ./inp_files/77052.got.cif
#   From: 2010.06.25/outbox.cif.g09.slc.cpg/sg10_39_cif.got.tgz:77052.got - 2010.06.27 22:07:45.
