data_PCOD8062582
_publ_section_title
;
Structure prediction by ZEFSAII (Michael W. Deem and Ramdas Pophale) SiO2 
 PCOD8062582
Probable space group: P 2/M
;
_chemical_formula_sum "Si O2"
_cell_formula_units_Z 28
_cell_length_a 12.572800
_cell_length_b 8.503160
_cell_length_c 16.292023
_cell_angle_alpha 90.000000
_cell_angle_beta 123.900286
_cell_angle_gamma 90.000000
_cell_volume 1445.674220
_symmetry_space_group_name_H-M "P 2/M"
_symmetry_group_IT_number 10
_symmetry_cell_setting 'monoclinic'
loop_
_space_group_symop_operation_xyz
x,y,z
-x,y,-z
-x,-y,-z
x,-y,z
loop_
_atom_site_type_symbol
_atom_site_label
_atom_site_fract_x
_atom_site_fract_y
_atom_site_fract_z
Si Si1 0.078015 0.180319 0.455833
Si Si2 0.459637 0.820228 0.278370
Si Si3 0.250623 0.815924 0.313221
Si Si4 0.023516 0.179028 0.764115
Si Si5 0.512165 0.682144 0.884065
Si Si6 0.662905 0.681233 0.484069
Si Si7 0.696881 0.185760 0.092038
O O1 0.200594 0.290465 0.499537
O O2 0.000000 0.242589 0.500000
O O3 0.986283 0.195863 0.337945
O O4 0.122910 0.000000 0.487321
O O5 0.317301 0.788914 0.253987
O O6 0.484651 0.709812 0.211649
O O7 0.558968 0.786398 0.393320
O O8 0.473554 0.000000 0.255919
O O9 0.332756 0.728559 0.418502
O O10 0.104454 0.747265 0.248319
O O11 0.245997 0.000000 0.335901
O O12 0.158359 0.257125 0.849566
O O13 0.030043 0.000000 0.795650
O O14 0.532336 0.500000 0.911489
O O15 0.376637 0.735805 0.863099
O O16 0.627297 0.777301 0.976465
O O17 0.624042 0.500000 0.459455
O O18 0.698598 0.000000 0.108462
#
# Coordination Sequence:
#
# PCOD8062582 Si02
#       7
#     4   4   4   4   4   4   4
#     4   9  18  33  53  78 109 146 187 228 265 315
#     4  11  22  37  59  81 106 144 192 233 271 324
#     4   9  19  38  59  81 108 144 188 230 269 322
#     4   8  16  32  56  83 106 136 180 227 273 316
#     4  11  23  38  55  81 114 143 178 229 282 328
#     4  11  22  34  51  80 116 150 181 222 276 329
#     4  10  19  36  61  84 109 143 183 223 272 335
#
# _framework density 19.368127000000001
#
# number of rings (size 3 to 8) (size 9 to 14) (size 15 to 20)
#    0.000    2.143    0.000    5.571    2.000    3.143 
#    0.000    6.429    0.000    4.286    0.000    0.000 
#    0.000    0.000    0.000    0.000    0.000    0.000 
#
# Total GULP energy -347176.507219 kJ/mol
# GULP energy per Si atom -12399.160972 kJ/mol
# Density = 1.932404 g / cm^3
# Si number density = 19.368127 Si / 1000 Ang^3
#
#
#
# Elastic Constant Matrix: (Units=GPa)
#
#
# Indices 1 2 3 4 5 6 
#
# 1 99.0847 18.5220 56.0849 0.0000 3.8840 0.0000
# 2 18.5220 55.2901 10.0689 0.0000 -4.4110 0.0000
# 3 56.0849 10.0689 72.4373 0.0000 11.9121 0.0000
# 4 0.0000 0.0000 0.0000 18.7697 0.0000 -5.4389
# 5 3.8840 -4.4110 11.9121 0.0000 32.9653 0.0000
# 6 0.0000 0.0000 0.0000 -5.4389 0.0000 11.6421
#
#
#
# Elastic Compliance Matrix: (Units=1/GPa)
#
#
# Indices 1 2 3 4 5 6 
#
# 1 0.018881 -0.003468 -0.014560 0.000000 0.002573 0.000000
# 2 -0.003468 0.019611 -0.000573 0.000000 0.003240 0.000000
# 3 -0.014560 -0.000573 0.026461 0.000000 -0.007923 0.000000
# 4 0.000000 0.000000 0.000000 0.061619 0.000000 0.028787
# 5 0.002573 0.003240 -0.007923 0.000000 0.033328 0.000000
# 6 0.000000 0.000000 0.000000 0.028787 0.000000 0.099343
#
#
# Mechanical properties :
#
#
# Convention : Reuss Voigt Hill
#
# Bulk Modulus (GPa) = 36.03614 44.01819 40.02716
# Shear Modulus (GPa) = 16.35610 22.15119 19.25364
#
# Velocity S-wave (km/s) = 2.90916 3.38552 3.15634
# Velocity P-wave (km/s) = 5.47088 6.16918 5.83050
#
# Compressibility (1/GPa) = 0.02774992
#
# Stress axis : x y z
#
# Youngs Moduli (GPa) = 52.96301 50.99123 37.79211
#
# Poissons Ratio (x) = 0.17686 0.55024
# Poissons Ratio (y) = 0.18370 0.02167
# Poissons Ratio (z) = 0.77113 0.02924
#
# Static dielectric constant tensor:
#      x y z
#    x 3.834800 0.000000 0.166200 
#    y 0.000000 3.320990 0.000000 
#    z 0.166200 0.000000 3.375770 
# 
# 
# High freq. dielectric constant tensor:
#      x y z
#    x 1.766040 0.000000 0.005360 
#    y 0.000000 1.737240 0.000000 
#    z 0.005360 0.000000 1.736180 
# 
# From -- ./inp_files/63904.got.cif
#   From: 2010.06.25/outbox.cif.g09.slc.cpg/sg10_32_cif.got.tgz:63904.got - 2010.06.27 22:07:45.
