data_PCOD8062879
_publ_section_title
;
Structure prediction by ZEFSAII (Michael W. Deem and Ramdas Pophale) SiO2 
 PCOD8062879
Probable space group: P 2/M
;
_chemical_formula_sum "Si O2"
_cell_formula_units_Z 32
_cell_length_a 14.718109
_cell_length_b 8.911990
_cell_length_c 26.096588
_cell_angle_alpha 90.000000
_cell_angle_beta 147.492343
_cell_angle_gamma 90.000000
_cell_volume 1839.577327
_symmetry_space_group_name_H-M "P 2/M"
_symmetry_group_IT_number 10
_symmetry_cell_setting 'monoclinic'
loop_
_space_group_symop_operation_xyz
x,y,z
-x,y,-z
-x,-y,-z
x,-y,z
loop_
_atom_site_type_symbol
_atom_site_label
_atom_site_fract_x
_atom_site_fract_y
_atom_site_fract_z
Si Si1 0.871933 0.321409 0.729846
Si Si2 0.766880 0.323081 0.567684
Si Si3 0.927117 0.174360 0.551312
Si Si4 0.429652 0.677519 0.886096
Si Si5 0.245426 0.677790 0.899592
Si Si6 0.681245 0.826314 0.271035
Si Si7 0.433731 0.322992 0.352457
Si Si8 0.366484 0.321850 0.649044
O O1 0.878157 0.500000 0.735429
O O2 0.796733 0.270388 0.639669
O O3 0.747076 0.256234 0.714767
O O4 0.061289 0.255210 0.826673
O O5 0.796107 0.500000 0.574357
O O6 0.901463 0.238388 0.596060
O O7 0.578181 0.274966 0.461572
O O8 0.813147 0.261270 0.456062
O O9 0.120212 0.201953 0.628277
O O10 0.878798 0.000000 0.526514
O O11 0.417476 0.500000 0.871561
O O12 0.300300 0.731933 0.868919
O O13 0.388080 0.760810 0.814399
O O14 0.618460 0.726833 0.993093
O O15 0.238556 0.500000 0.894238
O O16 0.588182 0.744527 0.274010
O O17 0.635032 0.000000 0.250933
O O18 0.418704 0.500000 0.345675
O O19 0.485753 0.268818 0.320238
O O20 0.355599 0.500000 0.646778
#
# Coordination Sequence:
#
# PCOD8062879 Si02
#       8
#     4   4   4   4   4   4   4   4
#     4   9  14  23  44  71  96 121 151 189 231 269
#     4   9  16  26  44  70  96 124 156 186 220 266
#     4  10  20  32  45  65  96 126 151 185 226 270
#     4   9  17  31  49  71  97 120 149 187 226 272
#     4   8  15  27  46  72  98 122 147 183 230 273
#     4  11  22  33  47  68  92 121 155 188 229 276
#     4   8  15  26  41  66  96 121 151 191 228 264
#     4  10  20  33  49  68  90 120 157 193 227 264
#
# _framework density 17.395301
#
# number of rings (size 3 to 8) (size 9 to 14) (size 15 to 20)
#    0.000    2.750    0.000    4.125    0.000    6.000 
#    0.000    1.250    0.000    8.250    0.000    5.250 
#    0.000    0.000    0.000    0.000    0.000    0.000 
#
# Total GULP energy -396656.180508 kJ/mol
# GULP energy per Si atom -12395.505641 kJ/mol
# Density = 1.735571 g / cm^3
# Si number density = 17.395301 Si / 1000 Ang^3
#
#
#
# Elastic Constant Matrix: (Units=GPa)
#
#
# Indices 1 2 3 4 5 6 
#
# 1 135.0224 47.8996 69.7083 0.0000 -3.4493 0.0000
# 2 47.8996 47.7740 39.7640 0.0000 -4.7187 0.0000
# 3 69.7083 39.7640 85.4631 0.0000 -1.1362 0.0000
# 4 0.0000 0.0000 0.0000 12.6631 0.0000 0.1862
# 5 -3.4493 -4.7187 -1.1362 0.0000 30.6403 0.0000
# 6 0.0000 0.0000 0.0000 0.1862 0.0000 6.5851
#
#
#
# Elastic Compliance Matrix: (Units=1/GPa)
#
#
# Indices 1 2 3 4 5 6 
#
# 1 0.014288 -0.007528 -0.008149 0.000000 0.000147 0.000000
# 2 -0.007528 0.038810 -0.011855 0.000000 0.004690 0.000000
# 3 -0.008149 -0.011855 0.023839 0.000000 -0.001859 0.000000
# 4 0.000000 0.000000 0.000000 0.079003 0.000000 -0.002234
# 5 0.000147 0.004690 -0.001859 0.000000 0.033307 0.000000
# 6 0.000000 0.000000 0.000000 -0.002234 0.000000 0.151921
#
#
# Mechanical properties :
#
#
# Convention : Reuss Voigt Hill
#
# Bulk Modulus (GPa) = 45.71931 64.77817 55.24874
# Shear Modulus (GPa) = 12.39090 17.37021 14.88055
#
# Velocity S-wave (km/s) = 2.67182 3.16342 2.92796
# Velocity P-wave (km/s) = 5.98813 7.11778 6.57725
#
# Compressibility (1/GPa) = 0.02187259
#
# Stress axis : x y z
#
# Youngs Moduli (GPa) = 69.99011 25.76657 41.94777
#
# Poissons Ratio (x) = 0.19396 0.34185
# Poissons Ratio (y) = 0.52687 0.49729
# Poissons Ratio (z) = 0.57038 0.30546
#
# Static dielectric constant tensor:
#      x y z
#    x 3.599070 0.000000 0.204820 
#    y 0.000000 2.923010 0.000000 
#    z 0.204820 0.000000 3.332620 
# 
# 
# High freq. dielectric constant tensor:
#      x y z
#    x 1.678120 0.000000 0.000590 
#    y 0.000000 1.637890 0.000000 
#    z 0.000590 0.000000 1.654760 
# 
# From -- ./inp_files/72191.got.cif
#   From: 2010.06.25/outbox.cif.g09.slc.cpg/sg10_37_cif.got.tgz:72191.got - 2010.06.27 22:07:45.
