data_PCOD8062532
_publ_section_title
;
Structure prediction by ZEFSAII (Michael W. Deem and Ramdas Pophale) SiO2 
 PCOD8062532
Probable space group: P 2/M
;
_chemical_formula_sum "Si O2"
_cell_formula_units_Z 24
_cell_length_a 16.948073
_cell_length_b 7.380090
_cell_length_c 16.545991
_cell_angle_alpha 90.000000
_cell_angle_beta 35.667908
_cell_angle_gamma 90.000000
_cell_volume 1206.722965
_symmetry_space_group_name_H-M "P 2/M"
_symmetry_group_IT_number 10
_symmetry_cell_setting 'monoclinic'
loop_
_space_group_symop_operation_xyz
x,y,z
-x,y,-z
-x,-y,-z
x,-y,z
loop_
_atom_site_type_symbol
_atom_site_label
_atom_site_fract_x
_atom_site_fract_y
_atom_site_fract_z
Si Si1 0.905320 0.500000 0.199309
Si Si2 0.177480 0.213255 0.160288
Si Si3 0.345135 0.214043 0.866621
Si Si4 0.357673 0.784007 0.152858
Si Si5 0.644267 0.786340 0.665788
Si Si6 0.883654 0.785400 0.351909
Si Si7 0.794878 0.500000 0.118576
O O1 0.874010 0.682124 0.275252
O O2 0.805708 0.500000 0.205988
O O3 0.059765 0.500000 0.043973
O O4 0.238933 0.290496 0.192869
O O5 0.021919 0.272104 0.281985
O O6 0.192946 0.000000 0.148512
O O7 0.263477 0.284805 0.012808
O O8 0.500700 0.271550 0.748453
O O9 0.286599 0.319148 0.838212
O O10 0.327604 0.000000 0.866487
O O11 0.335980 0.703967 0.260826
O O12 0.357935 0.000000 0.155484
O O13 0.500000 0.713310 0.000000
O O14 0.762514 0.715157 0.509309
O O15 0.652631 0.000000 0.665547
O O16 0.877943 0.000000 0.339128
#
# Coordination Sequence:
#
# PCOD8062532 Si02
#       7
#     2   4   4   4   4   4   2
#     4  11  24  41  61  86 113 142 182 241 295 339
#     4   9  16  28  52  81 113 152 188 227 273 319
#     4  10  19  36  59  86 115 147 187 231 280 336
#     4   9  14  24  48  84 117 148 195 237 264 313
#     4   9  18  32  55  85 119 156 189 228 279 330
#     4  10  21  38  58  84 117 153 188 226 284 345
#     4  11  24  39  63  90 106 139 192 237 290 346
#
# _framework density 19.888576
#
# number of rings (size 3 to 8) (size 9 to 14) (size 15 to 20)
#    0.000    2.333    3.333    0.000    0.000    2.000 
#    0.000    6.667    0.000    9.000    0.000    0.000 
#    0.000    0.000    0.000    0.000    0.000    0.000 
#
# Total GULP energy -297556.376934 kJ/mol
# GULP energy per Si atom -12398.182372 kJ/mol
# Density = 1.984331 g / cm^3
# Si number density = 19.888576 Si / 1000 Ang^3
#
#
#
# Elastic Constant Matrix: (Units=GPa)
#
#
# Indices 1 2 3 4 5 6 
#
# 1 198.6990 48.3998 90.6341 0.0000 6.5521 0.0000
# 2 48.3998 67.1136 27.5862 0.0000 4.5152 0.0000
# 3 90.6341 27.5862 154.7873 0.0000 -6.3571 0.0000
# 4 0.0000 0.0000 0.0000 2.0180 0.0000 -23.1565
# 5 6.5521 4.5152 -6.3571 0.0000 33.4860 0.0000
# 6 0.0000 0.0000 0.0000 -23.1565 0.0000 -62.0329
#
#
#
# Elastic Compliance Matrix: (Units=1/GPa)
#
#
# Indices 1 2 3 4 5 6 
#
# 1 0.007858 -0.003914 -0.003976 0.000000 -0.001765 0.000000
# 2 -0.003914 0.018279 -0.001044 0.000000 -0.001897 0.000000
# 3 -0.003976 -0.001044 0.009083 0.000000 0.002643 0.000000
# 4 0.000000 0.000000 0.000000 0.093790 0.000000 -0.035011
# 5 -0.001765 -0.001897 0.002643 0.000000 0.030966 0.000000
# 6 0.000000 0.000000 0.000000 -0.035011 0.000000 -0.003051
#
#
# Mechanical properties :
#
#
# Convention : Reuss Voigt Hill
#
# Bulk Modulus (GPa) = 57.62761 83.76001 70.69381
# Shear Modulus (GPa) = 27.68901 11.62620 19.65760
#
# Velocity S-wave (km/s) = 3.73528 2.42040 3.14727
# Velocity P-wave (km/s) = 6.90226 7.07228 6.98779
#
# Compressibility (1/GPa) = 0.01735279
#
# Stress axis : x y z
#
# Youngs Moduli (GPa) = 127.26055 54.70657 110.09297
#
# Poissons Ratio (x) = 0.21411 0.43774
# Poissons Ratio (y) = 0.49807 0.11494
# Poissons Ratio (z) = 0.50600 0.05711
#
# Static dielectric constant tensor:
#      x y z
#    x 3.763520 0.000000 -0.064740 
#    y 0.000000 3.309630 0.000000 
#    z -0.064740 0.000000 3.789740 
# 
# 
# High freq. dielectric constant tensor:
#      x y z
#    x 1.774030 0.000000 -0.008820 
#    y 0.000000 1.764130 0.000000 
#    z -0.008820 0.000000 1.768710 
# 
# From -- ./inp_files/66338.got.cif
#   From: 2010.06.25/outbox.cif.g09.slc.cpg/sg10_34_cif.got.tgz:66338.got - 2010.06.27 22:07:45.
