data_PCOD8062387
_publ_section_title
;
Structure prediction by ZEFSAII (Michael W. Deem and Ramdas Pophale) SiO2 
 PCOD8062387
Probable space group: P 2/M
;
_chemical_formula_sum "Si O2"
_cell_formula_units_Z 32
_cell_length_a 14.268425
_cell_length_b 8.843934
_cell_length_c 23.269882
_cell_angle_alpha 90.000000
_cell_angle_beta 32.062273
_cell_angle_gamma 90.000000
_cell_volume 1558.762316
_symmetry_space_group_name_H-M "P 2/M"
_symmetry_group_IT_number 10
_symmetry_cell_setting 'monoclinic'
loop_
_space_group_symop_operation_xyz
x,y,z
-x,y,-z
-x,-y,-z
x,-y,z
loop_
_atom_site_type_symbol
_atom_site_label
_atom_site_fract_x
_atom_site_fract_y
_atom_site_fract_z
Si Si1 0.743353 0.325790 0.008822
Si Si2 0.530314 0.320046 0.314632
Si Si3 0.080251 0.675918 0.900988
Si Si4 0.377747 0.321680 0.512340
Si Si5 0.010105 0.677676 0.315693
Si Si6 0.297045 0.171906 0.089235
Si Si7 0.929599 0.825449 0.598223
Si Si8 0.543336 0.173505 0.763296
O O1 0.691153 0.500000 0.043616
O O2 0.620568 0.232660 0.115137
O O3 0.726631 0.279266 0.952287
O O4 0.947828 0.296271 0.917326
O O5 0.522647 0.500000 0.317772
O O6 0.729656 0.254051 0.211838
O O7 0.440001 0.254530 0.418905
O O8 0.430608 0.260448 0.310166
O O9 0.110298 0.500000 0.897783
O O10 0.000000 0.752403 0.000000
O O11 0.500000 0.251974 0.500000
O O12 0.406912 0.500000 0.496758
O O13 0.169053 0.283939 0.627049
O O14 0.050535 0.500000 0.292065
O O15 0.173950 0.769299 0.204530
O O16 0.985684 0.726270 0.394847
O O17 0.243963 0.000000 0.102062
O O18 0.500000 0.181439 0.000000
O O19 0.718510 0.805189 0.710190
O O20 0.000000 0.767400 0.500000
O O21 0.984513 0.000000 0.578762
O O22 0.509335 0.000000 0.766237
#
# Coordination Sequence:
#
# PCOD8062387 Si02
#       8
#     4   4   4   4   4   4   4   4
#     4  11  22  37  61  89 116 150 197 244 290 350
#     4  10  19  35  60  84 115 157 199 244 293 346
#     4   9  17  32  55  86 116 149 192 238 291 350
#     4   9  20  37  60  89 120 156 199 247 299 354
#     4  11  23  39  63  94 121 152 201 255 299 346
#     4  11  25  44  63  85 120 163 200 241 300 364
#     4  10  22  40  61  83 115 160 198 236 297 361
#     4  11  22  36  56  85 119 154 191 238 298 359
#
# _framework density 20.529108000000001
#
# number of rings (size 3 to 8) (size 9 to 14) (size 15 to 20)
#    0.000    1.750    1.250    3.000    1.750    5.250 
#    0.000    2.500    0.000    1.875    0.000    0.000 
#    0.000    0.000    0.000    0.000    0.000    0.000 
#
# Total GULP energy -396819.945819 kJ/mol
# GULP energy per Si atom -12400.623307 kJ/mol
# Density = 2.048238 g / cm^3
# Si number density = 20.529108 Si / 1000 Ang^3
#
#
#
# Elastic Constant Matrix: (Units=GPa)
#
#
# Indices 1 2 3 4 5 6 
#
# 1 108.9304 25.5243 27.0862 0.0000 3.3767 0.0000
# 2 25.5243 40.9585 24.5879 0.0000 -13.1710 0.0000
# 3 27.0862 24.5879 97.6947 0.0000 1.1937 0.0000
# 4 0.0000 0.0000 0.0000 19.3821 0.0000 -1.4376
# 5 3.3767 -13.1710 1.1937 0.0000 34.3477 0.0000
# 6 0.0000 0.0000 0.0000 -1.4376 0.0000 -1.7528
#
#
#
# Elastic Compliance Matrix: (Units=1/GPa)
#
#
# Indices 1 2 3 4 5 6 
#
# 1 0.011400 -0.007695 -0.001175 0.000000 -0.004031 0.000000
# 2 -0.007695 0.039111 -0.007906 0.000000 0.016029 0.000000
# 3 -0.001175 -0.007906 0.012592 0.000000 -0.003354 0.000000
# 4 0.000000 0.000000 0.000000 0.048635 0.000000 -0.039890
# 5 -0.004031 0.016029 -0.003354 0.000000 0.035773 0.000000
# 6 0.000000 0.000000 0.000000 -0.039890 0.000000 -0.537808
#
#
# Mechanical properties :
#
#
# Convention : Reuss Voigt Hill
#
# Bulk Modulus (GPa) = 33.83888 44.66448 39.25168
# Shear Modulus (GPa) = -14.41365 21.75441 3.67038
#
# Velocity S-wave (km/s) = -2.65261 3.25881 1.33857
# Velocity P-wave (km/s) = 2.67159 5.99698 4.64226
#
# Compressibility (1/GPa) = 0.02955180
#
# Stress axis : x y z
#
# Youngs Moduli (GPa) = 87.71603 25.56833 79.41311
#
# Poissons Ratio (x) = 0.19676 0.09329
# Poissons Ratio (y) = 0.67502 0.62782
# Poissons Ratio (z) = 0.10304 0.20214
#
# Static dielectric constant tensor:
#      x y z
#    x 3.836040 0.000000 0.014980 
#    y 0.000000 3.467300 0.000000 
#    z 0.014980 0.000000 3.314840 
# 
# 
# High freq. dielectric constant tensor:
#      x y z
#    x 1.812430 0.000000 -0.004080 
#    y 0.000000 1.774220 0.000000 
#    z -0.004080 0.000000 1.814540 
# 
# From -- ./inp_files/89515.got.cif
#   From: 2010.06.25/outbox.cif.g09.slc.cpg/sg10_45_cif.got.tgz:89515.got - 2010.06.27 22:07:45.
