data_PCOD8062899
_publ_section_title
;
Structure prediction by ZEFSAII (Michael W. Deem and Ramdas Pophale) SiO2 
 PCOD8062899
Probable space group: P 2/M
;
_chemical_formula_sum "Si O2"
_cell_formula_units_Z 30
_cell_length_a 25.636393
_cell_length_b 14.894979
_cell_length_c 20.469441
_cell_angle_alpha 90.000000
_cell_angle_beta 13.479637
_cell_angle_gamma 90.000000
_cell_volume 1821.984336
_symmetry_space_group_name_H-M "P 2/M"
_symmetry_group_IT_number 10
_symmetry_cell_setting 'monoclinic'
loop_
_space_group_symop_operation_xyz
x,y,z
-x,y,-z
-x,-y,-z
x,-y,z
loop_
_atom_site_type_symbol
_atom_site_label
_atom_site_fract_x
_atom_site_fract_y
_atom_site_fract_z
Si Si1 0.476036 0.195535 0.639644
Si Si2 0.170727 0.103254 0.240594
Si Si3 0.110500 0.103106 0.169097
Si Si4 0.671672 0.101422 0.628660
Si Si5 0.500000 0.335865 0.500000
Si Si6 0.970747 0.600776 0.960554
Si Si7 0.842735 0.903839 0.129405
Si Si8 0.177257 0.226691 0.668086
O O1 0.427781 0.279095 0.651668
O O2 0.587548 0.117549 0.459756
O O3 0.655993 0.220890 0.474813
O O4 0.246802 0.160924 0.950367
O O5 0.148175 0.145067 0.195301
O O6 0.000000 0.150160 0.500000
O O7 0.098843 0.000000 0.321067
O O8 0.422794 0.114175 0.960680
O O9 0.847730 0.110867 0.472812
O O10 0.194888 0.000000 0.063426
O O11 0.703334 0.181873 0.538908
O O12 0.690634 0.000000 0.574056
O O13 0.290965 0.398493 0.737473
O O14 0.063931 0.500000 0.836624
O O15 0.110299 0.668338 0.743240
O O16 0.000000 0.632339 0.000000
O O17 0.845459 0.000000 0.089121
O O18 0.000000 0.910857 0.000000
O O19 0.940833 0.825777 0.964266
#
# Coordination Sequence:
#
# PCOD8062899 Si02
#       8
#     4   4   4   4   2   4   4   4
#     4  11  20  31  49  68  99 133 167 206 250 288
#     4   9  18  33  51  70  96 131 168 204 244 292
#     4  10  20  32  46  70 100 134 172 207 244 288
#     4  10  20  32  51  74  99 132 166 204 250 295
#     4  12  21  36  51  72  92 130 167 214 253 298
#     4  11  22  37  53  69  91 125 169 213 255 295
#     4   9  17  27  43  64  90 128 168 202 236 277
#     4  11  18  35  50  67  97 130 166 209 250 287
#
# _framework density 16.465564000000001
#
# number of rings (size 3 to 8) (size 9 to 14) (size 15 to 20)
#    0.000    1.733    4.000    2.200    0.000    1.600 
#    0.000    3.333    0.000    0.000    0.000    0.000 
#    0.000    0.533    0.000    3.733    0.000    0.133 
#
# Total GULP energy -371850.795576 kJ/mol
# GULP energy per Si atom -12395.026519 kJ/mol
# Density = 1.642809 g / cm^3
# Si number density = 16.465564 Si / 1000 Ang^3
#
#
#
# Elastic Constant Matrix: (Units=GPa)
#
#
# Indices 1 2 3 4 5 6 
#
# 1 52.8706 10.4358 31.7075 0.0000 -1.9524 0.0000
# 2 10.4358 76.9827 23.9120 0.0000 4.5954 0.0000
# 3 31.7075 23.9120 103.4887 0.0000 2.2718 0.0000
# 4 0.0000 0.0000 0.0000 14.2819 0.0000 -6.8291
# 5 -1.9524 4.5954 2.2718 0.0000 27.7280 0.0000
# 6 0.0000 0.0000 0.0000 -6.8291 0.0000 18.4857
#
#
#
# Elastic Compliance Matrix: (Units=1/GPa)
#
#
# Indices 1 2 3 4 5 6 
#
# 1 0.023403 -0.001156 -0.006956 0.000000 0.002409 0.000000
# 2 -0.001156 0.014170 -0.002872 0.000000 -0.002194 0.000000
# 3 -0.006956 -0.002872 0.012480 0.000000 -0.001036 0.000000
# 4 0.000000 0.000000 0.000000 0.085041 0.000000 0.031416
# 5 0.002409 -0.002194 -0.001036 0.000000 0.036683 0.000000
# 6 0.000000 0.000000 0.000000 0.031416 0.000000 0.065702
#
#
# Mechanical properties :
#
#
# Convention : Reuss Voigt Hill
#
# Bulk Modulus (GPa) = 35.60517 40.60585 38.10551
# Shear Modulus (GPa) = 18.60067 23.25155 20.92611
#
# Velocity S-wave (km/s) = 3.36470 3.76191 3.56884
# Velocity P-wave (km/s) = 6.06349 6.60181 6.33837
#
# Compressibility (1/GPa) = 0.02808581
#
# Stress axis : x y z
#
# Youngs Moduli (GPa) = 42.72964 70.57363 80.12507
#
# Poissons Ratio (x) = 0.08156 0.55737
# Poissons Ratio (y) = 0.04938 0.23010
# Poissons Ratio (z) = 0.29724 0.20267
#
# Static dielectric constant tensor:
#      x y z
#    x 3.144640 0.000000 -0.163240 
#    y 0.000000 2.864770 0.000000 
#    z -0.163240 0.000000 3.132010 
# 
# 
# High freq. dielectric constant tensor:
#      x y z
#    x 1.626200 0.000000 -0.030560 
#    y 0.000000 1.593250 0.000000 
#    z -0.030560 0.000000 1.632910 
# 
# From -- ./inp_files/91500.got.cif
#   From: 2010.06.25/outbox.cif.g09.slc.cpg/sg10_46_cif.got.tgz:91500.got - 2010.06.27 22:07:45.
