data_PCOD8062090
_publ_section_title
;
Structure prediction by ZEFSAII (Michael W. Deem and Ramdas Pophale) SiO2 
 PCOD8062090
Probable space group: P 2/M
;
_chemical_formula_sum "Si O2"
_cell_formula_units_Z 24
_cell_length_a 17.423116
_cell_length_b 8.810120
_cell_length_c 24.827660
_cell_angle_alpha 90.000000
_cell_angle_beta 19.571833
_cell_angle_gamma 90.000000
_cell_volume 1276.654026
_symmetry_space_group_name_H-M "P 2/M"
_symmetry_group_IT_number 10
_symmetry_cell_setting 'monoclinic'
loop_
_space_group_symop_operation_xyz
x,y,z
-x,y,-z
-x,-y,-z
x,-y,z
loop_
_atom_site_type_symbol
_atom_site_label
_atom_site_fract_x
_atom_site_fract_y
_atom_site_fract_z
Si Si1 0.067821 0.320334 0.040834
Si Si2 0.846750 0.679342 0.440509
Si Si3 0.651424 0.679928 0.248061
Si Si4 0.790733 0.323637 0.599475
Si Si5 0.645056 0.177992 0.062041
Si Si6 0.309961 0.319585 0.083077
O O1 0.081854 0.500000 0.040787
O O2 0.811188 0.269420 0.192474
O O3 0.242840 0.265247 0.878601
O O4 0.129511 0.237122 0.055617
O O5 0.849748 0.500000 0.432448
O O6 0.606982 0.744721 0.574861
O O7 0.869747 0.724150 0.487734
O O8 0.062977 0.746433 0.265142
O O9 0.647425 0.500000 0.248388
O O10 0.716664 0.500000 0.650981
O O11 0.576870 0.222004 0.757069
O O12 0.000000 0.287975 0.500000
O O13 0.661765 0.000000 0.043624
O O14 0.626381 0.254101 0.016517
O O15 0.307638 0.500000 0.080588
O O16 0.500000 0.264867 0.000000
#
# Coordination Sequence:
#
# PCOD8062090 Si02
#       6
#     4   4   4   4   4   4
#     4   9  16  31  56  81 107 138 178 228 279 326
#     4   9  16  30  55  84 107 130 176 235 282 321
#     4   8  14  27  54  86 107 131 173 234 289 318
#     4  10  19  34  59  85 107 135 179 235 280 318
#     4  12  24  36  52  79 116 153 182 215 267 331
#     4  10  21  38  59  80 105 143 188 230 272 321
#
# _framework density 18.799142
#
# number of rings (size 3 to 8) (size 9 to 14) (size 15 to 20)
#    0.000    2.333    1.667    3.500    0.000    3.333 
#    0.000    3.333    0.000    5.000    0.000    0.000 
#    0.000    0.000    0.000    0.000    0.000    0.000 
#
# Total GULP energy -297540.068855 kJ/mol
# GULP energy per Si atom -12397.502869 kJ/mol
# Density = 1.875635 g / cm^3
# Si number density = 18.799142 Si / 1000 Ang^3
#
#
#
# Elastic Constant Matrix: (Units=GPa)
#
#
# Indices 1 2 3 4 5 6 
#
# 1 117.9222 23.9269 22.1027 0.0000 -20.7570 0.0000
# 2 23.9269 14.4455 13.7448 0.0000 -7.4085 0.0000
# 3 22.1027 13.7448 80.9498 0.0000 -21.3368 0.0000
# 4 0.0000 0.0000 0.0000 9.3931 0.0000 1.3615
# 5 -20.7570 -7.4085 -21.3368 0.0000 32.4103 0.0000
# 6 0.0000 0.0000 0.0000 1.3615 0.0000 1.1193
#
#
#
# Elastic Compliance Matrix: (Units=1/GPa)
#
#
# Indices 1 2 3 4 5 6 
#
# 1 0.013266 -0.020700 0.001071 0.000000 0.004469 0.000000
# 2 -0.020700 0.118680 -0.013120 0.000000 0.005234 0.000000
# 3 0.001071 -0.013120 0.016551 0.000000 0.008583 0.000000
# 4 0.000000 0.000000 0.000000 0.129249 0.000000 -0.157219
# 5 0.004469 0.005234 0.008583 0.000000 0.040564 0.000000
# 6 0.000000 0.000000 0.000000 -0.157219 0.000000 1.084692
#
#
# Mechanical properties :
#
#
# Convention : Reuss Voigt Hill
#
# Bulk Modulus (GPa) = 12.04842 36.98515 24.51679
# Shear Modulus (GPa) = 3.34187 18.82073 11.08130
#
# Velocity S-wave (km/s) = 1.33474 3.16753 2.43051
# Velocity P-wave (km/s) = 2.96620 5.75275 4.57671
#
# Compressibility (1/GPa) = 0.08299841
#
# Stress axis : x y z
#
# Youngs Moduli (GPa) = 75.37842 8.42604 60.41966
#
# Poissons Ratio (x) = 0.17442 -0.06468
# Poissons Ratio (y) = 1.56035 0.79268
# Poissons Ratio (z) = -0.08070 0.11055
#
# Static dielectric constant tensor:
#      x y z
#    x 3.718300 0.000000 -0.327810 
#    y 0.000000 2.957960 0.000000 
#    z -0.327810 0.000000 3.739170 
# 
# 
# High freq. dielectric constant tensor:
#      x y z
#    x 1.743990 0.000000 -0.017610 
#    y 0.000000 1.678760 0.000000 
#    z -0.017610 0.000000 1.725680 
# 
# From -- ./inp_files/90007.got.cif
#   From: 2010.06.25/outbox.cif.g09.slc.cpg/sg10_46_cif.got.tgz:90007.got - 2010.06.27 22:07:45.
