data_PCOD8062465
_publ_section_title
;
Structure prediction by ZEFSAII (Michael W. Deem and Ramdas Pophale) SiO2 
 PCOD8062465
Probable space group: P 2/M
;
_chemical_formula_sum "Si O2"
_cell_formula_units_Z 28
_cell_length_a 15.682989
_cell_length_b 9.036831
_cell_length_c 11.845940
_cell_angle_alpha 90.000000
_cell_angle_beta 123.447380
_cell_angle_gamma 90.000000
_cell_volume 1400.828111
_symmetry_space_group_name_H-M "P 2/M"
_symmetry_group_IT_number 10
_symmetry_cell_setting 'monoclinic'
loop_
_space_group_symop_operation_xyz
x,y,z
-x,y,-z
-x,-y,-z
x,-y,z
loop_
_atom_site_type_symbol
_atom_site_label
_atom_site_fract_x
_atom_site_fract_y
_atom_site_fract_z
Si Si1 0.822405 0.326960 0.638418
Si Si2 0.766201 0.173984 0.820326
Si Si3 0.000099 0.174212 0.368765
Si Si4 0.613694 0.175393 0.103750
Si Si5 0.800166 0.825088 0.095333
Si Si6 0.362739 0.332460 0.654115
Si Si7 0.557385 0.668454 0.654988
O O1 0.842532 0.500000 0.665067
O O2 0.827461 0.256311 0.766428
O O3 0.711804 0.291434 0.503950
O O4 0.906876 0.257397 0.620485
O O5 0.647973 0.217333 0.738807
O O6 0.775736 0.000000 0.806953
O O7 0.814657 0.222464 0.975731
O O8 0.895433 0.235025 0.237194
O O9 0.000000 0.214927 0.500000
O O10 0.013669 0.000000 0.358820
O O11 0.692851 0.236694 0.067224
O O12 0.657543 0.224738 0.256496
O O13 0.609027 0.000000 0.099072
O O14 0.500000 0.241828 0.000000
O O15 0.796265 0.000000 0.102982
O O16 0.340909 0.500000 0.677221
O O17 0.479647 0.313970 0.701617
O O18 0.500000 0.713363 0.500000
O O19 0.599628 0.500000 0.676672
#
# Coordination Sequence:
#
# PCOD8062465 Si02
#       7
#     4   4   4   4   4   4   4
#     4  11  23  40  59  84 118 152 191 241 293 343
#     4  11  22  37  59  87 117 152 196 239 285 347
#     4  10  21  40  65  88 112 149 195 241 292 348
#     4  10  20  36  59  86 117 150 189 237 286 338
#     4   9  20  38  58  84 120 153 184 238 301 344
#     4  10  21  36  56  81 114 154 191 233 289 345
#     4  10  19  36  56  78 117 160 190 230 289 340
#
# _framework density 19.988177
#
# number of rings (size 3 to 8) (size 9 to 14) (size 15 to 20)
#    0.000    1.857    1.429    2.571    0.000    5.429 
#    0.000    6.429    0.000    0.000    0.000    0.000 
#    0.000    0.000    0.000    0.000    0.000    0.000 
#
# Total GULP energy -347260.801224 kJ/mol
# GULP energy per Si atom -12402.171472 kJ/mol
# Density = 1.994268 g / cm^3
# Si number density = 19.988177 Si / 1000 Ang^3
#
#
#
# Elastic Constant Matrix: (Units=GPa)
#
#
# Indices 1 2 3 4 5 6 
#
# 1 126.2476 49.5437 58.4928 0.0000 -8.5113 0.0000
# 2 49.5437 53.2330 44.8179 0.0000 -6.9826 0.0000
# 3 58.4928 44.8179 130.9761 0.0000 -14.5538 0.0000
# 4 0.0000 0.0000 0.0000 21.4887 0.0000 -0.9212
# 5 -8.5113 -6.9826 -14.5538 0.0000 33.1179 0.0000
# 6 0.0000 0.0000 0.0000 -0.9212 0.0000 27.3693
#
#
#
# Elastic Compliance Matrix: (Units=1/GPa)
#
#
# Indices 1 2 3 4 5 6 
#
# 1 0.012968 -0.010095 -0.002317 0.000000 0.000186 0.000000
# 2 -0.010095 0.034334 -0.007069 0.000000 0.001538 0.000000
# 3 -0.002317 -0.007069 0.011414 0.000000 0.002930 0.000000
# 4 0.000000 0.000000 0.000000 0.046603 0.000000 0.001569
# 5 0.000186 0.001538 0.002930 0.000000 0.031855 0.000000
# 6 0.000000 0.000000 0.000000 0.001569 0.000000 0.036590
#
#
# Mechanical properties :
#
#
# Convention : Reuss Voigt Hill
#
# Bulk Modulus (GPa) = 50.61991 68.46284 59.54137
# Shear Modulus (GPa) = 22.79863 26.90201 24.85032
#
# Velocity S-wave (km/s) = 3.38095 3.67263 3.52980
# Velocity P-wave (km/s) = 6.37346 7.23258 6.81657
#
# Compressibility (1/GPa) = 0.01975507
#
# Stress axis : x y z
#
# Youngs Moduli (GPa) = 77.11088 29.12557 87.61029
#
# Poissons Ratio (x) = 0.29402 0.20296
# Poissons Ratio (y) = 0.77842 0.61936
# Poissons Ratio (z) = 0.17863 0.20590
#
# Static dielectric constant tensor:
#      x y z
#    x 3.753930 0.000000 0.012410 
#    y 0.000000 3.390020 0.000000 
#    z 0.012410 0.000000 3.835270 
# 
# 
# High freq. dielectric constant tensor:
#      x y z
#    x 1.788850 0.000000 -0.007550 
#    y 0.000000 1.757910 0.000000 
#    z -0.007550 0.000000 1.786530 
# 
# From -- ./inp_files/50058.got.cif
#   From: 2010.06.25/outbox.cif.g09.slc.cpg/sg10_26_cif.got.tgz:50058.got - 2010.06.27 22:07:45.
