data_PCOD8062771
_publ_section_title
;
Structure prediction by ZEFSAII (Michael W. Deem and Ramdas Pophale) SiO2 
 PCOD8062771
Probable space group: P 2/M
;
_chemical_formula_sum "Si O2"
_cell_formula_units_Z 28
_cell_length_a 13.835412
_cell_length_b 22.248923
_cell_length_c 8.758321
_cell_angle_alpha 90.000000
_cell_angle_beta 149.645615
_cell_angle_gamma 90.000000
_cell_volume 1362.421783
_symmetry_space_group_name_H-M "P 2/M"
_symmetry_group_IT_number 10
_symmetry_cell_setting 'monoclinic'
loop_
_space_group_symop_operation_xyz
x,y,z
-x,y,-z
-x,-y,-z
x,-y,z
loop_
_atom_site_type_symbol
_atom_site_label
_atom_site_fract_x
_atom_site_fract_y
_atom_site_fract_z
Si Si1 0.308283 0.226629 0.315010
Si Si2 0.974466 0.126590 0.139708
Si Si3 0.626461 0.067791 0.821681
Si Si4 0.809135 0.355767 0.811696
Si Si5 0.613402 0.155559 0.294987
Si Si6 0.455437 0.568069 0.769880
Si Si7 0.864415 0.567730 0.182811
O O1 0.500000 0.200257 0.500000
O O2 0.305764 0.298109 0.284532
O O3 0.324976 0.211289 0.516098
O O4 0.123586 0.192980 0.994239
O O5 0.188915 0.126681 0.499899
O O6 0.000000 0.102190 0.000000
O O7 0.843280 0.085409 0.069381
O O8 0.500000 0.073569 0.500000
O O9 0.526629 0.107822 0.815199
O O10 0.632181 0.000000 0.892401
O O11 0.695727 0.392153 0.527622
O O12 0.877276 0.396961 0.043370
O O13 0.000000 0.328642 0.000000
O O14 0.500000 0.183999 0.000000
O O15 0.374775 0.500000 0.674643
O O16 0.500000 0.593978 0.000000
O O17 0.646416 0.568715 0.933570
O O18 0.936503 0.500000 0.249551
O O19 0.000000 0.596234 0.500000
#
# Coordination Sequence:
#
# PCOD8062771 Si02
#       7
#     4   4   4   4   4   4   4
#     4  11  21  43  64  82 116 158 204 254 299 362
#     4  10  19  39  63  87 120 162 207 248 304 365
#     4  11  21  38  65  95 124 164 211 252 298 370
#     4  12  24  37  60  90 119 157 207 252 304 369
#     4  11  23  40  62  91 127 161 201 253 315 366
#     4  10  21  38  59  85 120 159 199 251 308 363
#     4  10  21  39  61  88 123 160 200 251 313 373
#
# _framework density 20.551639999999999
#
# number of rings (size 3 to 8) (size 9 to 14) (size 15 to 20)
#    0.000    1.286    4.286    3.857    0.000    5.714 
#    0.000    5.000    0.000    0.000    0.000    0.000 
#    0.000    0.000    0.000    0.000    0.000    0.000 
#
# Total GULP energy -347102.940145 kJ/mol
# GULP energy per Si atom -12396.533577 kJ/mol
# Density = 2.050486 g / cm^3
# Si number density = 20.551640 Si / 1000 Ang^3
#
#
#
# Elastic Constant Matrix: (Units=GPa)
#
#
# Indices 1 2 3 4 5 6 
#
# 1 86.0771 23.1797 34.5400 0.0000 19.7492 0.0000
# 2 23.1797 90.1175 27.0348 0.0000 -9.3466 0.0000
# 3 34.5400 27.0348 118.6483 0.0000 -0.6015 0.0000
# 4 0.0000 0.0000 0.0000 17.4094 0.0000 6.4245
# 5 19.7492 -9.3466 -0.6015 0.0000 44.8465 0.0000
# 6 0.0000 0.0000 0.0000 6.4245 0.0000 23.9712
#
#
#
# Elastic Compliance Matrix: (Units=1/GPa)
#
#
# Indices 1 2 3 4 5 6 
#
# 1 0.015979 -0.003778 -0.003831 0.000000 -0.007875 0.000000
# 2 -0.003778 0.013078 -0.001858 0.000000 0.004364 0.000000
# 3 -0.003831 -0.001858 0.009974 0.000000 0.001433 0.000000
# 4 0.000000 0.000000 0.000000 0.063745 0.000000 -0.017084
# 5 -0.007875 0.004364 0.001433 0.000000 0.026695 0.000000
# 6 0.000000 0.000000 0.000000 -0.017084 0.000000 0.046295
#
#
# Mechanical properties :
#
#
# Convention : Reuss Voigt Hill
#
# Bulk Modulus (GPa) = 49.75568 51.59465 50.67516
# Shear Modulus (GPa) = 24.82630 31.25130 28.03880
#
# Velocity S-wave (km/s) = 3.47939 3.90375 3.69766
# Velocity P-wave (km/s) = 6.35643 6.74377 6.55296
#
# Compressibility (1/GPa) = 0.02009821
#
# Stress axis : x y z
#
# Youngs Moduli (GPa) = 62.58282 76.46212 100.25936
#
# Poissons Ratio (x) = 0.28884 0.38407
# Poissons Ratio (y) = 0.23641 0.18630
# Poissons Ratio (z) = 0.23974 0.14208
#
# Static dielectric constant tensor:
#      x y z
#    x 4.131810 0.000000 0.284520 
#    y 0.000000 3.539250 0.000000 
#    z 0.284520 0.000000 3.827840 
# 
# 
# High freq. dielectric constant tensor:
#      x y z
#    x 1.814440 0.000000 0.019160 
#    y 0.000000 1.784170 0.000000 
#    z 0.019160 0.000000 1.805020 
# 
# From -- ./inp_files/30481.got.cif
#   From: 2010.06.25/outbox.cif.g09.slc.cpg/sg10_16_cif.got.tgz:30481.got - 2010.06.27 22:07:45.
