data_PCOD8062460
_publ_section_title
;
Structure prediction by ZEFSAII (Michael W. Deem and Ramdas Pophale) SiO2 
 PCOD8062460
Probable space group: P 2/M
;
_chemical_formula_sum "Si O2"
_cell_formula_units_Z 32
_cell_length_a 11.106717
_cell_length_b 9.446141
_cell_length_c 15.177069
_cell_angle_alpha 90.000000
_cell_angle_beta 86.004880
_cell_angle_gamma 90.000000
_cell_volume 1588.442189
_symmetry_space_group_name_H-M "P 2/M"
_symmetry_group_IT_number 10
_symmetry_cell_setting 'monoclinic'
loop_
_space_group_symop_operation_xyz
x,y,z
-x,y,-z
-x,-y,-z
x,-y,z
loop_
_atom_site_type_symbol
_atom_site_label
_atom_site_fract_x
_atom_site_fract_y
_atom_site_fract_z
Si Si1 0.616452 0.333145 0.047523
Si Si2 0.862487 0.160978 0.495428
Si Si3 0.875752 0.335591 0.953034
Si Si4 0.870048 0.842443 0.295108
Si Si5 0.672129 0.331843 0.237234
Si Si6 0.257827 0.657241 0.353907
Si Si7 0.480758 0.343123 0.596222
Si Si8 0.132940 0.836707 0.221974
O O1 0.607341 0.500000 0.040702
O O2 0.605809 0.284356 0.150336
O O3 0.500000 0.267990 0.000000
O O4 0.750503 0.287774 0.007182
O O5 0.823691 0.180301 0.396623
O O6 0.784210 0.269550 0.554501
O O7 0.000000 0.203730 0.500000
O O8 0.840321 0.000000 0.529561
O O9 0.866123 0.500000 0.925541
O O10 0.889249 0.233759 0.870022
O O11 0.000000 0.310946 0.000000
O O12 0.806875 0.732244 0.232113
O O13 0.013375 0.821161 0.287017
O O14 0.837963 0.000000 0.263680
O O15 0.681341 0.500000 0.239707
O O16 0.608450 0.268323 0.328820
O O17 0.199678 0.500000 0.347040
O O18 0.399670 0.642840 0.353148
O O19 0.234934 0.751659 0.269103
O O20 0.500000 0.263191 0.500000
O O21 0.429427 0.500000 0.576199
O O22 0.171481 0.000000 0.208124
#
# Coordination Sequence:
#
# PCOD8062460 Si02
#       8
#     4   4   4   4   4   4   4   4
#     4   9  19  35  59  87 116 152 193 238 297 359
#     4  10  19  36  55  75 113 159 193 230 286 346
#     4  10  21  38  61  90 118 144 192 256 300 344
#     4  10  21  37  57  81 114 154 193 235 285 345
#     4  10  20  36  61  86 112 151 193 237 290 348
#     4  11  22  35  57  88 116 147 194 246 291 339
#     4   9  19  35  55  84 120 150 184 237 294 346
#     4  11  23  39  58  83 117 158 193 231 294 362
#
# _framework density 20.145523000000001
#
# number of rings (size 3 to 8) (size 9 to 14) (size 15 to 20)
#    0.000    2.000    1.250    2.250    1.750    4.000 
#    0.000    1.875    0.000    4.125    0.000    0.000 
#    0.000    0.000    0.000    0.000    0.000    0.000 
#
# Total GULP energy -396583.406366 kJ/mol
# GULP energy per Si atom -12393.231449 kJ/mol
# Density = 2.009967 g / cm^3
# Si number density = 20.145523 Si / 1000 Ang^3
#
#
#
# Elastic Constant Matrix: (Units=GPa)
#
#
# Indices 1 2 3 4 5 6 
#
# 1 89.2346 23.0976 29.8642 0.0000 12.5996 0.0000
# 2 23.0976 67.8429 37.2250 0.0000 2.4464 0.0000
# 3 29.8642 37.2250 105.7926 0.0000 6.4482 0.0000
# 4 0.0000 0.0000 0.0000 25.7870 0.0000 -1.2029
# 5 12.5996 2.4464 6.4482 0.0000 32.8434 0.0000
# 6 0.0000 0.0000 0.0000 -1.2029 0.0000 8.6073
#
#
#
# Elastic Compliance Matrix: (Units=1/GPa)
#
#
# Indices 1 2 3 4 5 6 
#
# 1 0.013449 -0.003078 -0.002442 0.000000 -0.004451 0.000000
# 2 -0.003078 0.018972 -0.005862 0.000000 0.000919 0.000000
# 3 -0.002442 -0.005862 0.012268 0.000000 -0.001035 0.000000
# 4 0.000000 0.000000 0.000000 0.039034 0.000000 0.005455
# 5 -0.004451 0.000919 -0.001035 0.000000 0.032290 0.000000
# 6 0.000000 0.000000 0.000000 0.005455 0.000000 0.116942
#
#
# Mechanical properties :
#
#
# Convention : Reuss Voigt Hill
#
# Bulk Modulus (GPa) = 45.61540 49.24930 47.43235
# Shear Modulus (GPa) = 19.00943 24.95975 21.98459
#
# Velocity S-wave (km/s) = 3.07515 3.52372 3.30705
# Velocity P-wave (km/s) = 5.94145 6.40744 6.17884
#
# Compressibility (1/GPa) = 0.02192242
#
# Stress axis : x y z
#
# Youngs Moduli (GPa) = 74.35542 52.71050 81.51468
#
# Poissons Ratio (x) = 0.16226 0.19906
# Poissons Ratio (y) = 0.22889 0.47788
# Poissons Ratio (z) = 0.18158 0.30901
#
# Static dielectric constant tensor:
#      x y z
#    x 3.810410 0.000000 -0.023510 
#    y 0.000000 3.445520 0.000000 
#    z -0.023510 0.000000 3.792550 
# 
# 
# High freq. dielectric constant tensor:
#      x y z
#    x 1.787530 0.000000 0.006050 
#    y 0.000000 1.755920 0.000000 
#    z 0.006050 0.000000 1.796560 
# 
# From -- ./inp_files/63822.got.cif
#   From: 2010.06.25/outbox.cif.g09.slc.cpg/sg10_32_cif.got.tgz:63822.got - 2010.06.27 22:07:45.
