data_PCOD8062002
_publ_section_title
;
Structure prediction by ZEFSAII (Michael W. Deem and Ramdas Pophale) SiO2 
 PCOD8062002
Probable space group: P 2/M
;
_chemical_formula_sum "Si O2"
_cell_formula_units_Z 28
_cell_length_a 18.706525
_cell_length_b 9.320022
_cell_length_c 13.491652
_cell_angle_alpha 90.000000
_cell_angle_beta 143.290798
_cell_angle_gamma 90.000000
_cell_volume 1406.039791
_symmetry_space_group_name_H-M "P 2/M"
_symmetry_group_IT_number 10
_symmetry_cell_setting 'monoclinic'
loop_
_space_group_symop_operation_xyz
x,y,z
-x,y,-z
-x,-y,-z
x,-y,z
loop_
_atom_site_type_symbol
_atom_site_label
_atom_site_fract_x
_atom_site_fract_y
_atom_site_fract_z
Si Si1 0.111050 0.833612 0.060308
Si Si2 0.579338 0.841957 0.182695
Si Si3 0.806351 0.336832 0.438765
Si Si4 0.368407 0.838903 0.086033
Si Si5 0.826985 0.334657 0.232876
Si Si6 0.988263 0.833752 0.265001
Si Si7 0.373597 0.170866 0.316456
O O1 0.248627 0.775275 0.231980
O O2 0.111815 0.000000 0.089431
O O3 0.000000 0.762035 0.000000
O O4 0.086155 0.808256 0.917099
O O5 0.671629 0.714658 0.297200
O O6 0.503986 0.845229 0.199941
O O7 0.639289 0.000000 0.234123
O O8 0.500000 0.804988 0.000000
O O9 0.814216 0.500000 0.483514
O O10 0.852125 0.320716 0.377177
O O11 0.881857 0.238932 0.598530
O O12 0.365797 0.778087 0.194232
O O13 0.310978 0.000000 0.018741
O O14 0.300625 0.732352 0.936620
O O15 0.831935 0.500000 0.204623
O O16 0.926216 0.244789 0.286907
O O17 0.003832 0.000000 0.306438
O O18 0.500000 0.233291 0.500000
O O19 0.377746 0.000000 0.327035
#
# Coordination Sequence:
#
# PCOD8062002 Si02
#       7
#     4   4   4   4   4   4   4
#     4   9  18  33  56  87 117 145 184 238 297 351
#     4  10  20  34  55  82 112 146 190 240 283 330
#     4  11  24  38  54  81 118 156 195 234 282 346
#     4  10  19  34  57  84 111 145 191 234 280 337
#     4  11  22  36  56  81 112 152 194 233 280 340
#     4  11  22  37  59  85 114 148 191 241 288 336
#     4   9  17  31  54  84 114 143 181 235 293 344
#
# _framework density 19.914086999999999
#
# number of rings (size 3 to 8) (size 9 to 14) (size 15 to 20)
#    0.000    1.857    2.857    1.714    0.000    5.429 
#    0.000    4.286    0.000    2.143    0.000    0.000 
#    0.000    0.000    0.000    0.000    0.000    0.000 
#
# Total GULP energy -347011.044870 kJ/mol
# GULP energy per Si atom -12393.251602 kJ/mol
# Density = 1.986876 g / cm^3
# Si number density = 19.914087 Si / 1000 Ang^3
#
#
#
# Elastic Constant Matrix: (Units=GPa)
#
#
# Indices 1 2 3 4 5 6 
#
# 1 82.9729 16.7052 31.4056 0.0000 23.8765 0.0000
# 2 16.7052 94.0834 49.4205 0.0000 8.3109 0.0000
# 3 31.4056 49.4205 100.7452 0.0000 23.4992 0.0000
# 4 0.0000 0.0000 0.0000 9.9465 0.0000 4.0695
# 5 23.8765 8.3109 23.4992 0.0000 25.9991 0.0000
# 6 0.0000 0.0000 0.0000 4.0695 0.0000 16.7527
#
#
#
# Elastic Compliance Matrix: (Units=1/GPa)
#
#
# Indices 1 2 3 4 5 6 
#
# 1 0.016775 -0.000942 -0.001576 0.000000 -0.013679 0.000000
# 2 -0.000942 0.014475 -0.007514 0.000000 0.003029 0.000000
# 3 -0.001576 -0.007514 0.016733 0.000000 -0.011275 0.000000
# 4 0.000000 0.000000 0.000000 0.111633 0.000000 -0.027118
# 5 -0.013679 0.003029 -0.011275 0.000000 0.060248 0.000000
# 6 0.000000 0.000000 0.000000 -0.027118 0.000000 0.066279
#
#
# Mechanical properties :
#
#
# Convention : Reuss Voigt Hill
#
# Bulk Modulus (GPa) = 35.81797 52.54046 44.17922
# Shear Modulus (GPa) = 15.84715 22.55767 19.20241
#
# Velocity S-wave (km/s) = 2.82401 3.36929 3.10863
# Velocity P-wave (km/s) = 5.35338 6.44802 5.92603
#
# Compressibility (1/GPa) = 0.02791894
#
# Stress axis : x y z
#
# Youngs Moduli (GPa) = 59.61296 69.08246 59.76132
#
# Poissons Ratio (x) = 0.06508 0.09421
# Poissons Ratio (y) = 0.05616 0.44904
# Poissons Ratio (z) = 0.09397 0.51908
#
# Static dielectric constant tensor:
#      x y z
#    x 3.677570 0.000000 0.215980 
#    y 0.000000 3.415810 0.000000 
#    z 0.215980 0.000000 3.819790 
# 
# 
# High freq. dielectric constant tensor:
#      x y z
#    x 1.777000 0.000000 0.015570 
#    y 0.000000 1.740350 0.000000 
#    z 0.015570 0.000000 1.779730 
# 
# From -- ./inp_files/68676.got.cif
#   From: 2010.06.25/outbox.cif.g09.slc.cpg/sg10_35_cif.got.tgz:68676.got - 2010.06.27 22:07:45.
