data_PCOD8062031
_publ_section_title
;
Structure prediction by ZEFSAII (Michael W. Deem and Ramdas Pophale) SiO2 
 PCOD8062031
Probable space group: P 2/M
;
_chemical_formula_sum "Si O2"
_cell_formula_units_Z 24
_cell_length_a 6.565118
_cell_length_b 13.844432
_cell_length_c 13.962983
_cell_angle_alpha 90.000000
_cell_angle_beta 81.360446
_cell_angle_gamma 90.000000
_cell_volume 1254.699541
_symmetry_space_group_name_H-M "P 2/M"
_symmetry_group_IT_number 10
_symmetry_cell_setting 'monoclinic'
loop_
_space_group_symop_operation_xyz
x,y,z
-x,y,-z
-x,-y,-z
x,-y,z
loop_
_atom_site_type_symbol
_atom_site_label
_atom_site_fract_x
_atom_site_fract_y
_atom_site_fract_z
Si Si1 0.170860 0.760855 0.266394
Si Si2 0.520118 0.236102 0.385925
Si Si3 0.169511 0.391745 0.713254
Si Si4 0.210662 0.606190 0.935847
Si Si5 0.463029 0.785778 0.902627
Si Si6 0.208025 0.113441 0.755987
O O1 0.292690 0.773689 0.357208
O O2 0.329452 0.759162 0.167643
O O3 0.046008 0.661871 0.291238
O O4 0.019948 0.849471 0.252398
O O5 0.500000 0.235773 0.500000
O O6 0.636525 0.333450 0.343685
O O7 0.647584 0.142222 0.343290
O O8 0.164010 0.500000 0.669028
O O9 0.191181 0.397004 0.823968
O O10 0.276709 0.500000 0.969290
O O11 0.377184 0.685366 0.949990
O O12 0.000000 0.638741 0.000000
O O13 0.297687 0.839578 0.847051
O O14 0.500000 0.845813 0.000000
O O15 0.202333 0.000000 0.770097
#
# Coordination Sequence:
#
# PCOD8062031 Si02
#       6
#     4   4   4   4   4   4
#     4  10  20  39  59  85 115 161 192 248 292 354
#     4  10  22  41  63  88 118 154 196 246 303 356
#     4  10  20  36  57  87 124 160 200 242 286 344
#     4  10  19  34  57  87 122 158 198 237 279 337
#     4  11  22  36  62  87 122 161 199 240 295 346
#     4  10  23  42  60  86 116 149 197 252 303 358
#
# _framework density 19.128087000000001
#
# number of rings (size 3 to 8) (size 9 to 14) (size 15 to 20)
#    0.000    1.833    5.000    1.000    0.000    8.000 
#    0.000    2.500    0.000    0.000    0.000    0.000 
#    0.000    0.000    0.000    0.000    0.000    0.000 
#
# Total GULP energy -297453.302285 kJ/mol
# GULP energy per Si atom -12393.887595 kJ/mol
# Density = 1.908455 g / cm^3
# Si number density = 19.128087 Si / 1000 Ang^3
#
#
#
# Elastic Constant Matrix: (Units=GPa)
#
#
# Indices 1 2 3 4 5 6 
#
# 1 140.0725 66.2043 57.6964 0.0000 7.9175 0.0000
# 2 66.2043 140.9151 30.8541 0.0000 -1.2283 0.0000
# 3 57.6964 30.8541 137.8267 0.0000 9.9735 0.0000
# 4 0.0000 0.0000 0.0000 14.6701 0.0000 -7.7127
# 5 7.9175 -1.2283 9.9735 0.0000 18.8785 0.0000
# 6 0.0000 0.0000 0.0000 -7.7127 0.0000 12.4362
#
#
#
# Elastic Compliance Matrix: (Units=1/GPa)
#
#
# Indices 1 2 3 4 5 6 
#
# 1 0.010720 -0.004341 -0.003296 0.000000 -0.003037 0.000000
# 2 -0.004341 0.009257 -0.000447 0.000000 0.002659 0.000000
# 3 -0.003296 -0.000447 0.008981 0.000000 -0.003391 0.000000
# 4 0.000000 0.000000 0.000000 0.101145 0.000000 0.062728
# 5 -0.003037 0.002659 -0.003391 0.000000 0.056209 0.000000
# 6 0.000000 0.000000 0.000000 0.062728 0.000000 0.119313
#
#
# Mechanical properties :
#
#
# Convention : Reuss Voigt Hill
#
# Bulk Modulus (GPa) = 78.19378 80.92490 79.55934
# Shear Modulus (GPa) = 15.33469 26.80092 21.06781
#
# Velocity S-wave (km/s) = 2.83447 3.74723 3.32235
# Velocity P-wave (km/s) = 7.18889 7.81799 7.51003
#
# Compressibility (1/GPa) = 0.01278874
#
# Stress axis : x y z
#
# Youngs Moduli (GPa) = 93.27965 108.02290 111.34817
#
# Poissons Ratio (x) = 0.46897 0.36701
# Poissons Ratio (y) = 0.40497 0.04982
# Poissons Ratio (z) = 0.30746 0.04833
#
# Static dielectric constant tensor:
#      x y z
#    x 3.428480 0.000000 0.187280 
#    y 0.000000 3.755760 0.000000 
#    z 0.187280 0.000000 3.325920 
# 
# 
# High freq. dielectric constant tensor:
#      x y z
#    x 1.755790 0.000000 0.000700 
#    y 0.000000 1.732650 0.000000 
#    z 0.000700 0.000000 1.741020 
# 
# From -- ./inp_files/9222.got.cif
#   From: 2010.06.25/outbox.cif.g09.slc.cpg/sg10_5_cif.got.tgz:9222.got - 2010.06.27 22:07:45.
