data_PCOD8062700
_publ_section_title
;
Structure prediction by ZEFSAII (Michael W. Deem and Ramdas Pophale) SiO2 
 PCOD8062700
Probable space group: P 2/M
;
_chemical_formula_sum "Si O2"
_cell_formula_units_Z 28
_cell_length_a 20.553039
_cell_length_b 8.967578
_cell_length_c 23.519313
_cell_angle_alpha 90.000000
_cell_angle_beta 19.640476
_cell_angle_gamma 90.000000
_cell_volume 1457.022673
_symmetry_space_group_name_H-M "P 2/M"
_symmetry_group_IT_number 10
_symmetry_cell_setting 'monoclinic'
loop_
_space_group_symop_operation_xyz
x,y,z
-x,y,-z
-x,-y,-z
x,-y,z
loop_
_atom_site_type_symbol
_atom_site_label
_atom_site_fract_x
_atom_site_fract_y
_atom_site_fract_z
Si Si1 0.200835 0.163030 0.868819
Si Si2 0.039835 0.327270 0.598930
Si Si3 0.617939 0.177375 0.748042
Si Si4 0.063594 0.673514 0.081914
Si Si5 0.317345 0.328056 0.188780
Si Si6 0.197434 0.325557 0.095577
Si Si7 0.692878 0.674457 0.320911
O O1 0.311374 0.285854 0.741726
O O2 0.298638 0.000000 0.789483
O O3 0.211950 0.225439 0.923998
O O4 0.000000 0.152146 0.000000
O O5 0.097150 0.500000 0.558590
O O6 0.882443 0.304209 0.679417
O O7 0.938448 0.268230 0.740757
O O8 0.236992 0.239076 0.420619
O O9 0.698798 0.225512 0.742691
O O10 0.611868 0.000000 0.748075
O O11 0.400451 0.240540 0.922133
O O12 0.099953 0.500000 0.038546
O O13 0.076049 0.705124 0.138398
O O14 0.861795 0.733638 0.222726
O O15 0.344609 0.500000 0.184970
O O16 0.500000 0.278353 0.000000
O O17 0.244905 0.500000 0.065677
O O18 0.500000 0.754215 0.500000
O O19 0.687867 0.500000 0.331601
#
# Coordination Sequence:
#
# PCOD8062700 Si02
#       7
#     4   4   4   4   4   4   4
#     4   9  17  30  50  74 103 139 175 211 261 326
#     4  10  21  39  63  86 113 151 198 246 285 338
#     4  12  25  38  57  87 123 154 187 237 299 354
#     4   9  18  34  57  80 104 140 184 231 277 324
#     4  10  19  37  64  88 111 148 198 244 289 337
#     4  10  21  41  63  82 110 154 204 243 282 340
#     4   9  17  31  52  81 113 138 175 230 280 323
#
# _framework density 19.217271
#
# number of rings (size 3 to 8) (size 9 to 14) (size 15 to 20)
#    0.000    2.143    1.429    2.143    0.000    5.714 
#    2.571    0.000    0.000    0.000    0.000    0.000 
#    0.000    0.000    0.000    0.000    0.000    0.000 
#
# Total GULP energy -346895.543383 kJ/mol
# GULP energy per Si atom -12389.126549 kJ/mol
# Density = 1.917353 g / cm^3
# Si number density = 19.217271 Si / 1000 Ang^3
#
#
#
# Elastic Constant Matrix: (Units=GPa)
#
#
# Indices 1 2 3 4 5 6 
#
# 1 113.8222 43.1911 49.6275 0.0000 20.6878 0.0000
# 2 43.1911 60.4914 46.0341 0.0000 0.8956 0.0000
# 3 49.6275 46.0341 130.7783 0.0000 22.0917 0.0000
# 4 0.0000 0.0000 0.0000 80.0666 0.0000 122.6517
# 5 20.6878 0.8956 22.0917 0.0000 15.3565 0.0000
# 6 0.0000 0.0000 0.0000 122.6517 0.0000 238.8659
#
#
#
# Elastic Compliance Matrix: (Units=1/GPa)
#
#
# Indices 1 2 3 4 5 6 
#
# 1 0.018223 -0.014956 0.003103 0.000000 -0.028141 0.000000
# 2 -0.014956 0.037141 -0.013786 0.000000 0.037814 0.000000
# 3 0.003103 -0.013786 0.015710 0.000000 -0.025976 0.000000
# 4 0.000000 0.000000 0.000000 0.058521 0.000000 -0.030049
# 5 -0.028141 0.037814 -0.025976 0.000000 0.138193 0.000000
# 6 0.000000 0.000000 0.000000 -0.030049 0.000000 0.019616
#
#
# Mechanical properties :
#
#
# Convention : Reuss Voigt Hill
#
# Bulk Modulus (GPa) = 50.51594 64.75526 57.63560
# Shear Modulus (GPa) = 14.48105 77.94041 46.21073
#
# Velocity S-wave (km/s) = 2.74805 6.37538 4.90904
# Velocity P-wave (km/s) = 6.03431 9.37889 7.88595
#
# Compressibility (1/GPa) = 0.01979573
#
# Stress axis : x y z
#
# Youngs Moduli (GPa) = 54.87715 26.92433 63.65471
#
# Poissons Ratio (x) = 0.40267 -0.19752
# Poissons Ratio (y) = 0.82073 0.87755
# Poissons Ratio (z) = -0.17029 0.37118
#
# Static dielectric constant tensor:
#      x y z
#    x 3.530980 0.000000 0.111370 
#    y 0.000000 3.420010 0.000000 
#    z 0.111370 0.000000 3.877630 
# 
# 
# High freq. dielectric constant tensor:
#      x y z
#    x 1.744270 0.000000 0.014070 
#    y 0.000000 1.732790 0.000000 
#    z 0.014070 0.000000 1.745150 
# 
# From -- ./inp_files/90369.got.cif
#   From: 2010.06.25/outbox.cif.g09.slc.cpg/sg10_46_cif.got.tgz:90369.got - 2010.06.27 22:07:45.
