data_PCOD8062618
_publ_section_title
;
Structure prediction by ZEFSAII (Michael W. Deem and Ramdas Pophale) SiO2 
 PCOD8062618
Probable space group: P 2/M
;
_chemical_formula_sum "Si O2"
_cell_formula_units_Z 24
_cell_length_a 14.614427
_cell_length_b 15.928545
_cell_length_c 9.029123
_cell_angle_alpha 90.000000
_cell_angle_beta 34.605534
_cell_angle_gamma 90.000000
_cell_volume 1193.694283
_symmetry_space_group_name_H-M "P 2/M"
_symmetry_group_IT_number 10
_symmetry_cell_setting 'monoclinic'
loop_
_space_group_symop_operation_xyz
x,y,z
-x,y,-z
-x,-y,-z
x,-y,z
loop_
_atom_site_type_symbol
_atom_site_label
_atom_site_fract_x
_atom_site_fract_y
_atom_site_fract_z
Si Si1 0.893827 0.290196 0.496980
Si Si2 0.614897 0.733628 0.487640
Si Si3 0.034239 0.000000 0.215986
Si Si4 0.867158 0.173894 0.976736
Si Si5 0.160522 0.597404 0.691780
Si Si6 0.264612 0.000000 0.192956
Si Si7 0.353169 0.179255 0.014509
O O1 0.858251 0.375870 0.455777
O O2 0.730575 0.241561 0.756828
O O3 0.000000 0.311350 0.500000
O O4 0.982645 0.232914 0.257953
O O5 0.500000 0.718005 0.500000
O O6 0.685104 0.644381 0.444210
O O7 0.523374 0.779878 0.743997
O O8 0.765739 0.793323 0.250208
O O9 0.069743 0.918790 0.068366
O O10 0.149854 0.000000 0.203845
O O11 0.848420 0.000000 0.512337
O O12 0.757739 0.171385 0.979019
O O13 0.203342 0.500000 0.638208
O O14 0.000000 0.616582 0.000000
O O15 0.375142 0.915558 0.049017
#
# Coordination Sequence:
#
# PCOD8062618 Si02
#       7
#     4   4   2   4   4   2   4
#     4  10  19  36  62  89 118 154 197 240 291 351
#     4  10  21  38  59  87 122 156 192 242 302 354
#     4   9  14  23  49  84 118 153 205 245 268 326
#     4   9  16  30  53  85 117 159 201 235 281 345
#     4  11  24  42  66  90 113 151 199 246 300 363
#     4   9  14  25  47  84 119 154 201 241 276 336
#     4   9  18  30  54  85 120 158 194 238 292 339
#
# _framework density 20.105651000000002
#
# number of rings (size 3 to 8) (size 9 to 14) (size 15 to 20)
#    0.000    2.333    3.333    0.000    0.000    2.000 
#    0.000    5.000    0.000    6.000    0.000    0.000 
#    0.000    0.000    0.000    0.000    0.000    0.000 
#
# Total GULP energy -297510.786348 kJ/mol
# GULP energy per Si atom -12396.282764 kJ/mol
# Density = 2.005989 g / cm^3
# Si number density = 20.105651 Si / 1000 Ang^3
#
#
#
# Elastic Constant Matrix: (Units=GPa)
#
#
# Indices 1 2 3 4 5 6 
#
# 1 61.1608 42.8584 29.6418 0.0000 6.0751 0.0000
# 2 42.8584 173.3576 91.9350 0.0000 -1.3864 0.0000
# 3 29.6418 91.9350 174.5202 0.0000 -6.3740 0.0000
# 4 0.0000 0.0000 0.0000 33.8822 0.0000 13.7952
# 5 6.0751 -1.3864 -6.3740 0.0000 13.8092 0.0000
# 6 0.0000 0.0000 0.0000 13.7952 0.0000 -188.4900
#
#
#
# Elastic Compliance Matrix: (Units=1/GPa)
#
#
# Indices 1 2 3 4 5 6 
#
# 1 0.021348 -0.004488 -0.001649 0.000000 -0.010603 0.000000
# 2 -0.004488 0.008967 -0.003922 0.000000 0.001064 0.000000
# 3 -0.001649 -0.003922 0.008227 0.000000 0.004129 0.000000
# 4 0.000000 0.000000 0.000000 0.028660 0.000000 0.002098
# 5 -0.010603 0.001064 0.004129 0.000000 0.079093 0.000000
# 6 0.000000 0.000000 0.000000 0.002098 0.000000 -0.005152
#
#
# Mechanical properties :
#
#
# Convention : Reuss Voigt Hill
#
# Bulk Modulus (GPa) = 54.28040 81.98988 68.13514
# Shear Modulus (GPa) = 29.86825 -11.85283 9.00771
#
# Velocity S-wave (km/s) = 3.85848 -2.43065 2.11894
# Velocity P-wave (km/s) = 6.84885 5.74375 6.32050
#
# Compressibility (1/GPa) = 0.01842286
#
# Stress axis : x y z
#
# Youngs Moduli (GPa) = 46.84351 111.52519 121.54970
#
# Poissons Ratio (x) = 0.50053 0.20042
# Poissons Ratio (y) = 0.21024 0.47676
# Poissons Ratio (z) = 0.07724 0.43744
#
# Static dielectric constant tensor:
#      x y z
#    x 3.277800 0.000000 0.003420 
#    y 0.000000 3.699450 0.000000 
#    z 0.003420 0.000000 3.946830 
# 
# 
# High freq. dielectric constant tensor:
#      x y z
#    x 1.769230 0.000000 0.001850 
#    y 0.000000 1.777850 0.000000 
#    z 0.001850 0.000000 1.789590 
# 
# From -- ./inp_files/29332.got.cif
#   From: 2010.06.25/outbox.cif.g09.slc.cpg/sg10_15_cif.got.tgz:29332.got - 2010.06.27 22:07:45.
