data_PCOD8062255
_publ_section_title
;
Structure prediction by ZEFSAII (Michael W. Deem and Ramdas Pophale) SiO2 
 PCOD8062255
Probable space group: P 2/M
;
_chemical_formula_sum "Si O2"
_cell_formula_units_Z 32
_cell_length_a 9.943863
_cell_length_b 13.222492
_cell_length_c 26.628449
_cell_angle_alpha 90.000000
_cell_angle_beta 149.747902
_cell_angle_gamma 90.000000
_cell_volume 1763.913620
_symmetry_space_group_name_H-M "P 2/M"
_symmetry_group_IT_number 10
_symmetry_cell_setting 'monoclinic'
loop_
_space_group_symop_operation_xyz
x,y,z
-x,y,-z
-x,-y,-z
x,-y,z
loop_
_atom_site_type_symbol
_atom_site_label
_atom_site_fract_x
_atom_site_fract_y
_atom_site_fract_z
Si Si1 0.603385 0.779422 0.479012
Si Si2 0.052131 0.617398 0.126107
Si Si3 0.064158 0.616744 0.464349
Si Si4 0.876609 0.114783 0.319972
Si Si5 0.083821 0.884452 0.276263
Si Si6 0.436979 0.305258 0.755471
Si Si7 0.541365 0.616142 0.898463
Si Si8 0.755594 0.269682 0.114165
O O1 0.500000 0.744055 0.500000
O O2 0.683422 0.679659 0.474135
O O3 0.375813 0.836959 0.375291
O O4 0.851292 0.856000 0.563830
O O5 0.135148 0.500000 0.154871
O O6 0.313009 0.685993 0.201292
O O7 0.925685 0.648078 0.138415
O O8 0.841239 0.638941 0.013724
O O9 0.147913 0.500000 0.490460
O O10 0.000000 0.652915 0.500000
O O11 0.812650 0.634390 0.347303
O O12 0.635863 0.187471 0.259845
O O13 0.916733 0.126076 0.273517
O O14 0.800433 0.000000 0.309798
O O15 0.928435 0.829361 0.181290
O O16 0.118056 0.000000 0.271395
O O17 0.522227 0.358149 0.834262
O O18 0.471140 0.500000 0.885345
O O19 0.325379 0.680233 0.859398
O O20 0.500000 0.234448 0.000000
#
# Coordination Sequence:
#
# PCOD8062255 Si02
#       8
#     4   4   4   4   4   4   4   4
#     4   9  19  35  58  84 105 135 184 232 267 314
#     4  10  21  35  55  81 113 147 178 223 276 325
#     4  10  22  37  52  76 117 156 177 208 268 333
#     4   9  18  35  59  82 107 140 179 232 281 315
#     4  10  19  35  59  82 106 140 185 229 275 321
#     4  11  20  35  57  82 108 145 189 223 264 324
#     4  10  19  35  57  82 108 139 187 231 268 320
#     4  10  21  36  54  82 113 145 178 223 278 328
#
# _framework density 18.141479
#
# number of rings (size 3 to 8) (size 9 to 14) (size 15 to 20)
#    0.000    2.125    1.250    2.250    1.750    4.500 
#    0.000    1.250    0.000    4.125    0.000    0.000 
#    0.000    0.000    0.000    0.000    0.000    0.000 
#
# Total GULP energy -396910.588547 kJ/mol
# GULP energy per Si atom -12403.455892 kJ/mol
# Density = 1.810019 g / cm^3
# Si number density = 18.141479 Si / 1000 Ang^3
#
#
#
# Elastic Constant Matrix: (Units=GPa)
#
#
# Indices 1 2 3 4 5 6 
#
# 1 66.6174 45.5590 30.0722 0.0000 12.6672 0.0000
# 2 45.5590 124.3527 53.9387 0.0000 11.7265 0.0000
# 3 30.0722 53.9387 74.9255 0.0000 11.5566 0.0000
# 4 0.0000 0.0000 0.0000 25.9374 0.0000 1.5631
# 5 12.6672 11.7265 11.5566 0.0000 26.1228 0.0000
# 6 0.0000 0.0000 0.0000 1.5631 0.0000 28.5319
#
#
#
# Elastic Compliance Matrix: (Units=1/GPa)
#
#
# Indices 1 2 3 4 5 6 
#
# 1 0.021837 -0.005851 -0.003568 0.000000 -0.006384 0.000000
# 2 -0.005851 0.013326 -0.007255 0.000000 0.000065 0.000000
# 3 -0.003568 -0.007255 0.020641 0.000000 -0.004145 0.000000
# 4 0.000000 0.000000 0.000000 0.038682 0.000000 -0.002119
# 5 -0.006384 0.000065 -0.004145 0.000000 0.043181 0.000000
# 6 0.000000 0.000000 0.000000 -0.002119 0.000000 0.035165
#
#
# Mechanical properties :
#
#
# Convention : Reuss Voigt Hill
#
# Bulk Modulus (GPa) = 44.53089 58.33726 51.43407
# Shear Modulus (GPa) = 23.40121 25.20678 24.30399
#
# Velocity S-wave (km/s) = 3.59545 3.73158 3.66415
# Velocity P-wave (km/s) = 6.46808 7.12692 6.80548
#
# Compressibility (1/GPa) = 0.02245632
#
# Stress axis : x y z
#
# Youngs Moduli (GPa) = 45.79399 75.04114 48.44791
#
# Poissons Ratio (x) = 0.43905 0.17285
# Poissons Ratio (y) = 0.26793 0.35149
# Poissons Ratio (z) = 0.16338 0.54443
#
# Static dielectric constant tensor:
#      x y z
#    x 3.298560 0.000000 -0.015950 
#    y 0.000000 3.307940 0.000000 
#    z -0.015950 0.000000 3.385470 
# 
# 
# High freq. dielectric constant tensor:
#      x y z
#    x 1.697760 0.000000 -0.001690 
#    y 0.000000 1.698280 0.000000 
#    z -0.001690 0.000000 1.706720 
# 
# From -- ./inp_files/25296.got.cif
#   From: 2010.06.25/outbox.cif.g09.slc.cpg/sg10_13_cif.got.tgz:25296.got - 2010.06.27 22:07:45.
