data_PCOD8062443
_publ_section_title
;
Structure prediction by ZEFSAII (Michael W. Deem and Ramdas Pophale) SiO2 
 PCOD8062443
Probable space group: P 2/M
;
_chemical_formula_sum "Si O2"
_cell_formula_units_Z 32
_cell_length_a 30.618220
_cell_length_b 9.025180
_cell_length_c 10.590020
_cell_angle_alpha 90.000000
_cell_angle_beta 148.475446
_cell_angle_gamma 90.000000
_cell_volume 1530.105096
_symmetry_space_group_name_H-M "P 2/M"
_symmetry_group_IT_number 10
_symmetry_cell_setting 'monoclinic'
loop_
_space_group_symop_operation_xyz
x,y,z
-x,y,-z
-x,-y,-z
x,-y,z
loop_
_atom_site_type_symbol
_atom_site_label
_atom_site_fract_x
_atom_site_fract_y
_atom_site_fract_z
Si Si1 0.641982 0.164120 0.397327
Si Si2 0.519323 0.334039 0.245008
Si Si3 0.221894 0.835361 0.057434
Si Si4 0.620852 0.170408 0.956257
Si Si5 0.061409 0.675500 0.767359
Si Si6 0.343206 0.666018 0.199775
Si Si7 0.760320 0.828975 0.481341
Si Si8 0.055797 0.823389 0.017942
O O1 0.560856 0.265033 0.221655
O O2 0.697578 0.148124 0.658045
O O3 0.697850 0.245364 0.428554
O O4 0.612404 0.000000 0.280559
O O5 0.488240 0.500000 0.140520
O O6 0.589797 0.334409 0.524969
O O7 0.440865 0.233971 0.089738
O O8 0.256038 0.749226 0.018184
O O9 0.188648 0.000000 0.938539
O O10 0.150951 0.743907 0.954644
O O11 0.717566 0.189329 0.239049
O O12 0.597786 0.000000 0.877323
O O13 0.609561 0.256742 0.799142
O O14 0.069833 0.500000 0.806168
O O15 0.000000 0.714735 0.500000
O O16 0.028110 0.746504 0.817446
O O17 0.318029 0.500000 0.099222
O O18 0.852652 0.761380 0.717481
O O19 0.769030 0.000000 0.541899
O O20 0.051643 0.000000 0.987759
O O21 0.000000 0.774789 0.000000
#
# Coordination Sequence:
#
# PCOD8062443 Si02
#       8
#     4   4   4   4   4   4   4   4
#     4   9  17  34  59  81 108 144 188 237 289 344
#     4  10  21  36  54  79 113 150 194 245 298 348
#     4  10  19  35  62  88 110 145 196 243 285 345
#     4  11  22  35  54  80 115 156 200 243 292 351
#     4  11  24  40  60  91 130 163 197 247 307 368
#     4  10  21  37  56  80 116 155 191 241 301 352
#     4   9  19  37  58  84 115 148 189 243 296 348
#     4  10  21  41  68  94 122 159 205 255 306 364
#
# _framework density 20.913594
#
# number of rings (size 3 to 8) (size 9 to 14) (size 15 to 20)
#    0.000    2.000    1.250    2.250    0.000    6.250 
#    0.000    6.250    0.000    0.000    0.000    0.000 
#    0.000    0.000    0.000    0.000    0.000    0.000 
#
# Total GULP energy -396698.236791 kJ/mol
# GULP energy per Si atom -12396.819900 kJ/mol
# Density = 2.086599 g / cm^3
# Si number density = 20.913594 Si / 1000 Ang^3
#
#
#
# Elastic Constant Matrix: (Units=GPa)
#
#
# Indices 1 2 3 4 5 6 
#
# 1 114.4566 44.2789 41.7696 0.0000 29.0979 0.0000
# 2 44.2789 120.0695 42.1403 0.0000 9.6689 0.0000
# 3 41.7696 42.1403 61.9127 0.0000 8.4612 0.0000
# 4 0.0000 0.0000 0.0000 20.3341 0.0000 3.2041
# 5 29.0979 9.6689 8.4612 0.0000 19.1996 0.0000
# 6 0.0000 0.0000 0.0000 3.2041 0.0000 27.0752
#
#
#
# Elastic Compliance Matrix: (Units=1/GPa)
#
#
# Indices 1 2 3 4 5 6 
#
# 1 0.018291 -0.002178 -0.007682 0.000000 -0.023238 0.000000
# 2 -0.002178 0.011304 -0.006276 0.000000 0.000374 0.000000
# 3 -0.007682 -0.006276 0.025094 0.000000 0.003743 0.000000
# 4 0.000000 0.000000 0.000000 0.050113 0.000000 -0.005930
# 5 -0.023238 0.000374 0.003743 0.000000 0.085465 0.000000
# 6 0.000000 0.000000 0.000000 -0.005930 0.000000 0.037636
#
#
# Mechanical properties :
#
#
# Convention : Reuss Voigt Hill
#
# Bulk Modulus (GPa) = 44.60644 61.42406 53.01525
# Shear Modulus (GPa) = 18.68136 24.53843 21.60989
#
# Velocity S-wave (km/s) = 2.99199 3.42910 3.21798
# Velocity P-wave (km/s) = 5.77159 6.71658 6.26194
#
# Compressibility (1/GPa) = 0.02241829
#
# Stress axis : x y z
#
# Youngs Moduli (GPa) = 54.67314 88.46288 39.84975
#
# Poissons Ratio (x) = 0.19266 0.30611
# Poissons Ratio (y) = 0.11907 0.25009
# Poissons Ratio (z) = 0.41998 0.55518
#
# Static dielectric constant tensor:
#      x y z
#    x 3.835910 0.000000 0.082600 
#    y 0.000000 3.881130 0.000000 
#    z 0.082600 0.000000 3.682020 
# 
# 
# High freq. dielectric constant tensor:
#      x y z
#    x 1.824830 0.000000 0.001890 
#    y 0.000000 1.809270 0.000000 
#    z 0.001890 0.000000 1.810510 
# 
# From -- ./inp_files/58230.got.cif
#   From: 2010.06.25/outbox.cif.g09.slc.cpg/sg10_30_cif.got.tgz:58230.got - 2010.06.27 22:07:45.
