data_PCOD8062472
_publ_section_title
;
Structure prediction by ZEFSAII (Michael W. Deem and Ramdas Pophale) SiO2 
 PCOD8062472
Probable space group: P 2/M
;
_chemical_formula_sum "Si O2"
_cell_formula_units_Z 32
_cell_length_a 20.055392
_cell_length_b 16.251062
_cell_length_c 11.795055
_cell_angle_alpha 90.000000
_cell_angle_beta 152.382188
_cell_angle_gamma 90.000000
_cell_volume 1782.089920
_symmetry_space_group_name_H-M "P 2/M"
_symmetry_group_IT_number 10
_symmetry_cell_setting 'monoclinic'
loop_
_space_group_symop_operation_xyz
x,y,z
-x,y,-z
-x,-y,-z
x,-y,z
loop_
_atom_site_type_symbol
_atom_site_label
_atom_site_fract_x
_atom_site_fract_y
_atom_site_fract_z
Si Si1 0.933746 0.656224 0.018464
Si Si2 0.182744 0.904513 0.651765
Si Si3 0.661079 0.409979 0.503608
Si Si4 0.147500 0.907803 0.856268
Si Si5 0.217587 0.597048 0.554028
Si Si6 0.531914 0.729932 0.719052
Si Si7 0.363668 0.752555 0.876306
Si Si8 0.280384 0.774870 0.196395
O O1 0.806509 0.592659 0.797023
O O2 0.866219 0.733718 0.981101
O O3 0.000000 0.688580 0.000000
O O4 0.049212 0.611131 0.273044
O O5 0.184996 0.876756 0.786564
O O6 0.271398 0.836061 0.712920
O O7 0.019306 0.898394 0.364048
O O8 0.237401 0.000000 0.717128
O O9 0.598358 0.500000 0.408464
O O10 0.691023 0.382050 0.420151
O O11 0.532621 0.360136 0.364484
O O12 0.198877 0.000000 0.941438
O O13 0.242537 0.863909 0.093483
O O14 0.238505 0.500000 0.623543
O O15 0.273138 0.666213 0.727473
O O16 0.399795 0.786696 0.474496
O O17 0.657329 0.721943 0.815177
O O18 0.586601 0.763868 0.920032
O O19 0.500000 0.751917 0.000000
#
# Coordination Sequence:
#
# PCOD8062472 Si02
#       8
#     4   4   4   4   4   4   4   4
#     4   9  18  33  55  81 103 138 183 228 275 318
#     4   9  19  35  57  85 110 137 181 223 268 327
#     4   9  17  33  54  75 106 143 185 231 265 312
#     4   9  17  34  60  84 104 135 178 225 270 321
#     4  10  20  33  53  81 108 143 187 228 269 318
#     4  10  21  35  50  80 108 144 186 216 264 322
#     4  12  22  35  55  79 114 150 179 222 270 324
#     4  10  19  36  57  76 109 143 177 228 264 323
#
# _framework density 17.956446
#
# number of rings (size 3 to 8) (size 9 to 14) (size 15 to 20)
#    0.000    2.250    2.500    1.875    0.000    2.500 
#    0.000    7.500    0.000    1.125    0.000    0.000 
#    0.000    0.000    0.000    0.000    0.000    0.000 
#
# Total GULP energy -396516.097648 kJ/mol
# GULP energy per Si atom -12391.128051 kJ/mol
# Density = 1.791558 g / cm^3
# Si number density = 17.956446 Si / 1000 Ang^3
#
#
#
# Elastic Constant Matrix: (Units=GPa)
#
#
# Indices 1 2 3 4 5 6 
#
# 1 56.0849 27.7239 29.5465 0.0000 5.8970 0.0000
# 2 27.7239 93.3220 45.5498 0.0000 2.3296 0.0000
# 3 29.5465 45.5498 67.8549 0.0000 -3.1383 0.0000
# 4 0.0000 0.0000 0.0000 14.7420 0.0000 -4.8026
# 5 5.8970 2.3296 -3.1383 0.0000 32.4464 0.0000
# 6 0.0000 0.0000 0.0000 -4.8026 0.0000 28.2770
#
#
#
# Elastic Compliance Matrix: (Units=1/GPa)
#
#
# Indices 1 2 3 4 5 6 
#
# 1 0.024497 -0.002717 -0.009080 0.000000 -0.005135 0.000000
# 2 -0.002717 0.016395 -0.009898 0.000000 -0.001641 0.000000
# 3 -0.009080 -0.009898 0.025559 0.000000 0.004833 0.000000
# 4 0.000000 0.000000 0.000000 0.071807 0.000000 0.012196
# 5 -0.005135 -0.001641 0.004833 0.000000 0.032339 0.000000
# 6 0.000000 0.000000 0.000000 0.012196 0.000000 0.037436
#
#
# Mechanical properties :
#
#
# Convention : Reuss Voigt Hill
#
# Bulk Modulus (GPa) = 43.36621 46.98912 45.17767
# Shear Modulus (GPa) = 19.29672 22.72251 21.00962
#
# Velocity S-wave (km/s) = 3.28173 3.56114 3.42428
# Velocity P-wave (km/s) = 6.20990 6.56766 6.39128
#
# Compressibility (1/GPa) = 0.02305943
#
# Stress axis : x y z
#
# Youngs Moduli (GPa) = 40.82137 60.99357 39.12444
#
# Poissons Ratio (x) = 0.16574 0.35526
# Poissons Ratio (y) = 0.11092 0.38727
# Poissons Ratio (z) = 0.37067 0.60374
#
# Static dielectric constant tensor:
#      x y z
#    x 3.282170 0.000000 0.003260 
#    y 0.000000 3.252430 0.000000 
#    z 0.003260 0.000000 3.448240 
# 
# 
# High freq. dielectric constant tensor:
#      x y z
#    x 1.678080 0.000000 0.003290 
#    y 0.000000 1.686040 0.000000 
#    z 0.003290 0.000000 1.701370 
# 
# From -- ./inp_files/54057.got.cif
#   From: 2010.06.25/outbox.cif.g09.slc.cpg/sg10_28_cif.got.tgz:54057.got - 2010.06.27 22:07:45.
