data_PCOD8062133
_publ_section_title
;
Structure prediction by ZEFSAII (Michael W. Deem and Ramdas Pophale) SiO2 
 PCOD8062133
Probable space group: P 2/M
;
_chemical_formula_sum "Si O2"
_cell_formula_units_Z 26
_cell_length_a 14.332499
_cell_length_b 13.285906
_cell_length_c 9.097485
_cell_angle_alpha 90.000000
_cell_angle_beta 140.376797
_cell_angle_gamma 90.000000
_cell_volume 1104.778866
_symmetry_space_group_name_H-M "P 2/M"
_symmetry_group_IT_number 10
_symmetry_cell_setting 'monoclinic'
loop_
_space_group_symop_operation_xyz
x,y,z
-x,y,-z
-x,-y,-z
x,-y,z
loop_
_atom_site_type_symbol
_atom_site_label
_atom_site_fract_x
_atom_site_fract_y
_atom_site_fract_z
Si Si1 0.709470 0.882924 0.006975
Si Si2 0.575817 0.615173 0.345177
Si Si3 0.772202 0.390430 0.083789
Si Si4 0.037387 0.893084 0.357605
Si Si5 0.266125 0.737959 0.220572
Si Si6 0.000000 0.842570 0.000000
Si Si7 0.725727 0.743062 0.275553
O O1 0.636921 0.820004 0.055231
O O2 0.885095 0.871953 0.261033
O O3 0.659212 0.000000 0.941035
O O4 0.665322 0.828860 0.798475
O O5 0.640955 0.500000 0.420251
O O6 0.403351 0.607237 0.133490
O O7 0.616344 0.673301 0.545239
O O8 0.622485 0.681035 0.260262
O O9 0.843288 0.500000 0.168451
O O10 0.825579 0.331977 0.004090
O O11 0.817987 0.335907 0.289243
O O12 0.983573 0.909893 0.124792
O O13 0.154233 0.805171 0.490377
O O14 0.106019 0.000000 0.493800
O O15 0.147597 0.776406 0.192883
#
# Coordination Sequence:
#
# PCOD8062133 Si02
#       7
#     4   4   4   4   4   2   4
#     4   9  20  37  60  87 120 158 196 232 280 352
#     4  11  22  39  61  87 113 152 205 249 285 338
#     4  10  22  40  62  83 109 155 208 243 281 340
#     4  10  19  34  60  87 116 154 194 233 282 346
#     4  10  20  37  63  87 120 149 194 242 294 338
#     4  10  19  36  57  92 122 144 183 238 295 352
#     4  11  20  34  58  87 118 144 188 248 294 328
#
# _framework density 23.534122
#
# number of rings (size 3 to 8) (size 9 to 14) (size 15 to 20)
#    0.000    1.846    1.538    3.000    0.000    4.308 
#    0.000    1.538    0.000   31.385    0.000    0.000 
#    0.000    0.000    0.000    0.000    0.000    0.000 
#
# Total GULP energy -322093.881732 kJ/mol
# GULP energy per Si atom -12388.226220 kJ/mol
# Density = 2.348056 g / cm^3
# Si number density = 23.534122 Si / 1000 Ang^3
#
#
#
# Elastic Constant Matrix: (Units=GPa)
#
#
# Indices 1 2 3 4 5 6 
#
# 1 72.5830 26.3042 5.1599 0.0000 -20.8611 0.0000
# 2 26.3042 177.6517 23.7076 0.0000 -19.6534 0.0000
# 3 5.1599 23.7076 46.8297 0.0000 -11.9805 0.0000
# 4 0.0000 0.0000 0.0000 29.0259 0.0000 -2.2169
# 5 -20.8611 -19.6534 -11.9805 0.0000 29.7130 0.0000
# 6 0.0000 0.0000 0.0000 -2.2169 0.0000 18.4604
#
#
#
# Elastic Compliance Matrix: (Units=1/GPa)
#
#
# Indices 1 2 3 4 5 6 
#
# 1 0.017700 -0.001531 0.001946 0.000000 0.012199 0.000000
# 2 -0.001531 0.006433 -0.002536 0.000000 0.002158 0.000000
# 3 0.001946 -0.002536 0.024914 0.000000 0.009734 0.000000
# 4 0.000000 0.000000 0.000000 0.034771 0.000000 0.004176
# 5 0.012199 0.002158 0.009734 0.000000 0.047572 0.000000
# 6 0.000000 0.000000 0.000000 0.004176 0.000000 0.054672
#
#
# Mechanical properties :
#
#
# Convention : Reuss Voigt Hill
#
# Bulk Modulus (GPa) = 22.31955 45.26753 33.79354
# Shear Modulus (GPa) = 24.36203 31.56605 27.96404
#
# Velocity S-wave (km/s) = 3.22091 3.66633 3.45082
# Velocity P-wave (km/s) = 4.83082 6.09912 5.50164
#
# Compressibility (1/GPa) = 0.04480377
#
# Stress axis : x y z
#
# Youngs Moduli (GPa) = 56.49768 155.45400 40.13866
#
# Poissons Ratio (x) = 0.23798 -0.07809
# Poissons Ratio (y) = 0.08649 0.10179
# Poissons Ratio (z) = -0.10992 0.39422
#
# Static dielectric constant tensor:
#      x y z
#    x 4.114520 0.000000 -0.459250 
#    y 0.000000 4.689310 0.000000 
#    z -0.459250 0.000000 3.998970 
# 
# 
# High freq. dielectric constant tensor:
#      x y z
#    x 1.923430 0.000000 -0.040930 
#    y 0.000000 1.947770 0.000000 
#    z -0.040930 0.000000 1.913270 
# 
# From -- ./inp_files/29817.got.cif
#   From: 2010.06.25/outbox.cif.g09.slc.cpg/sg10_15_cif.got.tgz:29817.got - 2010.06.27 22:07:45.
