data_PCOD8062046
_publ_section_title
;
Structure prediction by ZEFSAII (Michael W. Deem and Ramdas Pophale) SiO2 
 PCOD8062046
Probable space group: P 2/M
;
_chemical_formula_sum "Si O2"
_cell_formula_units_Z 32
_cell_length_a 19.603701
_cell_length_b 9.259506
_cell_length_c 23.831858
_cell_angle_alpha 90.000000
_cell_angle_beta 22.689379
_cell_angle_gamma 90.000000
_cell_volume 1668.679241
_symmetry_space_group_name_H-M "P 2/M"
_symmetry_group_IT_number 10
_symmetry_cell_setting 'monoclinic'
loop_
_space_group_symop_operation_xyz
x,y,z
-x,y,-z
-x,-y,-z
x,-y,z
loop_
_atom_site_type_symbol
_atom_site_label
_atom_site_fract_x
_atom_site_fract_y
_atom_site_fract_z
Si Si1 0.785796 0.166110 0.444563
Si Si2 0.675896 0.668594 0.333838
Si Si3 0.640339 0.328788 0.727135
Si Si4 0.286601 0.335707 0.934568
Si Si5 0.941247 0.165873 0.205979
Si Si6 0.654641 0.328359 0.842283
Si Si7 0.037708 0.671353 0.593759
Si Si8 0.563292 0.663469 0.296493
O O1 0.825410 0.185024 0.349209
O O2 0.929370 0.252853 0.371721
O O3 0.593382 0.230534 0.601374
O O4 0.788161 0.000000 0.461372
O O5 0.500000 0.717739 0.500000
O O6 0.712780 0.500000 0.315202
O O7 0.843967 0.754856 0.228807
O O8 0.657035 0.709580 0.282936
O O9 0.648473 0.500000 0.722947
O O10 0.468267 0.276923 0.823727
O O11 0.631112 0.265784 0.797249
O O12 0.817062 0.273658 0.561587
O O13 0.251016 0.500000 0.981193
O O14 0.293941 0.327509 0.861466
O O15 0.130690 0.235211 0.074595
O O16 0.967346 0.000000 0.169593
O O17 0.643639 0.500000 0.849236
O O18 0.844999 0.278074 0.720074
O O19 0.500000 0.266230 0.000000
O O20 0.048312 0.500000 0.594171
O O21 0.487537 0.500000 0.359364
#
# Coordination Sequence:
#
# PCOD8062046 Si02
#       8
#     4   4   4   4   4   4   4   4
#     4  11  23  37  56  83 115 151 193 238 281 336
#     4  10  20  36  62  88 112 145 188 238 288 340
#     4   9  17  32  54  83 114 146 183 229 285 334
#     4  10  21  37  59  85 116 148 188 239 285 335
#     4  11  25  40  55  81 118 155 192 232 284 344
#     4   9  18  30  50  86 120 145 181 231 284 333
#     4  10  19  34  58  83 113 149 188 235 282 335
#     4  10  20  38  62  89 114 142 189 240 287 338
#
# _framework density 19.176843999999999
#
# number of rings (size 3 to 8) (size 9 to 14) (size 15 to 20)
#    0.000    2.000    2.500    1.125    1.750    4.750 
#    0.000    2.500    0.000    2.625    0.000    0.000 
#    0.000    0.000    0.000    0.000    0.000    0.000 
#
# Total GULP energy -396888.251954 kJ/mol
# GULP energy per Si atom -12402.757874 kJ/mol
# Density = 1.913320 g / cm^3
# Si number density = 19.176844 Si / 1000 Ang^3
#
#
#
# Elastic Constant Matrix: (Units=GPa)
#
#
# Indices 1 2 3 4 5 6 
#
# 1 115.6939 31.8196 27.2861 0.0000 -13.0384 0.0000
# 2 31.8196 56.9561 32.0788 0.0000 -8.0797 0.0000
# 3 27.2861 32.0788 96.9280 0.0000 -18.9038 0.0000
# 4 0.0000 0.0000 0.0000 14.2258 0.0000 5.9038
# 5 -13.0384 -8.0797 -18.9038 0.0000 27.5960 0.0000
# 6 0.0000 0.0000 0.0000 5.9038 0.0000 11.4067
#
#
#
# Elastic Compliance Matrix: (Units=1/GPa)
#
#
# Indices 1 2 3 4 5 6 
#
# 1 0.010543 -0.005066 -0.000703 0.000000 0.003016 0.000000
# 2 -0.005066 0.024079 -0.006504 0.000000 0.000201 0.000000
# 3 -0.000703 -0.006504 0.014117 0.000000 0.007434 0.000000
# 4 0.000000 0.000000 0.000000 0.089524 0.000000 -0.046335
# 5 0.003016 0.000201 0.007434 0.000000 0.042814 0.000000
# 6 0.000000 0.000000 0.000000 -0.046335 0.000000 0.111649
#
#
# Mechanical properties :
#
#
# Convention : Reuss Voigt Hill
#
# Bulk Modulus (GPa) = 41.33338 50.21632 45.77485
# Shear Modulus (GPa) = 15.36874 22.53862 18.95368
#
# Velocity S-wave (km/s) = 2.83401 3.43199 3.14723
# Velocity P-wave (km/s) = 5.68414 6.47669 6.09331
#
# Compressibility (1/GPa) = 0.02419352
#
# Stress axis : x y z
#
# Youngs Moduli (GPa) = 94.85392 41.52968 70.83589
#
# Poissons Ratio (x) = 0.21039 0.04979
# Poissons Ratio (y) = 0.48053 0.46070
# Poissons Ratio (z) = 0.06668 0.27010
#
# Static dielectric constant tensor:
#      x y z
#    x 3.674070 0.000000 0.047310 
#    y 0.000000 3.182360 0.000000 
#    z 0.047310 0.000000 3.457780 
# 
# 
# High freq. dielectric constant tensor:
#      x y z
#    x 1.759470 0.000000 0.000020 
#    y 0.000000 1.707970 0.000000 
#    z 0.000020 0.000000 1.745870 
# 
# From -- ./inp_files/93642.got.cif
#   From: 2010.06.25/outbox.cif.g09.slc.cpg/sg10_47_cif.got.tgz:93642.got - 2010.06.27 22:07:45.
