data_PCOD8062535
_publ_section_title
;
Structure prediction by ZEFSAII (Michael W. Deem and Ramdas Pophale) SiO2 
 PCOD8062535
Probable space group: P 2/M
;
_chemical_formula_sum "Si O2"
_cell_formula_units_Z 32
_cell_length_a 15.216324
_cell_length_b 21.786343
_cell_length_c 9.119805
_cell_angle_alpha 90.000000
_cell_angle_beta 32.920051
_cell_angle_gamma 90.000000
_cell_volume 1643.061467
_symmetry_space_group_name_H-M "P 2/M"
_symmetry_group_IT_number 10
_symmetry_cell_setting 'monoclinic'
loop_
_space_group_symop_operation_xyz
x,y,z
-x,y,-z
-x,-y,-z
x,-y,z
loop_
_atom_site_type_symbol
_atom_site_label
_atom_site_fract_x
_atom_site_fract_y
_atom_site_fract_z
Si Si1 0.328286 0.858820 0.187695
Si Si2 0.392712 0.671028 0.510757
Si Si3 0.161590 0.931126 0.180094
Si Si4 0.671592 0.729661 0.945276
Si Si5 0.127303 0.265380 0.055579
Si Si6 0.904170 0.367012 0.492268
Si Si7 0.831061 0.570085 0.312152
Si Si8 0.985191 0.861845 0.187823
O O1 0.294913 0.891881 0.079776
O O2 0.192571 0.875659 0.498407
O O3 0.500000 0.884752 0.000000
O O4 0.342186 0.785512 0.148163
O O5 0.500000 0.649620 0.500000
O O6 0.497440 0.708087 0.245844
O O7 0.313458 0.611185 0.549802
O O8 0.257294 0.719496 0.748960
O O9 0.000000 0.932120 0.500000
O O10 0.124555 0.899182 0.077115
O O11 0.226476 0.000000 0.062162
O O12 0.786800 0.753735 0.913719
O O13 0.748181 0.670905 0.759725
O O14 0.019100 0.324768 0.233034
O O15 0.015394 0.210549 0.158374
O O16 0.846873 0.421617 0.466214
O O17 0.000000 0.393340 0.500000
O O18 0.784096 0.500000 0.345500
O O19 0.000000 0.587666 0.000000
O O20 0.000000 0.883583 0.000000
#
# Coordination Sequence:
#
# PCOD8062535 Si02
#       8
#     4   4   4   4   4   4   4   4
#     4  11  23  37  58  94 125 157 199 248 308 356
#     4  10  23  39  60  91 122 157 196 247 308 356
#     4   9  20  42  66  85 120 169 211 245 289 359
#     4  10  21  36  58  90 125 156 190 251 307 360
#     4  10  19  36  59  89 122 157 197 243 300 362
#     4  10  21  37  62  89 120 155 196 246 303 349
#     4  11  24  42  64  88 117 161 208 241 291 369
#     4  11  23  36  60  93 122 160 201 250 298 356
#
# _framework density 19.475839000000001
#
# number of rings (size 3 to 8) (size 9 to 14) (size 15 to 20)
#    0.000    1.750    3.750    0.000    5.250    1.000 
#    0.000    1.875    0.000    0.750    0.000    0.000 
#    0.000    0.000    0.000    0.000    0.000    0.000 
#
# Total GULP energy -396872.673876 kJ/mol
# GULP energy per Si atom -12402.271059 kJ/mol
# Density = 1.943151 g / cm^3
# Si number density = 19.475839 Si / 1000 Ang^3
#
#
#
# Elastic Constant Matrix: (Units=GPa)
#
#
# Indices 1 2 3 4 5 6 
#
# 1 126.5567 42.4415 39.6931 0.0000 5.6554 0.0000
# 2 42.4415 65.1801 17.2066 0.0000 0.5877 0.0000
# 3 39.6931 17.2066 107.1578 0.0000 2.2729 0.0000
# 4 0.0000 0.0000 0.0000 13.4430 0.0000 -1.9629
# 5 5.6554 0.5877 2.2729 0.0000 30.8513 0.0000
# 6 0.0000 0.0000 0.0000 -1.9629 0.0000 24.1520
#
#
#
# Elastic Compliance Matrix: (Units=1/GPa)
#
#
# Indices 1 2 3 4 5 6 
#
# 1 0.011074 -0.006393 -0.003040 0.000000 -0.001684 0.000000
# 2 -0.006393 0.019713 -0.000815 0.000000 0.000856 0.000000
# 3 -0.003040 -0.000815 0.010593 0.000000 -0.000208 0.000000
# 4 0.000000 0.000000 0.000000 0.075282 0.000000 0.006118
# 5 -0.001684 0.000856 -0.000208 0.000000 0.032721 0.000000
# 6 0.000000 0.000000 0.000000 0.006118 0.000000 0.041902
#
#
# Mechanical properties :
#
#
# Convention : Reuss Voigt Hill
#
# Bulk Modulus (GPa) = 47.88477 55.28632 51.58554
# Shear Modulus (GPa) = 22.85790 26.99281 24.92535
#
# Velocity S-wave (km/s) = 3.42958 3.72689 3.58132
# Velocity P-wave (km/s) = 6.35003 6.85335 6.60648
#
# Compressibility (1/GPa) = 0.02088347
#
# Stress axis : x y z
#
# Youngs Moduli (GPa) = 90.29927 50.72908 94.39893
#
# Poissons Ratio (x) = 0.32433 0.28695
# Poissons Ratio (y) = 0.57731 0.07696
# Poissons Ratio (z) = 0.27449 0.04136
#
# Static dielectric constant tensor:
#      x y z
#    x 3.674410 0.000000 0.014450 
#    y 0.000000 3.328860 0.000000 
#    z 0.014450 0.000000 3.538640 
# 
# 
# High freq. dielectric constant tensor:
#      x y z
#    x 1.767750 0.000000 0.001440 
#    y 0.000000 1.738900 0.000000 
#    z 0.001440 0.000000 1.751930 
# 
# From -- ./inp_files/30559.got.cif
#   From: 2010.06.25/outbox.cif.g09.slc.cpg/sg10_16_cif.got.tgz:30559.got - 2010.06.27 22:07:45.
