data_PCOD8062251
_publ_section_title
;
Structure prediction by ZEFSAII (Michael W. Deem and Ramdas Pophale) SiO2 
 PCOD8062251
Probable space group: P 2/M
;
_chemical_formula_sum "Si O2"
_cell_formula_units_Z 28
_cell_length_a 16.193743
_cell_length_b 8.586783
_cell_length_c 17.806164
_cell_angle_alpha 90.000000
_cell_angle_beta 145.005674
_cell_angle_gamma 90.000000
_cell_volume 1419.966087
_symmetry_space_group_name_H-M "P 2/M"
_symmetry_group_IT_number 10
_symmetry_cell_setting 'monoclinic'
loop_
_space_group_symop_operation_xyz
x,y,z
-x,y,-z
-x,-y,-z
x,-y,z
loop_
_atom_site_type_symbol
_atom_site_label
_atom_site_fract_x
_atom_site_fract_y
_atom_site_fract_z
Si Si1 0.707115 0.685592 0.449433
Si Si2 0.840906 0.315129 0.395461
Si Si3 0.149805 0.683098 0.141689
Si Si4 0.217496 0.818609 0.943021
Si Si5 0.094194 0.317023 0.267206
Si Si6 0.333675 0.317089 0.879456
Si Si7 0.615029 0.315513 0.796372
O O1 0.704316 0.500000 0.445535
O O2 0.779722 0.752519 0.427891
O O3 0.799181 0.744638 0.588924
O O4 0.545241 0.752537 0.334979
O O5 0.848014 0.500000 0.405606
O O6 0.736487 0.262478 0.250782
O O7 0.000000 0.246214 0.500000
O O8 0.146238 0.500000 0.124155
O O9 0.170758 0.720850 0.245000
O O10 0.282094 0.754509 0.192390
O O11 0.000000 0.756140 0.000000
O O12 0.253395 0.775138 0.884739
O O13 0.054893 0.772825 0.840003
O O14 0.237844 0.000000 0.971353
O O15 0.327241 0.729187 0.078898
O O16 0.061490 0.500000 0.251165
O O17 0.312222 0.500000 0.877817
O O18 0.500000 0.270507 0.000000
O O19 0.609176 0.500000 0.787235
#
# Coordination Sequence:
#
# PCOD8062251 Si02
#       7
#     4   4   4   4   4   4   4
#     4   9  18  31  54  86 110 137 179 228 280 328
#     4   9  16  28  48  76 106 133 170 217 263 316
#     4   9  16  29  53  84 111 140 178 224 277 326
#     4  12  24  36  53  80 111 147 189 227 271 324
#     4  10  19  35  58  82 110 142 181 226 274 327
#     4  10  20  35  57  80 104 139 181 227 277 324
#     4  10  19  35  57  80 111 144 182 231 279 331
#
# _framework density 19.718781
#
# number of rings (size 3 to 8) (size 9 to 14) (size 15 to 20)
#    0.000    2.143    1.429    3.000    0.000    5.429 
#    0.000    5.000    0.000    3.857    0.000    2.000 
#    0.000    0.000    0.000    0.000    0.000    0.000 
#
# Total GULP energy -347232.598042 kJ/mol
# GULP energy per Si atom -12401.164216 kJ/mol
# Density = 1.967390 g / cm^3
# Si number density = 19.718781 Si / 1000 Ang^3
#
#
#
# Elastic Constant Matrix: (Units=GPa)
#
#
# Indices 1 2 3 4 5 6 
#
# 1 136.8376 15.9111 56.2100 0.0000 -4.0087 0.0000
# 2 15.9111 11.2644 7.8363 0.0000 5.8374 0.0000
# 3 56.2100 7.8363 153.9422 0.0000 -0.5021 0.0000
# 4 0.0000 0.0000 0.0000 0.6170 0.0000 0.8148
# 5 -4.0087 5.8374 -0.5021 0.0000 39.8475 0.0000
# 6 0.0000 0.0000 0.0000 0.8148 0.0000 0.1120
#
#
#
# Elastic Compliance Matrix: (Units=1/GPa)
#
#
# Indices 1 2 3 4 5 6 
#
# 1 0.010265 -0.013969 -0.003027 0.000000 0.003041 0.000000
# 2 -0.013969 0.118983 -0.001018 0.000000 -0.018848 0.000000
# 3 -0.003027 -0.001018 0.007653 0.000000 -0.000059 0.000000
# 4 0.000000 0.000000 0.000000 -0.188377 0.000000 1.369899
# 5 0.003041 -0.018848 -0.000059 0.000000 0.028162 0.000000
# 6 0.000000 0.000000 0.000000 1.369899 0.000000 -1.037326
#
#
# Mechanical properties :
#
#
# Convention : Reuss Voigt Hill
#
# Bulk Modulus (GPa) = 9.91346 51.32878 30.62112
# Shear Modulus (GPa) = -5.04547 22.92110 8.93782
#
# Velocity S-wave (km/s) = -1.60133 3.41310 2.13131
# Velocity P-wave (km/s) = 1.27252 6.45130 4.64965
#
# Compressibility (1/GPa) = 0.10087300
#
# Stress axis : x y z
#
# Youngs Moduli (GPa) = 97.42063 8.40456 130.67058
#
# Poissons Ratio (x) = 0.11741 0.39554
# Poissons Ratio (y) = 1.36089 0.13296
# Poissons Ratio (z) = 0.29490 0.00855
#
# Static dielectric constant tensor:
#      x y z
#    x 3.915940 0.000000 0.049660 
#    y 0.000000 2.981050 0.000000 
#    z 0.049660 0.000000 3.812810 
# 
# 
# High freq. dielectric constant tensor:
#      x y z
#    x 1.786970 0.000000 -0.000700 
#    y 0.000000 1.706150 0.000000 
#    z -0.000700 0.000000 1.780120 
# 
# From -- ./inp_files/77818.got.cif
#   From: 2010.06.25/outbox.cif.g09.slc.cpg/sg10_39_cif.got.tgz:77818.got - 2010.06.27 22:07:45.
