data_PCOD8062167
_publ_section_title
;
Structure prediction by ZEFSAII (Michael W. Deem and Ramdas Pophale) SiO2 
 PCOD8062167
Probable space group: P 2/M
;
_chemical_formula_sum "Si O2"
_cell_formula_units_Z 32
_cell_length_a 16.287309
_cell_length_b 8.570589
_cell_length_c 22.817270
_cell_angle_alpha 90.000000
_cell_angle_beta 149.512085
_cell_angle_gamma 90.000000
_cell_volume 1615.983838
_symmetry_space_group_name_H-M "P 2/M"
_symmetry_group_IT_number 10
_symmetry_cell_setting 'monoclinic'
loop_
_space_group_symop_operation_xyz
x,y,z
-x,y,-z
-x,-y,-z
x,-y,z
loop_
_atom_site_type_symbol
_atom_site_label
_atom_site_fract_x
_atom_site_fract_y
_atom_site_fract_z
Si Si1 0.992998 0.317588 0.408465
Si Si2 0.639608 0.175592 0.627219
Si Si3 0.400276 0.827751 0.579512
Si Si4 0.026228 0.680594 0.183985
Si Si5 0.881153 0.183877 0.978573
Si Si6 0.053228 0.820115 0.323787
Si Si7 0.532755 0.679318 0.767016
Si Si8 0.246998 0.816872 0.651048
O O1 0.026664 0.500000 0.437531
O O2 0.974795 0.275485 0.328980
O O3 0.141692 0.221478 0.528161
O O4 0.826951 0.271748 0.338570
O O5 0.500000 0.242315 0.500000
O O6 0.568537 0.170539 0.648382
O O7 0.787260 0.293370 0.717096
O O8 0.694057 0.000000 0.640812
O O9 0.247891 0.791941 0.443375
O O10 0.415496 0.696379 0.638449
O O11 0.375712 0.000000 0.593472
O O12 0.987948 0.500000 0.166525
O O13 0.981025 0.761014 0.217856
O O14 0.920888 0.748446 0.066619
O O15 0.696986 0.230353 0.852776
O O16 0.900459 0.000000 0.993340
O O17 0.000000 0.249022 0.000000
O O18 0.007339 0.000000 0.303284
O O19 0.569170 0.500000 0.803362
O O20 0.432356 0.757274 0.758524
O O21 0.244423 0.000000 0.661328
#
# Coordination Sequence:
#
# PCOD8062167 Si02
#       8
#     4   4   4   4   4   4   4   4
#     4  11  21  35  56  89 127 159 197 251 309 356
#     4  10  19  35  54  76 109 152 195 237 287 352
#     4  10  20  34  55  81 114 155 199 241 291 357
#     4  12  25  39  58  87 120 154 198 252 308 358
#     4  11  25  46  68  87 114 159 211 255 301 361
#     4  11  21  37  59  84 119 162 200 238 292 365
#     4  12  24  38  60  89 122 155 198 257 309 352
#     4  11  21  36  58  86 122 166 206 241 294 368
#
# _framework density 19.802178999999999
#
# number of rings (size 3 to 8) (size 9 to 14) (size 15 to 20)
#    0.000    1.000    2.500    6.750    0.000    5.250 
#    0.000    0.000    0.000    0.750    0.000    5.250 
#    0.000    0.000    0.000    0.000    0.000    0.000 
#
# Total GULP energy -396849.881731 kJ/mol
# GULP energy per Si atom -12401.558804 kJ/mol
# Density = 1.975711 g / cm^3
# Si number density = 19.802179 Si / 1000 Ang^3
#
#
#
# Elastic Constant Matrix: (Units=GPa)
#
#
# Indices 1 2 3 4 5 6 
#
# 1 113.6163 26.0551 28.9948 0.0000 -1.1644 0.0000
# 2 26.0551 99.3867 15.2125 0.0000 -3.5151 0.0000
# 3 28.9948 15.2125 58.1730 0.0000 -7.9877 0.0000
# 4 0.0000 0.0000 0.0000 16.8531 0.0000 -4.0662
# 5 -1.1644 -3.5151 -7.9877 0.0000 37.0825 0.0000
# 6 0.0000 0.0000 0.0000 -4.0662 0.0000 29.4843
#
#
#
# Elastic Compliance Matrix: (Units=1/GPa)
#
#
# Indices 1 2 3 4 5 6 
#
# 1 0.010491 -0.002045 -0.004818 0.000000 -0.000902 0.000000
# 2 -0.002045 0.010886 -0.001746 0.000000 0.000592 0.000000
# 3 -0.004818 -0.001746 0.020614 0.000000 0.004124 0.000000
# 4 0.000000 0.000000 0.000000 0.061379 0.000000 0.008465
# 5 -0.000902 0.000592 0.004124 0.000000 0.027883 0.000000
# 6 0.000000 0.000000 0.000000 0.008465 0.000000 0.035084
#
#
# Mechanical properties :
#
#
# Convention : Reuss Voigt Hill
#
# Bulk Modulus (GPa) = 40.36665 45.74455 43.05560
# Shear Modulus (GPa) = 26.06712 30.07819 28.07266
#
# Velocity S-wave (km/s) = 3.63213 3.90158 3.76926
# Velocity P-wave (km/s) = 6.16595 6.59146 6.38225
#
# Compressibility (1/GPa) = 0.02477293
#
# Stress axis : x y z
#
# Youngs Moduli (GPa) = 95.32183 91.86130 48.50968
#
# Poissons Ratio (x) = 0.18783 0.23372
# Poissons Ratio (y) = 0.19490 0.08472
# Poissons Ratio (z) = 0.45927 0.16043
#
# Static dielectric constant tensor:
#      x y z
#    x 3.800910 0.000000 0.017410 
#    y 0.000000 3.546430 0.000000 
#    z 0.017410 0.000000 3.392870 
# 
# 
# High freq. dielectric constant tensor:
#      x y z
#    x 1.783820 0.000000 -0.001540 
#    y 0.000000 1.775100 0.000000 
#    z -0.001540 0.000000 1.737870 
# 
# From -- ./inp_files/89951.got.cif
#   From: 2010.06.25/outbox.cif.g09.slc.cpg/sg10_45_cif.got.tgz:89951.got - 2010.06.27 22:07:45.
