data_PCOD8062245
_publ_section_title
;
Structure prediction by ZEFSAII (Michael W. Deem and Ramdas Pophale) SiO2 
 PCOD8062245
Probable space group: P 2/M
;
_chemical_formula_sum "Si O2"
_cell_formula_units_Z 24
_cell_length_a 8.031210
_cell_length_b 8.896146
_cell_length_c 23.071762
_cell_angle_alpha 90.000000
_cell_angle_beta 132.791225
_cell_angle_gamma 90.000000
_cell_volume 1209.654723
_symmetry_space_group_name_H-M "P 2/M"
_symmetry_group_IT_number 10
_symmetry_cell_setting 'monoclinic'
loop_
_space_group_symop_operation_xyz
x,y,z
-x,y,-z
-x,-y,-z
x,-y,z
loop_
_atom_site_type_symbol
_atom_site_label
_atom_site_fract_x
_atom_site_fract_y
_atom_site_fract_z
Si Si1 0.177861 0.172737 0.676456
Si Si2 0.999332 0.323761 0.839871
Si Si3 0.817098 0.824435 0.004041
Si Si4 0.430028 0.179141 0.309060
Si Si5 0.664885 0.172453 0.161484
Si Si6 0.314707 0.179401 0.410522
O O1 0.321607 0.234974 0.655316
O O2 0.338821 0.193603 0.770375
O O3 0.930053 0.248271 0.627969
O O4 0.125395 0.000000 0.651986
O O5 0.964058 0.500000 0.834845
O O6 0.141183 0.268637 0.928431
O O7 0.139584 0.279599 0.816129
O O8 0.755055 0.245616 0.778748
O O9 0.830484 0.000000 0.022235
O O10 0.574318 0.778430 0.921339
O O11 0.000000 0.777089 0.000000
O O12 0.386998 0.239146 0.364000
O O13 0.413807 0.000000 0.301701
O O14 0.723061 0.000000 0.158952
O O15 0.500000 0.237520 0.500000
O O16 0.305498 0.000000 0.406038
#
# Coordination Sequence:
#
# PCOD8062245 Si02
#       6
#     4   4   4   4   4   4
#     4   9  17  31  55  85 112 144 185 226 276 333
#     4  12  24  36  53  79 113 149 189 233 281 330
#     4  10  21  37  58  82 108 144 191 234 277 332
#     4  10  19  35  59  81 111 151 189 230 275 333
#     4  10  19  35  57  79 107 145 190 232 272 329
#     4   9  17  30  53  88 121 142 172 229 289 335
#
# _framework density 19.840374000000001
#
# number of rings (size 3 to 8) (size 9 to 14) (size 15 to 20)
#    0.000    2.000    1.667    3.000    0.000    6.333 
#    0.000    5.833    0.000    0.500    0.000    1.167 
#    0.000    0.000    0.000    0.000    0.000    0.000 
#
# Total GULP energy -297561.539306 kJ/mol
# GULP energy per Si atom -12398.397471 kJ/mol
# Density = 1.979522 g / cm^3
# Si number density = 19.840374 Si / 1000 Ang^3
#
#
#
# Elastic Constant Matrix: (Units=GPa)
#
#
# Indices 1 2 3 4 5 6 
#
# 1 177.7052 23.0730 64.4077 0.0000 7.5311 0.0000
# 2 23.0730 33.7615 16.5575 0.0000 1.2664 0.0000
# 3 64.4077 16.5575 122.2340 0.0000 15.1268 0.0000
# 4 0.0000 0.0000 0.0000 1.0783 0.0000 1.8723
# 5 7.5311 1.2664 15.1268 0.0000 26.3712 0.0000
# 6 0.0000 0.0000 0.0000 1.8723 0.0000 5.3581
#
#
#
# Elastic Compliance Matrix: (Units=1/GPa)
#
#
# Indices 1 2 3 4 5 6 
#
# 1 0.007287 -0.003317 -0.003393 0.000000 0.000025 0.000000
# 2 -0.003317 0.033262 -0.002882 0.000000 0.001003 0.000000
# 3 -0.003393 -0.002882 0.011004 0.000000 -0.005204 0.000000
# 4 0.000000 0.000000 0.000000 2.358451 0.000000 -0.824126
# 5 0.000025 0.001003 -0.005204 0.000000 0.040850 0.000000
# 6 0.000000 0.000000 0.000000 -0.824126 0.000000 0.474610
#
#
# Mechanical properties :
#
#
# Convention : Reuss Voigt Hill
#
# Bulk Modulus (GPa) = 30.89462 60.19746 45.54604
# Shear Modulus (GPa) = 1.69180 21.87236 11.78208
#
# Velocity S-wave (km/s) = 0.92442 3.32387 2.43953
# Velocity P-wave (km/s) = 4.09204 6.71845 5.56248
#
# Compressibility (1/GPa) = 0.03236810
#
# Stress axis : x y z
#
# Youngs Moduli (GPa) = 137.23514 30.06434 90.88013
#
# Poissons Ratio (x) = 0.09971 0.30839
# Poissons Ratio (y) = 0.45515 0.26193
# Poissons Ratio (z) = 0.46569 0.08665
#
# Static dielectric constant tensor:
#      x y z
#    x 3.977720 0.000000 0.065220 
#    y 0.000000 3.059410 0.000000 
#    z 0.065220 0.000000 3.680140 
# 
# 
# High freq. dielectric constant tensor:
#      x y z
#    x 1.792980 0.000000 0.001820 
#    y 0.000000 1.712160 0.000000 
#    z 0.001820 0.000000 1.775690 
# 
# From -- ./inp_files/33510.got.cif
#   From: 2010.06.25/outbox.cif.g09.slc.cpg/sg10_17_cif.got.tgz:33510.got - 2010.06.27 22:07:45.
