data_PCOD8062320
_publ_section_title
;
Structure prediction by ZEFSAII (Michael W. Deem and Ramdas Pophale) SiO2 
 PCOD8062320
Probable space group: P 2/M
;
_chemical_formula_sum "Si O2"
_cell_formula_units_Z 28
_cell_length_a 12.747045
_cell_length_b 8.646397
_cell_length_c 14.692292
_cell_angle_alpha 90.000000
_cell_angle_beta 59.546402
_cell_angle_gamma 90.000000
_cell_volume 1395.923500
_symmetry_space_group_name_H-M "P 2/M"
_symmetry_group_IT_number 10
_symmetry_cell_setting 'monoclinic'
loop_
_space_group_symop_operation_xyz
x,y,z
-x,y,-z
-x,-y,-z
x,-y,z
loop_
_atom_site_type_symbol
_atom_site_label
_atom_site_fract_x
_atom_site_fract_y
_atom_site_fract_z
Si Si1 0.043165 0.684214 0.077414
Si Si2 0.412269 0.683869 0.618787
Si Si3 0.290335 0.318507 0.219884
Si Si4 0.976875 0.316113 0.609769
Si Si5 0.688112 0.681645 0.997268
Si Si6 0.491116 0.181128 0.776959
Si Si7 0.144638 0.684070 0.693599
O O1 0.043853 0.500000 0.081083
O O2 0.947386 0.751604 0.191144
O O3 0.177760 0.745049 0.039113
O O4 0.000000 0.748244 0.000000
O O5 0.500000 0.744650 0.500000
O O6 0.411617 0.500000 0.622177
O O7 0.453293 0.741050 0.699190
O O8 0.278829 0.750831 0.652907
O O9 0.299247 0.500000 0.236371
O O10 0.151686 0.259032 0.292371
O O11 0.372153 0.230596 0.257717
O O12 0.338396 0.282753 0.096985
O O13 0.974145 0.500000 0.607901
O O14 0.000000 0.245411 0.500000
O O15 0.090794 0.259997 0.620643
O O16 0.676151 0.500000 0.022938
O O17 0.594809 0.769935 0.102233
O O18 0.484112 0.000000 0.766094
O O19 0.148904 0.500000 0.696791
#
# Coordination Sequence:
#
# PCOD8062320 Si02
#       7
#     4   4   4   4   4   4   4
#     4   9  15  25  48  80 113 144 175 225 288 342
#     4  10  22  39  63  91 116 148 193 241 285 335
#     4  10  20  36  60  89 118 149 193 243 291 339
#     4   9  17  29  53  89 122 146 175 232 296 343
#     4  10  19  35  58  86 114 145 192 245 293 339
#     4  12  26  40  56  80 117 161 198 233 287 348
#     4   9  16  30  52  86 119 141 177 230 291 342
#
# _framework density 20.058406000000002
#
# number of rings (size 3 to 8) (size 9 to 14) (size 15 to 20)
#    0.000    2.143    1.429    2.571    2.000    4.857 
#    0.000    0.000    0.000    5.143    0.000    0.000 
#    0.000    0.000    0.000    0.000    0.000    0.000 
#
# Total GULP energy -347160.783140 kJ/mol
# GULP energy per Si atom -12398.599398 kJ/mol
# Density = 2.001275 g / cm^3
# Si number density = 20.058406 Si / 1000 Ang^3
#
#
#
# Elastic Constant Matrix: (Units=GPa)
#
#
# Indices 1 2 3 4 5 6 
#
# 1 163.4569 12.0340 50.6961 0.0000 7.4675 0.0000
# 2 12.0340 18.5318 10.8053 0.0000 -1.4020 0.0000
# 3 50.6961 10.8053 115.4061 0.0000 10.3471 0.0000
# 4 0.0000 0.0000 0.0000 1.1681 0.0000 3.8395
# 5 7.4675 -1.4020 10.3471 0.0000 39.5500 0.0000
# 6 0.0000 0.0000 0.0000 3.8395 0.0000 2.8643
#
#
#
# Elastic Compliance Matrix: (Units=1/GPa)
#
#
# Indices 1 2 3 4 5 6 
#
# 1 0.007259 -0.003120 -0.002830 0.000000 -0.000741 0.000000
# 2 -0.003120 0.058896 -0.004489 0.000000 0.003851 0.000000
# 3 -0.002830 -0.004489 0.010542 0.000000 -0.002383 0.000000
# 4 0.000000 0.000000 0.000000 -0.251339 0.000000 0.336913
# 5 -0.000741 0.003851 -0.002383 0.000000 0.026184 0.000000
# 6 0.000000 0.000000 0.000000 0.336913 0.000000 -0.102498
#
#
# Mechanical properties :
#
#
# Convention : Reuss Voigt Hill
#
# Bulk Modulus (GPa) = 17.91501 49.38506 33.65003
# Shear Modulus (GPa) = -23.64402 23.64043 -0.00180
#
# Velocity S-wave (km/s) = -3.43703 3.43677 -0.02995
# Velocity P-wave (km/s) = 2.60770 6.35788 4.10015
#
# Compressibility (1/GPa) = 0.05581912
#
# Stress axis : x y z
#
# Youngs Moduli (GPa) = 137.75695 16.97907 94.85570
#
# Poissons Ratio (x) = 0.05297 0.26847
# Poissons Ratio (y) = 0.42975 0.42583
# Poissons Ratio (z) = 0.38990 0.07622
#
# Static dielectric constant tensor:
#      x y z
#    x 3.954850 0.000000 -0.021320 
#    y 0.000000 3.024280 0.000000 
#    z -0.021320 0.000000 3.843880 
# 
# 
# High freq. dielectric constant tensor:
#      x y z
#    x 1.804930 0.000000 0.001550 
#    y 0.000000 1.716170 0.000000 
#    z 0.001550 0.000000 1.794780 
# 
# From -- ./inp_files/49489.got.cif
#   From: 2010.06.25/outbox.cif.g09.slc.cpg/sg10_25_cif.got.tgz:49489.got - 2010.06.27 22:07:45.
