data_PCOD8062624
_publ_section_title
;
Structure prediction by ZEFSAII (Michael W. Deem and Ramdas Pophale) SiO2 
 PCOD8062624
Probable space group: P 2/M
;
_chemical_formula_sum "Si O2"
_cell_formula_units_Z 24
_cell_length_a 14.414198
_cell_length_b 7.897645
_cell_length_c 14.458194
_cell_angle_alpha 90.000000
_cell_angle_beta 41.556723
_cell_angle_gamma 90.000000
_cell_volume 1091.822903
_symmetry_space_group_name_H-M "P 2/M"
_symmetry_group_IT_number 10
_symmetry_cell_setting 'monoclinic'
loop_
_space_group_symop_operation_xyz
x,y,z
-x,y,-z
-x,-y,-z
x,-y,z
loop_
_atom_site_type_symbol
_atom_site_label
_atom_site_fract_x
_atom_site_fract_y
_atom_site_fract_z
Si Si1 0.837110 0.694101 0.105009
Si Si2 0.854400 0.000000 0.555262
Si Si3 0.147365 0.697332 0.584678
Si Si4 0.345200 0.806897 0.594449
Si Si5 0.567961 0.681170 0.048706
Si Si6 0.136834 0.694207 0.115613
Si Si7 0.567479 0.000000 0.846994
O O1 0.787937 0.500000 0.151300
O O2 0.748205 0.801383 0.243758
O O3 0.812986 0.770753 0.020159
O O4 0.000000 0.714249 0.000000
O O5 0.829039 0.826588 0.517275
O O6 0.000000 0.000000 0.500000
O O7 0.734469 0.000000 0.723462
O O8 0.132764 0.500000 0.561638
O O9 0.272659 0.703130 0.565481
O O10 0.004516 0.771986 0.737135
O O11 0.500000 0.732417 0.500000
O O12 0.357943 0.000000 0.551649
O O13 0.550097 0.500000 0.115040
O O14 0.490993 0.832034 0.161851
O O15 0.500000 0.664748 0.000000
O O16 0.733242 0.719701 0.911447
O O17 0.098367 0.500000 0.124912
O O18 0.500000 0.000000 0.000000
#
# Coordination Sequence:
#
# PCOD8062624 Si02
#       7
#     4   2   4   4   4   4   2
#     4  10  19  36  62  95 130 170 226 279 329 404
#     4  12  30  48  71 106 144 179 234 290 341 421
#     4  11  24  46  74 101 138 186 232 285 350 414
#     4  11  24  43  65  97 145 185 229 288 346 412
#     4   9  19  37  63  93 129 167 217 280 337 394
#     4   9  19  37  65 100 133 174 231 283 336 409
#     4  10  24  44  66  95 127 170 219 267 335 407
#
# _framework density 21.981587000000001
#
# number of rings (size 3 to 8) (size 9 to 14) (size 15 to 20)
#    0.000    1.833    2.500    0.500    4.667    4.000 
#    3.000    1.667    0.000    0.000    0.000    0.000 
#    0.000    0.000    0.000    0.000    0.000    0.000 
#
# Total GULP energy -297391.865307 kJ/mol
# GULP energy per Si atom -12391.327721 kJ/mol
# Density = 2.193156 g / cm^3
# Si number density = 21.981587 Si / 1000 Ang^3
#
#
#
# Elastic Constant Matrix: (Units=GPa)
#
#
# Indices 1 2 3 4 5 6 
#
# 1 136.9430 28.1723 50.5408 0.0000 -23.3671 0.0000
# 2 28.1723 123.5944 37.9897 0.0000 -12.6701 0.0000
# 3 50.5408 37.9897 119.8291 0.0000 -13.8023 0.0000
# 4 0.0000 0.0000 0.0000 76.6013 0.0000 -12.1776
# 5 -23.3671 -12.6701 -13.8023 0.0000 39.3825 0.0000
# 6 0.0000 0.0000 0.0000 -12.1776 0.0000 22.9011
#
#
#
# Elastic Compliance Matrix: (Units=1/GPa)
#
#
# Indices 1 2 3 4 5 6 
#
# 1 0.009359 -0.000708 -0.003240 0.000000 0.004190 0.000000
# 2 -0.000708 0.009167 -0.002414 0.000000 0.001683 0.000000
# 3 -0.003240 -0.002414 0.010594 0.000000 0.001014 0.000000
# 4 0.000000 0.000000 0.000000 0.014260 0.000000 0.007583
# 5 0.004190 0.001683 0.001014 0.000000 0.028775 0.000000
# 6 0.000000 0.000000 0.000000 0.007583 0.000000 0.047698
#
#
# Mechanical properties :
#
#
# Convention : Reuss Voigt Hill
#
# Bulk Modulus (GPa) = 60.99161 68.19688 64.59425
# Shear Modulus (GPa) = 36.22115 45.35457 40.78786
#
# Velocity S-wave (km/s) = 4.06371 4.54728 4.31228
# Velocity P-wave (km/s) = 7.05870 7.65913 7.36504
#
# Compressibility (1/GPa) = 0.01639570
#
# Stress axis : x y z
#
# Youngs Moduli (GPa) = 106.85284 109.08935 94.39400
#
# Poissons Ratio (x) = 0.07721 0.30586
# Poissons Ratio (y) = 0.07563 0.22785
# Poissons Ratio (z) = 0.34624 0.26332
#
# Static dielectric constant tensor:
#      x y z
#    x 3.944440 0.000000 -0.064850 
#    y 0.000000 7.958290 0.000000 
#    z -0.064850 0.000000 3.828390 
# 
# 
# High freq. dielectric constant tensor:
#      x y z
#    x 1.864320 0.000000 -0.021400 
#    y 0.000000 1.866550 0.000000 
#    z -0.021400 0.000000 1.846890 
# 
# From -- ./inp_files/66366.got.cif
#   From: 2010.06.25/outbox.cif.g09.slc.cpg/sg10_34_cif.got.tgz:66366.got - 2010.06.27 22:07:45.
