data_PCOD8062292
_publ_section_title
;
Structure prediction by ZEFSAII (Michael W. Deem and Ramdas Pophale) SiO2 
 PCOD8062292
Probable space group: P 2/M
;
_chemical_formula_sum "Si O2"
_cell_formula_units_Z 24
_cell_length_a 9.452411
_cell_length_b 8.996049
_cell_length_c 29.710052
_cell_angle_alpha 90.000000
_cell_angle_beta 150.598699
_cell_angle_gamma 90.000000
_cell_volume 1240.256965
_symmetry_space_group_name_H-M "P 2/M"
_symmetry_group_IT_number 10
_symmetry_cell_setting 'monoclinic'
loop_
_space_group_symop_operation_xyz
x,y,z
-x,y,-z
-x,-y,-z
x,-y,z
loop_
_atom_site_type_symbol
_atom_site_label
_atom_site_fract_x
_atom_site_fract_y
_atom_site_fract_z
Si Si1 0.734762 0.168702 0.951390
Si Si2 0.900806 0.175983 0.245344
Si Si3 0.224327 0.326118 0.255086
Si Si4 0.171326 0.175240 0.414959
Si Si5 0.185075 0.832160 0.923344
Si Si6 0.873127 0.325330 0.417483
O O1 0.419614 0.241127 0.855083
O O2 0.707612 0.000000 0.926001
O O3 0.847575 0.173226 0.032934
O O4 0.000000 0.251965 0.000000
O O5 0.131611 0.244699 0.275100
O O6 0.987417 0.221725 0.319961
O O7 0.910858 0.000000 0.241142
O O8 0.203155 0.500000 0.258637
O O9 0.541015 0.278307 0.327302
O O10 0.030592 0.281078 0.159336
O O11 0.500000 0.231156 0.500000
O O12 0.031707 0.247371 0.420093
O O13 0.165036 0.000000 0.420361
O O14 0.139176 0.000000 0.891635
O O15 0.500000 0.773277 0.000000
O O16 0.917335 0.500000 0.423270
O O17 0.000000 0.270384 0.500000
#
# Coordination Sequence:
#
# PCOD8062292 Si02
#       6
#     4   4   4   4   4   4
#     4   9  18  32  53  80 108 144 189 229 268 334
#     4  10  20  37  58  82 114 150 189 231 284 347
#     4  11  23  37  57  85 116 149 193 243 285 329
#     4  10  22  38  60  91 119 143 182 241 295 336
#     4  10  19  35  58  82 110 150 195 231 278 342
#     4  10  23  42  61  83 114 155 197 231 276 348
#
# _framework density 19.350829999999998
#
# number of rings (size 3 to 8) (size 9 to 14) (size 15 to 20)
#    0.000    2.000    1.667    1.500    2.333    3.000 
#    0.000    0.000    0.000    1.000    0.000    0.000 
#    0.000    0.000    0.000    0.000    0.000    0.000 
#
# Total GULP energy -297541.567986 kJ/mol
# GULP energy per Si atom -12397.565333 kJ/mol
# Density = 1.930679 g / cm^3
# Si number density = 19.350830 Si / 1000 Ang^3
#
#
#
# Elastic Constant Matrix: (Units=GPa)
#
#
# Indices 1 2 3 4 5 6 
#
# 1 166.7206 45.1979 87.0295 0.0000 11.9126 0.0000
# 2 45.1979 36.4743 39.6291 0.0000 6.1422 0.0000
# 3 87.0295 39.6291 129.5955 0.0000 2.2191 0.0000
# 4 0.0000 0.0000 0.0000 26.4071 0.0000 1.0198
# 5 11.9126 6.1422 2.2191 0.0000 37.2221 0.0000
# 6 0.0000 0.0000 0.0000 1.0198 0.0000 26.4303
#
#
#
# Elastic Compliance Matrix: (Units=1/GPa)
#
#
# Indices 1 2 3 4 5 6 
#
# 1 0.010752 -0.007785 -0.004808 0.000000 -0.001870 0.000000
# 2 -0.007785 0.048093 -0.009395 0.000000 -0.004885 0.000000
# 3 -0.004808 -0.009395 0.013779 0.000000 0.002268 0.000000
# 4 0.000000 0.000000 0.000000 0.037925 0.000000 -0.001463
# 5 -0.001870 -0.004885 0.002268 0.000000 0.028135 0.000000
# 6 0.000000 0.000000 0.000000 -0.001463 0.000000 0.037892
#
#
# Mechanical properties :
#
#
# Convention : Reuss Voigt Hill
#
# Bulk Modulus (GPa) = 34.90517 75.16703 55.03610
# Shear Modulus (GPa) = 21.72956 28.74083 25.23520
#
# Velocity S-wave (km/s) = 3.35465 3.85808 3.61513
# Velocity P-wave (km/s) = 5.75170 7.66649 6.77706
#
# Compressibility (1/GPa) = 0.02864905
#
# Stress axis : x y z
#
# Youngs Moduli (GPa) = 93.00723 20.79285 72.57393
#
# Poissons Ratio (x) = 0.16187 0.34892
# Poissons Ratio (y) = 0.72405 0.68183
# Poissons Ratio (z) = 0.44716 0.19535
#
# Static dielectric constant tensor:
#      x y z
#    x 3.591370 0.000000 0.085740 
#    y 0.000000 3.250910 0.000000 
#    z 0.085740 0.000000 3.819700 
# 
# 
# High freq. dielectric constant tensor:
#      x y z
#    x 1.769260 0.000000 0.002090 
#    y 0.000000 1.718780 0.000000 
#    z 0.002090 0.000000 1.770100 
# 
# From -- ./inp_files/68801.got.cif
#   From: 2010.06.25/outbox.cif.g09.slc.cpg/sg10_35_cif.got.tgz:68801.got - 2010.06.27 22:07:45.
