data_PCOD8062381
_publ_section_title
;
Structure prediction by ZEFSAII (Michael W. Deem and Ramdas Pophale) SiO2 
 PCOD8062381
Probable space group: P 2/M
;
_chemical_formula_sum "Si O2"
_cell_formula_units_Z 28
_cell_length_a 21.807962
_cell_length_b 9.073740
_cell_length_c 24.162407
_cell_angle_alpha 90.000000
_cell_angle_beta 162.138405
_cell_angle_gamma 90.000000
_cell_volume 1466.499315
_symmetry_space_group_name_H-M "P 2/M"
_symmetry_group_IT_number 10
_symmetry_cell_setting 'monoclinic'
loop_
_space_group_symop_operation_xyz
x,y,z
-x,y,-z
-x,-y,-z
x,-y,z
loop_
_atom_site_type_symbol
_atom_site_label
_atom_site_fract_x
_atom_site_fract_y
_atom_site_fract_z
Si Si1 0.442070 0.831993 0.510504
Si Si2 0.828000 0.673873 0.639960
Si Si3 0.181692 0.171990 0.987262
Si Si4 0.141720 0.168044 0.075511
Si Si5 0.357350 0.828309 0.623194
Si Si6 0.137650 0.825157 0.543769
Si Si7 0.296709 0.175143 0.796757
O O1 0.500000 0.771401 0.500000
O O2 0.269179 0.730078 0.386274
O O3 0.628873 0.821674 0.711256
O O4 0.362968 0.000000 0.438014
O O5 0.828302 0.500000 0.638336
O O6 0.708280 0.734622 0.485341
O O7 0.053188 0.736821 0.832341
O O8 0.128632 0.000000 0.937794
O O9 0.128739 0.236597 0.003047
O O10 0.409763 0.198690 0.166819
O O11 0.068902 0.000000 0.008784
O O12 0.000000 0.247686 0.000000
O O13 0.240137 0.767093 0.575969
O O14 0.311873 0.000000 0.572532
O O15 0.266801 0.768401 0.707695
O O16 0.905253 0.772617 0.344707
O O17 0.142332 0.000000 0.549795
O O18 0.312466 0.000000 0.811527
O O19 0.500000 0.241012 0.000000
#
# Coordination Sequence:
#
# PCOD8062381 Si02
#       7
#     4   4   4   4   4   4   4
#     4  10  19  35  60  84 107 137 180 231 279 334
#     4  12  25  38  54  78 114 150 182 226 284 343
#     4  10  20  36  57  78 104 138 185 236 276 325
#     4   9  16  29  52  81 104 127 167 221 274 319
#     4  10  20  37  59  81 108 145 193 238 274 320
#     4   8  15  26  44  74 108 142 178 218 265 322
#     4   8  13  23  41  71 113 147 169 205 268 332
#
# _framework density 19.093088999999999
#
# number of rings (size 3 to 8) (size 9 to 14) (size 15 to 20)
#    0.000    2.429    1.429    3.000    0.000    4.286 
#    0.000    4.286    0.000    1.714    0.000    2.000 
#    0.000    5.714    0.000    0.000    0.000    0.000 
#
# Total GULP energy -347058.709594 kJ/mol
# GULP energy per Si atom -12394.953914 kJ/mol
# Density = 1.904963 g / cm^3
# Si number density = 19.093089 Si / 1000 Ang^3
#
#
#
# Elastic Constant Matrix: (Units=GPa)
#
#
# Indices 1 2 3 4 5 6 
#
# 1 110.9898 35.7751 45.7706 0.0000 16.2455 0.0000
# 2 35.7751 61.8923 41.5495 0.0000 1.2019 0.0000
# 3 45.7706 41.5495 126.3176 0.0000 1.1764 0.0000
# 4 0.0000 0.0000 0.0000 5.3446 0.0000 -3.4851
# 5 16.2455 1.2019 1.1764 0.0000 27.3392 0.0000
# 6 0.0000 0.0000 0.0000 -3.4851 0.0000 2.9462
#
#
#
# Elastic Compliance Matrix: (Units=1/GPa)
#
#
# Indices 1 2 3 4 5 6 
#
# 1 0.013031 -0.005474 -0.002852 0.000000 -0.007380 0.000000
# 2 -0.005474 0.023046 -0.005620 0.000000 0.002481 0.000000
# 3 -0.002852 -0.005620 0.010785 0.000000 0.001478 0.000000
# 4 0.000000 0.000000 0.000000 0.818357 0.000000 0.968062
# 5 -0.007380 0.002481 0.001478 0.000000 0.040790 0.000000
# 6 0.000000 0.000000 0.000000 0.968062 0.000000 1.484575
#
#
# Mechanical properties :
#
#
# Convention : Reuss Voigt Hill
#
# Bulk Modulus (GPa) = 52.71827 60.59889 56.65858
# Shear Modulus (GPa) = 2.06203 18.86630 10.46417
#
# Velocity S-wave (km/s) = 1.04035 3.14685 2.34361
# Velocity P-wave (km/s) = 5.39576 6.70903 6.08791
#
# Compressibility (1/GPa) = 0.01896875
#
# Stress axis : x y z
#
# Youngs Moduli (GPa) = 76.74226 43.39188 92.72182
#
# Poissons Ratio (x) = 0.23752 0.26448
# Poissons Ratio (y) = 0.42007 0.52111
# Poissons Ratio (z) = 0.21890 0.24387
#
# Static dielectric constant tensor:
#      x y z
#    x 3.784890 0.000000 0.066790 
#    y 0.000000 2.889020 0.000000 
#    z 0.066790 0.000000 3.712120 
# 
# 
# High freq. dielectric constant tensor:
#      x y z
#    x 1.745300 0.000000 0.000000 
#    y 0.000000 1.670140 0.000000 
#    z 0.000000 0.000000 1.759380 
# 
# From -- ./inp_files/90401.got.cif
#   From: 2010.06.25/outbox.cif.g09.slc.cpg/sg10_46_cif.got.tgz:90401.got - 2010.06.27 22:07:45.
