data_PCOD8062353
_publ_section_title
;
Structure prediction by ZEFSAII (Michael W. Deem and Ramdas Pophale) SiO2 
 PCOD8062353
Probable space group: P 2/M
;
_chemical_formula_sum "Si O2"
_cell_formula_units_Z 28
_cell_length_a 8.768936
_cell_length_b 21.755269
_cell_length_c 15.034010
_cell_angle_alpha 90.000000
_cell_angle_beta 30.230721
_cell_angle_gamma 90.000000
_cell_volume 1444.013484
_symmetry_space_group_name_H-M "P 2/M"
_symmetry_group_IT_number 10
_symmetry_cell_setting 'monoclinic'
loop_
_space_group_symop_operation_xyz
x,y,z
-x,y,-z
-x,-y,-z
x,-y,z
loop_
_atom_site_type_symbol
_atom_site_label
_atom_site_fract_x
_atom_site_fract_y
_atom_site_fract_z
Si Si1 0.776231 0.873773 0.196663
Si Si2 0.294967 0.430408 0.184071
Si Si3 0.650026 0.000000 0.324981
Si Si4 0.816652 0.650888 0.501536
Si Si5 0.859112 0.132929 0.805337
Si Si6 0.154020 0.000000 0.187326
Si Si7 0.340259 0.569587 0.818702
Si Si8 0.194423 0.208916 0.490822
O O1 0.586248 0.938136 0.301162
O O2 0.521623 0.821934 0.312932
O O3 0.972614 0.860354 0.185372
O O4 0.000000 0.874671 0.000000
O O5 0.173372 0.500000 0.231871
O O6 0.495934 0.426561 0.170110
O O7 0.014265 0.383443 0.327104
O O8 0.500000 0.408483 0.000000
O O9 0.500000 0.000000 0.500000
O O10 0.011664 0.000000 0.159987
O O11 0.501292 0.614498 0.667668
O O12 0.746634 0.720797 0.511482
O O13 0.000000 0.647139 0.500000
O O14 0.933717 0.065218 0.722764
O O15 0.995353 0.182235 0.670824
O O16 0.500000 0.143009 0.000000
O O17 0.500000 0.000000 0.000000
O O18 0.348012 0.500000 0.777478
O O19 0.000000 0.593477 0.000000
O O20 0.000000 0.202146 0.500000
#
# Coordination Sequence:
#
# PCOD8062353 Si02
#       8
#     4   4   2   4   4   2   4   4
#     4  11  22  38  59  84 112 145 184 227 278 331
#     4   9  17  32  55  81 106 134 172 219 269 319
#     4  10  19  35  59  84 110 140 176 227 281 330
#     4   9  19  35  54  75 104 143 183 218 258 317
#     4  10  20  38  60  82 109 142 181 230 281 329
#     4   8  16  31  55  80 102 130 168 217 271 320
#     4   9  17  32  55  80 104 133 171 217 268 317
#     4  11  23  38  54  78 112 151 191 227 269 323
#
# _framework density 19.390402000000002
#
# number of rings (size 3 to 8) (size 9 to 14) (size 15 to 20)
#    0.000    2.286    0.000    3.643    0.000    2.857 
#    0.000    9.286    0.000    3.429    0.000    0.000 
#    0.000    0.000    0.000    0.000    0.000    0.000 
#
# Total GULP energy -346976.994291 kJ/mol
# GULP energy per Si atom -12392.035510 kJ/mol
# Density = 1.934627 g / cm^3
# Si number density = 19.390402 Si / 1000 Ang^3
#
#
#
# Elastic Constant Matrix: (Units=GPa)
#
#
# Indices 1 2 3 4 5 6 
#
# 1 57.9024 39.4976 41.9205 0.0000 -1.7130 0.0000
# 2 39.4976 169.4803 106.7548 0.0000 1.2182 0.0000
# 3 41.9205 106.7548 169.0977 0.0000 4.6364 0.0000
# 4 0.0000 0.0000 0.0000 17.9329 0.0000 -1.1929
# 5 -1.7130 1.2182 4.6364 0.0000 36.2004 0.0000
# 6 0.0000 0.0000 0.0000 -1.1929 0.0000 22.8993
#
#
#
# Elastic Compliance Matrix: (Units=1/GPa)
#
#
# Indices 1 2 3 4 5 6 
#
# 1 0.021905 -0.002770 -0.003726 0.000000 0.001607 0.000000
# 2 -0.002770 0.010154 -0.005731 0.000000 0.000261 0.000000
# 3 -0.003726 -0.005731 0.010492 0.000000 -0.001327 0.000000
# 4 0.000000 0.000000 0.000000 0.055957 0.000000 0.002915
# 5 0.001607 0.000261 -0.001327 0.000000 0.027861 0.000000
# 6 0.000000 0.000000 0.000000 0.002915 0.000000 0.043821
#
#
# Mechanical properties :
#
#
# Convention : Reuss Voigt Hill
#
# Bulk Modulus (GPa) = 55.25571 85.86958 70.56264
# Shear Modulus (GPa) = 24.91584 29.29369 27.10476
#
# Velocity S-wave (km/s) = 3.58852 3.89103 3.74283
# Velocity P-wave (km/s) = 6.76227 8.03539 7.42616
#
# Compressibility (1/GPa) = 0.01809768
#
# Stress axis : x y z
#
# Youngs Moduli (GPa) = 45.65228 98.48519 95.31216
#
# Poissons Ratio (x) = 0.27276 0.35513
# Poissons Ratio (y) = 0.12644 0.54622
# Poissons Ratio (z) = 0.17010 0.56441
#
# Static dielectric constant tensor:
#      x y z
#    x 3.399130 0.000000 -0.177360 
#    y 0.000000 -1.060410 0.000000 
#    z -0.177360 0.000000 3.635180 
# 
# 
# High freq. dielectric constant tensor:
#      x y z
#    x 1.733330 0.000000 -0.012660 
#    y 0.000000 1.761910 0.000000 
#    z -0.012660 0.000000 1.763400 
# 
# From -- ./inp_files/62583.got.cif
#   From: 2010.06.25/outbox.cif.g09.slc.cpg/sg10_32_cif.got.tgz:62583.got - 2010.06.27 22:07:45.
