data_PCOD8062005
_publ_section_title
;
Structure prediction by ZEFSAII (Michael W. Deem and Ramdas Pophale) SiO2 
 PCOD8062005
Probable space group: P 2/M
;
_chemical_formula_sum "Si O2"
_cell_formula_units_Z 24
_cell_length_a 12.217651
_cell_length_b 9.674532
_cell_length_c 10.618056
_cell_angle_alpha 90.000000
_cell_angle_beta 100.935538
_cell_angle_gamma 90.000000
_cell_volume 1232.264566
_symmetry_space_group_name_H-M "P 2/M"
_symmetry_group_IT_number 10
_symmetry_cell_setting 'monoclinic'
loop_
_space_group_symop_operation_xyz
x,y,z
-x,y,-z
-x,-y,-z
x,-y,z
loop_
_atom_site_type_symbol
_atom_site_label
_atom_site_fract_x
_atom_site_fract_y
_atom_site_fract_z
Si Si1 0.785456 0.153047 0.722814
Si Si2 0.562209 0.339817 0.140121
Si Si3 0.808474 0.658655 0.241886
Si Si4 0.875305 0.154275 0.465270
Si Si5 0.973635 0.651867 0.850568
Si Si6 0.530497 0.836727 0.650536
O O1 0.817255 0.151823 0.585312
O O2 0.865204 0.254600 0.815361
O O3 0.658488 0.201064 0.705799
O O4 0.800284 0.000000 0.783793
O O5 0.530791 0.500000 0.160780
O O6 0.694086 0.324423 0.138877
O O7 0.536379 0.249473 0.258748
O O8 0.500000 0.286590 0.000000
O O9 0.826613 0.500000 0.283586
O O10 0.797562 0.748671 0.364917
O O11 0.915917 0.716064 0.189828
O O12 0.000000 0.216743 0.500000
O O13 0.880793 0.000000 0.408090
O O14 0.947205 0.500000 0.787703
O O15 0.000000 0.635471 0.000000
O O16 0.500000 0.792646 0.500000
O O17 0.505734 0.000000 0.662568
#
# Coordination Sequence:
#
# PCOD8062005 Si02
#       6
#     4   4   4   4   4   4
#     4  10  21  37  58  86 116 146 186 234 283 339
#     4  10  23  41  62  87 118 156 199 247 294 346
#     4  10  21  37  57  84 115 147 188 235 283 338
#     4  10  19  34  57  84 113 147 184 224 281 343
#     4  10  22  37  56  82 113 151 189 228 282 342
#     4  10  22  41  63  87 119 157 198 245 294 347
#
# _framework density 19.476338999999999
#
# number of rings (size 3 to 8) (size 9 to 14) (size 15 to 20)
#    0.000    2.000    1.667    1.000    2.333    4.667 
#    0.000    0.000    0.000    0.000    0.000    0.000 
#    0.000    0.000    0.000    0.000    0.000    0.000 
#
# Total GULP energy -297534.640314 kJ/mol
# GULP energy per Si atom -12397.276680 kJ/mol
# Density = 1.943201 g / cm^3
# Si number density = 19.476339 Si / 1000 Ang^3
#
#
#
# Elastic Constant Matrix: (Units=GPa)
#
#
# Indices 1 2 3 4 5 6 
#
# 1 97.8423 38.8456 25.3480 0.0000 16.0693 0.0000
# 2 38.8456 69.9370 45.2957 0.0000 13.8142 0.0000
# 3 25.3480 45.2957 93.0156 0.0000 13.5411 0.0000
# 4 0.0000 0.0000 0.0000 37.7589 0.0000 2.8334
# 5 16.0693 13.8142 13.5411 0.0000 34.1024 0.0000
# 6 0.0000 0.0000 0.0000 2.8334 0.0000 30.2508
#
#
#
# Elastic Compliance Matrix: (Units=1/GPa)
#
#
# Indices 1 2 3 4 5 6 
#
# 1 0.013513 -0.006929 0.000223 0.000000 -0.003649 0.000000
# 2 -0.006929 0.025172 -0.009935 0.000000 -0.002987 0.000000
# 3 0.000223 -0.009935 0.015875 0.000000 -0.002384 0.000000
# 4 0.000000 0.000000 0.000000 0.026671 0.000000 -0.002498
# 5 -0.003649 -0.002987 -0.002384 0.000000 0.033199 0.000000
# 6 0.000000 0.000000 0.000000 -0.002498 0.000000 0.033291
#
#
# Mechanical properties :
#
#
# Convention : Reuss Voigt Hill
#
# Bulk Modulus (GPa) = 46.99697 53.30817 50.15257
# Shear Modulus (GPa) = 26.58212 30.50946 28.54579
#
# Velocity S-wave (km/s) = 3.69838 3.96218 3.83255
# Velocity P-wave (km/s) = 6.51307 6.95428 6.73729
#
# Compressibility (1/GPa) = 0.02127797
#
# Stress axis : x y z
#
# Youngs Moduli (GPa) = 74.00175 39.72713 62.99183
#
# Poissons Ratio (x) = 0.27529 -0.01406
# Poissons Ratio (y) = 0.51279 0.62580
# Poissons Ratio (z) = -0.01651 0.39468
#
# Static dielectric constant tensor:
#      x y z
#    x 6.933240 0.000000 0.450960 
#    y 0.000000 3.757770 0.000000 
#    z 0.450960 0.000000 3.438290 
# 
# 
# High freq. dielectric constant tensor:
#      x y z
#    x 1.772350 0.000000 0.007330 
#    y 0.000000 1.753120 0.000000 
#    z 0.007330 0.000000 1.748380 
# 
# From -- ./inp_files/45295.got.cif
#   From: 2010.06.25/outbox.cif.g09.slc.cpg/sg10_23_cif.got.tgz:45295.got - 2010.06.27 22:07:45.
