data_PCOD8062356
_publ_section_title
;
Structure prediction by ZEFSAII (Michael W. Deem and Ramdas Pophale) SiO2 
 PCOD8062356
Probable space group: P 2/M
;
_chemical_formula_sum "Si O2"
_cell_formula_units_Z 32
_cell_length_a 25.762996
_cell_length_b 9.005513
_cell_length_c 20.056012
_cell_angle_alpha 90.000000
_cell_angle_beta 158.394909
_cell_angle_gamma 90.000000
_cell_volume 1713.332453
_symmetry_space_group_name_H-M "P 2/M"
_symmetry_group_IT_number 10
_symmetry_cell_setting 'monoclinic'
loop_
_space_group_symop_operation_xyz
x,y,z
-x,y,-z
-x,-y,-z
x,-y,z
loop_
_atom_site_type_symbol
_atom_site_label
_atom_site_fract_x
_atom_site_fract_y
_atom_site_fract_z
Si Si1 0.083501 0.175344 0.356236
Si Si2 0.156648 0.176398 0.196853
Si Si3 0.919280 0.175331 0.498852
Si Si4 0.210223 0.325844 0.013652
Si Si5 0.598721 0.674513 0.882521
Si Si6 0.786021 0.175879 0.206897
Si Si7 0.302464 0.824324 0.505744
Si Si8 0.662114 0.829953 0.710811
O O1 0.122569 0.232170 0.477511
O O2 0.210674 0.222440 0.460198
O O3 0.940460 0.248676 0.160271
O O4 0.059022 0.000000 0.325409
O O5 0.222145 0.234839 0.344185
O O6 0.250346 0.232329 0.247263
O O7 0.152225 0.000000 0.193758
O O8 0.000000 0.241923 0.000000
O O9 0.803372 0.224555 0.305386
O O10 0.074657 0.233536 0.665354
O O11 0.927882 0.000000 0.506958
O O12 0.188119 0.500000 0.993092
O O13 0.286544 0.281966 0.036136
O O14 0.308434 0.270928 0.190558
O O15 0.578913 0.500000 0.865860
O O16 0.451295 0.745107 0.686703
O O17 0.650894 0.741271 0.015213
O O18 0.763766 0.000000 0.172948
O O19 0.327211 0.000000 0.532460
O O20 0.500000 0.816123 0.500000
O O21 0.704007 0.000000 0.776838
#
# Coordination Sequence:
#
# PCOD8062356 Si02
#       8
#     4   4   4   4   4   4   4   4
#     4  10  19  35  59  85 108 136 179 227 270 316
#     4   9  17  32  53  78 104 130 169 220 269 318
#     4   8  15  29  54  86 111 134 173 227 274 312
#     4  11  23  36  53  79 110 143 179 220 270 324
#     4  11  23  37  52  77 113 150 184 219 264 321
#     4   9  16  31  56  82 109 141 177 222 272 317
#     4  10  21  36  58  83 108 142 180 222 274 323
#     4  10  20  34  54  77 101 134 177 225 271 314
#
# _framework density 18.677052
#
# number of rings (size 3 to 8) (size 9 to 14) (size 15 to 20)
#    0.000    2.250    1.250    3.000    0.000    5.250 
#    0.000    3.125    0.000    5.250    0.000    0.000 
#    0.000    0.000    0.000    0.000    0.000    0.000 
#
# Total GULP energy -396803.225942 kJ/mol
# GULP energy per Si atom -12400.100811 kJ/mol
# Density = 1.863454 g / cm^3
# Si number density = 18.677052 Si / 1000 Ang^3
#
#
#
# Elastic Constant Matrix: (Units=GPa)
#
#
# Indices 1 2 3 4 5 6 
#
# 1 83.9892 28.5771 39.4888 0.0000 -14.0050 0.0000
# 2 28.5771 36.6819 33.8792 0.0000 1.2326 0.0000
# 3 39.4888 33.8792 118.1937 0.0000 -13.7782 0.0000
# 4 0.0000 0.0000 0.0000 4.3236 0.0000 7.3751
# 5 -14.0050 1.2326 -13.7782 0.0000 37.4411 0.0000
# 6 0.0000 0.0000 0.0000 7.3751 0.0000 14.1641
#
#
#
# Elastic Compliance Matrix: (Units=1/GPa)
#
#
# Indices 1 2 3 4 5 6 
#
# 1 0.018145 -0.012883 -0.001597 0.000000 0.006624 0.000000
# 2 -0.012883 0.047284 -0.010440 0.000000 -0.010218 0.000000
# 3 -0.001597 -0.010440 0.012493 0.000000 0.004344 0.000000
# 4 0.000000 0.000000 0.000000 2.068019 0.000000 -1.076789
# 5 0.006624 -0.010218 0.004344 0.000000 0.031121 0.000000
# 6 0.000000 0.000000 0.000000 -1.076789 0.000000 0.631270
#
#
# Mechanical properties :
#
#
# Convention : Reuss Voigt Hill
#
# Bulk Modulus (GPa) = 35.61162 49.19499 42.40330
# Shear Modulus (GPa) = 1.74366 20.31375 11.02871
#
# Velocity S-wave (km/s) = 0.96727 3.30150 2.43265
# Velocity P-wave (km/s) = 4.51175 6.39767 5.53562
#
# Compressibility (1/GPa) = 0.02808072
#
# Stress axis : x y z
#
# Youngs Moduli (GPa) = 55.11052 21.14865 80.04254
#
# Poissons Ratio (x) = 0.27247 0.12785
# Poissons Ratio (y) = 0.71002 0.83567
# Poissons Ratio (z) = 0.08803 0.22080
#
# Static dielectric constant tensor:
#      x y z
#    x 3.803780 0.000000 -0.205240 
#    y 0.000000 3.091800 0.000000 
#    z -0.205240 0.000000 3.442180 
# 
# 
# High freq. dielectric constant tensor:
#      x y z
#    x 1.731840 0.000000 -0.013280 
#    y 0.000000 1.690480 0.000000 
#    z -0.013280 0.000000 1.730610 
# 
# From -- ./inp_files/87006.got.cif
#   From: 2010.06.25/outbox.cif.g09.slc.cpg/sg10_44_cif.got.tgz:87006.got - 2010.06.27 22:07:45.
