data_PCOD8062734
_publ_section_title
;
Structure prediction by ZEFSAII (Michael W. Deem and Ramdas Pophale) SiO2 
 PCOD8062734
Probable space group: P 2/M
;
_chemical_formula_sum "Si O2"
_cell_formula_units_Z 32
_cell_length_a 23.954741
_cell_length_b 8.932923
_cell_length_c 19.356712
_cell_angle_alpha 90.000000
_cell_angle_beta 156.318067
_cell_angle_gamma 90.000000
_cell_volume 1663.696814
_symmetry_space_group_name_H-M "P 2/M"
_symmetry_group_IT_number 10
_symmetry_cell_setting 'monoclinic'
loop_
_space_group_symop_operation_xyz
x,y,z
-x,y,-z
-x,-y,-z
x,-y,z
loop_
_atom_site_type_symbol
_atom_site_label
_atom_site_fract_x
_atom_site_fract_y
_atom_site_fract_z
Si Si1 0.174555 0.174760 0.580650
Si Si2 0.447922 0.822519 0.635817
Si Si3 0.594143 0.175686 0.258955
Si Si4 0.802305 0.672578 0.721974
Si Si5 0.243215 0.176887 0.047887
Si Si6 0.699890 0.172370 0.128625
Si Si7 0.888049 0.675795 0.231712
Si Si8 0.103891 0.673201 0.017738
O O1 0.269195 0.236023 0.624977
O O2 0.257293 0.202940 0.744806
O O3 0.037612 0.272558 0.427165
O O4 0.136869 0.000000 0.529631
O O5 0.420226 0.753817 0.680804
O O6 0.328157 0.770034 0.448779
O O7 0.598028 0.765394 0.779480
O O8 0.447396 0.000000 0.637459
O O9 0.609634 0.000000 0.284484
O O10 0.461602 0.213601 0.061632
O O11 0.767365 0.500000 0.669148
O O12 0.940880 0.717419 0.836433
O O13 0.825865 0.703445 0.829121
O O14 0.235695 0.000000 0.031579
O O15 0.147393 0.247361 0.880634
O O16 0.183069 0.223411 0.053448
O O17 0.780379 0.280157 0.168484
O O18 0.728556 0.000000 0.139558
O O19 0.886416 0.500000 0.218674
O O20 0.119473 0.500000 0.014274
#
# Coordination Sequence:
#
# PCOD8062734 Si02
#       8
#     4   4   4   4   4   4   4   4
#     4  10  21  36  61  89 112 148 195 240 290 344
#     4  10  21  37  58  85 118 151 192 242 286 334
#     4   9  18  36  59  86 116 147 189 241 289 338
#     4   9  20  39  62  87 121 156 189 228 278 340
#     4  11  23  40  61  85 115 152 194 242 287 336
#     4  10  19  38  63  85 113 149 193 241 288 342
#     4  12  25  39  56  82 118 156 193 237 288 346
#     4   9  20  40  62  88 120 155 190 230 278 335
#
# _framework density 19.234273999999999
#
# number of rings (size 3 to 8) (size 9 to 14) (size 15 to 20)
#    0.000    2.000    1.250    3.000    1.750    6.000 
#    0.000    4.375    0.000    1.500    0.000    0.000 
#    0.000    0.000    0.000    0.000    0.000    0.000 
#
# Total GULP energy -396855.633289 kJ/mol
# GULP energy per Si atom -12401.738540 kJ/mol
# Density = 1.919050 g / cm^3
# Si number density = 19.234274 Si / 1000 Ang^3
#
#
#
# Elastic Constant Matrix: (Units=GPa)
#
#
# Indices 1 2 3 4 5 6 
#
# 1 104.3924 34.2885 12.4962 0.0000 13.4751 0.0000
# 2 34.2885 60.8981 25.2370 0.0000 5.8801 0.0000
# 3 12.4962 25.2370 79.5493 0.0000 2.3690 0.0000
# 4 0.0000 0.0000 0.0000 2.6116 0.0000 1.4200
# 5 13.4751 5.8801 2.3690 0.0000 36.7209 0.0000
# 6 0.0000 0.0000 0.0000 1.4200 0.0000 25.4743
#
#
#
# Elastic Compliance Matrix: (Units=1/GPa)
#
#
# Indices 1 2 3 4 5 6 
#
# 1 0.012167 -0.006644 0.000298 0.000000 -0.003420 0.000000
# 2 -0.006644 0.022795 -0.006164 0.000000 -0.000814 0.000000
# 3 0.000298 -0.006164 0.014481 0.000000 -0.000057 0.000000
# 4 0.000000 0.000000 0.000000 0.394876 0.000000 -0.022011
# 5 -0.003420 -0.000814 -0.000057 0.000000 0.028622 0.000000
# 6 0.000000 0.000000 0.000000 -0.022011 0.000000 0.040482
#
#
# Mechanical properties :
#
#
# Convention : Reuss Voigt Hill
#
# Bulk Modulus (GPa) = 40.94290 43.20923 42.07607
# Shear Modulus (GPa) = 9.14773 24.48258 16.81515
#
# Velocity S-wave (km/s) = 2.18318 3.57159 2.95994
# Velocity P-wave (km/s) = 5.26191 6.28664 5.79696
#
# Compressibility (1/GPa) = 0.02442426
#
# Stress axis : x y z
#
# Youngs Moduli (GPa) = 82.18711 43.86964 69.05571
#
# Poissons Ratio (x) = 0.29148 -0.02061
# Poissons Ratio (y) = 0.54607 0.42564
# Poissons Ratio (z) = -0.02452 0.27040
#
# Static dielectric constant tensor:
#      x y z
#    x 3.745950 0.000000 0.039040 
#    y 0.000000 3.304710 0.000000 
#    z 0.039040 0.000000 3.581610 
# 
# 
# High freq. dielectric constant tensor:
#      x y z
#    x 1.759690 0.000000 0.001870 
#    y 0.000000 1.724320 0.000000 
#    z 0.001870 0.000000 1.759620 
# 
# From -- ./inp_files/86963.got.cif
#   From: 2010.06.25/outbox.cif.g09.slc.cpg/sg10_44_cif.got.tgz:86963.got - 2010.06.27 22:07:45.
