data_PCOD8062550
_publ_section_title
;
Structure prediction by ZEFSAII (Michael W. Deem and Ramdas Pophale) SiO2 
 PCOD8062550
Probable space group: P 2/M
;
_chemical_formula_sum "Si O2"
_cell_formula_units_Z 24
_cell_length_a 26.730354
_cell_length_b 8.426542
_cell_length_c 5.083101
_cell_angle_alpha 90.000000
_cell_angle_beta 90.091368
_cell_angle_gamma 90.000000
_cell_volume 1144.938837
_symmetry_space_group_name_H-M "P 2/M"
_symmetry_group_IT_number 10
_symmetry_cell_setting 'monoclinic'
loop_
_space_group_symop_operation_xyz
x,y,z
-x,y,-z
-x,-y,-z
x,-y,z
loop_
_atom_site_type_symbol
_atom_site_label
_atom_site_fract_x
_atom_site_fract_y
_atom_site_fract_z
Si Si1 0.443234 0.815244 0.467403
Si Si2 0.109129 0.185753 0.478388
Si Si3 0.221712 0.187774 0.473236
Si Si4 0.717249 0.188499 0.027643
Si Si5 0.392499 0.316612 0.967459
Si Si6 0.057341 0.684560 0.978890
O O1 0.500000 0.756295 0.500000
O O2 0.408138 0.722050 0.669908
O O3 0.438320 0.000000 0.531451
O O4 0.426068 0.783178 0.170068
O O5 0.165527 0.254159 0.497095
O O6 0.075371 0.280558 0.684241
O O7 0.107049 0.000000 0.544535
O O8 0.089460 0.213768 0.184241
O O9 0.256397 0.250355 0.708326
O O10 0.218817 0.000000 0.481709
O O11 0.246424 0.245306 0.204011
O O12 0.665045 0.275257 0.991934
O O13 0.708235 0.000000 0.027214
O O14 0.401380 0.500000 0.026923
O O15 0.063652 0.500000 0.045100
O O16 0.000000 0.737840 0.000000
#
# Coordination Sequence:
#
# PCOD8062550 Si02
#       6
#     4   4   4   4   4   4
#     4  11  24  43  66  90 118 159 208 247 288 356
#     4  11  22  39  64  92 118 149 200 255 298 346
#     4   9  19  35  58  86 114 149 194 245 294 344
#     4  10  19  36  60  83 114 158 200 234 284 355
#     4  12  25  40  61  93 128 157 194 249 306 349
#     4  11  24  41  59  84 122 163 198 237 296 364
#
# _framework density 20.961818000000001
#
# number of rings (size 3 to 8) (size 9 to 14) (size 15 to 20)
#    0.000    1.333    0.000    6.000    0.000   10.667 
#    0.000    5.000    0.000    0.000    0.000    0.000 
#    0.000    0.000    0.000    0.000    0.000    0.000 
#
# Total GULP energy -297775.225225 kJ/mol
# GULP energy per Si atom -12407.301051 kJ/mol
# Density = 2.091411 g / cm^3
# Si number density = 20.961818 Si / 1000 Ang^3
#
#
#
# Elastic Constant Matrix: (Units=GPa)
#
#
# Indices 1 2 3 4 5 6 
#
# 1 112.7382 36.4250 11.0248 0.0000 3.8926 0.0000
# 2 36.4250 46.7215 11.7355 0.0000 -3.4833 0.0000
# 3 11.0248 11.7355 92.3654 0.0000 4.0245 0.0000
# 4 0.0000 0.0000 0.0000 26.1601 0.0000 7.4165
# 5 3.8926 -3.4833 4.0245 0.0000 45.2513 0.0000
# 6 0.0000 0.0000 0.0000 7.4165 0.0000 -20.7593
#
#
#
# Elastic Compliance Matrix: (Units=1/GPa)
#
#
# Indices 1 2 3 4 5 6 
#
# 1 0.011997 -0.009444 -0.000156 0.000000 -0.001745 0.000000
# 2 -0.009444 0.029718 -0.002794 0.000000 0.003348 0.000000
# 3 -0.000156 -0.002794 0.011253 0.000000 -0.001202 0.000000
# 4 0.000000 0.000000 0.000000 0.034710 0.000000 0.012401
# 5 -0.001745 0.003348 -0.001202 0.000000 0.022614 0.000000
# 6 0.000000 0.000000 0.000000 0.012401 0.000000 -0.043741
#
#
# Mechanical properties :
#
#
# Convention : Reuss Voigt Hill
#
# Bulk Modulus (GPa) = 35.48822 41.13286 38.31054
# Shear Modulus (GPa) = 49.63665 22.97307 36.30486
#
# Velocity S-wave (km/s) = 4.87144 3.31410 4.16619
# Velocity P-wave (km/s) = 6.97194 5.85745 6.43885
#
# Compressibility (1/GPa) = 0.02817836
#
# Stress axis : x y z
#
# Youngs Moduli (GPa) = 83.35489 33.65003 88.86812
#
# Poissons Ratio (x) = 0.31779 0.01386
# Poissons Ratio (y) = 0.78720 0.24834
# Poissons Ratio (z) = 0.01300 0.09403
#
# Static dielectric constant tensor:
#      x y z
#    x 3.974670 0.000000 -0.013480 
#    y 0.000000 3.538140 0.000000 
#    z -0.013480 0.000000 3.900400 
# 
# 
# High freq. dielectric constant tensor:
#      x y z
#    x 1.838340 0.000000 -0.000510 
#    y 0.000000 1.802410 0.000000 
#    z -0.000510 0.000000 1.835910 
# 
# From -- ./inp_files/13001.got.cif
#   From: 2010.06.25/outbox.cif.g09.slc.cpg/sg10_7_cif.got.tgz:13001.got - 2010.06.27 22:07:45.
