data_PCOD8062655
_publ_section_title
;
Structure prediction by ZEFSAII (Michael W. Deem and Ramdas Pophale) SiO2 
 PCOD8062655
Probable space group: P 2/M
;
_chemical_formula_sum "Si O2"
_cell_formula_units_Z 32
_cell_length_a 25.977463
_cell_length_b 8.577133
_cell_length_c 15.001153
_cell_angle_alpha 90.000000
_cell_angle_beta 29.643088
_cell_angle_gamma 90.000000
_cell_volume 1653.155773
_symmetry_space_group_name_H-M "P 2/M"
_symmetry_group_IT_number 10
_symmetry_cell_setting 'monoclinic'
loop_
_space_group_symop_operation_xyz
x,y,z
-x,y,-z
-x,-y,-z
x,-y,z
loop_
_atom_site_type_symbol
_atom_site_label
_atom_site_fract_x
_atom_site_fract_y
_atom_site_fract_z
Si Si1 0.938542 0.684987 0.332295
Si Si2 0.501235 0.818254 0.721898
Si Si3 0.725029 0.816003 0.984315
Si Si4 0.432960 0.818291 0.017118
Si Si5 0.107796 0.315593 0.794220
Si Si6 0.721770 0.815768 0.332527
Si Si7 0.827599 0.683169 0.002206
Si Si8 0.223562 0.317332 0.278472
O O1 0.941023 0.500000 0.328273
O O2 0.890156 0.742661 0.311304
O O3 0.869996 0.744678 0.518254
O O4 0.055412 0.749969 0.166985
O O5 0.394466 0.753349 0.838752
O O6 0.605699 0.744284 0.522611
O O7 0.501318 0.000000 0.703031
O O8 0.501573 0.783106 0.826648
O O9 0.783611 0.721297 0.971791
O O10 0.731353 0.000000 0.993031
O O11 0.780631 0.779181 0.806798
O O12 0.329567 0.714797 0.172259
O O13 0.401297 0.000000 0.069300
O O14 0.500000 0.764675 0.000000
O O15 0.117689 0.500000 0.787547
O O16 0.203789 0.241451 0.701179
O O17 0.000000 0.258395 0.000000
O O18 0.757483 0.764127 0.181793
O O19 0.717824 0.000000 0.343222
O O20 0.825914 0.500000 0.022290
O O21 0.212871 0.500000 0.273600
#
# Coordination Sequence:
#
# PCOD8062655 Si02
#       8
#     4   4   4   4   4   4   4   4
#     4   9  20  37  57  81 114 153 187 222 279 340
#     4   8  18  36  55  77 112 151 182 220 281 339
#     4  10  21  41  62  82 111 147 185 232 284 333
#     4   9  18  34  55  78 110 151 189 225 276 335
#     4  10  19  37  59  78 111 156 190 224 276 334
#     4  11  22  36  56  86 115 145 188 234 278 328
#     4  11  22  40  61  82 110 149 190 229 278 337
#     4  10  20  36  57  83 112 145 188 232 277 330
#
# _framework density 19.356919000000001
#
# number of rings (size 3 to 8) (size 9 to 14) (size 15 to 20)
#    0.000    2.250    1.250    2.250    1.750    1.500 
#    0.000   14.375    0.000    0.000    0.000    0.000 
#    0.000    0.000    0.000    0.000    0.000    0.000 
#
# Total GULP energy -396792.431692 kJ/mol
# GULP energy per Si atom -12399.763490 kJ/mol
# Density = 1.931286 g / cm^3
# Si number density = 19.356919 Si / 1000 Ang^3
#
#
#
# Elastic Constant Matrix: (Units=GPa)
#
#
# Indices 1 2 3 4 5 6 
#
# 1 119.6082 6.9156 44.3834 0.0000 10.1838 0.0000
# 2 6.9156 20.6961 15.5041 0.0000 -7.4200 0.0000
# 3 44.3834 15.5041 145.8643 0.0000 8.8829 0.0000
# 4 0.0000 0.0000 0.0000 25.2579 0.0000 0.3004
# 5 10.1838 -7.4200 8.8829 0.0000 14.0173 0.0000
# 6 0.0000 0.0000 0.0000 0.3004 0.0000 32.0260
#
#
#
# Elastic Compliance Matrix: (Units=1/GPa)
#
#
# Indices 1 2 3 4 5 6 
#
# 1 0.010145 -0.005008 -0.002022 0.000000 -0.008740 0.000000
# 2 -0.005008 0.074639 -0.009400 0.000000 0.049106 0.000000
# 3 -0.002022 -0.009400 0.009032 0.000000 -0.009231 0.000000
# 4 0.000000 0.000000 0.000000 0.039596 0.000000 -0.000371
# 5 -0.008740 0.049106 -0.009231 0.000000 0.109534 0.000000
# 6 0.000000 0.000000 0.000000 -0.000371 0.000000 0.031228
#
#
# Mechanical properties :
#
#
# Convention : Reuss Voigt Hill
#
# Bulk Modulus (GPa) = 16.40561 46.64166 31.52363
# Shear Modulus (GPa) = 15.27401 28.88460 22.07930
#
# Velocity S-wave (km/s) = 2.81209 3.86711 3.38100
# Velocity P-wave (km/s) = 4.36320 6.63982 5.61804
#
# Compressibility (1/GPa) = 0.06095476
#
# Stress axis : x y z
#
# Youngs Moduli (GPa) = 98.57301 13.39781 110.71428
#
# Poissons Ratio (x) = 0.06710 0.22389
# Poissons Ratio (y) = 0.49370 1.04071
# Poissons Ratio (z) = 0.19934 0.12594
#
# Static dielectric constant tensor:
#      x y z
#    x 3.602560 0.000000 -0.068880 
#    y 0.000000 3.268240 0.000000 
#    z -0.068880 0.000000 3.901830 
# 
# 
# High freq. dielectric constant tensor:
#      x y z
#    x 1.760680 0.000000 0.001430 
#    y 0.000000 1.730710 0.000000 
#    z 0.001430 0.000000 1.762020 
# 
# From -- ./inp_files/66554.got.cif
#   From: 2010.06.25/outbox.cif.g09.slc.cpg/sg10_34_cif.got.tgz:66554.got - 2010.06.27 22:07:45.
