data_PCOD8062715
_publ_section_title
;
Structure prediction by ZEFSAII (Michael W. Deem and Ramdas Pophale) SiO2 
 PCOD8062715
Probable space group: P 2/M
;
_chemical_formula_sum "Si O2"
_cell_formula_units_Z 28
_cell_length_a 5.152710
_cell_length_b 13.101271
_cell_length_c 21.172316
_cell_angle_alpha 90.000000
_cell_angle_beta 72.096121
_cell_angle_gamma 90.000000
_cell_volume 1360.065673
_symmetry_space_group_name_H-M "P 2/M"
_symmetry_group_IT_number 10
_symmetry_cell_setting 'monoclinic'
loop_
_space_group_symop_operation_xyz
x,y,z
-x,y,-z
-x,-y,-z
x,-y,z
loop_
_atom_site_type_symbol
_atom_site_label
_atom_site_fract_x
_atom_site_fract_y
_atom_site_fract_z
Si Si1 0.630650 0.114378 0.185385
Si Si2 0.985552 0.618882 0.074125
Si Si3 0.594001 0.709466 0.862896
Si Si4 0.067906 0.249876 0.749873
Si Si5 0.189608 0.886932 0.325745
Si Si6 0.120085 0.285083 0.423315
Si Si7 0.675055 0.618396 0.364954
O O1 0.483071 0.168486 0.136228
O O2 0.867967 0.192941 0.188422
O O3 0.453333 0.107802 0.262006
O O4 0.728426 0.000000 0.158747
O O5 0.045218 0.500000 0.081358
O O6 0.682055 0.643341 0.122173
O O7 0.230943 0.682049 0.088258
O O8 0.000000 0.648892 0.000000
O O9 0.783510 0.689998 0.786286
O O10 0.286103 0.332122 0.708011
O O11 0.049501 0.163705 0.697383
O O12 0.239114 0.819336 0.384383
O O13 0.098941 0.000000 0.353622
O O14 0.369609 0.363548 0.412467
O O15 0.000000 0.257615 0.500000
O O16 0.890249 0.334853 0.397342
O O17 0.732757 0.500000 0.354749
#
# Coordination Sequence:
#
# PCOD8062715 Si02
#       7
#     4   4   4   4   4   4   4
#     4  10  19  37  65  92 124 160 199 248 310 371
#     4  11  24  43  66  92 127 170 208 245 294 350
#     4  11  22  40  63  98 126 158 205 253 296 358
#     4  10  20  38  61  93 124 157 195 251 307 364
#     4   9  19  35  59  88 119 153 194 247 309 363
#     4  11  23  40  59  82 114 154 206 249 294 364
#     4  11  24  40  59  83 117 155 197 250 306 356
#
# _framework density 20.587240999999999
#
# number of rings (size 3 to 8) (size 9 to 14) (size 15 to 20)
#    0.000    1.571    2.857    2.143    0.000    4.857 
#    0.000    0.000    0.000    5.143    0.000    0.000 
#    0.000    0.000    0.000    0.000    0.000    0.000 
#
# Total GULP energy -346968.611666 kJ/mol
# GULP energy per Si atom -12391.736131 kJ/mol
# Density = 2.054038 g / cm^3
# Si number density = 20.587241 Si / 1000 Ang^3
#
#
#
# Elastic Constant Matrix: (Units=GPa)
#
#
# Indices 1 2 3 4 5 6 
#
# 1 110.8353 37.2111 27.3295 0.0000 7.4344 0.0000
# 2 37.2111 116.2117 63.3094 0.0000 25.5965 0.0000
# 3 27.3295 63.3094 57.2744 0.0000 -4.6937 0.0000
# 4 0.0000 0.0000 0.0000 22.1784 0.0000 -39.6159
# 5 7.4344 25.5965 -4.6937 0.0000 19.3070 0.0000
# 6 0.0000 0.0000 0.0000 -39.6159 0.0000 -603.8915
#
#
#
# Elastic Compliance Matrix: (Units=1/GPa)
#
#
# Indices 1 2 3 4 5 6 
#
# 1 0.008876 -0.020129 0.020327 0.000000 0.028211 0.000000
# 2 -0.020129 -0.213922 0.275433 0.000000 0.358321 0.000000
# 3 0.020327 0.275433 -0.333914 0.000000 -0.454164 0.000000
# 4 0.000000 0.000000 0.000000 0.040360 0.000000 -0.002648
# 5 0.028211 0.358321 -0.454164 0.000000 -0.544529 0.000000
# 6 0.000000 0.000000 0.000000 -0.002648 0.000000 -0.001482
#
#
# Mechanical properties :
#
#
# Convention : Reuss Voigt Hill
#
# Bulk Modulus (GPa) = 81.29487 60.00237 70.64862
# Shear Modulus (GPa) = -3.14116 -102.04979 -52.59547
#
# Velocity S-wave (km/s) = -1.23656 -7.04819 -5.05995
# Velocity P-wave (km/s) = 6.12658 6.08501 0.50376
#
# Compressibility (1/GPa) = 0.01230090
#
# Stress axis : x y z
#
# Youngs Moduli (GPa) = 112.66228 -4.67461 -2.99478
#
# Poissons Ratio (x) = -0.09410 0.06088
# Poissons Ratio (y) = 2.26783 0.82486
# Poissons Ratio (z) = -2.29009 1.28754
#
# Static dielectric constant tensor:
#      x y z
#    x 3.838130 0.000000 -0.058120 
#    y 0.000000 3.902520 0.000000 
#    z -0.058120 0.000000 3.686850 
# 
# 
# High freq. dielectric constant tensor:
#      x y z
#    x 1.814720 0.000000 -0.002970 
#    y 0.000000 1.802820 0.000000 
#    z -0.002970 0.000000 1.781300 
# 
# From -- ./inp_files/81175.got.cif
#   From: 2010.06.25/outbox.cif.g09.slc.cpg/sg10_41_cif.got.tgz:81175.got - 2010.06.27 22:07:45.
