data_PCOD8062323
_publ_section_title
;
Structure prediction by ZEFSAII (Michael W. Deem and Ramdas Pophale) SiO2 
 PCOD8062323
Probable space group: P 2/M
;
_chemical_formula_sum "Si O2"
_cell_formula_units_Z 32
_cell_length_a 12.890854
_cell_length_b 8.847693
_cell_length_c 33.646649
_cell_angle_alpha 90.000000
_cell_angle_beta 25.228778
_cell_angle_gamma 90.000000
_cell_volume 1635.691295
_symmetry_space_group_name_H-M "P 2/M"
_symmetry_group_IT_number 10
_symmetry_cell_setting 'monoclinic'
loop_
_space_group_symop_operation_xyz
x,y,z
-x,y,-z
-x,-y,-z
x,-y,z
loop_
_atom_site_type_symbol
_atom_site_label
_atom_site_fract_x
_atom_site_fract_y
_atom_site_fract_z
Si Si1 0.498948 0.823956 0.697085
Si Si2 0.115029 0.819828 0.373886
Si Si3 0.578335 0.179615 0.581765
Si Si4 0.293408 0.177055 0.603878
Si Si5 0.252544 0.667769 0.109728
Si Si6 0.508421 0.822679 0.903269
Si Si7 0.039324 0.825154 0.112721
Si Si8 0.817838 0.321777 0.733759
O O1 0.702620 0.755140 0.655527
O O2 0.511796 0.753048 0.648217
O O3 0.233251 0.796529 0.808899
O O4 0.553913 0.000000 0.673328
O O5 0.195352 0.750943 0.304672
O O6 0.846214 0.761937 0.477517
O O7 0.127997 0.000000 0.366120
O O8 0.386102 0.234211 0.614984
O O9 0.577736 0.000000 0.582129
O O10 0.500000 0.212354 0.500000
O O11 0.053162 0.268849 0.676616
O O12 0.228864 0.000000 0.626135
O O13 0.174236 0.500000 0.151249
O O14 0.288031 0.778255 0.134717
O O15 0.051545 0.736380 0.150093
O O16 0.500000 0.658465 0.000000
O O17 0.572371 0.732721 0.841123
O O18 0.521583 0.000000 0.890510
O O19 0.238347 0.771316 0.011321
O O20 0.087919 0.000000 0.105800
O O21 0.819155 0.500000 0.729518
#
# Coordination Sequence:
#
# PCOD8062323 Si02
#       8
#     4   4   4   4   4   4   4   4
#     4   9  18  32  57  89 114 141 187 241 279 322
#     4  10  19  37  60  82 111 149 191 230 278 335
#     4   9  17  31  56  89 118 143 179 225 273 331
#     4  10  19  35  58  86 118 150 185 223 274 338
#     4   9  17  30  49  75 109 146 180 221 275 333
#     4  10  20  35  55  77 108 149 192 235 283 337
#     4   9  18  33  53  82 113 145 188 237 283 327
#     4  12  25  38  55  81 114 149 192 236 286 341
#
# _framework density 19.563594999999999
#
# number of rings (size 3 to 8) (size 9 to 14) (size 15 to 20)
#    0.000    2.250    1.250    2.250    1.750    3.750 
#    0.000    1.250    0.000    6.750    0.000    0.000 
#    0.000    0.000    0.000    0.000    0.000    0.000 
#
# Total GULP energy -396743.556874 kJ/mol
# GULP energy per Si atom -12398.236152 kJ/mol
# Density = 1.951907 g / cm^3
# Si number density = 19.563595 Si / 1000 Ang^3
#
#
#
# Elastic Constant Matrix: (Units=GPa)
#
#
# Indices 1 2 3 4 5 6 
#
# 1 137.0632 17.0377 50.6872 0.0000 10.6873 0.0000
# 2 17.0377 41.9201 19.9497 0.0000 1.8776 0.0000
# 3 50.6872 19.9497 94.8894 -0.0001 19.3352 0.0000
# 4 0.0000 0.0000 -0.0001 13.1385 0.0000 0.1748
# 5 10.6873 1.8776 19.3352 0.0000 24.8808 0.0000
# 6 0.0000 0.0000 0.0000 0.1748 0.0000 6.7711
#
#
#
# Elastic Compliance Matrix: (Units=1/GPa)
#
#
# Indices 1 2 3 4 5 6 
#
# 1 0.009184 -0.001572 -0.004510 0.000000 -0.000322 0.000000
# 2 -0.001572 0.026938 -0.005403 0.000000 0.002841 0.000000
# 3 -0.004510 -0.005403 0.016165 0.000000 -0.010218 0.000000
# 4 0.000000 0.000000 0.000000 0.076139 0.000000 -0.001965
# 5 -0.000322 0.002841 -0.010218 0.000000 0.048056 0.000000
# 6 0.000000 0.000000 0.000000 -0.001965 0.000000 0.147738
#
#
# Mechanical properties :
#
#
# Convention : Reuss Voigt Hill
#
# Bulk Modulus (GPa) = 34.10833 49.91353 42.01093
# Shear Modulus (GPa) = 14.00714 21.37128 17.68921
#
# Velocity S-wave (km/s) = 2.67868 3.30873 3.01024
# Velocity P-wave (km/s) = 5.19996 6.33765 5.79678
#
# Compressibility (1/GPa) = 0.02931835
#
# Stress axis : x y z
#
# Youngs Moduli (GPa) = 108.88264 37.12273 61.86038
#
# Poissons Ratio (x) = 0.05836 0.27898
# Poissons Ratio (y) = 0.17118 0.33420
# Poissons Ratio (z) = 0.49105 0.20056
#
# Static dielectric constant tensor:
#      x y z
#    x 3.685050 0.000000 0.079440 
#    y 0.000000 3.296960 0.000000 
#    z 0.079440 0.000000 3.704260 
# 
# 
# High freq. dielectric constant tensor:
#      x y z
#    x 1.754000 0.000000 0.004450 
#    y 0.000000 1.726950 0.000000 
#    z 0.004450 0.000000 1.770350 
# 
# From -- ./inp_files/94993.got.cif
#   From: 2010.06.25/outbox.cif.g09.slc.cpg/sg10_48_cif.got.tgz:94993.got - 2010.06.27 22:07:45.
