data_PCOD8062179
_publ_section_title
;
Structure prediction by ZEFSAII (Michael W. Deem and Ramdas Pophale) SiO2 
 PCOD8062179
Probable space group: P 2/M
;
_chemical_formula_sum "Si O2"
_cell_formula_units_Z 32
_cell_length_a 24.136857
_cell_length_b 9.521680
_cell_length_c 14.192655
_cell_angle_alpha 90.000000
_cell_angle_beta 149.373989
_cell_angle_gamma 90.000000
_cell_volume 1661.668052
_symmetry_space_group_name_H-M "P 2/M"
_symmetry_group_IT_number 10
_symmetry_cell_setting 'monoclinic'
loop_
_space_group_symop_operation_xyz
x,y,z
-x,y,-z
-x,-y,-z
x,-y,z
loop_
_atom_site_type_symbol
_atom_site_label
_atom_site_fract_x
_atom_site_fract_y
_atom_site_fract_z
Si Si1 0.106095 0.340185 0.212072
Si Si2 0.811063 0.659343 0.381343
Si Si3 0.394991 0.164669 0.408345
Si Si4 0.608877 0.333045 0.206686
Si Si5 0.048834 0.160471 0.298244
Si Si6 0.116235 0.659045 0.709917
Si Si7 0.814094 0.839315 0.012361
Si Si8 0.654784 0.338241 0.486055
O O1 0.096664 0.500000 0.235510
O O2 0.113994 0.235281 0.310323
O O3 0.214965 0.322485 0.309987
O O4 0.000000 0.295784 0.000000
O O5 0.835785 0.500000 0.450301
O O6 0.707183 0.720831 0.284782
O O7 0.915299 0.757619 0.555217
O O8 0.795421 0.664579 0.245767
O O9 0.500000 0.200458 0.500000
O O10 0.404356 0.246241 0.520997
O O11 0.386345 0.000000 0.418446
O O12 0.289611 0.218187 0.196488
O O13 0.607481 0.500000 0.203264
O O14 0.620848 0.282247 0.332447
O O15 0.500000 0.271074 0.000000
O O16 0.918792 0.173331 0.097309
O O17 0.086673 0.000000 0.358312
O O18 0.102560 0.500000 0.728067
O O19 0.166705 0.753141 0.865085
O O20 0.000000 0.712621 0.500000
O O21 0.794444 0.000000 0.014032
O O22 0.619209 0.500000 0.446878
#
# Coordination Sequence:
#
# PCOD8062179 Si02
#       8
#     4   4   4   4   4   4   4   4
#     4  10  20  34  54  82 114 147 181 223 280 338
#     4  10  19  35  55  77 111 148 184 226 277 335
#     4  10  23  43  62  80 110 154 195 234 285 336
#     4   9  18  34  57  83 112 145 181 225 278 334
#     4  11  21  32  52  81 112 146 185 228 279 332
#     4  10  20  33  55  85 113 148 190 232 282 336
#     4  10  22  38  56  81 114 152 192 235 286 340
#     4  10  20  36  60  88 112 143 187 232 281 332
#
# _framework density 19.257756000000001
#
# number of rings (size 3 to 8) (size 9 to 14) (size 15 to 20)
#    0.000    2.000    2.500    1.125    0.000    3.750 
#    0.000    1.250    0.000    1.500    0.000    0.000 
#    0.000    0.000    0.000    0.000    0.000    0.000 
#
# Total GULP energy -396750.895444 kJ/mol
# GULP energy per Si atom -12398.465483 kJ/mol
# Density = 1.921392 g / cm^3
# Si number density = 19.257756 Si / 1000 Ang^3
#
#
#
# Elastic Constant Matrix: (Units=GPa)
#
#
# Indices 1 2 3 4 5 6 
#
# 1 120.8055 40.4699 39.4918 0.0000 -5.2643 0.0000
# 2 40.4699 64.5735 24.4631 0.0000 -5.3973 0.0000
# 3 39.4918 24.4631 101.3720 0.0000 -0.8215 0.0000
# 4 0.0000 0.0000 0.0000 17.5654 0.0000 4.8912
# 5 -5.2643 -5.3973 -0.8215 0.0000 26.6654 0.0000
# 6 0.0000 0.0000 0.0000 4.8912 0.0000 11.1264
#
#
#
# Elastic Compliance Matrix: (Units=1/GPa)
#
#
# Indices 1 2 3 4 5 6 
#
# 1 0.011246 -0.005847 -0.002963 0.000000 0.000945 0.000000
# 2 -0.005847 0.020384 -0.002618 0.000000 0.002891 0.000000
# 3 -0.002963 -0.002618 0.011644 0.000000 -0.000756 0.000000
# 4 0.000000 0.000000 0.000000 0.064871 0.000000 -0.028517
# 5 0.000945 0.002891 -0.000756 0.000000 0.038250 0.000000
# 6 0.000000 0.000000 0.000000 -0.028517 0.000000 0.102413
#
#
# Mechanical properties :
#
#
# Convention : Reuss Voigt Hill
#
# Bulk Modulus (GPa) = 48.97170 55.06674 52.01922
# Shear Modulus (GPa) = 17.95527 23.22651 20.59089
#
# Velocity S-wave (km/s) = 3.05678 3.47664 3.27345
# Velocity P-wave (km/s) = 6.15982 6.69124 6.43102
#
# Compressibility (1/GPa) = 0.02041995
#
# Stress axis : x y z
#
# Youngs Moduli (GPa) = 88.91924 49.05803 85.87815
#
# Poissons Ratio (x) = 0.28684 0.25442
# Poissons Ratio (y) = 0.51990 0.22482
# Poissons Ratio (z) = 0.26343 0.12843
#
# Static dielectric constant tensor:
#      x y z
#    x 3.506750 0.000000 0.023760 
#    y 0.000000 3.319770 0.000000 
#    z 0.023760 0.000000 3.622070 
# 
# 
# High freq. dielectric constant tensor:
#      x y z
#    x 1.753420 0.000000 0.000450 
#    y 0.000000 1.727320 0.000000 
#    z 0.000450 0.000000 1.743140 
# 
# From -- ./inp_files/71454.got.cif
#   From: 2010.06.25/outbox.cif.g09.slc.cpg/sg10_36_cif.got.tgz:71454.got - 2010.06.27 22:07:45.
