data_PCOD8062519
_publ_section_title
;
Structure prediction by ZEFSAII (Michael W. Deem and Ramdas Pophale) SiO2 
 PCOD8062519
Probable space group: P 2/M
;
_chemical_formula_sum "Si O2"
_cell_formula_units_Z 28
_cell_length_a 11.913793
_cell_length_b 9.202059
_cell_length_c 29.216972
_cell_angle_alpha 90.000000
_cell_angle_beta 151.427892
_cell_angle_gamma 90.000000
_cell_volume 1531.927867
_symmetry_space_group_name_H-M "P 2/M"
_symmetry_group_IT_number 10
_symmetry_cell_setting 'monoclinic'
loop_
_space_group_symop_operation_xyz
x,y,z
-x,y,-z
-x,-y,-z
x,-y,z
loop_
_atom_site_type_symbol
_atom_site_label
_atom_site_fract_x
_atom_site_fract_y
_atom_site_fract_z
Si Si1 0.054008 0.331001 0.968547
Si Si2 0.581363 0.664763 0.166849
Si Si3 0.691591 0.167733 0.776681
Si Si4 0.034834 0.169021 0.311696
Si Si5 0.314201 0.334910 0.692455
Si Si6 0.373927 0.834593 0.351056
Si Si7 0.192227 0.670749 0.456257
O O1 0.985361 0.500000 0.941149
O O2 0.905270 0.246352 0.877993
O O3 0.327088 0.304739 0.054220
O O4 0.000000 0.271653 0.000000
O O5 0.664849 0.500000 0.187136
O O6 0.561590 0.688429 0.214184
O O7 0.770034 0.772221 0.212064
O O8 0.439104 0.231142 0.700812
O O9 0.725591 0.192453 0.735026
O O10 0.696981 0.000000 0.792192
O O11 0.161848 0.199206 0.309377
O O12 0.180515 0.250854 0.403107
O O13 0.026309 0.000000 0.321224
O O14 0.344801 0.500000 0.686614
O O15 0.040424 0.293470 0.597770
O O16 0.588282 0.726688 0.436593
O O17 0.463452 0.000000 0.389176
O O18 0.214413 0.500000 0.454950
#
# Coordination Sequence:
#
# PCOD8062519 Si02
#       7
#     4   4   4   4   4   4   4
#     4  10  19  36  59  81 109 143 175 217 274 324
#     4   9  18  34  57  83 109 137 176 225 269 315
#     4  11  23  36  53  80 112 144 183 223 262 319
#     4  10  20  36  58  80 108 145 181 220 270 319
#     4   9  18  35  54  78 111 142 173 218 277 324
#     4  10  23  40  53  74 112 151 181 219 270 318
#     4  10  21  36  58  84 107 137 182 230 269 315
#
# _framework density 18.277622999999998
#
# number of rings (size 3 to 8) (size 9 to 14) (size 15 to 20)
#    0.000    2.143    1.429    2.571    0.000    8.286 
#    0.000    3.571    0.000    4.286    0.000    0.000 
#    0.000    0.000    0.000    0.000    0.000    0.000 
#
# Total GULP energy -347295.182798 kJ/mol
# GULP energy per Si atom -12403.399386 kJ/mol
# Density = 1.823602 g / cm^3
# Si number density = 18.277623 Si / 1000 Ang^3
#
#
#
# Elastic Constant Matrix: (Units=GPa)
#
#
# Indices 1 2 3 4 5 6 
#
# 1 78.2437 47.9932 53.1004 0.0000 -2.0864 0.0000
# 2 47.9932 98.0003 60.0150 0.0000 0.4033 0.0000
# 3 53.1004 60.0150 101.6999 0.0000 1.7703 0.0000
# 4 0.0000 0.0000 0.0000 24.9865 0.0000 11.8964
# 5 -2.0864 0.4033 1.7703 0.0000 19.2256 0.0000
# 6 0.0000 0.0000 0.0000 11.8964 0.0000 16.4923
#
#
#
# Elastic Compliance Matrix: (Units=1/GPa)
#
#
# Indices 1 2 3 4 5 6 
#
# 1 0.021899 -0.005795 -0.008070 0.000000 0.003241 0.000000
# 2 -0.005795 0.017518 -0.007306 0.000000 -0.000324 0.000000
# 3 -0.008070 -0.007306 0.018400 0.000000 -0.002417 0.000000
# 4 0.000000 0.000000 0.000000 0.060956 0.000000 -0.043969
# 5 0.003241 -0.000324 -0.002417 0.000000 0.052595 0.000000
# 6 0.000000 0.000000 0.000000 -0.043969 0.000000 0.092350
#
#
# Mechanical properties :
#
#
# Convention : Reuss Voigt Hill
#
# Bulk Modulus (GPa) = 64.62858 66.68456 65.65657
# Shear Modulus (GPa) = 16.06587 19.92993 17.99790
#
# Velocity S-wave (km/s) = 2.96800 3.30570 3.14139
# Velocity P-wave (km/s) = 6.86888 7.15078 7.01125
#
# Compressibility (1/GPa) = 0.01547303
#
# Stress axis : x y z
#
# Youngs Moduli (GPa) = 45.66451 57.08528 54.34772
#
# Poissons Ratio (x) = 0.33084 0.43861
# Poissons Ratio (y) = 0.26465 0.39706
# Poissons Ratio (z) = 0.36853 0.41706
#
# Static dielectric constant tensor:
#      x y z
#    x 3.294010 0.000000 0.117480 
#    y 0.000000 3.409450 0.000000 
#    z 0.117480 0.000000 3.298520 
# 
# 
# High freq. dielectric constant tensor:
#      x y z
#    x 1.701070 0.000000 0.013640 
#    y 0.000000 1.712680 0.000000 
#    z 0.013640 0.000000 1.705230 
# 
# From -- ./inp_files/68680.got.cif
#   From: 2010.06.25/outbox.cif.g09.slc.cpg/sg10_35_cif.got.tgz:68680.got - 2010.06.27 22:07:45.
