data_PCOD8062894
_publ_section_title
;
Structure prediction by ZEFSAII (Michael W. Deem and Ramdas Pophale) SiO2 
 PCOD8062894
Probable space group: P 2/M
;
_chemical_formula_sum "Si O2"
_cell_formula_units_Z 24
_cell_length_a 24.348736
_cell_length_b 9.207464
_cell_length_c 11.914629
_cell_angle_alpha 90.000000
_cell_angle_beta 29.382525
_cell_angle_gamma 90.000000
_cell_volume 1310.563800
_symmetry_space_group_name_H-M "P 2/M"
_symmetry_group_IT_number 10
_symmetry_cell_setting 'monoclinic'
loop_
_space_group_symop_operation_xyz
x,y,z
-x,y,-z
-x,-y,-z
x,-y,z
loop_
_atom_site_type_symbol
_atom_site_label
_atom_site_fract_x
_atom_site_fract_y
_atom_site_fract_z
Si Si1 0.901027 0.671490 0.259687
Si Si2 0.675653 0.828063 0.645562
Si Si3 0.598968 0.828506 0.240322
Si Si4 0.960102 0.671834 0.399736
Si Si5 0.824347 0.671938 0.854436
Si Si6 0.460102 0.828166 0.899736
O O1 0.881322 0.500000 0.298152
O O2 0.789490 0.746711 0.412683
O O3 0.931151 0.735218 0.329054
O O4 0.000000 0.714625 0.000000
O O5 0.583211 0.776398 0.719470
O O6 0.695042 0.000000 0.606181
O O7 0.633591 0.778288 0.843955
O O8 0.500000 0.785351 0.500000
O O9 0.568844 0.764780 0.170954
O O10 0.618656 0.000000 0.201895
O O11 0.710512 0.753295 0.087309
O O12 0.962190 0.500000 0.392111
O O13 0.866432 0.721745 0.656016
O O14 0.083226 0.723573 0.219421
O O15 0.804950 0.500000 0.893798
O O16 0.462228 0.000000 0.892031
#
# Coordination Sequence:
#
# PCOD8062894 Si02
#       6
#     4   4   4   4   4   4
#     4  10  20  32  46  68  99 127 148 182 235 281
#     4   9  17  32  53  70  87 119 161 195 221 264
#     4  10  20  32  46  68  99 127 148 182 235 281
#     4   8  16  32  51  69  91 121 154 189 232 273
#     4   9  17  32  53  70  87 119 161 195 221 264
#     4   8  16  32  51  69  91 121 154 189 232 273
#
# _framework density 18.312729000000001
#
# number of rings (size 3 to 8) (size 9 to 14) (size 15 to 20)
#    0.000    3.000    0.000    3.000    0.000    2.000 
#    0.000    5.000    0.000    0.000    0.000    0.000 
#    0.000    0.000    0.000    0.000    0.000    0.000 
#
# Total GULP energy -297547.030823 kJ/mol
# GULP energy per Si atom -12397.792951 kJ/mol
# Density = 1.827105 g / cm^3
# Si number density = 18.312729 Si / 1000 Ang^3
#
#
#
# Elastic Constant Matrix: (Units=GPa)
#
#
# Indices 1 2 3 4 5 6 
#
# 1 59.9857 15.2450 36.5960 0.0000 -12.8783 0.0000
# 2 15.2450 25.1948 38.6081 0.0000 -8.5623 0.0000
# 3 36.5960 38.6081 132.0624 0.0000 -25.4057 0.0000
# 4 0.0000 0.0000 0.0000 15.6702 0.0000 -8.2376
# 5 -12.8783 -8.5623 -25.4057 0.0000 27.8534 0.0000
# 6 0.0000 0.0000 0.0000 -8.2376 0.0000 20.9857
#
#
#
# Elastic Compliance Matrix: (Units=1/GPa)
#
#
# Indices 1 2 3 4 5 6 
#
# 1 0.021253 -0.006533 -0.003002 0.000000 0.005080 0.000000
# 2 -0.006533 0.074201 -0.019496 0.000000 0.002007 0.000000
# 3 -0.003002 -0.019496 0.015383 0.000000 0.006650 0.000000
# 4 0.000000 0.000000 0.000000 0.080408 0.000000 0.031563
# 5 0.005080 0.002007 0.006650 0.000000 0.044933 0.000000
# 6 0.000000 0.000000 0.000000 0.031563 0.000000 0.060041
#
#
# Mechanical properties :
#
#
# Convention : Reuss Voigt Hill
#
# Bulk Modulus (GPa) = 18.94848 44.23789 31.59318
# Shear Modulus (GPa) = 13.44544 21.35479 17.40012
#
# Velocity S-wave (km/s) = 2.71258 3.41855 3.08582
# Velocity P-wave (km/s) = 4.49226 6.30804 5.47593
#
# Compressibility (1/GPa) = 0.05277468
#
# Stress axis : x y z
#
# Youngs Moduli (GPa) = 47.05178 13.47689 65.00636
#
# Poissons Ratio (x) = 0.08804 0.19518
# Poissons Ratio (y) = 0.30738 1.26738
# Poissons Ratio (z) = 0.14127 0.26275
#
# Static dielectric constant tensor:
#      x y z
#    x 3.830970 0.000000 0.099950 
#    y 0.000000 2.893430 0.000000 
#    z 0.099950 0.000000 3.331760 
# 
# 
# High freq. dielectric constant tensor:
#      x y z
#    x 1.719290 0.000000 -0.006480 
#    y 0.000000 1.667420 0.000000 
#    z -0.006480 0.000000 1.711960 
# 
# From -- ./inp_files/36195.got.cif
#   From: 2010.06.25/outbox.cif.g09.slc.cpg/sg10_19_cif.got.tgz:36195.got - 2010.06.27 22:07:45.
