data_PCOD8062868
_publ_section_title
;
Structure prediction by ZEFSAII (Michael W. Deem and Ramdas Pophale) SiO2 
 PCOD8062868
Probable space group: P 2/M
;
_chemical_formula_sum "Si O2"
_cell_formula_units_Z 28
_cell_length_a 25.666044
_cell_length_b 16.377708
_cell_length_c 23.279238
_cell_angle_alpha 90.000000
_cell_angle_beta 169.234163
_cell_angle_gamma 90.000000
_cell_volume 1827.878935
_symmetry_space_group_name_H-M "P 2/M"
_symmetry_group_IT_number 10
_symmetry_cell_setting 'monoclinic'
loop_
_space_group_symop_operation_xyz
x,y,z
-x,y,-z
-x,-y,-z
x,-y,z
loop_
_atom_site_type_symbol
_atom_site_label
_atom_site_fract_x
_atom_site_fract_y
_atom_site_fract_z
Si Si1 0.620278 0.590338 0.693243
Si Si2 0.112406 0.097483 0.682500
Si Si3 0.642973 0.851085 0.491342
Si Si4 0.044901 0.096256 0.825273
Si Si5 0.730711 0.903110 0.371339
Si Si6 0.704273 0.091370 0.676555
Si Si7 0.122456 0.688941 0.196136
O O1 0.500000 0.581903 0.500000
O O2 0.705421 0.500000 0.808031
O O3 0.377581 0.625666 0.470370
O O4 0.886827 0.650152 0.981829
O O5 0.000000 0.130719 0.500000
O O6 0.916967 0.131893 0.521267
O O7 0.114194 0.000000 0.684350
O O8 0.420798 0.132413 0.027971
O O9 0.597166 0.912060 0.495670
O O10 0.750084 0.766862 0.633746
O O11 0.875584 0.884726 0.699962
O O12 0.330212 0.850997 0.126629
O O13 0.852397 0.125187 0.564096
O O14 0.114608 0.000000 0.897264
O O15 0.723334 0.000000 0.360072
O O16 0.500000 0.138550 0.500000
O O17 0.743907 0.000000 0.744066
O O18 0.000000 0.138171 0.000000
O O19 0.000000 0.709076 0.000000
#
# Coordination Sequence:
#
# PCOD8062868 Si02
#       7
#     4   4   4   4   4   4   4
#     4   9  17  31  50  69  87 105 123 147 196 269
#     4   9  15  24  40  60  79  97 120 160 217 266
#     4  12  22  33  46  61  81 106 140 179 219 255
#     4  11  22  34  46  58  78 113 152 185 215 251
#     4   9  17  28  40  56  77 101 133 170 209 252
#     4  10  20  32  44  56  71  94 128 173 220 260
#     4  10  20  32  47  67  87 105 128 167 217 260
#
# _framework density 15.318301999999999
#
# number of rings (size 3 to 8) (size 9 to 14) (size 15 to 20)
#    0.000    2.000    0.000    5.143    0.000    8.571 
#    0.000    0.000    0.000    0.000    0.000    0.000 
#    0.000    0.000    0.000    0.000    0.000    0.000 
#
# Total GULP energy -347033.504995 kJ/mol
# GULP energy per Si atom -12394.053750 kJ/mol
# Density = 1.528344 g / cm^3
# Si number density = 15.318302 Si / 1000 Ang^3
#
#
#
# Elastic Constant Matrix: (Units=GPa)
#
#
# Indices 1 2 3 4 5 6 
#
# 1 80.8513 17.4526 39.2262 0.0000 7.9006 0.0000
# 2 17.4526 52.2253 31.9149 0.0000 -1.3539 0.0000
# 3 39.2262 31.9149 125.2643 0.0000 11.0816 0.0000
# 4 0.0000 0.0000 0.0000 9.8201 0.0000 -4.0460
# 5 7.9006 -1.3539 11.0816 0.0000 33.1227 0.0000
# 6 0.0000 0.0000 0.0000 -4.0460 0.0000 -6.8268
#
#
#
# Elastic Compliance Matrix: (Units=1/GPa)
#
#
# Indices 1 2 3 4 5 6 
#
# 1 0.015043 -0.002775 -0.003788 0.000000 -0.002434 0.000000
# 2 -0.002775 0.023474 -0.005415 0.000000 0.003433 0.000000
# 3 -0.003788 -0.005415 0.010809 0.000000 -0.002934 0.000000
# 4 0.000000 0.000000 0.000000 0.081847 0.000000 -0.048507
# 5 -0.002434 0.003433 -0.002934 0.000000 0.031893 0.000000
# 6 0.000000 0.000000 0.000000 -0.048507 0.000000 -0.117733
#
#
# Mechanical properties :
#
#
# Convention : Reuss Voigt Hill
#
# Bulk Modulus (GPa) = 39.41998 48.39203 43.90600
# Shear Modulus (GPa) = 64.31152 18.53966 41.42559
#
# Velocity S-wave (km/s) = 6.48649 3.48270 5.20595
# Velocity P-wave (km/s) = 9.04927 6.91606 8.05360
#
# Compressibility (1/GPa) = 0.02536785
#
# Stress axis : x y z
#
# Youngs Moduli (GPa) = 66.47486 42.60122 92.51819
#
# Poissons Ratio (x) = 0.11823 0.35049
# Poissons Ratio (y) = 0.18448 0.50101
# Poissons Ratio (z) = 0.25183 0.23070
#
# Static dielectric constant tensor:
#      x y z
#    x 3.140760 0.000000 0.399350 
#    y 0.000000 2.605090 0.000000 
#    z 0.399350 0.000000 3.557130 
# 
# 
# High freq. dielectric constant tensor:
#      x y z
#    x 1.579170 0.000000 0.025000 
#    y 0.000000 1.529960 0.000000 
#    z 0.025000 0.000000 1.602580 
# 
# From -- ./inp_files/91288.got.cif
#   From: 2010.06.25/outbox.cif.g09.slc.cpg/sg10_46_cif.got.tgz:91288.got - 2010.06.27 22:07:45.
