data_PCOD8062117
_publ_section_title
;
Structure prediction by ZEFSAII (Michael W. Deem and Ramdas Pophale) SiO2 
 PCOD8062117
Probable space group: P 2/M
;
_chemical_formula_sum "Si O2"
_cell_formula_units_Z 28
_cell_length_a 18.694902
_cell_length_b 13.842191
_cell_length_c 5.101411
_cell_angle_alpha 90.000000
_cell_angle_beta 96.304469
_cell_angle_gamma 90.000000
_cell_volume 1312.151341
_symmetry_space_group_name_H-M "P 2/M"
_symmetry_group_IT_number 10
_symmetry_cell_setting 'monoclinic'
loop_
_space_group_symop_operation_xyz
x,y,z
-x,y,-z
-x,-y,-z
x,-y,z
loop_
_atom_site_type_symbol
_atom_site_label
_atom_site_fract_x
_atom_site_fract_y
_atom_site_fract_z
Si Si1 0.724623 0.804264 0.667285
Si Si2 0.202084 0.113112 0.803609
Si Si3 0.583553 0.725206 0.517504
Si Si4 0.106821 0.607548 0.839618
Si Si5 0.043028 0.196431 0.768206
Si Si6 0.201449 0.608160 0.377017
Si Si7 0.416370 0.604681 0.982334
O O1 0.769038 0.865912 0.475170
O O2 0.638004 0.815474 0.589035
O O3 0.738851 0.689429 0.645433
O O4 0.744582 0.840014 0.963830
O O5 0.123291 0.156674 0.805449
O O6 0.198397 0.000000 0.849592
O O7 0.500000 0.759840 0.500000
O O8 0.606174 0.681177 0.247027
O O9 0.601647 0.644691 0.739888
O O10 0.073184 0.500000 0.797303
O O11 0.044731 0.686536 0.769566
O O12 0.170368 0.622819 0.655369
O O13 0.137853 0.623544 0.142313
O O14 0.000000 0.158194 0.500000
O O15 0.000000 0.156422 0.000000
O O16 0.234409 0.500000 0.358989
O O17 0.377528 0.500000 0.928800
O O18 0.500000 0.586350 0.000000
#
# Coordination Sequence:
#
# PCOD8062117 Si02
#       7
#     4   4   4   4   4   4   4
#     4  12  22  43  68  91 127 169 210 265 319 374
#     4  12  27  47  70  94 121 162 215 264 324 392
#     4  10  21  35  58  92 125 167 215 264 324 377
#     4  10  20  37  58  88 129 167 206 245 290 357
#     4  12  24  40  67  96 129 161 202 259 319 370
#     4  10  19  34  59  88 122 165 208 248 295 358
#     4   9  17  31  50  80 127 174 214 253 298 366
#
# _framework density 21.339003000000002
#
# number of rings (size 3 to 8) (size 9 to 14) (size 15 to 20)
#    0.000    1.286    2.857    3.429    0.000    4.000 
#    0.000    1.429    0.000    2.571    0.000    0.000 
#    0.000    0.000    0.000    0.000    0.000    0.000 
#
# Total GULP energy -347191.830382 kJ/mol
# GULP energy per Si atom -12399.708228 kJ/mol
# Density = 2.129043 g / cm^3
# Si number density = 21.339003 Si / 1000 Ang^3
#
#
#
# Elastic Constant Matrix: (Units=GPa)
#
#
# Indices 1 2 3 4 5 6 
#
# 1 83.3607 26.1493 25.0245 0.0000 12.3990 0.0000
# 2 26.1493 82.1952 16.9364 0.0000 9.2744 0.0000
# 3 25.0245 16.9364 110.7405 0.0000 7.8665 0.0000
# 4 0.0000 0.0000 0.0000 23.0887 0.0000 -3.2435
# 5 12.3990 9.2744 7.8665 0.0000 31.8707 0.0000
# 6 0.0000 0.0000 0.0000 -3.2435 0.0000 6.2716
#
#
#
# Elastic Compliance Matrix: (Units=1/GPa)
#
#
# Indices 1 2 3 4 5 6 
#
# 1 0.014460 -0.003653 -0.002427 0.000000 -0.003963 0.000000
# 2 -0.003653 0.013822 -0.001123 0.000000 -0.002324 0.000000
# 3 -0.002427 -0.001123 0.009833 0.000000 -0.001156 0.000000
# 4 0.000000 0.000000 0.000000 0.046704 0.000000 0.024154
# 5 -0.003963 -0.002324 -0.001156 0.000000 0.033880 0.000000
# 6 0.000000 0.000000 0.000000 0.024154 0.000000 0.171940
#
#
# Mechanical properties :
#
#
# Convention : Reuss Voigt Hill
#
# Bulk Modulus (GPa) = 42.18113 45.83519 44.00816
# Shear Modulus (GPa) = 15.97703 26.12529 21.05116
#
# Velocity S-wave (km/s) = 2.73925 3.50279 3.14428
# Velocity P-wave (km/s) = 5.46029 6.15513 5.81809
#
# Compressibility (1/GPa) = 0.02370728
#
# Stress axis : x y z
#
# Youngs Moduli (GPa) = 69.15554 72.34859 101.70307
#
# Poissons Ratio (x) = 0.26428 0.24687
# Poissons Ratio (y) = 0.25262 0.11425
# Poissons Ratio (z) = 0.16787 0.08127
#
# Static dielectric constant tensor:
#      x y z
#    x 3.583510 0.000000 0.001610 
#    y 0.000000 3.784570 0.000000 
#    z 0.001610 0.000000 4.062150 
# 
# 
# High freq. dielectric constant tensor:
#      x y z
#    x 1.828440 0.000000 -0.007460 
#    y 0.000000 1.810120 0.000000 
#    z -0.007460 0.000000 1.857770 
# 
# From -- ./inp_files/11316.got.cif
#   From: 2010.06.25/outbox.cif.g09.slc.cpg/sg10_6_cif.got.tgz:11316.got - 2010.06.27 22:07:45.
