data_PCOD8062421
_publ_section_title
;
Structure prediction by ZEFSAII (Michael W. Deem and Ramdas Pophale) SiO2 
 PCOD8062421
Probable space group: P 2/M
;
_chemical_formula_sum "Si O2"
_cell_formula_units_Z 32
_cell_length_a 12.364670
_cell_length_b 14.912674
_cell_length_c 18.156917
_cell_angle_alpha 90.000000
_cell_angle_beta 27.807506
_cell_angle_gamma 90.000000
_cell_volume 1561.831425
_symmetry_space_group_name_H-M "P 2/M"
_symmetry_group_IT_number 10
_symmetry_cell_setting 'monoclinic'
loop_
_space_group_symop_operation_xyz
x,y,z
-x,y,-z
-x,-y,-z
x,-y,z
loop_
_atom_site_type_symbol
_atom_site_label
_atom_site_fract_x
_atom_site_fract_y
_atom_site_fract_z
Si Si1 0.850831 0.234047 0.328692
Si Si2 0.349995 0.150705 0.825692
Si Si3 0.263670 0.757593 0.181817
Si Si4 0.258827 0.598210 0.687416
Si Si5 0.758383 0.899063 0.679290
Si Si6 0.468958 0.312530 0.360427
Si Si7 0.986203 0.397801 0.422592
Si Si8 0.116616 0.102684 0.818728
O O1 0.902857 0.329442 0.256561
O O2 0.636021 0.245440 0.514172
O O3 0.782176 0.157955 0.311110
O O4 0.079710 0.203396 0.234206
O O5 0.564167 0.098829 0.732964
O O6 0.424976 0.254117 0.769754
O O7 0.291463 0.106101 0.782331
O O8 0.129276 0.146706 0.012014
O O9 0.315104 0.833566 0.211021
O O10 0.169163 0.665957 0.272981
O O11 0.500000 0.732581 0.000000
O O12 0.500000 0.591144 0.500000
O O13 0.136901 0.500000 0.762432
O O14 0.317678 0.630622 0.734744
O O15 0.000000 0.863608 0.500000
O O16 0.788818 0.000000 0.691742
O O17 0.273807 0.379085 0.447998
O O18 0.049749 0.500000 0.364957
O O19 0.000000 0.378431 0.500000
O O20 0.081047 0.000000 0.816345
#
# Coordination Sequence:
#
# PCOD8062421 Si02
#       8
#     4   4   4   4   4   4   4   4
#     4  10  21  37  57  85 116 149 193 245 292 350
#     4  11  21  38  62  84 117 155 199 246 292 356
#     4  11  23  38  59  86 120 161 200 244 303 357
#     4   9  17  32  56  83 110 142 181 232 292 347
#     4  11  23  40  61  87 119 161 212 256 299 353
#     4  10  19  35  61  86 118 145 192 245 297 345
#     4  10  21  38  61  90 119 154 199 245 298 361
#     4  11  23  39  58  85 120 162 199 237 298 359
#
# _framework density 20.488768
#
# number of rings (size 3 to 8) (size 9 to 14) (size 15 to 20)
#    0.000    1.625    1.250    5.250    0.000    4.000 
#    0.000    2.500    0.000    2.250    0.000    0.000 
#    0.000    0.000    0.000    0.000    0.000    0.000 
#
# Total GULP energy -396859.205760 kJ/mol
# GULP energy per Si atom -12401.850180 kJ/mol
# Density = 2.044213 g / cm^3
# Si number density = 20.488768 Si / 1000 Ang^3
#
#
#
# Elastic Constant Matrix: (Units=GPa)
#
#
# Indices 1 2 3 4 5 6 
#
# 1 114.0691 40.1164 34.7334 0.0000 -4.2187 0.0000
# 2 40.1164 116.2292 34.2607 0.0000 9.9487 0.0000
# 3 34.7334 34.2607 64.6219 0.0000 -6.0694 0.0000
# 4 0.0000 0.0000 0.0000 11.4138 0.0000 -2.0889
# 5 -4.2187 9.9487 -6.0694 0.0000 25.1833 0.0000
# 6 0.0000 0.0000 0.0000 -2.0889 0.0000 28.2577
#
#
#
# Elastic Compliance Matrix: (Units=1/GPa)
#
#
# Indices 1 2 3 4 5 6 
#
# 1 0.011118 -0.002713 -0.004360 0.000000 0.001884 0.000000
# 2 -0.002713 0.011649 -0.005312 0.000000 -0.006337 0.000000
# 3 -0.004360 -0.005312 0.021244 0.000000 0.006488 0.000000
# 4 0.000000 0.000000 0.000000 0.088815 0.000000 0.006565
# 5 0.001884 -0.006337 0.006488 0.000000 0.044091 0.000000
# 6 0.000000 0.000000 0.000000 0.006565 0.000000 0.035874
#
#
# Mechanical properties :
#
#
# Convention : Reuss Voigt Hill
#
# Bulk Modulus (GPa) = 51.97929 57.01569 54.49749
# Shear Modulus (GPa) = 20.49379 25.35828 22.92603
#
# Velocity S-wave (km/s) = 3.16610 3.52187 3.34871
# Velocity P-wave (km/s) = 6.22818 6.66530 6.45045
#
# Compressibility (1/GPa) = 0.01923843
#
# Stress axis : x y z
#
# Youngs Moduli (GPa) = 89.94221 85.84766 47.07153
#
# Poissons Ratio (x) = 0.23293 0.20525
# Poissons Ratio (y) = 0.24404 0.25007
# Poissons Ratio (z) = 0.39219 0.45607
#
# Static dielectric constant tensor:
#      x y z
#    x 3.919830 0.000000 -0.007310 
#    y 0.000000 3.782450 0.000000 
#    z -0.007310 0.000000 3.435900 
# 
# 
# High freq. dielectric constant tensor:
#      x y z
#    x 1.814700 0.000000 -0.003560 
#    y 0.000000 1.802790 0.000000 
#    z -0.003560 0.000000 1.771690 
# 
# From -- ./inp_files/77013.got.cif
#   From: 2010.06.25/outbox.cif.g09.slc.cpg/sg10_39_cif.got.tgz:77013.got - 2010.06.27 22:07:45.
