data_PCOD8062846
_publ_section_title
;
Structure prediction by ZEFSAII (Michael W. Deem and Ramdas Pophale) SiO2 
 PCOD8062846
Probable space group: P 2/M
;
_chemical_formula_sum "Si O2"
_cell_formula_units_Z 32
_cell_length_a 21.085871
_cell_length_b 18.796558
_cell_length_c 8.982087
_cell_angle_alpha 90.000000
_cell_angle_beta 31.557717
_cell_angle_gamma 90.000000
_cell_volume 1863.139364
_symmetry_space_group_name_H-M "P 2/M"
_symmetry_group_IT_number 10
_symmetry_cell_setting 'monoclinic'
loop_
_space_group_symop_operation_xyz
x,y,z
-x,y,-z
-x,-y,-z
x,-y,z
loop_
_atom_site_type_symbol
_atom_site_label
_atom_site_fract_x
_atom_site_fract_y
_atom_site_fract_z
Si Si1 0.880015 0.293217 0.336930
Si Si2 0.047784 0.341504 0.248807
Si Si3 0.255131 0.173785 0.238245
Si Si4 0.745988 0.920134 0.267846
Si Si5 0.121287 0.920060 0.700339
Si Si6 0.522088 0.081410 0.128267
Si Si7 0.869675 0.577381 0.184190
Si Si8 0.864746 0.196096 0.824091
O O1 0.778806 0.232806 0.566884
O O2 0.806578 0.357845 0.400685
O O3 0.927188 0.316441 0.404175
O O4 0.000000 0.270262 0.000000
O O5 0.135573 0.273520 0.097629
O O6 0.000000 0.373968 0.500000
O O7 0.118817 0.401801 0.013317
O O8 0.162334 0.110411 0.460153
O O9 0.231114 0.199787 0.119442
O O10 0.390082 0.142548 0.983077
O O11 0.772214 0.911877 0.391458
O O12 0.602918 0.908681 0.531185
O O13 0.782883 0.000000 0.142651
O O14 0.823375 0.863605 0.022029
O O15 0.086092 0.000000 0.734278
O O16 0.000000 0.880210 0.000000
O O17 0.571730 0.000000 0.051821
O O18 0.500000 0.095767 0.000000
O O19 0.803543 0.500000 0.328016
O O20 0.000000 0.571166 0.000000
O O21 0.000000 0.177661 0.500000
#
# Coordination Sequence:
#
# PCOD8062846 Si02
#       8
#     4   4   4   4   4   4   4   4
#     4   9  18  29  49  73 102 135 170 215 258 303
#     4   9  16  30  45  69 107 135 163 204 257 307
#     4  12  20  31  53  72  96 135 174 211 261 309
#     4  10  22  38  52  69 100 135 173 224 267 306
#     4  10  20  31  49  73  93 124 173 217 260 310
#     4  10  21  38  55  71  94 130 180 228 266 308
#     4   8  16  28  46  72 102 141 176 200 239 304
#     4  11  22  34  50  75 106 135 170 212 261 318
#
# _framework density 17.175312000000002
#
# number of rings (size 3 to 8) (size 9 to 14) (size 15 to 20)
#    0.000    2.375    3.750    1.500    3.500    2.000 
#    0.000    1.250    0.000    0.000    0.000    0.000 
#    0.000    4.500    0.000    5.625    0.000    0.000 
#
# Total GULP energy -396440.547047 kJ/mol
# GULP energy per Si atom -12388.767095 kJ/mol
# Density = 1.713622 g / cm^3
# Si number density = 17.175312 Si / 1000 Ang^3
#
#
#
# Elastic Constant Matrix: (Units=GPa)
#
#
# Indices 1 2 3 4 5 6 
#
# 1 72.7367 34.8589 18.6915 0.0000 8.1318 0.0000
# 2 34.8589 107.8507 28.8156 0.0000 3.8921 0.0000
# 3 18.6915 28.8156 43.8196 0.0000 -3.7078 0.0000
# 4 0.0000 0.0000 0.0000 4.5538 0.0000 3.9112
# 5 8.1318 3.8921 -3.7078 0.0000 26.9036 0.0000
# 6 0.0000 0.0000 0.0000 3.9112 0.0000 13.6523
#
#
#
# Elastic Compliance Matrix: (Units=1/GPa)
#
#
# Indices 1 2 3 4 5 6 
#
# 1 0.017693 -0.004101 -0.005315 0.000000 -0.005487 0.000000
# 2 -0.004101 0.012393 -0.006523 0.000000 -0.001452 0.000000
# 3 -0.005315 -0.006523 0.029942 0.000000 0.006677 0.000000
# 4 0.000000 0.000000 0.000000 0.291265 0.000000 -0.083444
# 5 -0.005487 -0.001452 0.006677 0.000000 0.039959 0.000000
# 6 0.000000 0.000000 0.000000 -0.083444 0.000000 0.097153
#
#
# Mechanical properties :
#
#
# Convention : Reuss Voigt Hill
#
# Bulk Modulus (GPa) = 35.52279 43.23765 39.38022
# Shear Modulus (GPa) = 9.43994 18.49134 13.96564
#
# Velocity S-wave (km/s) = 2.34695 3.28475 2.85462
# Velocity P-wave (km/s) = 5.29826 6.29405 5.81750
#
# Compressibility (1/GPa) = 0.02815094
#
# Stress axis : x y z
#
# Youngs Moduli (GPa) = 56.52103 80.69260 33.39747
#
# Poissons Ratio (x) = 0.33088 0.17750
# Poissons Ratio (y) = 0.23176 0.21786
# Poissons Ratio (z) = 0.30039 0.52637
#
# Static dielectric constant tensor:
#      x y z
#    x 3.158230 0.000000 0.149070 
#    y 0.000000 3.513300 0.000000 
#    z 0.149070 0.000000 3.009820 
# 
# 
# High freq. dielectric constant tensor:
#      x y z
#    x 1.653130 0.000000 0.022010 
#    y 0.000000 1.655020 0.000000 
#    z 0.022010 0.000000 1.631390 
# 
# From -- ./inp_files/35431.got.cif
#   From: 2010.06.25/outbox.cif.g09.slc.cpg/sg10_18_cif.got.tgz:35431.got - 2010.06.27 22:07:45.
