data_PCOD8062780
_publ_section_title
;
Structure prediction by ZEFSAII (Michael W. Deem and Ramdas Pophale) SiO2 
 PCOD8062780
Probable space group: P 2/M
;
_chemical_formula_sum "Si O2"
_cell_formula_units_Z 24
_cell_length_a 8.856370
_cell_length_b 20.328335
_cell_length_c 9.264551
_cell_angle_alpha 90.000000
_cell_angle_beta 130.258545
_cell_angle_gamma 90.000000
_cell_volume 1272.869662
_symmetry_space_group_name_H-M "P 2/M"
_symmetry_group_IT_number 10
_symmetry_cell_setting 'monoclinic'
loop_
_space_group_symop_operation_xyz
x,y,z
-x,y,-z
-x,-y,-z
x,-y,z
loop_
_atom_site_type_symbol
_atom_site_label
_atom_site_fract_x
_atom_site_fract_y
_atom_site_fract_z
Si Si1 0.783949 0.076450 0.307051
Si Si2 0.689569 0.185495 0.031610
Si Si3 0.010458 0.389129 0.171683
Si Si4 0.060921 0.259384 0.372740
Si Si5 0.694454 0.500000 0.699757
Si Si6 0.699539 0.500000 0.028421
Si Si7 0.434586 0.165232 0.615545
O O1 0.642292 0.102028 0.345590
O O2 0.000000 0.093396 0.500000
O O3 0.750647 0.000000 0.258099
O O4 0.736505 0.113045 0.126913
O O5 0.629667 0.188034 0.825641
O O6 0.500000 0.215932 0.000000
O O7 0.887993 0.226900 0.170903
O O8 0.074319 0.332752 0.321785
O O9 0.193071 0.436465 0.279926
O O10 0.825473 0.431666 0.122571
O O11 0.000000 0.361960 0.000000
O O12 0.000000 0.259529 0.500000
O O13 0.271440 0.222441 0.493315
O O14 0.500000 0.500000 0.500000
O O15 0.629677 0.500000 0.823400
O O16 0.500000 0.500000 0.000000
O O17 0.500000 0.140323 0.500000
#
# Coordination Sequence:
#
# PCOD8062780 Si02
#       7
#     4   4   4   4   2   2   4
#     4  10  19  40  68  87 115 162 209 247 302 363
#     4  10  20  39  61  86 118 159 201 244 304 348
#     4   9  22  39  60  86 120 161 193 245 308 350
#     4  12  22  41  59  88 124 159 204 250 290 367
#     4   9  19  41  62  82 122 153 196 248 294 352
#     4   9  19  41  62  88 118 156 201 245 297 355
#     4  11  24  38  58  91 124 159 199 249 306 361
#
# _framework density 18.855032999999999
#
# number of rings (size 3 to 8) (size 9 to 14) (size 15 to 20)
#    0.000    1.833    5.000    1.000    2.333    6.000 
#    3.000    1.667    0.000    2.000    0.000    0.000 
#    0.000    0.000    0.000    0.000    0.000    0.000 
#
# Total GULP energy -297323.439689 kJ/mol
# GULP energy per Si atom -12388.476654 kJ/mol
# Density = 1.881212 g / cm^3
# Si number density = 18.855033 Si / 1000 Ang^3
#
#
#
# Elastic Constant Matrix: (Units=GPa)
#
#
# Indices 1 2 3 4 5 6 
#
# 1 92.4754 34.7169 46.7185 0.0000 -0.1228 0.0000
# 2 34.7169 78.6487 45.4380 0.0000 -0.9859 0.0000
# 3 46.7185 45.4380 148.7617 0.0000 11.8595 0.0000
# 4 0.0000 0.0000 0.0000 -8.7444 0.0000 -113.2901
# 5 -0.1228 -0.9859 11.8595 0.0000 24.3677 0.0000
# 6 0.0000 0.0000 0.0000 -113.2901 0.0000 -413.9490
#
#
#
# Elastic Compliance Matrix: (Units=1/GPa)
#
#
# Indices 1 2 3 4 5 6 
#
# 1 0.014065 -0.004336 -0.003209 0.000000 0.001457 0.000000
# 2 -0.004336 0.016995 -0.004039 0.000000 0.002632 0.000000
# 3 -0.003209 -0.004039 0.009340 0.000000 -0.004725 0.000000
# 4 0.000000 0.000000 0.000000 0.044922 0.000000 -0.012294
# 5 0.001457 0.002632 -0.004725 0.000000 0.043452 0.000000
# 6 0.000000 0.000000 0.000000 -0.012294 0.000000 0.000949
#
#
# Mechanical properties :
#
#
# Convention : Reuss Voigt Hill
#
# Bulk Modulus (GPa) = 58.03116 63.73699 60.88407
# Shear Modulus (GPa) = 31.51899 -66.79765 -17.63933
#
# Velocity S-wave (km/s) = 4.09302 -5.95851 -3.06195
# Velocity P-wave (km/s) = 7.29256 3.66898 4.45646
#
# Compressibility (1/GPa) = 0.01723212
#
# Stress axis : x y z
#
# Youngs Moduli (GPa) = 71.10071 58.83945 107.06362
#
# Poissons Ratio (x) = 0.25515 0.34353
# Poissons Ratio (y) = 0.30832 0.43244
# Poissons Ratio (z) = 0.22814 0.23766
#
# Static dielectric constant tensor:
#      x y z
#    x 3.590110 0.000000 0.194650 
#    y 0.000000 3.386000 0.000000 
#    z 0.194650 0.000000 3.878820 
# 
# 
# High freq. dielectric constant tensor:
#      x y z
#    x 1.725760 0.000000 0.008310 
#    y 0.000000 1.724450 0.000000 
#    z 0.008310 0.000000 1.751710 
# 
# From -- ./inp_files/20287.got.cif
#   From: 2010.06.25/outbox.cif.g09.slc.cpg/sg10_11_cif.got.tgz:20287.got - 2010.06.27 22:07:45.
