data_PCOD8062378
_publ_section_title
;
Structure prediction by ZEFSAII (Michael W. Deem and Ramdas Pophale) SiO2 
 PCOD8062378
Probable space group: P 2/M
;
_chemical_formula_sum "Si O2"
_cell_formula_units_Z 32
_cell_length_a 9.368252
_cell_length_b 14.122241
_cell_length_c 24.809752
_cell_angle_alpha 90.000000
_cell_angle_beta 29.062309
_cell_angle_gamma 90.000000
_cell_volume 1594.434875
_symmetry_space_group_name_H-M "P 2/M"
_symmetry_group_IT_number 10
_symmetry_cell_setting 'monoclinic'
loop_
_space_group_symop_operation_xyz
x,y,z
-x,y,-z
-x,-y,-z
x,-y,z
loop_
_atom_site_type_symbol
_atom_site_label
_atom_site_fract_x
_atom_site_fract_y
_atom_site_fract_z
Si Si1 0.654181 0.102518 0.619745
Si Si2 0.727768 0.101510 0.051158
Si Si3 0.197144 0.611733 0.203940
Si Si4 0.836189 0.696947 0.996243
Si Si5 0.232842 0.894106 0.299610
Si Si6 0.692028 0.301775 0.571729
Si Si7 0.879366 0.390614 0.200272
Si Si8 0.184341 0.724837 0.583693
O O1 0.580868 0.121914 0.706982
O O2 0.549222 0.194556 0.620614
O O3 0.000000 0.092404 0.500000
O O4 0.512139 0.000000 0.648622
O O5 0.440796 0.123170 0.180641
O O6 0.691538 0.000000 0.031457
O O7 0.768047 0.194116 0.000998
O O8 0.000000 0.089429 0.000000
O O9 0.153887 0.500000 0.226119
O O10 0.084296 0.644302 0.182153
O O11 0.004077 0.664031 0.312505
O O12 0.538210 0.636841 0.097945
O O13 0.044181 0.660088 0.880651
O O14 0.000000 0.691326 0.000000
O O15 0.968304 0.821496 0.383518
O O16 0.099714 0.000000 0.343297
O O17 0.462270 0.373309 0.674260
O O18 0.757055 0.336137 0.489641
O O19 0.000000 0.304875 0.500000
O O20 0.934361 0.500000 0.172071
O O21 0.500000 0.755395 0.500000
#
# Coordination Sequence:
#
# PCOD8062378 Si02
#       8
#     4   4   4   4   4   4   4   4
#     4   9  17  31  55  84 118 160 201 241 297 366
#     4   9  19  34  58  93 128 161 197 243 308 371
#     4  11  25  46  68  87 120 169 211 257 322 389
#     4  11  24  41  70 100 126 154 209 268 312 361
#     4  10  19  35  59  88 126 167 206 251 306 373
#     4  11  23  38  63  91 128 164 208 261 319 366
#     4  11  26  46  64  88 123 169 213 256 320 386
#     4  12  23  40  62  93 126 164 213 259 312 379
#
# _framework density 20.069804999999999
#
# number of rings (size 3 to 8) (size 9 to 14) (size 15 to 20)
#    0.000    1.500    5.000    0.750    5.250    3.250 
#    0.000    0.000    0.000    3.000    0.000    0.000 
#    0.000    0.000    0.000    0.000    0.000    0.000 
#
# Total GULP energy -396572.938917 kJ/mol
# GULP energy per Si atom -12392.904341 kJ/mol
# Density = 2.002413 g / cm^3
# Si number density = 20.069805 Si / 1000 Ang^3
#
#
#
# Elastic Constant Matrix: (Units=GPa)
#
#
# Indices 1 2 3 4 5 6 
#
# 1 86.1793 28.0264 40.4548 0.0000 16.4481 0.0000
# 2 28.0264 83.7542 34.1460 0.0000 19.5675 0.0000
# 3 40.4548 34.1460 108.2980 0.0000 12.9877 0.0000
# 4 0.0000 0.0000 0.0000 7810.9624 0.0000-2388.0549
# 5 16.4481 19.5675 12.9877 0.0000 36.7713 0.0000
# 6 0.0000 0.0000 0.0000-2388.0549 0.0000 763.7516
#
#
#
# Elastic Compliance Matrix: (Units=1/GPa)
#
#
# Indices 1 2 3 4 5 6 
#
# 1 0.015224 -0.002341 -0.004471 0.000000 -0.003985 0.000000
# 2 -0.002341 0.015468 -0.003280 0.000000 -0.006026 0.000000
# 3 -0.004471 -0.003280 0.011997 0.000000 -0.000492 0.000000
# 4 0.000000 0.000000 0.000000 0.002906 0.000000 0.009086
# 5 -0.003985 -0.006026 -0.000492 0.000000 0.032358 0.000000
# 6 0.000000 0.000000 0.000000 0.009086 0.000000 0.029719
#
#
# Mechanical properties :
#
#
# Convention : Reuss Voigt Hill
#
# Bulk Modulus (GPa) = 44.43269 53.72067 49.07668
# Shear Modulus (GPa) = 36.93913 1734.00402 885.47158
#
# Velocity S-wave (km/s) = 4.29480 29.42554 21.02745
# Velocity P-wave (km/s) = 6.83965 34.37016 24.77992
#
# Compressibility (1/GPa) = 0.02250595
#
# Stress axis : x y z
#
# Youngs Moduli (GPa) = 65.68409 64.64987 83.35283
#
# Poissons Ratio (x) = 0.15132 0.37269
# Poissons Ratio (y) = 0.15374 0.27340
# Poissons Ratio (z) = 0.29369 0.21205
#
# Static dielectric constant tensor:
#      x y z
#    x 3.685850 0.000000 0.435150 
#    y 0.000000 4.115340 0.000000 
#    z 0.435150 0.000000 4.154210 
# 
# 
# High freq. dielectric constant tensor:
#      x y z
#    x 1.753090 0.000000 0.012360 
#    y 0.000000 1.794950 0.000000 
#    z 0.012360 0.000000 1.793830 
# 
# From -- ./inp_files/88234.got.cif
#   From: 2010.06.25/outbox.cif.g09.slc.cpg/sg10_45_cif.got.tgz:88234.got - 2010.06.27 22:07:45.
