data_PCOD8062220
_publ_section_title
;
Structure prediction by ZEFSAII (Michael W. Deem and Ramdas Pophale) SiO2 
 PCOD8062220
Probable space group: P 2/M
;
_chemical_formula_sum "Si O2"
_cell_formula_units_Z 32
_cell_length_a 23.957287
_cell_length_b 9.486801
_cell_length_c 15.529638
_cell_angle_alpha 90.000000
_cell_angle_beta 151.657346
_cell_angle_gamma 90.000000
_cell_volume 1675.628864
_symmetry_space_group_name_H-M "P 2/M"
_symmetry_group_IT_number 10
_symmetry_cell_setting 'monoclinic'
loop_
_space_group_symop_operation_xyz
x,y,z
-x,y,-z
-x,-y,-z
x,-y,z
loop_
_atom_site_type_symbol
_atom_site_label
_atom_site_fract_x
_atom_site_fract_y
_atom_site_fract_z
Si Si1 0.768566 0.160727 0.516209
Si Si2 0.871190 0.341475 0.804475
Si Si3 0.408341 0.333077 0.305197
Si Si4 0.490228 0.165831 0.887775
Si Si5 0.829659 0.340901 0.935909
Si Si6 0.638590 0.334154 0.950574
Si Si7 0.911601 0.339656 0.301477
Si Si8 0.997984 0.162913 0.733371
O O1 0.801992 0.250166 0.643485
O O2 0.640941 0.210031 0.314711
O O3 0.858281 0.181773 0.558235
O O4 0.769026 0.000000 0.547255
O O5 0.884236 0.500000 0.785536
O O6 0.795157 0.338917 0.788742
O O7 0.000000 0.279728 0.000000
O O8 0.500000 0.267223 0.500000
O O9 0.416883 0.500000 0.323144
O O10 0.279134 0.282407 0.157059
O O11 0.421884 0.286861 0.223136
O O12 0.580328 0.249463 0.949588
O O13 0.515274 0.000000 0.910555
O O14 0.500000 0.212374 0.000000
O O15 0.862821 0.500000 0.009539
O O16 0.939606 0.238489 0.101178
O O17 0.618345 0.500000 0.937819
O O18 0.777587 0.298106 0.142030
O O19 0.913531 0.500000 0.269616
O O20 0.000000 0.321004 0.500000
O O21 0.961478 0.235949 0.298159
O O22 0.034450 0.000000 0.779732
#
# Coordination Sequence:
#
# PCOD8062220 Si02
#       8
#     4   4   4   4   4   4   4   4
#     4  10  23  40  57  82 118 159 200 244 297 349
#     4  10  20  33  55  86 114 150 197 239 285 347
#     4   9  18  33  56  83 114 152 187 229 288 348
#     4  10  24  45  64  81 114 163 205 246 298 351
#     4  10  19  35  56  80 117 155 190 234 290 348
#     4  10  21  39  63  91 119 148 193 245 292 348
#     4  10  22  40  62  88 118 150 184 236 303 354
#     4  11  22  36  58  87 117 151 196 241 289 348
#
# _framework density 19.097308000000002
#
# number of rings (size 3 to 8) (size 9 to 14) (size 15 to 20)
#    0.000    2.000    2.500    0.375    3.500    2.750 
#    0.000    0.000    0.000    0.750    0.000    0.000 
#    0.000    0.000    0.000    0.000    0.000    0.000 
#
# Total GULP energy -396699.906532 kJ/mol
# GULP energy per Si atom -12396.872079 kJ/mol
# Density = 1.905384 g / cm^3
# Si number density = 19.097308 Si / 1000 Ang^3
#
#
#
# Elastic Constant Matrix: (Units=GPa)
#
#
# Indices 1 2 3 4 5 6 
#
# 1 134.4946 54.3245 63.8568 0.0000 -3.5647 0.0000
# 2 54.3245 74.8243 53.4924 0.0000 0.3075 0.0000
# 3 63.8568 53.4924 135.3844 0.0000 -9.3573 0.0000
# 4 0.0000 0.0000 0.0000 21.2240 0.0000 -2.6164
# 5 -3.5647 0.3075 -9.3573 0.0000 29.0032 0.0000
# 6 0.0000 0.0000 0.0000 -2.6164 0.0000 36.2184
#
#
#
# Elastic Compliance Matrix: (Units=1/GPa)
#
#
# Indices 1 2 3 4 5 6 
#
# 1 0.011293 -0.006160 -0.002856 0.000000 0.000532 0.000000
# 2 -0.006160 0.022184 -0.006064 0.000000 -0.002949 0.000000
# 3 -0.002856 -0.006064 0.011363 0.000000 0.003379 0.000000
# 4 0.000000 0.000000 0.000000 0.047540 0.000000 0.003434
# 5 0.000532 -0.002949 0.003379 0.000000 0.035666 0.000000
# 6 0.000000 0.000000 0.000000 0.003434 0.000000 0.027858
#
#
# Mechanical properties :
#
#
# Convention : Reuss Voigt Hill
#
# Bulk Modulus (GPa) = 68.11435 76.45007 72.28221
# Shear Modulus (GPa) = 26.18395 28.82444 27.50419
#
# Velocity S-wave (km/s) = 3.70683 3.88924 3.79913
# Velocity P-wave (km/s) = 7.35290 7.76447 7.56149
#
# Compressibility (1/GPa) = 0.01468119
#
# Stress axis : x y z
#
# Youngs Moduli (GPa) = 88.54718 45.07816 88.00501
#
# Poissons Ratio (x) = 0.27766 0.25137
# Poissons Ratio (y) = 0.54541 0.53363
# Poissons Ratio (z) = 0.25292 0.27334
#
# Static dielectric constant tensor:
#      x y z
#    x 3.580660 0.000000 -0.017180 
#    y 0.000000 3.316570 0.000000 
#    z -0.017180 0.000000 3.730840 
# 
# 
# High freq. dielectric constant tensor:
#      x y z
#    x 1.753310 0.000000 -0.000290 
#    y 0.000000 1.720480 0.000000 
#    z -0.000290 0.000000 1.747020 
# 
# From -- ./inp_files/71572.got.cif
#   From: 2010.06.25/outbox.cif.g09.slc.cpg/sg10_36_cif.got.tgz:71572.got - 2010.06.27 22:07:45.
