data_PCOD8062645
_publ_section_title
;
Structure prediction by ZEFSAII (Michael W. Deem and Ramdas Pophale) SiO2 
 PCOD8062645
Probable space group: P 2/M
;
_chemical_formula_sum "Si O2"
_cell_formula_units_Z 32
_cell_length_a 20.303133
_cell_length_b 13.883473
_cell_length_c 13.927400
_cell_angle_alpha 90.000000
_cell_angle_beta 22.782551
_cell_angle_gamma 90.000000
_cell_volume 1520.217168
_symmetry_space_group_name_H-M "P 2/M"
_symmetry_group_IT_number 10
_symmetry_cell_setting 'monoclinic'
loop_
_space_group_symop_operation_xyz
x,y,z
-x,y,-z
-x,-y,-z
x,-y,z
loop_
_atom_site_type_symbol
_atom_site_label
_atom_site_fract_x
_atom_site_fract_y
_atom_site_fract_z
Si Si1 0.147122 0.789678 0.741124
Si Si2 0.343038 0.276392 0.161935
Si Si3 0.691832 0.714927 0.005024
Si Si4 0.593424 0.291126 0.471051
Si Si5 0.996874 0.608003 0.353996
Si Si6 0.905079 0.892527 0.725111
Si Si7 0.931934 0.390996 0.961600
Si Si8 0.789818 0.108743 0.544233
O O1 0.311978 0.788428 0.589678
O O2 0.194349 0.846891 0.582778
O O3 0.000000 0.844200 0.000000
O O4 0.071980 0.681841 0.818135
O O5 0.336649 0.170623 0.219411
O O6 0.167478 0.327604 0.416679
O O7 0.500000 0.333394 0.000000
O O8 0.393400 0.271178 0.983498
O O9 0.557161 0.667474 0.259082
O O10 0.855152 0.645254 0.774365
O O11 0.751891 0.821131 0.958022
O O12 0.500000 0.250777 0.500000
O O13 0.736391 0.370281 0.254440
O O14 0.948970 0.500000 0.446950
O O15 0.068300 0.618939 0.151781
O O16 0.000000 0.856341 0.500000
O O17 0.026325 0.891054 0.653726
O O18 0.832989 0.000000 0.803826
O O19 0.980336 0.500000 0.927997
O O20 0.718803 0.000000 0.632090
#
# Coordination Sequence:
#
# PCOD8062645 Si02
#       8
#     4   4   4   4   4   4   4   4
#     4  10  22  41  66  93 130 175 218 262 329 388
#     4  12  25  41  66  96 131 170 214 268 329 390
#     4  12  22  40  66  93 133 172 215 268 325 392
#     4  11  24  40  63  95 130 172 217 272 324 376
#     4  11  23  42  67  93 128 176 220 264 325 392
#     4  10  19  36  66  98 125 165 218 266 319 386
#     4  10  21  42  70  96 130 175 225 270 319 386
#     4  11  22  41  67  98 130 165 216 271 325 390
#
# _framework density 21.049623
#
# number of rings (size 3 to 8) (size 9 to 14) (size 15 to 20)
#    0.000    1.125    5.000    1.125    1.750    4.750 
#    0.000    1.875    0.000    1.500    0.000    0.000 
#    0.000    0.000    0.000    0.000    0.000    0.000 
#
# Total GULP energy -396627.845476 kJ/mol
# GULP energy per Si atom -12394.620171 kJ/mol
# Density = 2.100171 g / cm^3
# Si number density = 21.049623 Si / 1000 Ang^3
#
#
#
# Elastic Constant Matrix: (Units=GPa)
#
#
# Indices 1 2 3 4 5 6 
#
# 1 156.8021 35.9687 40.6740 0.0000 -2.7674 0.0000
# 2 35.9687 91.8034 26.1243 0.0000 6.0086 0.0000
# 3 40.6740 26.1243 100.3100 0.0000 -2.8134 0.0000
# 4 0.0000 0.0000 0.0000 8.8282 0.0000 6.6308
# 5 -2.7674 6.0086 -2.8134 0.0000 40.2547 0.0000
# 6 0.0000 0.0000 0.0000 6.6308 0.0000 15.9050
#
#
#
# Elastic Compliance Matrix: (Units=1/GPa)
#
#
# Indices 1 2 3 4 5 6 
#
# 1 0.007553 -0.002310 -0.002442 0.000000 0.000693 0.000000
# 2 -0.002310 0.012630 -0.002415 0.000000 -0.002213 0.000000
# 3 -0.002442 -0.002415 0.011616 0.000000 0.001004 0.000000
# 4 0.000000 0.000000 0.000000 0.164914 0.000000 -0.068753
# 5 0.000693 -0.002213 0.001004 0.000000 0.025290 0.000000
# 6 0.000000 0.000000 0.000000 -0.068753 0.000000 0.091536
#
#
# Mechanical properties :
#
#
# Convention : Reuss Voigt Hill
#
# Bulk Modulus (GPa) = 57.25196 61.60549 59.42872
# Shear Modulus (GPa) = 14.98379 29.40747 22.19563
#
# Velocity S-wave (km/s) = 2.67091 3.74177 3.25074
# Velocity P-wave (km/s) = 6.06377 6.92807 6.51028
#
# Compressibility (1/GPa) = 0.01746665
#
# Stress axis : x y z
#
# Youngs Moduli (GPa) = 132.39973 79.17768 86.08703
#
# Poissons Ratio (x) = 0.18289 0.21019
# Poissons Ratio (y) = 0.30582 0.20788
# Poissons Ratio (z) = 0.32326 0.19119
#
# Static dielectric constant tensor:
#      x y z
#    x 4.161370 0.000000 0.038890 
#    y 0.000000 3.762340 0.000000 
#    z 0.038890 0.000000 3.837420 
# 
# 
# High freq. dielectric constant tensor:
#      x y z
#    x 1.851460 0.000000 0.003130 
#    y 0.000000 1.795700 0.000000 
#    z 0.003130 0.000000 1.822490 
# 
# From -- ./inp_files/70742.got.cif
#   From: 2010.06.25/outbox.cif.g09.slc.cpg/sg10_36_cif.got.tgz:70742.got - 2010.06.27 22:07:45.
