data_PCOD8062086
_publ_section_title
;
Structure prediction by ZEFSAII (Michael W. Deem and Ramdas Pophale) SiO2 
 PCOD8062086
Probable space group: P 2/M
;
_chemical_formula_sum "Si O2"
_cell_formula_units_Z 30
_cell_length_a 8.570694
_cell_length_b 14.246790
_cell_length_c 13.092848
_cell_angle_alpha 90.000000
_cell_angle_beta 78.768847
_cell_angle_gamma 90.000000
_cell_volume 1568.084528
_symmetry_space_group_name_H-M "P 2/M"
_symmetry_group_IT_number 10
_symmetry_cell_setting 'monoclinic'
loop_
_space_group_symop_operation_xyz
x,y,z
-x,y,-z
-x,-y,-z
x,-y,z
loop_
_atom_site_type_symbol
_atom_site_label
_atom_site_fract_x
_atom_site_fract_y
_atom_site_fract_z
Si Si1 0.218314 0.104934 0.294884
Si Si2 0.568337 0.603499 0.099373
Si Si3 0.425646 0.105799 0.708432
Si Si4 0.500000 0.224580 0.500000
Si Si5 0.821786 0.276038 0.563223
Si Si6 0.243102 0.395401 0.233410
Si Si7 0.773757 0.775359 0.110730
Si Si8 0.132724 0.224921 0.119721
O O1 0.406885 0.106273 0.255470
O O2 0.169337 0.170067 0.395682
O O3 0.145441 0.142482 0.199828
O O4 0.154496 0.000000 0.324753
O O5 0.645370 0.500000 0.073318
O O6 0.432480 0.597435 0.202200
O O7 0.694262 0.674004 0.130867
O O8 0.500000 0.640230 0.000000
O O9 0.438343 0.161755 0.601274
O O10 0.303455 0.149655 0.804031
O O11 0.370026 0.000000 0.689785
O O12 0.662626 0.283246 0.509962
O O13 0.800033 0.353809 0.651993
O O14 0.000000 0.297513 0.500000
O O15 0.167525 0.500000 0.230799
O O16 0.189760 0.326600 0.149838
O O17 0.951112 0.759269 0.120831
O O18 0.768735 0.808209 0.992867
#
# Coordination Sequence:
#
# PCOD8062086 Si02
#       8
#     4   4   4   2   4   4   4   4
#     4   9  20  39  58  83 116 149 194 243 286 349
#     4  10  19  34  59  84 107 146 191 234 284 340
#     4  10  22  38  60  86 114 154 198 241 294 340
#     4  10  21  40  63  86 122 152 197 260 285 350
#     4  10  22  39  63  90 116 156 199 238 307 352
#     4  10  21  40  61  85 118 149 190 242 290 352
#     4  11  22  35  56  85 120 152 193 239 288 346
#     4  10  22  36  54  85 120 156 187 234 292 350
#
# _framework density 19.131623000000001
#
# number of rings (size 3 to 8) (size 9 to 14) (size 15 to 20)
#    0.000    2.000    1.333    2.600    3.733    2.667 
#    0.000    4.333    0.000    0.000    0.000    0.000 
#    0.000    0.000    0.000    0.000    0.000    0.000 
#
# Total GULP energy -371758.319224 kJ/mol
# GULP energy per Si atom -12391.943974 kJ/mol
# Density = 1.908808 g / cm^3
# Si number density = 19.131623 Si / 1000 Ang^3
#
#
#
# Elastic Constant Matrix: (Units=GPa)
#
#
# Indices 1 2 3 4 5 6 
#
# 1 80.0008 19.1833 46.9707 0.0000 -5.3994 0.0000
# 2 19.1833 73.5552 32.5872 0.0000 -4.0543 0.0000
# 3 46.9707 32.5872 111.9977 0.0000 -9.3895 0.0000
# 4 0.0000 0.0000 0.0000 20.1862 0.0000 -0.2679
# 5 -5.3994 -4.0543 -9.3895 0.0000 30.7612 0.0000
# 6 0.0000 0.0000 0.0000 -0.2679 0.0000 8.0359
#
#
#
# Elastic Compliance Matrix: (Units=1/GPa)
#
#
# Indices 1 2 3 4 5 6 
#
# 1 0.016732 -0.001425 -0.006539 0.000000 0.000753 0.000000
# 2 -0.001425 0.015743 -0.003931 0.000000 0.000625 0.000000
# 3 -0.006539 -0.003931 0.013008 0.000000 0.002305 0.000000
# 4 0.000000 0.000000 0.000000 0.049561 0.000000 0.001652
# 5 0.000753 0.000625 0.002305 0.000000 0.033426 0.000000
# 6 0.000000 0.000000 0.000000 0.001652 0.000000 0.124497
#
#
# Mechanical properties :
#
#
# Convention : Reuss Voigt Hill
#
# Bulk Modulus (GPa) = 46.09818 51.44845 48.77332
# Shear Modulus (GPa) = 17.60638 22.91749 20.26194
#
# Velocity S-wave (km/s) = 3.03690 3.46480 3.25788
# Velocity P-wave (km/s) = 6.03693 6.55414 6.30084
#
# Compressibility (1/GPa) = 0.02169283
#
# Stress axis : x y z
#
# Youngs Moduli (GPa) = 59.76610 63.52162 76.87468
#
# Poissons Ratio (x) = 0.09052 0.50272
# Poissons Ratio (y) = 0.08517 0.30216
# Poissons Ratio (z) = 0.39084 0.24967
#
# Static dielectric constant tensor:
#      x y z
#    x 3.551340 0.000000 -0.001140 
#    y 0.000000 3.583590 0.000000 
#    z -0.001140 0.000000 3.568020 
# 
# 
# High freq. dielectric constant tensor:
#      x y z
#    x 1.741150 0.000000 -0.005090 
#    y 0.000000 1.739430 0.000000 
#    z -0.005090 0.000000 1.748590 
# 
# From -- ./inp_files/25285.got.cif
#   From: 2010.06.25/outbox.cif.g09.slc.cpg/sg10_13_cif.got.tgz:25285.got - 2010.06.27 22:07:45.
