data_PCOD8062116
_publ_section_title
;
Structure prediction by ZEFSAII (Michael W. Deem and Ramdas Pophale) SiO2 
 PCOD8062116
Probable space group: P 2/M
;
_chemical_formula_sum "Si O2"
_cell_formula_units_Z 32
_cell_length_a 18.476192
_cell_length_b 13.588957
_cell_length_c 12.265795
_cell_angle_alpha 90.000000
_cell_angle_beta 29.385006
_cell_angle_gamma 90.000000
_cell_volume 1511.084961
_symmetry_space_group_name_H-M "P 2/M"
_symmetry_group_IT_number 10
_symmetry_cell_setting 'monoclinic'
loop_
_space_group_symop_operation_xyz
x,y,z
-x,y,-z
-x,-y,-z
x,-y,z
loop_
_atom_site_type_symbol
_atom_site_label
_atom_site_fract_x
_atom_site_fract_y
_atom_site_fract_z
Si Si1 0.643080 0.800049 0.999181
Si Si2 0.092837 0.806815 0.196017
Si Si3 0.950373 0.393151 0.380499
Si Si4 0.361819 0.388817 0.105714
Si Si5 0.134555 0.609961 0.750584
Si Si6 0.685744 0.199601 0.508205
Si Si7 0.130715 0.886282 0.909967
Si Si8 0.216172 0.113590 0.395729
O O1 0.764868 0.840980 0.922818
O O2 0.641616 0.681380 0.994643
O O3 0.670952 0.843865 0.841896
O O4 0.483808 0.828456 0.252342
O O5 0.062550 0.692596 0.268006
O O6 0.953268 0.871055 0.419022
O O7 0.124581 0.820004 0.026213
O O8 0.002472 0.500000 0.359856
O O9 0.785740 0.367830 0.633960
O O10 0.944179 0.398970 0.260648
O O11 0.375770 0.500000 0.045371
O O12 0.500000 0.360361 0.000000
O O13 0.190114 0.500000 0.713668
O O14 0.272775 0.685767 0.569987
O O15 0.000000 0.650101 0.000000
O O16 0.723449 0.135943 0.351408
O O17 0.773150 0.167970 0.502131
O O18 0.122844 0.000000 0.956033
O O19 0.000000 0.856595 0.000000
O O20 0.252711 0.000000 0.364189
#
# Coordination Sequence:
#
# PCOD8062116 Si02
#       8
#     4   4   4   4   4   4   4   4
#     4  12  27  40  61  97 140 172 202 261 339 391
#     4  12  24  43  64  94 132 168 214 267 324 389
#     4  10  19  34  59  88 122 164 208 253 304 368
#     4  10  20  37  63  94 130 174 219 260 309 379
#     4  10  19  34  62  97 126 160 210 265 314 370
#     4  12  23  42  68  97 128 166 216 272 320 384
#     4  11  23  43  71  94 116 162 225 277 318 377
#     4  12  25  44  68  91 123 171 223 269 322 390
#
# _framework density 21.176836999999999
#
# number of rings (size 3 to 8) (size 9 to 14) (size 15 to 20)
#    0.000    0.875    3.750    4.125    0.000    5.500 
#    0.000    1.875    0.000    0.000    0.000    5.250 
#    0.000    0.000    0.000    0.000    0.000    0.000 
#
# Total GULP energy -396766.514269 kJ/mol
# GULP energy per Si atom -12398.953571 kJ/mol
# Density = 2.112864 g / cm^3
# Si number density = 21.176837 Si / 1000 Ang^3
#
#
#
# Elastic Constant Matrix: (Units=GPa)
#
#
# Indices 1 2 3 4 5 6 
#
# 1 58.5271 23.1001 27.8804 0.0000 -5.1230 0.0000
# 2 23.1001 106.7864 34.1568 0.0000 -0.5565 0.0000
# 3 27.8804 34.1568 132.5876 0.0000 2.3342 0.0000
# 4 0.0000 0.0000 0.0000 34.3708 0.0000 5.3009
# 5 -5.1230 -0.5565 2.3342 0.0000 31.6573 0.0000
# 6 0.0000 0.0000 0.0000 5.3009 0.0000 14.1211
#
#
#
# Elastic Compliance Matrix: (Units=1/GPa)
#
#
# Indices 1 2 3 4 5 6 
#
# 1 0.020347 -0.003264 -0.003499 0.000000 0.003493 0.000000
# 2 -0.003264 0.010733 -0.002075 0.000000 -0.000186 0.000000
# 3 -0.003499 -0.002075 0.008835 0.000000 -0.001254 0.000000
# 4 0.000000 0.000000 0.000000 0.030882 0.000000 -0.011593
# 5 0.003493 -0.000186 -0.001254 0.000000 0.032243 0.000000
# 6 0.000000 0.000000 0.000000 -0.011593 0.000000 0.075168
#
#
# Mechanical properties :
#
#
# Convention : Reuss Voigt Hill
#
# Bulk Modulus (GPa) = 44.96835 52.01953 48.49394
# Shear Modulus (GPa) = 24.59443 30.21410 27.40426
#
# Velocity S-wave (km/s) = 3.41160 3.78133 3.60122
# Velocity P-wave (km/s) = 6.06626 6.60926 6.34357
#
# Compressibility (1/GPa) = 0.02223786
#
# Stress axis : x y z
#
# Youngs Moduli (GPa) = 49.14711 93.16655 113.18934
#
# Poissons Ratio (x) = 0.30410 0.39607
# Poissons Ratio (y) = 0.16042 0.23492
# Poissons Ratio (z) = 0.17198 0.19337
#
# Static dielectric constant tensor:
#      x y z
#    x 3.474010 0.000000 0.137990 
#    y 0.000000 4.156420 0.000000 
#    z 0.137990 0.000000 3.971940 
# 
# 
# High freq. dielectric constant tensor:
#      x y z
#    x 1.797260 0.000000 0.013830 
#    y 0.000000 1.844580 0.000000 
#    z 0.013830 0.000000 1.838330 
# 
# From -- ./inp_files/53992.got.cif
#   From: 2010.06.25/outbox.cif.g09.slc.cpg/sg10_27_cif.got.tgz:53992.got - 2010.06.27 22:07:45.
