data_PCOD8062926
_publ_section_title
;
Structure prediction by ZEFSAII (Michael W. Deem and Ramdas Pophale) SiO2 
 PCOD8062926
Probable space group: P 2/M
;
_chemical_formula_sum "Si O2"
_cell_formula_units_Z 20
_cell_length_a 5.131969
_cell_length_b 16.453791
_cell_length_c 12.557140
_cell_angle_alpha 90.000000
_cell_angle_beta 82.664202
_cell_angle_gamma 90.000000
_cell_volume 1051.650295
_symmetry_space_group_name_H-M "P 2/M"
_symmetry_group_IT_number 10
_symmetry_cell_setting 'monoclinic'
loop_
_space_group_symop_operation_xyz
x,y,z
-x,y,-z
-x,-y,-z
x,-y,z
loop_
_atom_site_type_symbol
_atom_site_label
_atom_site_fract_x
_atom_site_fract_y
_atom_site_fract_z
Si Si1 0.543696 0.189022 0.872395
Si Si2 0.044221 0.089805 0.873575
Si Si3 0.960843 0.595291 0.380012
Si Si4 0.484475 0.649863 0.736783
Si Si5 0.266231 0.591208 0.950753
O O1 0.829121 0.150774 0.835573
O O2 0.509403 0.265935 0.797571
O O3 0.333645 0.124489 0.839796
O O4 0.500000 0.209560 0.000000
O O5 0.023214 0.000000 0.821839
O O6 0.000000 0.080796 0.000000
O O7 0.895325 0.500000 0.371074
O O8 0.709927 0.649439 0.355075
O O9 0.000000 0.619500 0.500000
O O10 0.227016 0.616338 0.302963
O O11 0.323256 0.589171 0.822832
O O12 0.244268 0.500000 0.997695
O O13 0.500000 0.637751 0.000000
O O14 0.000000 0.638204 0.000000
#
# Coordination Sequence:
#
# PCOD8062926 Si02
#       5
#     4   4   4   4   4
#     4  10  20  32  50  80 114 145 175 210 257 314
#     4   9  17  31  50  73 108 151 184 208 241 297
#     4  11  24  41  59  77  99 135 186 238 283 324
#     4  12  22  36  56  78 108 138 174 224 280 320
#     4  10  20  32  47  70 101 138 174 202 240 307
#
# _framework density 19.017728000000002
#
# number of rings (size 3 to 8) (size 9 to 14) (size 15 to 20)
#    0.000    1.600    0.000    6.000    0.000    8.000 
#    0.000    0.000    0.000    0.000    0.000    0.000 
#    0.000   56.000    0.000    0.000    0.000    0.000 
#
# Total GULP energy -247870.618583 kJ/mol
# GULP energy per Si atom -12393.530929 kJ/mol
# Density = 1.897444 g / cm^3
# Si number density = 19.017728 Si / 1000 Ang^3
#
#
#
# Elastic Constant Matrix: (Units=GPa)
#
#
# Indices 1 2 3 4 5 6 
#
# 1 136.9530 37.6187 24.6855 0.0000 17.2553 0.0000
# 2 37.6187 96.0653 36.7255 0.0000 17.4888 0.0000
# 3 24.6855 36.7255 65.5534 0.0000 12.7941 0.0000
# 4 0.0000 0.0000 0.0000 -16.7619 0.0000 38.3450
# 5 17.2553 17.4888 12.7941 0.0000 35.3873 0.0000
# 6 0.0000 0.0000 0.0000 38.3450 0.0000 -6.0319
#
#
#
# Elastic Compliance Matrix: (Units=1/GPa)
#
#
# Indices 1 2 3 4 5 6 
#
# 1 0.008512 -0.002343 -0.001408 0.000000 -0.002484 0.000000
# 2 -0.002343 0.014485 -0.006519 0.000000 -0.003660 0.000000
# 3 -0.001408 -0.006519 0.020092 0.000000 -0.003356 0.000000
# 4 0.000000 0.000000 0.000000 0.004405 0.000000 0.028005
# 5 -0.002484 -0.003660 -0.003356 0.000000 0.032492 0.000000
# 6 0.000000 0.000000 0.000000 0.028005 0.000000 0.012242
#
#
# Mechanical properties :
#
#
# Convention : Reuss Voigt Hill
#
# Bulk Modulus (GPa) = 44.34582 55.18125 49.76353
# Shear Modulus (GPa) = 41.56814 15.82149 28.69481
#
# Velocity S-wave (km/s) = 4.68028 2.88746 3.88860
# Velocity P-wave (km/s) = 7.25089 6.33997 6.81068
#
# Compressibility (1/GPa) = 0.02255004
#
# Stress axis : x y z
#
# Youngs Moduli (GPa) = 117.48063 69.03521 49.77096
#
# Poissons Ratio (x) = 0.16174 0.07008
# Poissons Ratio (y) = 0.27523 0.32445
# Poissons Ratio (z) = 0.16543 0.45002
#
# Static dielectric constant tensor:
#      x y z
#    x 6.499950 0.000000 0.401610 
#    y 0.000000 3.433720 0.000000 
#    z 0.401610 0.000000 3.355550 
# 
# 
# High freq. dielectric constant tensor:
#      x y z
#    x 1.768600 0.000000 0.009950 
#    y 0.000000 1.726490 0.000000 
#    z 0.009950 0.000000 1.698240 
# 
# From -- ./inp_files/6718.got.cif
#   From: 2010.06.25/outbox.cif.g09.slc.cpg/sg10_4_cif.got.tgz:6718.got - 2010.06.27 22:07:45.
