data_PCOD8062682
_publ_section_title
;
Structure prediction by ZEFSAII (Michael W. Deem and Ramdas Pophale) SiO2 
 PCOD8062682
Probable space group: P 2/M
;
_chemical_formula_sum "Si O2"
_cell_formula_units_Z 32
_cell_length_a 14.460147
_cell_length_b 8.839728
_cell_length_c 12.463937
_cell_angle_alpha 90.000000
_cell_angle_beta 88.909582
_cell_angle_gamma 90.000000
_cell_volume 1592.898858
_symmetry_space_group_name_H-M "P 2/M"
_symmetry_group_IT_number 10
_symmetry_cell_setting 'monoclinic'
loop_
_space_group_symop_operation_xyz
x,y,z
-x,y,-z
-x,-y,-z
x,-y,z
loop_
_atom_site_type_symbol
_atom_site_label
_atom_site_fract_x
_atom_site_fract_y
_atom_site_fract_z
Si Si1 0.033115 0.828160 0.613649
Si Si2 0.210139 0.679000 0.896055
Si Si3 0.469198 0.325385 0.386175
Si Si4 0.229650 0.828649 0.529555
Si Si5 0.994291 0.323467 0.172399
Si Si6 0.270425 0.320600 0.319192
Si Si7 0.178868 0.821076 0.112572
Si Si8 0.660322 0.673835 0.298104
O O1 0.143610 0.819805 0.612546
O O2 0.000000 0.768364 0.500000
O O3 0.990932 0.718237 0.703571
O O4 0.997754 0.000000 0.634963
O O5 0.216199 0.500000 0.914025
O O6 0.287369 0.735038 0.808758
O O7 0.107865 0.728325 0.859919
O O8 0.233249 0.764508 0.005888
O O9 0.500000 0.251384 0.500000
O O10 0.448059 0.500000 0.409871
O O11 0.374526 0.257012 0.339643
O O12 0.549244 0.305916 0.293550
O O13 0.209666 0.731993 0.422598
O O14 0.314425 0.761794 0.594139
O O15 0.250579 0.000000 0.494399
O O16 0.009817 0.500000 0.153966
O O17 0.073065 0.237546 0.103557
O O18 0.265426 0.500000 0.304770
O O19 0.230709 0.245433 0.213799
O O20 0.179430 0.000000 0.118922
O O21 0.689157 0.500000 0.314468
#
# Coordination Sequence:
#
# PCOD8062682 Si02
#       8
#     4   4   4   4   4   4   4   4
#     4  10  21  35  51  77 119 163 197 236 289 350
#     4  10  22  40  63  89 118 154 203 252 292 344
#     4   9  17  33  62  94 120 150 195 244 295 353
#     4  11  21  33  54  86 124 159 193 237 294 354
#     4  11  22  38  62  90 116 150 201 252 292 344
#     4  11  22  39  63  88 119 157 200 250 297 350
#     4  12  26  42  60  84 119 160 200 245 302 360
#     4  10  19  37  62  89 119 153 195 244 293 346
#
# _framework density 20.089161000000001
#
# number of rings (size 3 to 8) (size 9 to 14) (size 15 to 20)
#    0.000    1.500    2.500    3.375    0.000    4.750 
#    0.000    2.500    0.000    3.750    0.000    0.000 
#    0.000    0.000    0.000    0.000    0.000    0.000 
#
# Total GULP energy -396804.206367 kJ/mol
# GULP energy per Si atom -12400.131449 kJ/mol
# Density = 2.004344 g / cm^3
# Si number density = 20.089161 Si / 1000 Ang^3
#
#
#
# Elastic Constant Matrix: (Units=GPa)
#
#
# Indices 1 2 3 4 5 6 
#
# 1 74.1452 24.7594 29.2118 0.0000 -11.3877 0.0000
# 2 24.7594 78.0163 38.1611 0.0000 -3.9576 0.0000
# 3 29.2118 38.1611 119.8443 0.0000 -14.5886 0.0000
# 4 0.0000 0.0000 0.0000 21.1976 0.0000 -0.7980
# 5 -11.3877 -3.9576 -14.5886 0.0000 25.0222 0.0000
# 6 0.0000 0.0000 0.0000 -0.7980 0.0000 17.1348
#
#
#
# Elastic Compliance Matrix: (Units=1/GPa)
#
#
# Indices 1 2 3 4 5 6 
#
# 1 0.016489 -0.003929 -0.002078 0.000000 0.005671 0.000000
# 2 -0.003929 0.016123 -0.004396 0.000000 -0.001801 0.000000
# 3 -0.002078 -0.004396 0.010818 0.000000 0.004667 0.000000
# 4 0.000000 0.000000 0.000000 0.047258 0.000000 0.002201
# 5 0.005671 -0.001801 0.004667 0.000000 0.044982 0.000000
# 6 0.000000 0.000000 0.000000 0.002201 0.000000 0.058463
#
#
# Mechanical properties :
#
#
# Convention : Reuss Voigt Hill
#
# Bulk Modulus (GPa) = 44.19679 50.69671 47.44675
# Shear Modulus (GPa) = 22.47398 24.66248 23.56823
#
# Velocity S-wave (km/s) = 3.34834 3.50759 3.42889
# Velocity P-wave (km/s) = 6.08248 6.45716 6.27262
#
# Compressibility (1/GPa) = 0.02262608
#
# Stress axis : x y z
#
# Youngs Moduli (GPa) = 60.64788 62.02153 92.43600
#
# Poissons Ratio (x) = 0.24368 0.19205
# Poissons Ratio (y) = 0.23828 0.40631
# Poissons Ratio (z) = 0.12601 0.27262
#
# Static dielectric constant tensor:
#      x y z
#    x 3.770870 0.000000 -0.082410 
#    y 0.000000 3.458630 0.000000 
#    z -0.082410 0.000000 3.633260 
# 
# 
# High freq. dielectric constant tensor:
#      x y z
#    x 1.783440 0.000000 -0.008540 
#    y 0.000000 1.767080 0.000000 
#    z -0.008540 0.000000 1.783210 
# 
# From -- ./inp_files/49948.got.cif
#   From: 2010.06.25/outbox.cif.g09.slc.cpg/sg10_25_cif.got.tgz:49948.got - 2010.06.27 22:07:45.
