data_PCOD8062110
_publ_section_title
;
Structure prediction by ZEFSAII (Michael W. Deem and Ramdas Pophale) SiO2 
 PCOD8062110
Probable space group: P 2/M
;
_chemical_formula_sum "Si O2"
_cell_formula_units_Z 28
_cell_length_a 14.578883
_cell_length_b 8.845925
_cell_length_c 12.685912
_cell_angle_alpha 90.000000
_cell_angle_beta 60.447394
_cell_angle_gamma 90.000000
_cell_volume 1423.180984
_symmetry_space_group_name_H-M "P 2/M"
_symmetry_group_IT_number 10
_symmetry_cell_setting 'monoclinic'
loop_
_space_group_symop_operation_xyz
x,y,z
-x,y,-z
-x,-y,-z
x,-y,z
loop_
_atom_site_type_symbol
_atom_site_label
_atom_site_fract_x
_atom_site_fract_y
_atom_site_fract_z
Si Si1 0.286454 0.680320 0.966747
Si Si2 0.281424 0.679242 0.203827
Si Si3 0.189754 0.177770 0.641630
Si Si4 0.116955 0.675827 0.892705
Si Si5 0.884126 0.678939 0.531432
Si Si6 0.481726 0.320759 0.213398
Si Si7 0.598764 0.671497 0.519186
O O1 0.289064 0.500000 0.965991
O O2 0.200105 0.738465 0.932166
O O3 0.401937 0.746853 0.872438
O O4 0.256273 0.740526 0.100789
O O5 0.272724 0.500000 0.210007
O O6 0.197524 0.744292 0.335353
O O7 0.400644 0.728123 0.167355
O O8 0.127399 0.232771 0.779336
O O9 0.137989 0.249970 0.568551
O O10 0.311051 0.226976 0.583358
O O11 0.181182 0.000000 0.638298
O O12 0.138688 0.500000 0.857586
O O13 0.000000 0.703629 0.000000
O O14 0.873364 0.500000 0.526872
O O15 0.000000 0.728719 0.500000
O O16 0.491841 0.500000 0.215034
O O17 0.434737 0.259007 0.349612
O O18 0.500000 0.675316 0.500000
O O19 0.641360 0.500000 0.508196
#
# Coordination Sequence:
#
# PCOD8062110 Si02
#       7
#     4   4   4   4   4   4   4
#     4   9  17  29  50  84 117 144 180 234 300 349
#     4   9  16  28  50  83 115 142 178 232 296 350
#     4  12  25  40  59  84 122 161 196 240 295 368
#     4  10  22  39  61  85 112 148 198 251 293 344
#     4  10  21  37  62  89 115 148 197 255 300 346
#     4   9  15  26  47  80 117 145 174 228 293 350
#     4  10  19  34  59  87 117 154 200 250 296 344
#
# _framework density 19.674237999999999
#
# number of rings (size 3 to 8) (size 9 to 14) (size 15 to 20)
#    0.000    2.143    1.429    2.571    2.000    4.857 
#    0.000    0.000    0.000    0.000    0.000    1.000 
#    0.000    0.000    0.000    0.000    0.000    0.000 
#
# Total GULP energy -347193.182977 kJ/mol
# GULP energy per Si atom -12399.756535 kJ/mol
# Density = 1.962946 g / cm^3
# Si number density = 19.674238 Si / 1000 Ang^3
#
#
#
# Elastic Constant Matrix: (Units=GPa)
#
#
# Indices 1 2 3 4 5 6 
#
# 1 128.1741 21.8389 59.8298 0.0000 -9.9789 0.0000
# 2 21.8389 13.1274 13.4332 0.0000 0.5500 0.0000
# 3 59.8298 13.4332 127.2861 0.0000 7.7456 0.0000
# 4 0.0000 0.0000 0.0000 6.1288 0.0000 -0.1309
# 5 -9.9789 0.5500 7.7456 0.0000 33.1567 0.0000
# 6 0.0000 0.0000 0.0000 -0.1309 0.0000 6.2063
#
#
#
# Elastic Compliance Matrix: (Units=1/GPa)
#
#
# Indices 1 2 3 4 5 6 
#
# 1 0.013498 -0.017771 -0.004803 0.000000 0.005479 0.000000
# 2 -0.017771 0.108811 -0.002734 0.000000 -0.006515 0.000000
# 3 -0.004803 -0.002734 0.010639 0.000000 -0.003885 0.000000
# 4 0.000000 0.000000 0.000000 0.163236 0.000000 0.003443
# 5 0.005479 -0.006515 -0.003885 0.000000 0.032824 0.000000
# 6 0.000000 0.000000 0.000000 0.003443 0.000000 0.161199
#
#
# Mechanical properties :
#
#
# Convention : Reuss Voigt Hill
#
# Bulk Modulus (GPa) = 12.14578 50.97682 31.56130
# Shear Modulus (GPa) = 8.79868 20.66409 14.73139
#
# Velocity S-wave (km/s) = 2.11705 3.24437 2.73933
# Velocity P-wave (km/s) = 3.48751 6.32465 5.10705
#
# Compressibility (1/GPa) = 0.08233310
#
# Stress axis : x y z
#
# Youngs Moduli (GPa) = 74.08431 9.19024 93.99621
#
# Poissons Ratio (x) = 0.16332 0.45143
# Poissons Ratio (y) = 1.31653 0.25699
# Poissons Ratio (z) = 0.35580 0.02513
#
# Static dielectric constant tensor:
#      x y z
#    x 3.770000 0.000000 -0.007230 
#    y 0.000000 3.004240 0.000000 
#    z -0.007230 0.000000 4.053820 
# 
# 
# High freq. dielectric constant tensor:
#      x y z
#    x 1.782670 0.000000 0.002770 
#    y 0.000000 1.697600 0.000000 
#    z 0.002770 0.000000 1.784280 
# 
# From -- ./inp_files/49189.got.cif
#   From: 2010.06.25/outbox.cif.g09.slc.cpg/sg10_25_cif.got.tgz:49189.got - 2010.06.27 22:07:45.
