data_PCOD8062968
_publ_section_title
;
Structure prediction by ZEFSAII (Michael W. Deem and Ramdas Pophale) SiO2 
 PCOD8062968
Probable space group: P 2/M
;
_chemical_formula_sum "Si O2"
_cell_formula_units_Z 32
_cell_length_a 22.786390
_cell_length_b 10.439213
_cell_length_c 12.732754
_cell_angle_alpha 90.000000
_cell_angle_beta 142.726182
_cell_angle_gamma 90.000000
_cell_volume 1834.295541
_symmetry_space_group_name_H-M "P 2/M"
_symmetry_group_IT_number 10
_symmetry_cell_setting 'monoclinic'
loop_
_space_group_symop_operation_xyz
x,y,z
-x,y,-z
-x,-y,-z
x,-y,z
loop_
_atom_site_type_symbol
_atom_site_label
_atom_site_fract_x
_atom_site_fract_y
_atom_site_fract_z
Si Si1 0.491493 0.355671 0.106106
Si Si2 0.307693 0.636965 0.965723
Si Si3 0.728697 0.854929 0.747615
Si Si4 0.152449 0.850322 0.722748
Si Si5 0.556744 0.858143 0.352809
Si Si6 0.012497 0.851649 0.346001
Si Si7 0.580952 0.729568 0.690349
Si Si8 0.946733 0.846918 0.029219
O O1 0.533208 0.500000 0.183528
O O2 0.549928 0.253389 0.257918
O O3 0.500000 0.310029 0.000000
O O4 0.376858 0.352567 0.964107
O O5 0.250301 0.500000 0.880701
O O6 0.243879 0.763144 0.876392
O O7 0.378429 0.629579 0.167637
O O8 0.665417 0.848104 0.552170
O O9 0.675331 0.778617 0.763589
O O10 0.835459 0.797531 0.874635
O O11 0.740846 0.000000 0.804976
O O12 0.084366 0.828683 0.725738
O O13 0.102651 0.798785 0.543622
O O14 0.182035 0.000000 0.755833
O O15 0.477013 0.843256 0.331978
O O16 0.541237 0.000000 0.281417
O O17 0.032360 0.000000 0.361623
O O18 0.001468 0.793149 0.212651
O O19 0.500000 0.662636 0.500000
O O20 0.948871 0.000000 0.031054
O O21 0.000000 0.793574 0.000000
#
# Coordination Sequence:
#
# PCOD8062968 Si02
#       8
#     4   4   4   4   4   4   4   4
#     4   9  19  36  51  62  88 132 169 193 229 287
#     4  10  20  32  48  73  99 121 158 206 242 282
#     4   9  16  27  44  69  98 127 155 187 236 291
#     4   9  17  31  51  73  96 125 161 200 244 293
#     4   9  17  29  47  74 100 118 150 201 245 279
#     4   8  15  29  48  68  94 127 164 198 234 290
#     4   9  17  29  47  69  97 129 157 188 237 295
#     4   9  16  26  41  63  95 132 162 192 235 286
#
# _framework density 17.445391000000001
#
# number of rings (size 3 to 8) (size 9 to 14) (size 15 to 20)
#    0.000    3.000    0.000    1.875    0.000    5.500 
#    2.250    3.125    0.000    0.000    0.000    0.000 
#    0.000    3.500    0.000    0.000    0.000    0.000 
#
# Total GULP energy -396445.045780 kJ/mol
# GULP energy per Si atom -12388.907681 kJ/mol
# Density = 1.740568 g / cm^3
# Si number density = 17.445391 Si / 1000 Ang^3
#
#
#
# Elastic Constant Matrix: (Units=GPa)
#
#
# Indices 1 2 3 4 5 6 
#
# 1 100.8788 24.5028 51.3728 0.0000 -10.8732 0.0000
# 2 24.5028 67.5658 36.1412 0.0000 -3.9622 0.0000
# 3 51.3728 36.1412 93.9540 0.0000 -6.6862 0.0000
# 4 0.0000 0.0000 0.0000 10.3840 0.0000 2.0870
# 5 -10.8732 -3.9622 -6.6862 0.0000 28.4030 0.0000
# 6 0.0000 0.0000 0.0000 2.0870 0.0000 5.9363
#
#
#
# Elastic Compliance Matrix: (Units=1/GPa)
#
#
# Indices 1 2 3 4 5 6 
#
# 1 0.014171 -0.001159 -0.007046 0.000000 0.003605 0.000000
# 2 -0.001159 0.018753 -0.006535 0.000000 0.000634 0.000000
# 3 -0.007046 -0.006535 0.017039 0.000000 0.000402 0.000000
# 4 0.000000 0.000000 0.000000 0.103624 0.000000 -0.036431
# 5 0.003605 0.000634 0.000402 0.000000 0.036770 0.000000
# 6 0.000000 0.000000 0.000000 -0.036431 0.000000 0.181263
#
#
# Mechanical properties :
#
#
# Convention : Reuss Voigt Hill
#
# Bulk Modulus (GPa) = 48.82101 54.04803 51.43452
# Shear Modulus (GPa) = 12.25702 18.97012 15.61357
#
# Velocity S-wave (km/s) = 2.65352 3.30115 2.99490
# Velocity P-wave (km/s) = 6.11834 6.75120 6.44254
#
# Compressibility (1/GPa) = 0.02048298
#
# Stress axis : x y z
#
# Youngs Moduli (GPa) = 70.56547 53.32346 58.68928
#
# Poissons Ratio (x) = 0.06179 0.41355
# Poissons Ratio (y) = 0.08176 0.38355
# Poissons Ratio (z) = 0.49723 0.34848
#
# Static dielectric constant tensor:
#      x y z
#    x 3.548550 0.000000 -0.282140 
#    y 0.000000 2.901180 0.000000 
#    z -0.282140 0.000000 3.485260 
# 
# 
# High freq. dielectric constant tensor:
#      x y z
#    x 1.665380 0.000000 -0.008110 
#    y 0.000000 1.635310 0.000000 
#    z -0.008110 0.000000 1.676540 
# 
# From -- ./inp_files/55713.got.cif
#   From: 2010.06.25/outbox.cif.g09.slc.cpg/sg10_28_cif.got.tgz:55713.got - 2010.06.27 22:07:45.
