data_PCOD8062948
_publ_section_title
;
Structure prediction by ZEFSAII (Michael W. Deem and Ramdas Pophale) SiO2 
 PCOD8062948
Probable space group: P 2/M
;
_chemical_formula_sum "Si O2"
_cell_formula_units_Z 32
_cell_length_a 20.071894
_cell_length_b 18.466216
_cell_length_c 15.358811
_cell_angle_alpha 90.000000
_cell_angle_beta 161.041004
_cell_angle_gamma 90.000000
_cell_volume 1849.533006
_symmetry_space_group_name_H-M "P 2/M"
_symmetry_group_IT_number 10
_symmetry_cell_setting 'monoclinic'
loop_
_space_group_symop_operation_xyz
x,y,z
-x,y,-z
-x,-y,-z
x,-y,z
loop_
_atom_site_type_symbol
_atom_site_label
_atom_site_fract_x
_atom_site_fract_y
_atom_site_fract_z
Si Si1 0.387462 0.324884 0.274952
Si Si2 0.590248 0.225728 0.389042
Si Si3 0.817276 0.316099 0.429673
Si Si4 0.100219 0.078899 0.988462
Si Si5 0.676202 0.078895 0.564434
Si Si6 0.592536 0.683908 0.980152
Si Si7 0.007293 0.774265 0.806098
Si Si8 0.802142 0.585142 0.104258
O O1 0.500000 0.354151 0.500000
O O2 0.548552 0.277633 0.418846
O O3 0.192004 0.277631 0.062325
O O4 0.314241 0.393753 0.128504
O O5 0.538764 0.142983 0.353288
O O6 0.439371 0.247276 0.123116
O O7 0.828037 0.234731 0.656106
O O8 0.622823 0.341726 0.245671
O O9 0.928099 0.247285 0.611860
O O10 0.967825 0.384159 0.611366
O O11 0.749647 0.291443 0.249657
O O12 0.090213 0.142983 0.904738
O O13 0.889564 0.075857 0.779153
O O14 0.138552 0.000000 0.991030
O O15 0.282618 0.095234 0.282617
O O16 0.566330 0.000000 0.418812
O O17 0.680808 0.615858 0.037266
O O18 0.813737 0.500000 0.127500
#
# Coordination Sequence:
#
# PCOD8062948 Si02
#       8
#     4   4   4   4   4   4   4   4
#     4  10  20  32  48  70  91 117 155 186 215 266
#     4   9  17  30  47  66  92 123 153 189 227 263
#     4   9  18  32  50  71  92 117 151 188 226 268
#     4   8  13  22  39  63  89 119 153 186 224 266
#     4   8  13  22  39  63  89 119 153 186 224 266
#     4   9  18  32  50  71  92 117 151 188 226 268
#     4   9  17  30  47  66  92 123 153 189 227 263
#     4  10  21  35  50  70  95 119 144 180 227 274
#
# _framework density 17.301665
#
# number of rings (size 3 to 8) (size 9 to 14) (size 15 to 20)
#    0.000    3.000    0.000    1.875    0.000    3.250 
#    0.000    1.875    0.000    3.000    0.000   12.250 
#    0.000    6.000    0.000    0.500    0.000    0.000 
#
# Total GULP energy -396601.238496 kJ/mol
# GULP energy per Si atom -12393.788703 kJ/mol
# Density = 1.726229 g / cm^3
# Si number density = 17.301665 Si / 1000 Ang^3
#
#
#
# Elastic Constant Matrix: (Units=GPa)
#
#
# Indices 1 2 3 4 5 6 
#
# 1 73.3837 46.6325 52.5502 0.0000 -10.7120 0.0000
# 2 46.6325 148.0937 57.9032 0.0000 -17.0991 0.0000
# 3 52.5502 57.9032 94.2286 0.0000 -20.9655 0.0000
# 4 0.0000 0.0000 0.0000 14.5504 0.0000 -4.7269
# 5 -10.7120 -17.0991 -20.9655 0.0000 29.5385 0.0000
# 6 0.0000 0.0000 0.0000 -4.7269 0.0000 11.4412
#
#
#
# Elastic Compliance Matrix: (Units=1/GPa)
#
#
# Indices 1 2 3 4 5 6 
#
# 1 0.023721 -0.003078 -0.011662 0.000000 -0.001456 0.000000
# 2 -0.003078 0.009344 -0.003646 0.000000 0.001705 0.000000
# 3 -0.011662 -0.003646 0.021312 0.000000 0.008787 0.000000
# 4 0.000000 0.000000 0.000000 0.079381 0.000000 0.032796
# 5 -0.001456 0.001705 0.008787 0.000000 0.040549 0.000000
# 6 0.000000 0.000000 0.000000 0.032796 0.000000 0.100953
#
#
# Mechanical properties :
#
#
# Convention : Reuss Voigt Hill
#
# Bulk Modulus (GPa) = 56.80049 69.98642 63.39345
# Shear Modulus (GPa) = 15.72822 21.68070 18.70446
#
# Velocity S-wave (km/s) = 3.01833 3.54375 3.29154
# Velocity P-wave (km/s) = 6.71177 7.56854 7.15299
#
# Compressibility (1/GPa) = 0.01760548
#
# Stress axis : x y z
#
# Youngs Moduli (GPa) = 42.15615 107.01910 46.92298
#
# Poissons Ratio (x) = 0.32941 0.54720
# Poissons Ratio (y) = 0.12976 0.17108
# Poissons Ratio (z) = 0.49161 0.39019
#
# Static dielectric constant tensor:
#      x y z
#    x 3.284110 0.000000 -0.009660 
#    y 0.000000 3.276820 0.000000 
#    z -0.009660 0.000000 3.290060 
# 
# 
# High freq. dielectric constant tensor:
#      x y z
#    x 1.668600 0.000000 0.010040 
#    y 0.000000 1.651770 0.000000 
#    z 0.010040 0.000000 1.661980 
# 
# From -- ./inp_files/32181.got.cif
#   From: 2010.06.25/outbox.cif.g09.slc.cpg/sg10_17_cif.got.tgz:32181.got - 2010.06.27 22:07:45.
