data_PCOD8062221
_publ_section_title
;
Structure prediction by ZEFSAII (Michael W. Deem and Ramdas Pophale) SiO2 
 PCOD8062221
Probable space group: P 2/M
;
_chemical_formula_sum "Si O2"
_cell_formula_units_Z 30
_cell_length_a 23.586217
_cell_length_b 12.214266
_cell_length_c 8.303906
_cell_angle_alpha 90.000000
_cell_angle_beta 138.492935
_cell_angle_gamma 90.000000
_cell_volume 1585.379293
_symmetry_space_group_name_H-M "P 2/M"
_symmetry_group_IT_number 10
_symmetry_cell_setting 'monoclinic'
loop_
_space_group_symop_operation_xyz
x,y,z
-x,y,-z
-x,-y,-z
x,-y,z
loop_
_atom_site_type_symbol
_atom_site_label
_atom_site_fract_x
_atom_site_fract_y
_atom_site_fract_z
Si Si1 0.592447 0.124860 0.656859
Si Si2 0.710186 0.747278 0.666913
Si Si3 0.600669 0.623860 0.190664
Si Si4 0.688018 0.770202 0.126793
Si Si5 0.000000 0.243616 0.000000
Si Si6 0.819178 0.869776 0.635228
Si Si7 0.032137 0.374907 0.395648
Si Si8 0.780557 0.376951 0.095912
O O1 0.500000 0.177994 0.500000
O O2 0.638787 0.184124 0.608596
O O3 0.581565 0.000000 0.581077
O O4 0.645978 0.132465 0.935611
O O5 0.657632 0.650254 0.468592
O O6 0.765858 0.826119 0.673363
O O7 0.781588 0.693429 0.934588
O O8 0.624803 0.500000 0.186256
O O9 0.622540 0.721150 0.115240
O O10 0.500000 0.631854 0.000000
O O11 0.774462 0.821046 0.382070
O O12 0.705996 0.667360 0.050385
O O13 0.917258 0.167584 0.840628
O O14 0.998816 0.314514 0.832519
O O15 0.816015 0.000000 0.629846
O O16 0.998754 0.500000 0.311288
O O17 0.133734 0.367907 0.618106
O O18 0.000000 0.325058 0.500000
O O19 0.759592 0.500000 0.002180
#
# Coordination Sequence:
#
# PCOD8062221 Si02
#       8
#     4   4   4   4   2   4   4   4
#     4  10  20  35  57  82 109 144 189 237 285 341
#     4  10  21  36  57  82 112 151 189 237 292 348
#     4  10  20  34  53  82 116 148 184 226 278 347
#     4  10  20  36  55  79 110 147 184 230 281 340
#     4  12  22  40  62  86 118 158 202 250 306 360
#     4  11  23  39  58  80 111 153 197 247 292 343
#     4  10  21  37  59  88 120 151 190 243 298 358
#     4  10  19  35  56  81 110 142 182 227 283 348
#
# _framework density 18.922917000000002
#
# number of rings (size 3 to 8) (size 9 to 14) (size 15 to 20)
#    0.000    1.733    1.333    3.600    0.000    0.000 
#    0.000    1.333    0.000   14.400    0.000    0.000 
#    0.000    0.000    0.000    0.000    0.000    0.000 
#
# Total GULP energy -371848.474455 kJ/mol
# GULP energy per Si atom -12394.949148 kJ/mol
# Density = 1.887985 g / cm^3
# Si number density = 18.922917 Si / 1000 Ang^3
#
#
#
# Elastic Constant Matrix: (Units=GPa)
#
#
# Indices 1 2 3 4 5 6 
#
# 1 102.3248 42.1203 41.6975 0.0000 0.2813 0.0000
# 2 42.1203 100.3398 27.6014 0.0000 1.5342 0.0000
# 3 41.6975 27.6014 77.6726 0.0000 -0.2817 0.0000
# 4 0.0000 0.0000 0.0000 27.3039 0.0000 0.2992
# 5 0.2813 1.5342 -0.2817 0.0000 35.4023 0.0000
# 6 0.0000 0.0000 0.0000 0.2992 0.0000 15.2296
#
#
#
# Elastic Compliance Matrix: (Units=1/GPa)
#
#
# Indices 1 2 3 4 5 6 
#
# 1 0.013946 -0.004206 -0.005992 0.000000 0.000024 0.000000
# 2 -0.004206 0.012324 -0.002123 0.000000 -0.000518 0.000000
# 3 -0.005992 -0.002123 0.016847 0.000000 0.000274 0.000000
# 4 0.000000 0.000000 0.000000 0.036633 0.000000 -0.000720
# 5 0.000024 -0.000518 0.000274 0.000000 0.028271 0.000000
# 6 0.000000 0.000000 0.000000 -0.000720 0.000000 0.065676
#
#
# Mechanical properties :
#
#
# Convention : Reuss Voigt Hill
#
# Bulk Modulus (GPa) = 54.13067 55.90839 55.01953
# Shear Modulus (GPa) = 24.45031 26.84836 25.64934
#
# Velocity S-wave (km/s) = 3.59848 3.77082 3.68566
# Velocity P-wave (km/s) = 6.77742 6.96909 6.87392
#
# Compressibility (1/GPa) = 0.01847382
#
# Stress axis : x y z
#
# Youngs Moduli (GPa) = 71.70594 81.14406 59.35904
#
# Poissons Ratio (x) = 0.34131 0.35567
# Poissons Ratio (y) = 0.30161 0.12603
# Poissons Ratio (z) = 0.42965 0.17228
#
# Static dielectric constant tensor:
#      x y z
#    x 3.501430 0.000000 -0.051280 
#    y 0.000000 3.400770 0.000000 
#    z -0.051280 0.000000 3.631980 
# 
# 
# High freq. dielectric constant tensor:
#      x y z
#    x 1.741480 0.000000 -0.000520 
#    y 0.000000 1.732210 0.000000 
#    z -0.000520 0.000000 1.746090 
# 
# From -- ./inp_files/36179.got.cif
#   From: 2010.06.25/outbox.cif.g09.slc.cpg/sg10_19_cif.got.tgz:36179.got - 2010.06.27 22:07:45.
