data_PCOD8062795
_publ_section_title
;
Structure prediction by ZEFSAII (Michael W. Deem and Ramdas Pophale) SiO2 
 PCOD8062795
Probable space group: P 2/M
;
_chemical_formula_sum "Si O2"
_cell_formula_units_Z 28
_cell_length_a 23.951520
_cell_length_b 13.322966
_cell_length_c 20.557370
_cell_angle_alpha 90.000000
_cell_angle_beta 16.143859
_cell_angle_gamma 90.000000
_cell_volume 1823.998609
_symmetry_space_group_name_H-M "P 2/M"
_symmetry_group_IT_number 10
_symmetry_cell_setting 'monoclinic'
loop_
_space_group_symop_operation_xyz
x,y,z
-x,y,-z
-x,-y,-z
x,-y,z
loop_
_atom_site_type_symbol
_atom_site_label
_atom_site_fract_x
_atom_site_fract_y
_atom_site_fract_z
Si Si1 0.917665 0.382875 0.164670
Si Si2 0.389484 0.118836 0.221016
Si Si3 0.768145 0.879077 0.463730
Si Si4 0.589236 0.771253 0.545170
Si Si5 0.791864 0.880338 0.708133
Si Si6 0.721809 0.890457 0.278191
Si Si7 0.858034 0.228739 0.007565
O O1 0.902462 0.500000 0.195139
O O2 0.694074 0.337822 0.426527
O O3 0.000000 0.361179 0.000000
O O4 0.064736 0.337822 0.055864
O O5 0.311263 0.157882 0.377484
O O6 0.246196 0.157450 0.322997
O O7 0.389229 0.000000 0.221528
O O8 0.615407 0.157436 0.953784
O O9 0.612085 0.830544 0.587302
O O10 0.776030 0.000000 0.447907
O O11 0.989159 0.830532 0.210232
O O12 0.721370 0.834156 0.346665
O O13 0.355558 0.761018 0.788885
O O14 0.000000 0.832914 0.500000
O O15 0.800333 0.000000 0.699660
O O16 0.500000 0.898522 0.500000
O O17 0.857454 0.834141 0.074519
O O18 0.815377 0.000000 0.184629
#
# Coordination Sequence:
#
# PCOD8062795 Si02
#       7
#     4   4   4   4   4   4   4
#     4  10  20  34  51  69  84 103 139 190 245 288
#     4   8  15  26  37  57  85 111 149 190 218 249
#     4  10  20  30  43  64  92 125 155 187 223 260
#     4  10  20  33  46  65  89 115 149 188 228 272
#     4   8  13  23  40  57  77 110 149 187 220 248
#     4   9  16  27  43  60  81 113 150 182 212 250
#     4  10  20  33  46  65  89 115 149 188 228 272
#
# _framework density 15.350889
#
# number of rings (size 3 to 8) (size 9 to 14) (size 15 to 20)
#    0.000    2.714    1.429    1.714    0.000    3.429 
#    0.000    6.429    0.000    0.000    0.000    0.000 
#    0.000    0.000    0.000   41.143    0.000   93.714 
#
# Total GULP energy -347000.337612 kJ/mol
# GULP energy per Si atom -12392.869200 kJ/mol
# Density = 1.531595 g / cm^3
# Si number density = 15.350889 Si / 1000 Ang^3
#
#
#
# Elastic Constant Matrix: (Units=GPa)
#
#
# Indices 1 2 3 4 5 6 
#
# 1 111.8861 37.1425 83.2844 0.0000 3.8428 0.0000
# 2 37.1425 80.3914 37.4040 0.0000 -0.5405 0.0000
# 3 83.2844 37.4040 113.5364 0.0000 -7.3689 0.0000
# 4 0.0000 0.0000 0.0000 9.5096 0.0000 -4.8538
# 5 3.8428 -0.5405 -7.3689 0.0000 37.2222 0.0000
# 6 0.0000 0.0000 0.0000 -4.8538 0.0000 7.2156
#
#
#
# Elastic Compliance Matrix: (Units=1/GPa)
#
#
# Indices 1 2 3 4 5 6 
#
# 1 0.021181 -0.002876 -0.014926 0.000000 -0.005183 0.000000
# 2 -0.002876 0.015103 -0.002869 0.000000 -0.000052 0.000000
# 3 -0.014926 -0.002869 0.021070 0.000000 0.005671 0.000000
# 4 0.000000 0.000000 0.000000 0.160140 0.000000 0.107723
# 5 -0.005183 -0.000052 0.005671 0.000000 0.028523 0.000000
# 6 0.000000 0.000000 0.000000 0.107723 0.000000 0.211051
#
#
# Mechanical properties :
#
#
# Convention : Reuss Voigt Hill
#
# Bulk Modulus (GPa) = 62.45750 69.05283 65.75517
# Shear Modulus (GPa) = 9.92562 20.65504 15.29033
#
# Velocity S-wave (km/s) = 2.54556 3.67212 3.15946
# Velocity P-wave (km/s) = 7.02956 7.94103 7.49915
#
# Compressibility (1/GPa) = 0.01601089
#
# Stress axis : x y z
#
# Youngs Moduli (GPa) = 47.21205 66.21412 47.46078
#
# Poissons Ratio (x) = 0.19044 0.70841
# Poissons Ratio (y) = 0.13579 0.13617
# Poissons Ratio (z) = 0.70470 0.18997
#
# Static dielectric constant tensor:
#      x y z
#    x 3.052560 0.000000 0.018410 
#    y 0.000000 2.674450 0.000000 
#    z 0.018410 0.000000 3.043330 
# 
# 
# High freq. dielectric constant tensor:
#      x y z
#    x 1.588440 0.000000 -0.010680 
#    y 0.000000 1.545540 0.000000 
#    z -0.010680 0.000000 1.593420 
# 
# From -- ./inp_files/79516.got.cif
#   From: 2010.06.25/outbox.cif.g09.slc.cpg/sg10_40_cif.got.tgz:79516.got - 2010.06.27 22:07:45.
