data_PCOD8062229
_publ_section_title
;
Structure prediction by ZEFSAII (Michael W. Deem and Ramdas Pophale) SiO2 
 PCOD8062229
Probable space group: P 2/M
;
_chemical_formula_sum "Si O2"
_cell_formula_units_Z 24
_cell_length_a 18.681272
_cell_length_b 10.312771
_cell_length_c 8.010486
_cell_angle_alpha 90.000000
_cell_angle_beta 123.315055
_cell_angle_gamma 90.000000
_cell_volume 1289.650095
_symmetry_space_group_name_H-M "P 2/M"
_symmetry_group_IT_number 10
_symmetry_cell_setting 'monoclinic'
loop_
_space_group_symop_operation_xyz
x,y,z
-x,y,-z
-x,-y,-z
x,-y,z
loop_
_atom_site_type_symbol
_atom_site_label
_atom_site_fract_x
_atom_site_fract_y
_atom_site_fract_z
Si Si1 0.574199 0.641842 0.961525
Si Si2 0.247751 0.258733 0.728859
Si Si3 0.194928 0.850696 0.990787
Si Si4 0.484851 0.141420 0.670641
Si Si5 0.705728 0.151957 0.554832
Si Si6 0.909814 0.646559 0.306415
O O1 0.568983 0.500000 0.867747
O O2 0.559425 0.758978 0.815492
O O3 0.500000 0.655938 0.000000
O O4 0.667265 0.654016 0.163786
O O5 0.251191 0.159001 0.891766
O O6 0.240541 0.186791 0.541755
O O7 0.163209 0.347986 0.642320
O O8 0.113471 0.752487 0.867310
O O9 0.164883 0.000000 0.977193
O O10 0.247586 0.796871 0.217878
O O11 0.500000 0.112808 0.500000
O O12 0.391405 0.205707 0.584125
O O13 0.493560 0.000000 0.774237
O O14 0.697860 0.000000 0.565043
O O15 0.913434 0.500000 0.237885
O O16 0.000000 0.687403 0.500000
#
# Coordination Sequence:
#
# PCOD8062229 Si02
#       6
#     4   4   4   4   4   4
#     4  11  22  36  52  78 113 147 188 233 275 326
#     4  10  20  36  61  80 112 154 185 233 284 334
#     4   9  20  36  60  88 115 142 184 235 283 336
#     4  10  21  36  54  78 112 152 194 235 279 330
#     4  10  19  35  56  86 117 149 190 235 281 337
#     4   9  20  40  63  85 113 148 187 231 284 343
#
# _framework density 18.609698000000002
#
# number of rings (size 3 to 8) (size 9 to 14) (size 15 to 20)
#    1.000    1.167    1.667    2.000    0.000    3.667 
#    0.000    3.333    0.000    4.000    0.000    0.000 
#    0.000    0.000    0.000    0.000    0.000    0.000 
#
# Total GULP energy -297313.413421 kJ/mol
# GULP energy per Si atom -12388.058893 kJ/mol
# Density = 1.856734 g / cm^3
# Si number density = 18.609698 Si / 1000 Ang^3
#
#
#
# Elastic Constant Matrix: (Units=GPa)
#
#
# Indices 1 2 3 4 5 6 
#
# 1 71.8203 17.4119 49.1095 0.0000 13.2702 0.0000
# 2 17.4119 94.4556 49.3278 0.0000 11.5884 0.0000
# 3 49.1095 49.3278 109.1776 0.0000 5.1651 0.0000
# 4 0.0000 0.0000 0.0000 16.7839 0.0000 5.4250
# 5 13.2702 11.5884 5.1651 0.0000 42.7278 0.0000
# 6 0.0000 0.0000 0.0000 5.4250 0.0000 13.4816
#
#
#
# Elastic Compliance Matrix: (Units=1/GPa)
#
#
# Indices 1 2 3 4 5 6 
#
# 1 0.021655 0.002211 -0.010453 0.000000 -0.006062 0.000000
# 2 0.002211 0.014480 -0.007361 0.000000 -0.003724 0.000000
# 3 -0.010453 -0.007361 0.017036 0.000000 0.003183 0.000000
# 4 0.000000 0.000000 0.000000 0.068489 0.000000 -0.027560
# 5 -0.006062 -0.003724 0.003183 0.000000 0.025912 0.000000
# 6 0.000000 0.000000 0.000000 -0.027560 0.000000 0.085265
#
#
# Mechanical properties :
#
#
# Convention : Reuss Voigt Hill
#
# Bulk Modulus (GPa) = 45.52472 56.35021 50.93747
# Shear Modulus (GPa) = 18.42535 25.23895 21.83215
#
# Velocity S-wave (km/s) = 3.14999 3.68669 3.42886
# Velocity P-wave (km/s) = 6.14377 6.96190 6.56559
#
# Compressibility (1/GPa) = 0.02196609
#
# Stress axis : x y z
#
# Youngs Moduli (GPa) = 46.17853 69.05941 58.69882
#
# Poissons Ratio (x) = -0.15266 0.61356
# Poissons Ratio (y) = -0.10208 0.43205
# Poissons Ratio (z) = 0.48269 0.50831
#
# Static dielectric constant tensor:
#      x y z
#    x 3.357220 0.000000 0.288910 
#    y 0.000000 3.419460 0.000000 
#    z 0.288910 0.000000 3.652600 
# 
# 
# High freq. dielectric constant tensor:
#      x y z
#    x 1.704490 0.000000 0.007680 
#    y 0.000000 1.718590 0.000000 
#    z 0.007680 0.000000 1.710500 
# 
# From -- ./inp_files/33949.got.cif
#   From: 2010.06.25/outbox.cif.g09.slc.cpg/sg10_17_cif.got.tgz:33949.got - 2010.06.27 22:07:45.
