data_PCOD8062479
_publ_section_title
;
Structure prediction by ZEFSAII (Michael W. Deem and Ramdas Pophale) SiO2 
 PCOD8062479
Probable space group: P 2/M
;
_chemical_formula_sum "Si O2"
_cell_formula_units_Z 28
_cell_length_a 14.672006
_cell_length_b 9.084918
_cell_length_c 14.961168
_cell_angle_alpha 90.000000
_cell_angle_beta 136.539622
_cell_angle_gamma 90.000000
_cell_volume 1371.739076
_symmetry_space_group_name_H-M "P 2/M"
_symmetry_group_IT_number 10
_symmetry_cell_setting 'monoclinic'
loop_
_space_group_symop_operation_xyz
x,y,z
-x,y,-z
-x,-y,-z
x,-y,z
loop_
_atom_site_type_symbol
_atom_site_label
_atom_site_fract_x
_atom_site_fract_y
_atom_site_fract_z
Si Si1 0.152233 0.671219 0.107015
Si Si2 0.419638 0.173533 0.771493
Si Si3 0.951159 0.838043 0.365937
Si Si4 0.655226 0.824742 0.613399
Si Si5 0.301844 0.329218 0.846537
Si Si6 0.222200 0.826680 0.482651
Si Si7 0.328637 0.330605 0.068884
O O1 0.153845 0.500000 0.135693
O O2 0.256763 0.754851 0.244884
O O3 0.201219 0.695884 0.040277
O O4 0.000000 0.731516 0.000000
O O5 0.411844 0.246569 0.864686
O O6 0.300146 0.232676 0.624840
O O7 0.551410 0.226719 0.813806
O O8 0.419116 0.000000 0.783420
O O9 0.841923 0.713039 0.291297
O O10 0.000000 0.858679 0.500000
O O11 0.068335 0.784276 0.383310
O O12 0.897625 0.000000 0.296516
O O13 0.500000 0.776151 0.500000
O O14 0.719816 0.762740 0.568026
O O15 0.665503 0.000000 0.630743
O O16 0.330128 0.500000 0.854638
O O17 0.298565 0.280080 0.946852
O O18 0.242563 0.000000 0.495710
O O19 0.373944 0.500000 0.105446
#
# Coordination Sequence:
#
# PCOD8062479 Si02
#       7
#     4   4   4   4   4   4   4
#     4  10  23  43  64  86 120 163 206 252 302 358
#     4  11  21  38  62  88 117 153 194 234 286 352
#     4  10  19  36  57  79 113 153 193 237 287 343
#     4  10  21  39  63  91 121 153 197 254 309 358
#     4  11  23  37  56  84 119 154 192 238 290 346
#     4   9  19  35  57  84 116 150 184 237 298 345
#     4  10  23  41  58  81 118 157 193 240 295 342
#
# _framework density 20.412044999999999
#
# number of rings (size 3 to 8) (size 9 to 14) (size 15 to 20)
#    0.000    1.857    1.429    2.143    2.000    5.429 
#    0.000    1.429    0.000    0.000    0.000    0.000 
#    0.000    0.000    0.000    0.000    0.000    0.000 
#
# Total GULP energy -347081.210786 kJ/mol
# GULP energy per Si atom -12395.757528 kJ/mol
# Density = 2.036559 g / cm^3
# Si number density = 20.412045 Si / 1000 Ang^3
#
#
#
# Elastic Constant Matrix: (Units=GPa)
#
#
# Indices 1 2 3 4 5 6 
#
# 1 152.6285 31.1282 38.9775 0.0000 6.2761 0.0000
# 2 31.1282 50.4998 30.5259 0.0000 1.6859 0.0000
# 3 38.9775 30.5259 88.3515 0.0000 6.0072 0.0000
# 4 0.0000 0.0000 0.0000 25.6994 0.0000 6.2056
# 5 6.2761 1.6859 6.0072 0.0000 37.9406 0.0000
# 6 0.0000 0.0000 0.0000 6.2056 0.0000 23.8144
#
#
#
# Elastic Compliance Matrix: (Units=1/GPa)
#
#
# Indices 1 2 3 4 5 6 
#
# 1 0.007859 -0.003482 -0.002210 0.000000 -0.000795 0.000000
# 2 -0.003482 0.026575 -0.007687 0.000000 0.000612 0.000000
# 3 -0.002210 -0.007687 0.015063 0.000000 -0.001678 0.000000
# 4 0.000000 0.000000 0.000000 0.041524 0.000000 -0.010820
# 5 -0.000795 0.000612 -0.001678 0.000000 0.026727 0.000000
# 6 0.000000 0.000000 0.000000 -0.010820 0.000000 0.044811
#
#
# Mechanical properties :
#
#
# Convention : Reuss Voigt Hill
#
# Bulk Modulus (GPa) = 43.97757 54.74922 49.36340
# Shear Modulus (GPa) = 25.39396 30.21410 27.80403
#
# Velocity S-wave (km/s) = 3.53096 3.85152 3.69472
# Velocity P-wave (km/s) = 6.18185 6.83076 6.51439
#
# Compressibility (1/GPa) = 0.02273887
#
# Stress axis : x y z
#
# Youngs Moduli (GPa) = 127.24145 37.62991 66.38576
#
# Poissons Ratio (x) = 0.13102 0.14672
# Poissons Ratio (y) = 0.44304 0.51032
# Poissons Ratio (z) = 0.28121 0.28927
#
# Static dielectric constant tensor:
#      x y z
#    x 4.155350 0.000000 0.061180 
#    y 0.000000 3.461100 0.000000 
#    z 0.061180 0.000000 3.734460 
# 
# 
# High freq. dielectric constant tensor:
#      x y z
#    x 1.818830 0.000000 0.003780 
#    y 0.000000 1.773210 0.000000 
#    z 0.003780 0.000000 1.794950 
# 
# From -- ./inp_files/48979.got.cif
#   From: 2010.06.25/outbox.cif.g09.slc.cpg/sg10_25_cif.got.tgz:48979.got - 2010.06.27 22:07:45.
