data_PCOD8062902
_publ_section_title
;
Structure prediction by ZEFSAII (Michael W. Deem and Ramdas Pophale) SiO2 
 PCOD8062902
Probable space group: P 2/M
;
_chemical_formula_sum "Si O2"
_cell_formula_units_Z 20
_cell_length_a 14.759451
_cell_length_b 18.091709
_cell_length_c 13.087054
_cell_angle_alpha 90.000000
_cell_angle_beta 159.783594
_cell_angle_gamma 90.000000
_cell_volume 1207.602055
_symmetry_space_group_name_H-M "P 2/M"
_symmetry_group_IT_number 10
_symmetry_cell_setting 'monoclinic'
loop_
_space_group_symop_operation_xyz
x,y,z
-x,y,-z
-x,-y,-z
x,-y,z
loop_
_atom_site_type_symbol
_atom_site_label
_atom_site_fract_x
_atom_site_fract_y
_atom_site_fract_z
Si Si1 0.766078 0.815504 0.832360
Si Si2 0.089852 0.415594 0.211280
Si Si3 0.591486 0.342429 0.708958
Si Si4 0.555114 0.912260 0.170750
Si Si5 0.897487 0.912356 0.158219
O O1 0.500000 0.847773 0.500000
O O2 0.675837 0.743110 0.799505
O O3 0.877924 0.877002 0.026085
O O4 0.000000 0.796054 0.000000
O O5 0.166245 0.500000 0.314577
O O6 0.334147 0.362820 0.503562
O O7 0.000000 0.402605 0.000000
O O8 0.836905 0.390669 0.009580
O O9 0.500000 0.368062 0.500000
O O10 0.836350 0.884989 0.506976
O O11 0.544461 0.000000 0.153381
O O12 0.500000 0.878929 0.000000
O O13 0.337356 0.883559 0.019150
O O14 0.893433 0.000000 0.139155
#
# Coordination Sequence:
#
# PCOD8062902 Si02
#       5
#     4   4   4   4   4
#     4  11  21  32  44  58  85 123 156 184 209 240
#     4   9  15  23  37  55  73  95 132 181 217 242
#     4   9  16  26  37  52  75 106 142 174 207 245
#     4   9  17  31  50  69  87 104 129 176 232 278
#     4  10  20  32  47  67  86 110 149 185 216 257
#
# _framework density 16.561747
#
# number of rings (size 3 to 8) (size 9 to 14) (size 15 to 20)
#    0.000    2.400    0.000    5.400    0.000    5.600 
#    0.000    0.000    0.000    0.000    0.000    0.000 
#    0.000    0.000    0.000    0.000    0.000   70.000 
#
# Total GULP energy -247858.467951 kJ/mol
# GULP energy per Si atom -12392.923398 kJ/mol
# Density = 1.652405 g / cm^3
# Si number density = 16.561747 Si / 1000 Ang^3
#
#
#
# Elastic Constant Matrix: (Units=GPa)
#
#
# Indices 1 2 3 4 5 6 
#
# 1 52.9613 30.5178 42.0285 0.0000 13.7817 0.0000
# 2 30.5178 56.7467 45.9697 0.0000 4.1056 0.0000
# 3 42.0285 45.9697 114.4764 0.0000 22.6717 0.0000
# 4 0.0000 0.0000 0.0000 12.7617 0.0000 8.3544
# 5 13.7817 4.1056 22.6717 0.0000 32.0508 0.0000
# 6 0.0000 0.0000 0.0000 8.3544 0.0000 6.3523
#
#
#
# Elastic Compliance Matrix: (Units=1/GPa)
#
#
# Indices 1 2 3 4 5 6 
#
# 1 0.032548 -0.012739 -0.005100 0.000000 -0.008756 0.000000
# 2 -0.012739 0.031738 -0.009708 0.000000 0.008279 0.000000
# 3 -0.005100 -0.009708 0.016078 0.000000 -0.007936 0.000000
# 4 0.000000 0.000000 0.000000 0.563655 0.000000 -0.741306
# 5 -0.008756 0.008279 -0.007936 0.000000 0.039519 0.000000
# 6 0.000000 0.000000 0.000000 -0.741306 0.000000 1.132371
#
#
# Mechanical properties :
#
#
# Convention : Reuss Voigt Hill
#
# Bulk Modulus (GPa) = 39.57134 51.24625 45.40880
# Shear Modulus (GPa) = 2.66039 17.27752 9.96896
#
# Velocity S-wave (km/s) = 1.26879 3.23339 2.45608
# Velocity P-wave (km/s) = 5.10799 6.70444 5.95991
#
# Compressibility (1/GPa) = 0.02527082
#
# Stress axis : x y z
#
# Youngs Moduli (GPa) = 30.72385 31.50787 62.19772
#
# Poissons Ratio (x) = 0.40138 0.31720
# Poissons Ratio (y) = 0.39140 0.60379
# Poissons Ratio (z) = 0.15669 0.30586
#
# Static dielectric constant tensor:
#      x y z
#    x 2.960090 0.000000 0.471900 
#    y 0.000000 2.807060 0.000000 
#    z 0.471900 0.000000 3.387740 
# 
# 
# High freq. dielectric constant tensor:
#      x y z
#    x 1.597270 0.000000 0.049330 
#    y 0.000000 1.612240 0.000000 
#    z 0.049330 0.000000 1.643360 
# 
# From -- ./inp_files/6717.got.cif
#   From: 2010.06.25/outbox.cif.g09.slc.cpg/sg10_4_cif.got.tgz:6717.got - 2010.06.27 22:07:45.
