data_PCOD8062075
_publ_section_title
;
Structure prediction by ZEFSAII (Michael W. Deem and Ramdas Pophale) SiO2 
 PCOD8062075
Probable space group: P 2/M
;
_chemical_formula_sum "Si O2"
_cell_formula_units_Z 32
_cell_length_a 8.995558
_cell_length_b 23.852042
_cell_length_c 15.281745
_cell_angle_alpha 90.000000
_cell_angle_beta 150.681482
_cell_angle_gamma 90.000000
_cell_volume 1605.554475
_symmetry_space_group_name_H-M "P 2/M"
_symmetry_group_IT_number 10
_symmetry_cell_setting 'monoclinic'
loop_
_space_group_symop_operation_xyz
x,y,z
-x,y,-z
-x,-y,-z
x,-y,z
loop_
_atom_site_type_symbol
_atom_site_label
_atom_site_fract_x
_atom_site_fract_y
_atom_site_fract_z
Si Si1 0.279179 0.868497 0.968153
Si Si2 0.643439 0.150003 0.804976
Si Si3 0.141171 0.757575 0.827869
Si Si4 0.307397 0.065122 0.316132
Si Si5 0.854675 0.366665 0.164909
Si Si6 0.830690 0.565870 0.825079
Si Si7 0.218404 0.755330 0.534510
Si Si8 0.796142 0.372889 0.477449
O O1 0.075140 0.810824 0.856256
O O2 0.045886 0.920021 0.850340
O O3 0.500000 0.877362 0.000000
O O4 0.479793 0.864345 0.160281
O O5 0.559005 0.098626 0.698139
O O6 0.515934 0.206861 0.696947
O O7 0.000000 0.157496 0.000000
O O8 0.060753 0.696334 0.825618
O O9 0.955360 0.767253 0.644219
O O10 0.500000 0.758481 0.000000
O O11 0.500000 0.081451 0.500000
O O12 0.334329 0.000000 0.307730
O O13 0.983024 0.409062 0.159965
O O14 0.004820 0.378740 0.334432
O O15 0.500000 0.375263 0.000000
O O16 0.820970 0.500000 0.805416
O O17 0.489593 0.587354 0.656866
O O18 0.000000 0.583253 0.000000
O O19 0.318196 0.690690 0.594922
O O20 0.000000 0.773508 0.500000
O O21 0.000000 0.392671 0.500000
#
# Coordination Sequence:
#
# PCOD8062075 Si02
#       8
#     4   4   4   4   4   4   4   4
#     4  10  20  35  57  84 113 146 186 229 277 332
#     4  10  22  36  56  85 116 151 187 228 284 339
#     4   9  18  33  55  85 118 148 182 227 282 340
#     4  10  22  40  58  77 107 148 192 237 284 333
#     4  10  21  39  63  88 118 154 190 236 290 344
#     4  11  25  42  60  84 114 152 199 245 287 339
#     4  10  19  34  58  87 118 149 187 232 280 337
#     4  10  22  39  61  89 118 153 191 235 291 345
#
# _framework density 19.930809
#
# number of rings (size 3 to 8) (size 9 to 14) (size 15 to 20)
#    0.000    2.000    0.000    3.375    0.000    9.500 
#    0.000    2.500    0.000    1.875    0.000    0.000 
#    0.000    0.000    0.000    0.000    0.000    0.000 
#
# Total GULP energy -396718.237858 kJ/mol
# GULP energy per Si atom -12397.444933 kJ/mol
# Density = 1.988545 g / cm^3
# Si number density = 19.930809 Si / 1000 Ang^3
#
#
#
# Elastic Constant Matrix: (Units=GPa)
#
#
# Indices 1 2 3 4 5 6 
#
# 1 123.0757 52.9656 40.4906 0.0000 -15.9373 0.0000
# 2 52.9656 87.9895 51.8580 0.0000 -12.8272 0.0000
# 3 40.4906 51.8580 117.3243 0.0000 -14.8339 0.0000
# 4 0.0000 0.0000 0.0000 26.7642 0.0000 -5.2632
# 5 -15.9373 -12.8272 -14.8339 0.0000 29.3710 0.0000
# 6 0.0000 0.0000 0.0000 -5.2632 0.0000 29.3690
#
#
#
# Elastic Compliance Matrix: (Units=1/GPa)
#
#
# Indices 1 2 3 4 5 6 
#
# 1 0.011345 -0.005812 -0.000950 0.000000 0.003138 0.000000
# 2 -0.005812 0.018691 -0.006006 0.000000 0.001976 0.000000
# 3 -0.000950 -0.006006 0.011867 0.000000 0.002855 0.000000
# 4 0.000000 0.000000 0.000000 0.038728 0.000000 0.006940
# 5 0.003138 0.001976 0.002855 0.000000 0.038055 0.000000
# 6 0.000000 0.000000 0.000000 0.006940 0.000000 0.035293
#
#
# Mechanical properties :
#
#
# Convention : Reuss Voigt Hill
#
# Bulk Modulus (GPa) = 61.09547 68.77975 64.93761
# Shear Modulus (GPa) = 27.03127 29.30587 28.16857
#
# Velocity S-wave (km/s) = 3.68673 3.83871 3.76349
# Velocity P-wave (km/s) = 6.98878 7.36423 7.17896
#
# Compressibility (1/GPa) = 0.01636782
#
# Stress axis : x y z
#
# Youngs Moduli (GPa) = 88.14399 53.50067 84.26873
#
# Poissons Ratio (x) = 0.31095 0.08003
# Poissons Ratio (y) = 0.51230 0.50612
# Poissons Ratio (z) = 0.08371 0.32133
#
# Static dielectric constant tensor:
#      x y z
#    x 3.744920 0.000000 -0.286380 
#    y 0.000000 3.844410 0.000000 
#    z -0.286380 0.000000 3.736590 
# 
# 
# High freq. dielectric constant tensor:
#      x y z
#    x 1.777410 0.000000 -0.015400 
#    y 0.000000 1.776990 0.000000 
#    z -0.015400 0.000000 1.788690 
# 
# From -- ./inp_files/62704.got.cif
#   From: 2010.06.25/outbox.cif.g09.slc.cpg/sg10_32_cif.got.tgz:62704.got - 2010.06.27 22:07:45.
