data_PCOD8062096
_publ_section_title
;
Structure prediction by ZEFSAII (Michael W. Deem and Ramdas Pophale) SiO2 
 PCOD8062096
Probable space group: P 2/M
;
_chemical_formula_sum "Si O2"
_cell_formula_units_Z 32
_cell_length_a 23.036375
_cell_length_b 8.795848
_cell_length_c 15.297472
_cell_angle_alpha 90.000000
_cell_angle_beta 31.863216
_cell_angle_gamma 90.000000
_cell_volume 1636.279831
_symmetry_space_group_name_H-M "P 2/M"
_symmetry_group_IT_number 10
_symmetry_cell_setting 'monoclinic'
loop_
_space_group_symop_operation_xyz
x,y,z
-x,y,-z
-x,-y,-z
x,-y,z
loop_
_atom_site_type_symbol
_atom_site_label
_atom_site_fract_x
_atom_site_fract_y
_atom_site_fract_z
Si Si1 0.087364 0.166950 0.954637
Si Si2 0.303355 0.674770 0.702930
Si Si3 0.728104 0.180377 0.078068
Si Si4 0.596778 0.677421 0.089732
Si Si5 0.619830 0.178242 0.880510
Si Si6 0.209518 0.819088 0.485265
Si Si7 0.647397 0.321919 0.551239
Si Si8 0.970538 0.165079 0.778928
O O1 0.175832 0.299475 0.847416
O O2 0.135267 0.000000 0.864360
O O3 0.024950 0.142194 0.124045
O O4 0.000000 0.232615 0.000000
O O5 0.331004 0.500000 0.685924
O O6 0.332521 0.764676 0.754968
O O7 0.362977 0.732432 0.537406
O O8 0.656124 0.228581 0.088983
O O9 0.738443 0.000000 0.072601
O O10 0.853707 0.248160 0.904763
O O11 0.617911 0.500000 0.078600
O O12 0.467819 0.718207 0.255573
O O13 0.646734 0.728972 0.933742
O O14 0.706935 0.231815 0.697094
O O15 0.628076 0.000000 0.890594
O O16 0.500000 0.223726 0.000000
O O17 0.253764 0.757675 0.521938
O O18 0.088718 0.752086 0.610110
O O19 0.202048 0.000000 0.503150
O O20 0.672699 0.500000 0.519781
O O21 0.971645 0.000000 0.729924
#
# Coordination Sequence:
#
# PCOD8062096 Si02
#       8
#     4   4   4   4   4   4   4   4
#     4   9  16  28  47  72 104 141 185 227 265 314
#     4  10  20  34  51  75 109 146 184 224 272 324
#     4  10  21  39  59  79 108 144 189 232 267 315
#     4  11  23  39  59  80 108 148 186 221 273 331
#     4  10  20  36  58  88 115 137 174 226 276 323
#     4  10  19  34  59  85 112 142 178 224 275 327
#     4  10  22  36  52  80 115 147 181 224 272 327
#     4   8  16  31  52  78 105 140 179 220 268 317
#
# _framework density 19.556557999999999
#
# number of rings (size 3 to 8) (size 9 to 14) (size 15 to 20)
#    0.000    2.250    1.250    2.625    0.000    4.000 
#    0.000    7.500    0.000    3.750    0.000    0.000 
#    0.000    0.000    0.000    0.000    0.000    0.000 
#
# Total GULP energy -396459.422818 kJ/mol
# GULP energy per Si atom -12389.356963 kJ/mol
# Density = 1.951205 g / cm^3
# Si number density = 19.556558 Si / 1000 Ang^3
#
#
#
# Elastic Constant Matrix: (Units=GPa)
#
#
# Indices 1 2 3 4 5 6 
#
# 1 82.0150 22.7099 16.7682 0.0000 17.7296 0.0000
# 2 22.7099 39.5720 22.7140 0.0000 6.9536 0.0000
# 3 16.7682 22.7140 85.2182 0.0000 9.3418 0.0000
# 4 0.0000 0.0000 0.0000 20.7790 0.0000 5.2275
# 5 17.7296 6.9536 9.3418 0.0000 24.1604 0.0000
# 6 0.0000 0.0000 0.0000 5.2275 0.0000 29.0693
#
#
#
# Elastic Compliance Matrix: (Units=1/GPa)
#
#
# Indices 1 2 3 4 5 6 
#
# 1 0.016461 -0.007649 -0.000123 0.000000 -0.009831 0.000000
# 2 -0.007649 0.034176 -0.007457 0.000000 -0.001340 0.000000
# 3 -0.000123 -0.007457 0.014099 0.000000 -0.003215 0.000000
# 4 0.000000 0.000000 0.000000 0.050406 0.000000 -0.009064
# 5 -0.009831 -0.001340 -0.003215 0.000000 0.050233 0.000000
# 6 0.000000 0.000000 0.000000 -0.009064 0.000000 0.036031
#
#
# Mechanical properties :
#
#
# Convention : Reuss Voigt Hill
#
# Bulk Modulus (GPa) = 29.17316 36.79882 32.98599
# Shear Modulus (GPa) = 20.55169 24.44262 22.49716
#
# Velocity S-wave (km/s) = 3.24525 3.53915 3.39538
# Velocity P-wave (km/s) = 5.38442 5.96307 5.68112
#
# Compressibility (1/GPa) = 0.03427808
#
# Stress axis : x y z
#
# Youngs Moduli (GPa) = 60.74917 29.26034 70.92795
#
# Poissons Ratio (x) = 0.22381 0.00869
# Poissons Ratio (y) = 0.46467 0.52893
# Poissons Ratio (z) = 0.00745 0.21820
#
# Static dielectric constant tensor:
#      x y z
#    x 4.192480 0.000000 1.142480 
#    y 0.000000 3.333570 0.000000 
#    z 1.142480 0.000000 5.542460 
# 
# 
# High freq. dielectric constant tensor:
#      x y z
#    x 1.758730 0.000000 -0.000650 
#    y 0.000000 1.737200 0.000000 
#    z -0.000650 0.000000 1.760720 
# 
# From -- ./inp_files/71415.got.cif
#   From: 2010.06.25/outbox.cif.g09.slc.cpg/sg10_36_cif.got.tgz:71415.got - 2010.06.27 22:07:45.
