data_PCOD8062930
_publ_section_title
;
Structure prediction by ZEFSAII (Michael W. Deem and Ramdas Pophale) SiO2 
 PCOD8062930
Probable space group: P 2/M
;
_chemical_formula_sum "Si O2"
_cell_formula_units_Z 32
_cell_length_a 27.912654
_cell_length_b 9.211970
_cell_length_c 22.614257
_cell_angle_alpha 90.000000
_cell_angle_beta 161.741341
_cell_angle_gamma 90.000000
_cell_volume 1821.824444
_symmetry_space_group_name_H-M "P 2/M"
_symmetry_group_IT_number 10
_symmetry_cell_setting 'monoclinic'
loop_
_space_group_symop_operation_xyz
x,y,z
-x,y,-z
-x,-y,-z
x,-y,z
loop_
_atom_site_type_symbol
_atom_site_label
_atom_site_fract_x
_atom_site_fract_y
_atom_site_fract_z
Si Si1 0.043716 0.331810 0.483609
Si Si2 0.216820 0.159982 0.522251
Si Si3 0.968871 0.830865 0.029413
Si Si4 0.903779 0.338046 0.717821
Si Si5 0.766556 0.335637 0.955719
Si Si6 0.107785 0.163857 0.794757
Si Si7 0.647651 0.169233 0.709769
Si Si8 0.664351 0.170242 0.216818
O O1 0.047561 0.500000 0.468850
O O2 0.210861 0.263706 0.671420
O O3 0.000000 0.312217 0.500000
O O4 0.916682 0.249563 0.295240
O O5 0.223542 0.268914 0.474804
O O6 0.334387 0.207697 0.711551
O O7 0.050198 0.158259 0.355670
O O8 0.257570 0.000000 0.546006
O O9 0.087857 0.750432 0.211618
O O10 0.004388 0.000000 0.076983
O O11 0.794719 0.794628 0.842167
O O12 0.000000 0.774241 0.000000
O O13 0.850621 0.500000 0.670331
O O14 0.065939 0.334752 0.875838
O O15 0.711033 0.500000 0.902239
O O16 0.767777 0.247989 0.019050
O O17 0.650622 0.258213 0.774405
O O18 0.166085 0.000000 0.850103
O O19 0.500000 0.218676 0.500000
O O20 0.641385 0.000000 0.718953
O O21 0.701137 0.000000 0.250273
O O22 0.500000 0.215082 0.000000
#
# Coordination Sequence:
#
# PCOD8062930 Si02
#       8
#     4   4   4   4   4   4   4   4
#     4  10  20  32  47  70  99 128 157 191 234 283
#     4   8  14  25  42  64  89 115 144 183 226 264
#     4   9  17  29  45  64  86 113 143 176 216 259
#     4   9  16  25  40  63  88 113 143 180 218 258
#     4   9  16  26  42  65  91 116 145 184 228 270
#     4   9  16  27  45  67  90 118 153 192 231 269
#     4   9  17  29  45  65  89 116 147 182 218 261
#     4   9  18  32  50  72  96 123 158 197 235 277
#
# _framework density 17.564810000000001
#
# number of rings (size 3 to 8) (size 9 to 14) (size 15 to 20)
#    0.000    3.000    0.000    2.250    0.000    7.750 
#    0.000    0.000    0.000    1.500    0.000    3.500 
#    0.000    0.000    0.000    0.000    0.000    0.000 
#
# Total GULP energy -396731.008827 kJ/mol
# GULP energy per Si atom -12397.844026 kJ/mol
# Density = 1.752483 g / cm^3
# Si number density = 17.564810 Si / 1000 Ang^3
#
#
#
# Elastic Constant Matrix: (Units=GPa)
#
#
# Indices 1 2 3 4 5 6 
#
# 1 81.0785 58.2042 48.6937 0.0000 -32.1022 0.0000
# 2 58.2042 121.5836 61.5721 0.0000 -29.3124 0.0000
# 3 48.6937 61.5721 113.2351 0.0000 -40.7281 0.0000
# 4 0.0000 0.0000 0.0000 18.1111 0.0000 -9.2785
# 5 -32.1022 -29.3124 -40.7281 0.0000 29.7802 0.0000
# 6 0.0000 0.0000 0.0000 -9.2785 0.0000 24.5378
#
#
#
# Elastic Compliance Matrix: (Units=1/GPa)
#
#
# Indices 1 2 3 4 5 6 
#
# 1 0.025771 -0.007550 0.000674 0.000000 0.021270 0.000000
# 2 -0.007550 0.014017 -0.004605 0.000000 -0.000641 0.000000
# 3 0.000674 -0.004605 0.019045 0.000000 0.022239 0.000000
# 4 0.000000 0.000000 0.000000 0.068481 0.000000 0.025895
# 5 0.021270 -0.000641 0.022239 0.000000 0.086292 0.000000
# 6 0.000000 0.000000 0.000000 0.025895 0.000000 0.050545
#
#
# Mechanical properties :
#
#
# Convention : Reuss Voigt Hill
#
# Bulk Modulus (GPa) = 27.87952 72.53748 50.20850
# Shear Modulus (GPa) = 16.71847 24.31430 20.51638
#
# Velocity S-wave (km/s) = 3.08850 3.72460 3.42137
# Velocity P-wave (km/s) = 5.35026 7.73845 6.65240
#
# Compressibility (1/GPa) = 0.03586863
#
# Stress axis : x y z
#
# Youngs Moduli (GPa) = 38.80356 71.34158 52.50845
#
# Poissons Ratio (x) = 0.53864 -0.03538
# Poissons Ratio (y) = 0.29297 0.24183
# Poissons Ratio (z) = -0.02614 0.32856
#
# Static dielectric constant tensor:
#      x y z
#    x 3.019850 0.000000 -0.463770 
#    y 0.000000 3.432990 0.000000 
#    z -0.463770 0.000000 3.171140 
# 
# 
# High freq. dielectric constant tensor:
#      x y z
#    x 1.648900 0.000000 -0.042910 
#    y 0.000000 1.686630 0.000000 
#    z -0.042910 0.000000 1.659330 
# 
# From -- ./inp_files/86946.got.cif
#   From: 2010.06.25/outbox.cif.g09.slc.cpg/sg10_44_cif.got.tgz:86946.got - 2010.06.27 22:07:45.
