data_PCOD8062327
_publ_section_title
;
Structure prediction by ZEFSAII (Michael W. Deem and Ramdas Pophale) SiO2 
 PCOD8062327
Probable space group: P 2/M
;
_chemical_formula_sum "Si O2"
_cell_formula_units_Z 26
_cell_length_a 11.464878
_cell_length_b 7.774680
_cell_length_c 15.952048
_cell_angle_alpha 90.000000
_cell_angle_beta 113.253481
_cell_angle_gamma 90.000000
_cell_volume 1306.393175
_symmetry_space_group_name_H-M "P 2/M"
_symmetry_group_IT_number 10
_symmetry_cell_setting 'monoclinic'
loop_
_space_group_symop_operation_xyz
x,y,z
-x,y,-z
-x,-y,-z
x,-y,z
loop_
_atom_site_type_symbol
_atom_site_label
_atom_site_fract_x
_atom_site_fract_y
_atom_site_fract_z
Si Si1 0.028608 0.000000 0.604934
Si Si2 0.789752 0.695775 0.090245
Si Si3 0.519169 0.305358 0.289640
Si Si4 0.838952 0.000000 0.688934
Si Si5 0.252648 0.816140 0.736914
Si Si6 0.294064 0.702661 0.107096
Si Si7 0.461094 0.000000 0.393141
Si Si8 0.918132 0.697112 0.825922
O O1 0.111140 0.169912 0.655630
O O2 0.000000 0.000000 0.500000
O O3 0.890463 0.000000 0.608643
O O4 0.750143 0.500000 0.093941
O O5 0.758843 0.788822 0.167486
O O6 0.936482 0.711348 0.105520
O O7 0.711618 0.778261 0.989524
O O8 0.484559 0.500000 0.310008
O O9 0.658892 0.318248 0.287091
O O10 0.419962 0.236872 0.191491
O O11 0.516189 0.173719 0.366459
O O12 0.689328 0.000000 0.653439
O O13 0.893817 0.825002 0.742781
O O14 0.322637 0.000000 0.745467
O O15 0.292313 0.500000 0.096691
O O16 0.169621 0.761248 0.122628
O O17 0.500000 0.000000 0.500000
O O18 0.884682 0.500000 0.789776
#
# Coordination Sequence:
#
# PCOD8062327 Si02
#       8
#     2   4   4   2   4   4   2   4
#     4  10  23  42  67  88 121 162 203 259 320 374
#     4  10  19  35  58  87 124 167 209 253 301 360
#     4  11  23  44  66  90 127 168 208 256 307 365
#     4  12  22  40  69  92 118 162 197 256 316 366
#     4  10  21  39  61  87 125 158 212 254 305 362
#     4   9  19  35  58  87 123 166 209 249 301 363
#     4  12  27  44  69  96 123 158 205 257 320 378
#     4  10  19  36  59  88 127 163 202 251 305 360
#
# _framework density 19.902125000000002
#
# number of rings (size 3 to 8) (size 9 to 14) (size 15 to 20)
#    0.462    1.231    3.846    0.923    2.154    2.769 
#    2.769    3.846    0.000    2.308    0.000    0.000 
#    0.000    0.000    0.000    0.000    0.000    0.000 
#
# Total GULP energy -322201.603121 kJ/mol
# GULP energy per Si atom -12392.369351 kJ/mol
# Density = 1.985683 g / cm^3
# Si number density = 19.902125 Si / 1000 Ang^3
#
#
#
# Elastic Constant Matrix: (Units=GPa)
#
#
# Indices 1 2 3 4 5 6 
#
# 1 97.0824 16.8037 29.8450 0.0000 -15.5233 0.0000
# 2 16.8037 81.3503 38.2099 0.0000 -6.7810 0.0000
# 3 29.8450 38.2099 132.8375 0.0000 -26.9674 0.0000
# 4 0.0000 0.0000 0.0000 16.1015 0.0000 5.4677
# 5 -15.5233 -6.7810 -26.9674 0.0000 29.2749 0.0000
# 6 0.0000 0.0000 0.0000 5.4677 0.0000 20.3501
#
#
#
# Elastic Compliance Matrix: (Units=1/GPa)
#
#
# Indices 1 2 3 4 5 6 
#
# 1 0.011688 -0.001431 -0.001259 0.000000 0.004706 0.000000
# 2 -0.001431 0.014396 -0.004055 0.000000 -0.001159 0.000000
# 3 -0.001259 -0.004055 0.010641 0.000000 0.008195 0.000000
# 4 0.000000 0.000000 0.000000 0.068341 0.000000 -0.018362
# 5 0.004706 -0.001159 0.008195 0.000000 0.043936 0.000000
# 6 0.000000 0.000000 0.000000 -0.018362 0.000000 0.054073
#
#
# Mechanical properties :
#
#
# Convention : Reuss Voigt Hill
#
# Bulk Modulus (GPa) = 43.03688 53.44304 48.23996
# Shear Modulus (GPa) = 22.29071 28.23941 25.26506
#
# Velocity S-wave (km/s) = 3.35030 3.77093 3.56682
# Velocity P-wave (km/s) = 6.05287 6.77282 6.42294
#
# Compressibility (1/GPa) = 0.02323588
#
# Stress axis : x y z
#
# Youngs Moduli (GPa) = 85.55988 69.46409 93.97650
#
# Poissons Ratio (x) = 0.09937 0.11831
# Poissons Ratio (y) = 0.12240 0.38106
# Poissons Ratio (z) = 0.10772 0.28166
#
# Static dielectric constant tensor:
#      x y z
#    x 3.687920 0.000000 0.147600 
#    y 0.000000 3.488540 0.000000 
#    z 0.147600 0.000000 3.742020 
# 
# 
# High freq. dielectric constant tensor:
#      x y z
#    x 1.783190 0.000000 -0.004620 
#    y 0.000000 1.764770 0.000000 
#    z -0.004620 0.000000 1.761030 
# 
# From -- ./inp_files/63589.got.cif
#   From: 2010.06.25/outbox.cif.g09.slc.cpg/sg10_32_cif.got.tgz:63589.got - 2010.06.27 22:07:45.
