data_PCOD8062193
_publ_section_title
;
Structure prediction by ZEFSAII (Michael W. Deem and Ramdas Pophale) SiO2 
 PCOD8062193
Probable space group: P 2/M
;
_chemical_formula_sum "Si O2"
_cell_formula_units_Z 32
_cell_length_a 19.317028
_cell_length_b 15.264300
_cell_length_c 11.964477
_cell_angle_alpha 90.000000
_cell_angle_beta 149.003983
_cell_angle_gamma 90.000000
_cell_volume 1816.770243
_symmetry_space_group_name_H-M "P 2/M"
_symmetry_group_IT_number 10
_symmetry_cell_setting 'monoclinic'
loop_
_space_group_symop_operation_xyz
x,y,z
-x,y,-z
-x,-y,-z
x,-y,z
loop_
_atom_site_type_symbol
_atom_site_label
_atom_site_fract_x
_atom_site_fract_y
_atom_site_fract_z
Si Si1 0.674389 0.288442 0.858068
Si Si2 0.206759 0.901106 0.271837
Si Si3 0.638917 0.400096 0.007713
Si Si4 0.855342 0.398107 0.474970
Si Si5 0.025297 0.900303 0.224875
Si Si6 0.661576 0.399952 0.412870
Si Si7 0.374127 0.739103 0.458635
Si Si8 0.963521 0.760316 0.320643
O O1 0.676059 0.300955 0.728192
O O2 0.532651 0.243546 0.691999
O O3 0.667254 0.379848 0.916562
O O4 0.802612 0.233587 0.079051
O O5 0.156143 0.887905 0.328616
O O6 0.327827 0.836542 0.418411
O O7 0.258263 0.000000 0.327308
O O8 0.097511 0.878674 0.026751
O O9 0.664320 0.500000 0.066604
O O10 0.753497 0.355624 0.242646
O O11 0.488061 0.375712 0.839860
O O12 0.898290 0.500000 0.513866
O O13 0.778880 0.389554 0.486032
O O14 0.986696 0.336144 0.651596
O O15 0.032224 0.835256 0.339910
O O16 0.016700 0.000000 0.258103
O O17 0.657811 0.500000 0.453564
O O18 0.693973 0.331838 0.554938
O O19 0.000000 0.778225 0.500000
#
# Coordination Sequence:
#
# PCOD8062193 Si02
#       8
#     4   4   4   4   4   4   4   4
#     4  10  21  34  48  78 106 140 177 209 255 310
#     4   9  17  34  60  83 102 131 171 219 261 303
#     4   9  17  32  52  72 102 141 182 221 251 297
#     4  10  20  33  51  77 105 138 179 220 257 302
#     4   9  19  35  57  83 105 131 174 213 258 314
#     4   9  18  32  52  78 104 135 176 218 266 308
#     4  10  19  35  56  74 109 137 170 221 257 307
#     4  12  22  35  54  75 110 144 173 211 257 312
#
# _framework density 17.613675000000001
#
# number of rings (size 3 to 8) (size 9 to 14) (size 15 to 20)
#    0.000    2.250    2.500    1.875    0.000    3.000 
#    0.000    4.375    0.000    1.500    0.000    1.750 
#    0.000    0.000    0.000    0.000    0.000    0.000 
#
# Total GULP energy -396484.458376 kJ/mol
# GULP energy per Si atom -12390.139324 kJ/mol
# Density = 1.757359 g / cm^3
# Si number density = 17.613675 Si / 1000 Ang^3
#
#
#
# Elastic Constant Matrix: (Units=GPa)
#
#
# Indices 1 2 3 4 5 6 
#
# 1 94.5943 47.6162 36.3181 0.0000 -11.7424 0.0000
# 2 47.6162 73.8665 22.3649 0.0000 -6.7169 0.0000
# 3 36.3181 22.3649 68.1715 0.0000 -3.9447 0.0000
# 4 0.0000 0.0000 0.0000 22.4930 0.0000 -0.5952
# 5 -11.7424 -6.7169 -3.9447 0.0000 20.1302 0.0000
# 6 0.0000 0.0000 0.0000 -0.5952 0.0000 27.7789
#
#
#
# Elastic Compliance Matrix: (Units=1/GPa)
#
#
# Indices 1 2 3 4 5 6 
#
# 1 0.018601 -0.009458 -0.006435 0.000000 0.006434 0.000000
# 2 -0.009458 0.020181 -0.001529 0.000000 0.000917 0.000000
# 3 -0.006435 -0.001529 0.018562 0.000000 -0.000626 0.000000
# 4 0.000000 0.000000 0.000000 0.044484 0.000000 0.000953
# 5 0.006434 0.000917 -0.000626 0.000000 0.053613 0.000000
# 6 0.000000 0.000000 0.000000 0.000953 0.000000 0.036019
#
#
# Mechanical properties :
#
#
# Convention : Reuss Voigt Hill
#
# Bulk Modulus (GPa) = 44.44108 49.91452 47.17780
# Shear Modulus (GPa) = 21.38546 22.76929 22.07738
#
# Velocity S-wave (km/s) = 3.48823 3.59932 3.54421
# Velocity P-wave (km/s) = 6.44278 6.75822 6.60238
#
# Compressibility (1/GPa) = 0.02250170
#
# Stress axis : x y z
#
# Youngs Moduli (GPa) = 53.75953 49.55173 53.87226
#
# Poissons Ratio (x) = 0.46864 0.34666
# Poissons Ratio (y) = 0.50843 0.08238
# Poissons Ratio (z) = 0.34593 0.07577
#
# Static dielectric constant tensor:
#      x y z
#    x 3.366240 0.000000 0.000190 
#    y 0.000000 3.161750 0.000000 
#    z 0.000190 0.000000 3.251660 
# 
# 
# High freq. dielectric constant tensor:
#      x y z
#    x 1.688510 0.000000 0.003490 
#    y 0.000000 1.664720 0.000000 
#    z 0.003490 0.000000 1.672540 
# 
# From -- ./inp_files/54071.got.cif
#   From: 2010.06.25/outbox.cif.g09.slc.cpg/sg10_28_cif.got.tgz:54071.got - 2010.06.27 22:07:45.
