data_PCOD8062236
_publ_section_title
;
Structure prediction by ZEFSAII (Michael W. Deem and Ramdas Pophale) SiO2 
 PCOD8062236
Probable space group: P 2/M
;
_chemical_formula_sum "Si O2"
_cell_formula_units_Z 28
_cell_length_a 18.944918
_cell_length_b 15.756805
_cell_length_c 5.064506
_cell_angle_alpha 90.000000
_cell_angle_beta 74.837537
_cell_angle_gamma 90.000000
_cell_volume 1459.183535
_symmetry_space_group_name_H-M "P 2/M"
_symmetry_group_IT_number 10
_symmetry_cell_setting 'monoclinic'
loop_
_space_group_symop_operation_xyz
x,y,z
-x,y,-z
-x,-y,-z
x,-y,z
loop_
_atom_site_type_symbol
_atom_site_label
_atom_site_fract_x
_atom_site_fract_y
_atom_site_fract_z
Si Si1 0.766972 0.830651 0.698405
Si Si2 0.187800 0.500000 0.849073
Si Si3 0.080039 0.650835 0.960093
Si Si4 0.919460 0.238920 0.540225
Si Si5 0.656829 0.317383 0.803849
Si Si6 0.717891 0.500000 0.743507
Si Si7 0.585257 0.755810 0.374584
Si Si8 0.305499 0.902738 0.729789
O O1 0.854322 0.827331 0.658287
O O2 0.732599 0.735729 0.750324
O O3 0.752540 0.871891 0.429540
O O4 0.731680 0.891344 0.950404
O O5 0.141226 0.582954 0.835437
O O6 0.255931 0.500000 0.584384
O O7 0.213752 0.500000 0.125204
O O8 0.089775 0.729143 0.750222
O O9 0.087912 0.682385 0.252009
O O10 0.000000 0.609271 0.000000
O O11 0.000000 0.196104 0.500000
O O12 0.670078 0.416411 0.843091
O O13 0.621039 0.307043 0.552364
O O14 0.599444 0.283325 0.073952
O O15 0.500000 0.766174 0.500000
O O16 0.620110 0.849158 0.367351
O O17 0.327201 0.000000 0.666112
#
# Coordination Sequence:
#
# PCOD8062236 Si02
#       8
#     4   2   4   4   4   2   4   4
#     4  10  19  35  57  78 111 146 180 224 269 320
#     4  12  21  32  50  72 103 142 180 232 290 318
#     4  10  20  32  47  72 104 137 181 232 283 332
#     4  10  20  34  53  76 103 143 190 227 265 319
#     4  10  21  37  55  81 110 145 185 223 268 313
#     4  12  24  36  54  78 108 144 194 232 256 314
#     4  10  21  39  61  83 111 141 173 217 271 329
#     4  10  21  36  59  87 111 139 172 214 272 334
#
# _framework density 19.188813
#
# number of rings (size 3 to 8) (size 9 to 14) (size 15 to 20)
#    0.000    1.714    0.000    5.357    0.000    2.571 
#    0.000    5.000    0.000    7.714    0.000    0.000 
#    0.000    0.000    0.000    0.000    0.000    0.000 
#
# Total GULP energy -347307.182503 kJ/mol
# GULP energy per Si atom -12403.827947 kJ/mol
# Density = 1.914514 g / cm^3
# Si number density = 19.188813 Si / 1000 Ang^3
#
#
#
# Elastic Constant Matrix: (Units=GPa)
#
#
# Indices 1 2 3 4 5 6 
#
# 1 94.0168 33.5353 24.0505 0.0000 -20.4511 0.0000
# 2 33.5353 108.2009 10.9487 0.0000 -10.5441 0.0000
# 3 24.0505 10.9487 72.9035 0.0000 -1.1788 0.0000
# 4 0.0000 0.0000 0.0000 18.8063 0.0000 -2.1196
# 5 -20.4511 -10.5441 -1.1788 0.0000 36.5258 0.0000
# 6 0.0000 0.0000 0.0000 -2.1196 0.0000 13.8376
#
#
#
# Elastic Compliance Matrix: (Units=1/GPa)
#
#
# Indices 1 2 3 4 5 6 
#
# 1 0.014411 -0.003369 -0.004135 0.000000 0.006963 0.000000
# 2 -0.003369 0.010439 -0.000438 0.000000 0.001113 0.000000
# 3 -0.004135 -0.000438 0.015115 0.000000 -0.001954 0.000000
# 4 0.000000 0.000000 0.000000 0.054108 0.000000 0.008288
# 5 0.006963 0.001113 -0.001954 0.000000 0.031534 0.000000
# 6 0.000000 0.000000 0.000000 0.008288 0.000000 0.073536
#
#
# Mechanical properties :
#
#
# Convention : Reuss Voigt Hill
#
# Bulk Modulus (GPa) = 41.53003 45.79891 43.66447
# Shear Modulus (GPa) = 22.41587 27.60638 25.01113
#
# Velocity S-wave (km/s) = 3.42156 3.79710 3.61421
# Velocity P-wave (km/s) = 6.10731 6.56835 6.34202
#
# Compressibility (1/GPa) = 0.02407896
#
# Stress axis : x y z
#
# Youngs Moduli (GPa) = 69.39309 95.79311 66.15851
#
# Poissons Ratio (x) = 0.32277 0.27359
# Poissons Ratio (y) = 0.23382 0.02899
# Poissons Ratio (z) = 0.28697 0.04198
#
# Static dielectric constant tensor:
#      x y z
#    x 3.530000 0.000000 0.100080 
#    y 0.000000 3.205050 0.000000 
#    z 0.100080 0.000000 3.638400 
# 
# 
# High freq. dielectric constant tensor:
#      x y z
#    x 1.747460 0.000000 0.009790 
#    y 0.000000 1.717400 0.000000 
#    z 0.009790 0.000000 1.765460 
# 
# From -- ./inp_files/11385.got.cif
#   From: 2010.06.25/outbox.cif.g09.slc.cpg/sg10_6_cif.got.tgz:11385.got - 2010.06.27 22:07:45.
