data_PCOD8062400
_publ_section_title
;
Structure prediction by ZEFSAII (Michael W. Deem and Ramdas Pophale) SiO2 
 PCOD8062400
Probable space group: P 2/M
;
_chemical_formula_sum "Si O2"
_cell_formula_units_Z 32
_cell_length_a 15.345582
_cell_length_b 8.883714
_cell_length_c 25.539963
_cell_angle_alpha 90.000000
_cell_angle_beta 152.340942
_cell_angle_gamma 90.000000
_cell_volume 1616.262831
_symmetry_space_group_name_H-M "P 2/M"
_symmetry_group_IT_number 10
_symmetry_cell_setting 'monoclinic'
loop_
_space_group_symop_operation_xyz
x,y,z
-x,y,-z
-x,-y,-z
x,-y,z
loop_
_atom_site_type_symbol
_atom_site_label
_atom_site_fract_x
_atom_site_fract_y
_atom_site_fract_z
Si Si1 0.457050 0.175484 0.245786
Si Si2 0.259481 0.678364 0.775887
Si Si3 0.169304 0.177879 0.008252
Si Si4 0.201314 0.321901 0.626358
Si Si5 0.292740 0.324693 0.370559
Si Si6 0.645823 0.177306 0.999937
Si Si7 0.757789 0.175391 0.766356
Si Si8 0.953859 0.177100 0.249299
O O1 0.288215 0.242180 0.120189
O O2 0.648360 0.259287 0.334511
O O3 0.407591 0.203929 0.280056
O O4 0.484584 0.000000 0.248725
O O5 0.253943 0.500000 0.775724
O O6 0.242523 0.736485 0.707062
O O7 0.449635 0.738804 0.903439
O O8 0.084250 0.744058 0.715272
O O9 0.259531 0.238188 0.002679
O O10 0.177569 0.000000 0.013800
O O11 0.953210 0.228888 0.896766
O O12 0.210061 0.500000 0.629165
O O13 0.000000 0.262221 0.500000
O O14 0.500000 0.286058 0.500000
O O15 0.245420 0.500000 0.349939
O O16 0.280368 0.275439 0.304080
O O17 0.149540 0.233824 0.330455
O O18 0.605907 0.000000 0.977132
O O19 0.784469 0.220633 0.120489
O O20 0.770016 0.000000 0.756361
O O21 0.968552 0.000000 0.265430
#
# Coordination Sequence:
#
# PCOD8062400 Si02
#       8
#     4   4   4   4   4   4   4   4
#     4  10  20  35  61  91 118 148 188 237 285 341
#     4  11  23  38  59  88 119 154 194 239 291 347
#     4   9  16  32  58  87 120 152 183 228 286 344
#     4  10  23  42  59  77 111 157 198 238 287 341
#     4  11  25  43  61  83 115 156 198 241 290 342
#     4  10  19  35  60  87 117 155 191 231 289 349
#     4  10  20  37  61  91 120 151 190 232 287 346
#     4  11  23  40  63  89 117 152 193 239 290 347
#
# _framework density 19.798759
#
# number of rings (size 3 to 8) (size 9 to 14) (size 15 to 20)
#    0.000    1.750    2.500    1.875    0.000    7.250 
#    0.000    4.375    0.000    1.500    0.000    0.000 
#    0.000    0.000    0.000    0.000    0.000    0.000 
#
# Total GULP energy -396897.244317 kJ/mol
# GULP energy per Si atom -12403.038885 kJ/mol
# Density = 1.975370 g / cm^3
# Si number density = 19.798759 Si / 1000 Ang^3
#
#
#
# Elastic Constant Matrix: (Units=GPa)
#
#
# Indices 1 2 3 4 5 6 
#
# 1 117.2929 24.0099 35.3071 0.0000 20.3726 0.0000
# 2 24.0099 38.7655 27.3462 0.0000 10.0853 0.0000
# 3 35.3071 27.3462 97.7157 0.0000 28.0094 0.0000
# 4 0.0000 0.0000 0.0000 25.3641 0.0000 -0.6168
# 5 20.3726 10.0853 28.0094 0.0000 15.9478 0.0000
# 6 0.0000 0.0000 0.0000 -0.6168 0.0000 14.3889
#
#
#
# Elastic Compliance Matrix: (Units=1/GPa)
#
#
# Indices 1 2 3 4 5 6 
#
# 1 0.011477 -0.004226 0.000951 0.000000 -0.013659 0.000000
# 2 -0.004226 0.034369 -0.006865 0.000000 -0.004280 0.000000
# 3 0.000951 -0.006865 0.021981 0.000000 -0.035480 0.000000
# 4 0.000000 0.000000 0.000000 0.039467 0.000000 0.001692
# 5 -0.013659 -0.004280 -0.035480 0.000000 0.145174 0.000000
# 6 0.000000 0.000000 0.000000 0.001692 0.000000 0.069571
#
#
# Mechanical properties :
#
#
# Convention : Reuss Voigt Hill
#
# Bulk Modulus (GPa) = 21.03099 47.45563 34.24331
# Shear Modulus (GPa) = 13.95996 22.28088 18.12042
#
# Velocity S-wave (km/s) = 2.65824 3.35829 3.02856
# Velocity P-wave (km/s) = 4.47963 6.24968 5.43717
#
# Compressibility (1/GPa) = 0.04754887
#
# Stress axis : x y z
#
# Youngs Moduli (GPa) = 87.13190 29.09557 45.49346
#
# Poissons Ratio (x) = 0.12295 -0.04326
# Poissons Ratio (y) = 0.36818 0.31230
# Poissons Ratio (z) = -0.08286 0.19973
#
# Static dielectric constant tensor:
#      x y z
#    x 3.752100 0.000000 -0.010760 
#    y 0.000000 3.358430 0.000000 
#    z -0.010760 0.000000 3.754590 
# 
# 
# High freq. dielectric constant tensor:
#      x y z
#    x 1.788160 0.000000 0.002960 
#    y 0.000000 1.751220 0.000000 
#    z 0.002960 0.000000 1.770870 
# 
# From -- ./inp_files/71410.got.cif
#   From: 2010.06.25/outbox.cif.g09.slc.cpg/sg10_36_cif.got.tgz:71410.got - 2010.06.27 22:07:45.
