data_PCOD8062026
_publ_section_title
;
Structure prediction by ZEFSAII (Michael W. Deem and Ramdas Pophale) SiO2 
 PCOD8062026
Probable space group: P 2/M
;
_chemical_formula_sum "Si O2"
_cell_formula_units_Z 32
_cell_length_a 24.476939
_cell_length_b 12.588899
_cell_length_c 5.256724
_cell_angle_alpha 90.000000
_cell_angle_beta 101.134956
_cell_angle_gamma 90.000000
_cell_volume 1589.302311
_symmetry_space_group_name_H-M "P 2/M"
_symmetry_group_IT_number 10
_symmetry_cell_setting 'monoclinic'
loop_
_space_group_symop_operation_xyz
x,y,z
-x,y,-z
-x,-y,-z
x,-y,z
loop_
_atom_site_type_symbol
_atom_site_label
_atom_site_fract_x
_atom_site_fract_y
_atom_site_fract_z
Si Si1 0.781432 0.280231 0.445194
Si Si2 0.355573 0.742504 0.171878
Si Si3 0.262876 0.883623 0.941206
Si Si4 0.842922 0.882499 0.841740
Si Si5 0.534868 0.122901 0.779169
Si Si6 0.935417 0.729247 0.937148
Si Si7 0.109956 0.624361 0.614214
Si Si8 0.671134 0.378061 0.368891
O O1 0.818681 0.219593 0.679383
O O2 0.825661 0.336835 0.296294
O O3 0.737296 0.368033 0.502899
O O4 0.739120 0.190775 0.304055
O O5 0.304410 0.825694 0.176277
O O6 0.410290 0.807283 0.154562
O O7 0.364525 0.678787 0.441633
O O8 0.342361 0.665156 0.924408
O O9 0.198446 0.896137 0.960890
O O10 0.286933 0.000000 0.895200
O O11 0.904582 0.842236 0.970073
O O12 0.846462 0.000000 0.708182
O O13 0.500000 0.155988 0.500000
O O14 0.552460 0.000000 0.779869
O O15 0.500000 0.146901 0.000000
O O16 0.920360 0.681920 0.648078
O O17 0.921008 0.646629 0.148449
O O18 0.000000 0.756202 0.000000
O O19 0.108661 0.500000 0.557353
O O20 0.653945 0.500000 0.355819
#
# Coordination Sequence:
#
# PCOD8062026 Si02
#       8
#     4   4   4   4   4   4   4   4
#     4  10  20  37  56  87 118 155 191 240 292 365
#     4  11  22  39  61  92 123 158 200 248 294 351
#     4  10  19  34  57  86 119 152 186 234 294 356
#     4  10  20  37  58  83 118 152 187 235 294 353
#     4  10  21  39  64  94 128 165 202 244 297 353
#     4  11  24  41  59  84 113 149 197 241 287 353
#     4  11  23  39  62  84 111 148 192 244 299 350
#     4  11  23  38  60  87 123 161 201 248 298 349
#
# _framework density 20.134623000000001
#
# number of rings (size 3 to 8) (size 9 to 14) (size 15 to 20)
#    0.000    1.500    2.500    3.000    0.000    1.750 
#    0.000    5.000    0.000    9.750    0.000    0.000 
#    0.000    0.000    0.000    0.000    0.000    0.000 
#
# Total GULP energy -396494.109182 kJ/mol
# GULP energy per Si atom -12390.440912 kJ/mol
# Density = 2.008880 g / cm^3
# Si number density = 20.134623 Si / 1000 Ang^3
#
#
#
# Elastic Constant Matrix: (Units=GPa)
#
#
# Indices 1 2 3 4 5 6 
#
# 1 99.7727 43.8098 21.8350 0.0000 3.3261 0.0000
# 2 43.8098 101.7868 19.7398 0.0000 8.3700 0.0000
# 3 21.8350 19.7398 82.3995 0.0000 -8.3089 0.0000
# 4 0.0000 0.0000 0.0000 0.6626 0.0000 4.2790
# 5 3.3261 8.3700 -8.3089 0.0000 28.0112 0.0000
# 6 0.0000 0.0000 0.0000 4.2790 0.0000 17.9869
#
#
#
# Elastic Compliance Matrix: (Units=1/GPa)
#
#
# Indices 1 2 3 4 5 6 
#
# 1 0.012727 -0.004985 -0.002248 0.000000 -0.000688 0.000000
# 2 -0.004985 0.012693 -0.002105 0.000000 -0.003825 0.000000
# 3 -0.002248 -0.002105 0.013737 0.000000 0.004971 0.000000
# 4 0.000000 0.000000 0.000000 -2.814004 0.000000 0.669429
# 5 -0.000688 -0.003825 0.004971 0.000000 0.038399 0.000000
# 6 0.000000 0.000000 0.000000 0.669429 0.000000 -0.103656
#
#
# Mechanical properties :
#
#
# Convention : Reuss Voigt Hill
#
# Bulk Modulus (GPa) = 48.82717 50.52534 49.67625
# Shear Modulus (GPa) = -1.77645 22.57043 10.39699
#
# Velocity S-wave (km/s) = -0.94032 3.35173 2.27485
# Velocity P-wave (km/s) = 4.80875 6.33459 5.62366
#
# Compressibility (1/GPa) = 0.02048040
#
# Stress axis : x y z
#
# Youngs Moduli (GPa) = 78.57583 78.78371 72.79491
#
# Poissons Ratio (x) = 0.39275 0.16361
# Poissons Ratio (y) = 0.39171 0.15327
# Poissons Ratio (z) = 0.17660 0.16588
#
# Static dielectric constant tensor:
#      x y z
#    x 3.826900 0.000000 0.070020 
#    y 0.000000 3.900350 0.000000 
#    z 0.070020 0.000000 3.536660 
# 
# 
# High freq. dielectric constant tensor:
#      x y z
#    x 1.782780 0.000000 -0.001980 
#    y 0.000000 1.791200 0.000000 
#    z -0.001980 0.000000 1.775860 
# 
# From -- ./inp_files/13180.got.cif
#   From: 2010.06.25/outbox.cif.g09.slc.cpg/sg10_7_cif.got.tgz:13180.got - 2010.06.27 22:07:45.
