data_PCOD8062570
_publ_section_title
;
Structure prediction by ZEFSAII (Michael W. Deem and Ramdas Pophale) SiO2 
 PCOD8062570
Probable space group: P 2/M
;
_chemical_formula_sum "Si O2"
_cell_formula_units_Z 32
_cell_length_a 25.358058
_cell_length_b 8.406781
_cell_length_c 14.744085
_cell_angle_alpha 90.000000
_cell_angle_beta 30.292737
_cell_angle_gamma 90.000000
_cell_volume 1585.456298
_symmetry_space_group_name_H-M "P 2/M"
_symmetry_group_IT_number 10
_symmetry_cell_setting 'monoclinic'
loop_
_space_group_symop_operation_xyz
x,y,z
-x,y,-z
-x,-y,-z
x,-y,z
loop_
_atom_site_type_symbol
_atom_site_label
_atom_site_fract_x
_atom_site_fract_y
_atom_site_fract_z
Si Si1 0.772525 0.312178 0.948305
Si Si2 0.492340 0.183041 0.231853
Si Si3 0.546429 0.311457 0.336705
Si Si4 0.705694 0.685259 0.852823
Si Si5 0.902772 0.311308 0.087625
Si Si6 0.951064 0.689656 0.814028
Si Si7 0.725131 0.684412 0.482771
Si Si8 0.176389 0.816775 0.488213
O O1 0.776749 0.500000 0.947256
O O2 0.770266 0.258801 0.846422
O O3 0.871658 0.243353 0.855393
O O4 0.666449 0.254250 0.154417
O O5 0.480993 0.228810 0.354138
O O6 0.381207 0.216356 0.350207
O O7 0.522131 0.000000 0.175278
O O8 0.582328 0.287548 0.050933
O O9 0.500000 0.251342 0.500000
O O10 0.535386 0.500000 0.341287
O O11 0.724747 0.500000 0.804284
O O12 0.744100 0.789119 0.712126
O O13 0.908631 0.500000 0.083748
O O14 0.794048 0.254871 0.294740
O O15 0.908974 0.252871 0.974653
O O16 0.000000 0.238781 0.000000
O O17 0.961901 0.500000 0.794567
O O18 0.061211 0.768193 0.627173
O O19 0.696665 0.500000 0.514124
O O20 0.792727 0.708019 0.472830
O O21 0.180496 0.000000 0.511061
#
# Coordination Sequence:
#
# PCOD8062570 Si02
#       8
#     4   4   4   4   4   4   4   4
#     4   8  17  33  58  88 114 145 195 251 291 328
#     4  11  23  39  58  87 125 157 189 239 304 362
#     4   9  18  34  58  86 116 156 208 251 284 336
#     4  10  21  42  65  86 112 151 202 250 292 344
#     4   9  17  32  58  88 115 148 195 244 285 331
#     4  10  19  36  60  87 118 154 196 241 289 345
#     4  11  22  39  63  89 116 155 202 244 287 347
#     4  12  25  40  58  86 119 154 193 242 302 357
#
# _framework density 20.183463
#
# number of rings (size 3 to 8) (size 9 to 14) (size 15 to 20)
#    0.000    2.000    1.250    3.750    1.750    1.250 
#    0.000   10.000    0.000    0.000    0.000    0.000 
#    0.000    0.000    0.000    0.000    0.000    0.000 
#
# Total GULP energy -396861.438248 kJ/mol
# GULP energy per Si atom -12401.919945 kJ/mol
# Density = 2.013752 g / cm^3
# Si number density = 20.183463 Si / 1000 Ang^3
#
#
#
# Elastic Constant Matrix: (Units=GPa)
#
#
# Indices 1 2 3 4 5 6 
#
# 1 63.7451 14.3840 38.0276 0.0000 -11.4454 0.0000
# 2 14.3840 44.9554 14.9039 0.0000 1.8256 0.0000
# 3 38.0276 14.9039 99.5122 0.0000 1.9681 0.0000
# 4 0.0000 0.0000 0.0000 13.8364 0.0000 0.3162
# 5 -11.4454 1.8256 1.9681 0.0000 39.7488 0.0000
# 6 0.0000 0.0000 0.0000 0.3162 0.0000 15.8848
#
#
#
# Elastic Compliance Matrix: (Units=1/GPa)
#
#
# Indices 1 2 3 4 5 6 
#
# 1 0.022988 -0.004935 -0.008189 0.000000 0.007251 0.000000
# 2 -0.004935 0.024498 -0.001735 0.000000 -0.002460 0.000000
# 3 -0.008189 -0.001735 0.013496 0.000000 -0.002947 0.000000
# 4 0.000000 0.000000 0.000000 0.072306 0.000000 -0.001439
# 5 0.007251 -0.002460 -0.002947 0.000000 0.027505 0.000000
# 6 0.000000 0.000000 0.000000 -0.001439 0.000000 0.062982
#
#
# Mechanical properties :
#
#
# Convention : Reuss Voigt Hill
#
# Bulk Modulus (GPa) = 31.98385 38.09373 35.03879
# Shear Modulus (GPa) = 18.94552 23.28715 21.11633
#
# Velocity S-wave (km/s) = 3.06709 3.40041 3.23804
# Velocity P-wave (km/s) = 5.33139 5.85933 5.60158
#
# Compressibility (1/GPa) = 0.03126578
#
# Stress axis : x y z
#
# Youngs Moduli (GPa) = 43.50047 40.81931 74.09365
#
# Poissons Ratio (x) = 0.20144 0.60676
# Poissons Ratio (y) = 0.21467 0.12852
# Poissons Ratio (z) = 0.35623 0.07080
#
# Static dielectric constant tensor:
#      x y z
#    x 3.807390 0.000000 -0.018080 
#    y 0.000000 3.299820 0.000000 
#    z -0.018080 0.000000 3.709870 
# 
# 
# High freq. dielectric constant tensor:
#      x y z
#    x 1.790670 0.000000 -0.000730 
#    y 0.000000 1.758650 0.000000 
#    z -0.000730 0.000000 1.793520 
# 
# From -- ./inp_files/71535.got.cif
#   From: 2010.06.25/outbox.cif.g09.slc.cpg/sg10_36_cif.got.tgz:71535.got - 2010.06.27 22:07:45.
