data_PCOD8062601
_publ_section_title
;
Structure prediction by ZEFSAII (Michael W. Deem and Ramdas Pophale) SiO2 
 PCOD8062601
Probable space group: P 2/M
;
_chemical_formula_sum "Si O2"
_cell_formula_units_Z 32
_cell_length_a 9.835324
_cell_length_b 18.934454
_cell_length_c 13.420585
_cell_angle_alpha 90.000000
_cell_angle_beta 137.617049
_cell_angle_gamma 90.000000
_cell_volume 1684.713421
_symmetry_space_group_name_H-M "P 2/M"
_symmetry_group_IT_number 10
_symmetry_cell_setting 'monoclinic'
loop_
_space_group_symop_operation_xyz
x,y,z
-x,y,-z
-x,-y,-z
x,-y,z
loop_
_atom_site_type_symbol
_atom_site_label
_atom_site_fract_x
_atom_site_fract_y
_atom_site_fract_z
Si Si1 0.763769 0.701148 0.854915
Si Si2 0.680583 0.848861 0.173600
Si Si3 0.579153 0.920126 0.818654
Si Si4 0.769508 0.420059 0.367326
Si Si5 0.552948 0.296534 0.143231
Si Si6 0.053410 0.916221 0.838745
Si Si7 0.348448 0.834608 0.326771
Si Si8 0.462313 0.580406 0.368654
O O1 0.644334 0.716536 0.893659
O O2 0.715667 0.757316 0.742668
O O3 0.707069 0.625005 0.780108
O O4 0.000000 0.702943 0.000000
O O5 0.612817 0.909344 0.213809
O O6 0.703610 0.771442 0.237408
O O7 0.879742 0.876819 0.226647
O O8 0.500000 0.836666 0.000000
O O9 0.536366 0.871467 0.701369
O O10 0.587817 0.000000 0.786938
O O11 0.788433 0.899722 0.987213
O O12 0.744586 0.500000 0.313005
O O13 0.665100 0.367557 0.234318
O O14 0.673657 0.412959 0.425020
O O15 0.000000 0.397965 0.500000
O O16 0.500000 0.308404 0.000000
O O17 0.839632 0.884542 0.750624
O O18 0.038063 0.000000 0.811911
O O19 0.500000 0.827649 0.500000
O O20 0.500000 0.609429 0.500000
O O21 0.383124 0.500000 0.328814
#
# Coordination Sequence:
#
# PCOD8062601 Si02
#       8
#     4   4   4   4   4   4   4   4
#     4  11  23  39  61  86 116 152 196 242 287 339
#     4   9  18  35  58  86 114 143 184 238 285 338
#     4  10  19  36  62  85 111 146 186 233 288 341
#     4   9  19  37  59  85 120 158 193 230 276 336
#     4  10  21  37  58  88 115 148 188 241 289 333
#     4  10  21  38  62  88 111 145 192 236 287 346
#     4  12  25  39  55  81 116 154 190 237 287 344
#     4   9  19  38  61  88 124 159 194 234 280 337
#
# _framework density 18.994327999999999
#
# number of rings (size 3 to 8) (size 9 to 14) (size 15 to 20)
#    0.000    2.000    1.250    2.250    3.500    5.000 
#    4.500    0.625    0.000    1.500    0.000    0.000 
#    0.000    0.000    0.000    0.000    0.000    0.000 
#
# Total GULP energy -396748.387376 kJ/mol
# GULP energy per Si atom -12398.387106 kJ/mol
# Density = 1.895110 g / cm^3
# Si number density = 18.994328 Si / 1000 Ang^3
#
#
#
# Elastic Constant Matrix: (Units=GPa)
#
#
# Indices 1 2 3 4 5 6 
#
# 1 91.7407 47.4976 47.0812 0.0000 -12.3323 0.0000
# 2 47.4976 105.8353 50.8857 0.0000 -3.9678 0.0000
# 3 47.0812 50.8857 96.2967 0.0000 -11.4599 0.0000
# 4 0.0000 0.0000 0.0000 18.8774 0.0000 -2.8214
# 5 -12.3323 -3.9678 -11.4599 0.0000 19.3940 0.0000
# 6 0.0000 0.0000 0.0000 -2.8214 0.0000 32.6936
#
#
#
# Elastic Compliance Matrix: (Units=1/GPa)
#
#
# Indices 1 2 3 4 5 6 
#
# 1 0.016876 -0.005017 -0.004781 0.000000 0.006880 0.000000
# 2 -0.005017 0.014197 -0.005468 0.000000 -0.003517 0.000000
# 3 -0.004781 -0.005468 0.016260 0.000000 0.005449 0.000000
# 4 0.000000 0.000000 0.000000 0.053666 0.000000 0.004631
# 5 0.006880 -0.003517 0.005449 0.000000 0.058437 0.000000
# 6 0.000000 0.000000 0.000000 0.004631 0.000000 0.030987
#
#
# Mechanical properties :
#
#
# Convention : Reuss Voigt Hill
#
# Bulk Modulus (GPa) = 59.51892 64.97799 62.24846
# Shear Modulus (GPa) = 22.06955 24.08687 23.07821
#
# Velocity S-wave (km/s) = 3.41237 3.56491 3.48947
# Velocity P-wave (km/s) = 6.85046 7.15739 7.00561
#
# Compressibility (1/GPa) = 0.01680138
#
# Stress axis : x y z
#
# Youngs Moduli (GPa) = 59.25426 70.43565 61.50066
#
# Poissons Ratio (x) = 0.35339 0.29405
# Poissons Ratio (y) = 0.29729 0.33627
# Poissons Ratio (z) = 0.28331 0.38513
#
# Static dielectric constant tensor:
#      x y z
#    x 3.679950 0.000000 -0.179680 
#    y 0.000000 3.740180 0.000000 
#    z -0.179680 0.000000 3.195330 
# 
# 
# High freq. dielectric constant tensor:
#      x y z
#    x 1.750090 0.000000 -0.014000 
#    y 0.000000 1.757550 0.000000 
#    z -0.014000 0.000000 1.704850 
# 
# From -- ./inp_files/43625.got.cif
#   From: 2010.06.25/outbox.cif.g09.slc.cpg/sg10_22_cif.got.tgz:43625.got - 2010.06.27 22:07:45.
