data_PCOD8062109
_publ_section_title
;
Structure prediction by ZEFSAII (Michael W. Deem and Ramdas Pophale) SiO2 
 PCOD8062109
Probable space group: P 2/M
;
_chemical_formula_sum "Si O2"
_cell_formula_units_Z 28
_cell_length_a 9.658803
_cell_length_b 8.707384
_cell_length_c 27.644161
_cell_angle_alpha 90.000000
_cell_angle_beta 38.477776
_cell_angle_gamma 90.000000
_cell_volume 1446.612206
_symmetry_space_group_name_H-M "P 2/M"
_symmetry_group_IT_number 10
_symmetry_cell_setting 'monoclinic'
loop_
_space_group_symop_operation_xyz
x,y,z
-x,y,-z
-x,-y,-z
x,-y,z
loop_
_atom_site_type_symbol
_atom_site_label
_atom_site_fract_x
_atom_site_fract_y
_atom_site_fract_z
Si Si1 0.747734 0.328657 0.951147
Si Si2 0.992987 0.825241 0.798772
Si Si3 0.770656 0.180175 0.044924
Si Si4 0.350290 0.680092 0.636352
Si Si5 0.167660 0.179794 0.497298
Si Si6 0.313205 0.176509 0.208896
Si Si7 0.952869 0.679022 0.370050
O O1 0.813487 0.500000 0.949835
O O2 0.926440 0.276069 0.862724
O O3 0.500000 0.325512 0.000000
O O4 0.749421 0.211827 0.994547
O O5 0.225673 0.766320 0.713721
O O6 0.801330 0.809659 0.811681
O O7 0.024400 0.000000 0.807077
O O8 0.562625 0.242782 0.133386
O O9 0.773249 0.000000 0.052237
O O10 0.000000 0.257092 0.000000
O O11 0.320902 0.500000 0.652269
O O12 0.606643 0.724751 0.569216
O O13 0.244984 0.726357 0.612984
O O14 0.060077 0.220856 0.578110
O O15 0.000000 0.226904 0.500000
O O16 0.222447 0.000000 0.480255
O O17 0.190899 0.284034 0.281043
O O18 0.308038 0.000000 0.228395
O O19 0.938473 0.500000 0.387237
#
# Coordination Sequence:
#
# PCOD8062109 Si02
#       7
#     4   4   4   4   4   4   4
#     4  11  22  35  56  84 116 153 193 239 289 338
#     4  10  19  34  59  87 114 148 192 239 285 334
#     4  10  21  38  58  82 113 153 196 240 288 341
#     4  10  21  38  61  89 119 147 185 234 286 341
#     4  11  24  41  60  85 117 153 192 231 276 334
#     4   9  18  34  57  84 113 147 190 237 284 336
#     4  10  21  37  61  89 114 147 188 234 287 340
#
# _framework density 19.355566
#
# number of rings (size 3 to 8) (size 9 to 14) (size 15 to 20)
#    0.000    1.857    1.429    2.571    0.000    6.571 
#    2.571    0.000    0.000    0.000    0.000    0.000 
#    0.000    0.000    0.000    0.000    0.000    0.000 
#
# Total GULP energy -347237.936921 kJ/mol
# GULP energy per Si atom -12401.354890 kJ/mol
# Density = 1.931151 g / cm^3
# Si number density = 19.355566 Si / 1000 Ang^3
#
#
#
# Elastic Constant Matrix: (Units=GPa)
#
#
# Indices 1 2 3 4 5 6 
#
# 1 78.2644 21.5318 50.2036 0.0000 -10.2937 0.0000
# 2 21.5318 35.8937 19.9691 0.0000 -3.9802 0.0000
# 3 50.2036 19.9691 124.3038 0.0000 -8.8968 0.0000
# 4 0.0000 0.0000 0.0000 41.4599 0.0000 2.6690
# 5 -10.2937 -3.9802 -8.8968 0.0000 27.0629 0.0000
# 6 0.0000 0.0000 0.0000 2.6690 0.0000 22.4155
#
#
#
# Elastic Compliance Matrix: (Units=1/GPa)
#
#
# Indices 1 2 3 4 5 6 
#
# 1 0.019522 -0.007715 -0.006344 0.000000 0.004205 0.000000
# 2 -0.007715 0.033876 -0.002232 0.000000 0.001314 0.000000
# 3 -0.006344 -0.002232 0.011029 0.000000 0.000884 0.000000
# 4 0.000000 0.000000 0.000000 0.024306 0.000000 -0.002894
# 5 0.004205 0.001314 0.000884 0.000000 0.039034 0.000000
# 6 0.000000 0.000000 0.000000 -0.002894 0.000000 0.044957
#
#
# Mechanical properties :
#
#
# Convention : Reuss Voigt Hill
#
# Bulk Modulus (GPa) = 31.40292 46.87452 39.13872
# Shear Modulus (GPa) = 23.15653 27.97151 25.56402
#
# Velocity S-wave (km/s) = 3.46262 3.80562 3.63817
# Velocity P-wave (km/s) = 5.67854 6.60156 6.15737
#
# Compressibility (1/GPa) = 0.03184417
#
# Stress axis : x y z
#
# Youngs Moduli (GPa) = 51.22300 29.51970 90.67019
#
# Poissons Ratio (x) = 0.22775 0.57524
# Poissons Ratio (y) = 0.39519 0.20238
# Poissons Ratio (z) = 0.32497 0.06589
#
# Static dielectric constant tensor:
#      x y z
#    x 3.462220 0.000000 -0.116230 
#    y 0.000000 3.544240 0.000000 
#    z -0.116230 0.000000 3.692770 
# 
# 
# High freq. dielectric constant tensor:
#      x y z
#    x 1.732170 0.000000 -0.001800 
#    y 0.000000 1.755340 0.000000 
#    z -0.001800 0.000000 1.769140 
# 
# From -- ./inp_files/36979.got.cif
#   From: 2010.06.25/outbox.cif.g09.slc.cpg/sg10_19_cif.got.tgz:36979.got - 2010.06.27 22:07:45.
