data_PCOD8062055
_publ_section_title
;
Structure prediction by ZEFSAII (Michael W. Deem and Ramdas Pophale) SiO2 
 PCOD8062055
Probable space group: P 2/M
;
_chemical_formula_sum "Si O2"
_cell_formula_units_Z 32
_cell_length_a 28.649836
_cell_length_b 9.192309
_cell_length_c 12.521791
_cell_angle_alpha 90.000000
_cell_angle_beta 30.690220
_cell_angle_gamma 90.000000
_cell_volume 1683.141339
_symmetry_space_group_name_H-M "P 2/M"
_symmetry_group_IT_number 10
_symmetry_cell_setting 'monoclinic'
loop_
_space_group_symop_operation_xyz
x,y,z
-x,y,-z
-x,-y,-z
x,-y,z
loop_
_atom_site_type_symbol
_atom_site_label
_atom_site_fract_x
_atom_site_fract_y
_atom_site_fract_z
Si Si1 0.292469 0.671048 0.787805
Si Si2 0.505453 0.330441 0.689016
Si Si3 0.445029 0.838248 0.215278
Si Si4 0.168961 0.833599 0.860601
Si Si5 0.200077 0.331353 0.405833
Si Si6 0.974394 0.166146 0.168342
Si Si7 0.312832 0.671379 0.984188
Si Si8 0.729115 0.332230 0.506929
O O1 0.275309 0.500000 0.808187
O O2 0.397515 0.709983 0.554519
O O3 0.219934 0.753714 0.857133
O O4 0.275377 0.723953 0.943169
O O5 0.501149 0.500000 0.728590
O O6 0.490091 0.231958 0.823469
O O7 0.420418 0.287551 0.780395
O O8 0.362060 0.728071 0.366261
O O9 0.411484 0.000000 0.315105
O O10 0.500000 0.850219 0.000000
O O11 0.189237 0.758008 0.707047
O O12 0.202221 0.000000 0.793439
O O13 0.059327 0.823319 0.084100
O O14 0.177154 0.500000 0.433626
O O15 0.105328 0.253665 0.616928
O O16 0.269249 0.310386 0.369185
O O17 0.250513 0.262543 0.202590
O O18 0.941964 0.000000 0.217648
O O19 0.000000 0.228749 0.000000
O O20 0.304444 0.500000 0.009480
O O21 0.738015 0.500000 0.456543
#
# Coordination Sequence:
#
# PCOD8062055 Si02
#       8
#     4   4   4   4   4   4   4   4
#     4  10  20  36  60  86 113 151 195 233 276 333
#     4  10  19  34  58  84 111 148 194 237 276 328
#     4  11  23  35  49  76 116 157 190 227 279 334
#     4  11  22  37  58  83 114 146 182 232 285 335
#     4  10  21  36  58  86 115 147 186 237 285 333
#     4  10  21  38  59  83 112 150 187 227 287 347
#     4   9  19  37  58  84 117 150 188 235 286 333
#     4  11  21  34  55  83 113 146 185 229 281 335
#
# _framework density 19.012070000000001
#
# number of rings (size 3 to 8) (size 9 to 14) (size 15 to 20)
#    0.000    1.750    2.500    2.250    0.000    5.250 
#    0.000    2.500    0.000    5.250    0.000    0.000 
#    0.000    0.000    0.000    0.000    0.000    0.000 
#
# Total GULP energy -396711.720652 kJ/mol
# GULP energy per Si atom -12397.241270 kJ/mol
# Density = 1.896880 g / cm^3
# Si number density = 19.012070 Si / 1000 Ang^3
#
#
#
# Elastic Constant Matrix: (Units=GPa)
#
#
# Indices 1 2 3 4 5 6 
#
# 1 112.3792 45.9376 52.0803 0.0000 9.9661 0.0000
# 2 45.9376 76.4274 33.9638 0.0000 3.1447 0.0000
# 3 52.0803 33.9638 89.6354 0.0000 7.0550 0.0000
# 4 0.0000 0.0000 0.0000 19.4968 0.0000 -0.5841
# 5 9.9661 3.1447 7.0550 0.0000 33.3961 0.0000
# 6 0.0000 0.0000 0.0000 -0.5841 0.0000 21.9588
#
#
#
# Elastic Compliance Matrix: (Units=1/GPa)
#
#
# Indices 1 2 3 4 5 6 
#
# 1 0.014217 -0.005843 -0.005853 0.000000 -0.002456 0.000000
# 2 -0.005843 0.018137 -0.003539 0.000000 0.000784 0.000000
# 3 -0.005853 -0.003539 0.016000 0.000000 -0.001300 0.000000
# 4 0.000000 0.000000 0.000000 0.051331 0.000000 0.001366
# 5 -0.002456 0.000784 -0.001300 0.000000 0.030877 0.000000
# 6 0.000000 0.000000 0.000000 0.001366 0.000000 0.045576
#
#
# Mechanical properties :
#
#
# Convention : Reuss Voigt Hill
#
# Bulk Modulus (GPa) = 55.91612 60.26726 58.09169
# Shear Modulus (GPa) = 23.52146 24.73437 24.12791
#
# Velocity S-wave (km/s) = 3.52118 3.61083 3.56629
# Velocity P-wave (km/s) = 6.78280 7.01088 6.89778
#
# Compressibility (1/GPa) = 0.01788393
#
# Stress axis : x y z
#
# Youngs Moduli (GPa) = 70.33603 55.13614 62.49837
#
# Poissons Ratio (x) = 0.32218 0.36582
# Poissons Ratio (y) = 0.41100 0.22117
# Poissons Ratio (z) = 0.41170 0.19512
#
# Static dielectric constant tensor:
#      x y z
#    x 3.697740 0.000000 -0.038620 
#    y 0.000000 3.449210 0.000000 
#    z -0.038620 0.000000 3.893190 
# 
# 
# High freq. dielectric constant tensor:
#      x y z
#    x 1.743590 0.000000 -0.001740 
#    y 0.000000 1.725940 0.000000 
#    z -0.001740 0.000000 1.730820 
# 
# From -- ./inp_files/58131.got.cif
#   From: 2010.06.25/outbox.cif.g09.slc.cpg/sg10_30_cif.got.tgz:58131.got - 2010.06.27 22:07:45.
