data_PCOD8062566
_publ_section_title
;
Structure prediction by ZEFSAII (Michael W. Deem and Ramdas Pophale) SiO2 
 PCOD8062566
Probable space group: P 2/M
;
_chemical_formula_sum "Si O2"
_cell_formula_units_Z 22
_cell_length_a 19.119667
_cell_length_b 9.721966
_cell_length_c 9.093090
_cell_angle_alpha 90.000000
_cell_angle_beta 140.272020
_cell_angle_gamma 90.000000
_cell_volume 1080.299734
_symmetry_space_group_name_H-M "P 2/M"
_symmetry_group_IT_number 10
_symmetry_cell_setting 'monoclinic'
loop_
_space_group_symop_operation_xyz
x,y,z
-x,y,-z
-x,-y,-z
x,-y,z
loop_
_atom_site_type_symbol
_atom_site_label
_atom_site_fract_x
_atom_site_fract_y
_atom_site_fract_z
Si Si1 0.469715 0.841413 0.282662
Si Si2 0.000000 0.751647 0.000000
Si Si3 0.218703 0.843726 0.826063
Si Si4 0.178896 0.651931 0.501475
Si Si5 0.818538 0.846611 0.911188
Si Si6 0.344590 0.338391 0.522811
O O1 0.500000 0.812663 0.500000
O O2 0.539451 0.739606 0.291402
O O3 0.493360 0.000000 0.278819
O O4 0.344327 0.801669 0.053975
O O5 0.921468 0.657082 0.774917
O O6 0.928610 0.846102 0.993168
O O7 0.162215 0.755543 0.607991
O O8 0.209316 0.000000 0.757906
O O9 0.153006 0.819131 0.871834
O O10 0.182957 0.500000 0.575584
O O11 0.291666 0.684080 0.597696
O O12 0.732861 0.731356 0.724051
O O13 0.765182 0.000000 0.811020
O O14 0.358086 0.500000 0.507656
#
# Coordination Sequence:
#
# PCOD8062566 Si02
#       6
#     4   2   4   4   4   4
#     4  10  19  36  60  86 120 160 194 234 287 342
#     4  10  22  40  66  88 108 152 200 242 296 352
#     4  10  22  38  59  88 121 152 192 242 290 345
#     4  10  23  42  60  83 119 156 194 243 293 347
#     4  10  20  38  61  88 118 151 194 244 292 347
#     4  10  21  36  58  87 119 158 199 238 283 343
#
# _framework density 20.364716999999999
#
# number of rings (size 3 to 8) (size 9 to 14) (size 15 to 20)
#    0.000    2.000    1.818    1.091    0.000    8.364 
#    0.000    6.364    0.000    0.000    0.000    0.000 
#    0.000    0.000    0.000    0.000    0.000    0.000 
#
# Total GULP energy -272806.053234 kJ/mol
# GULP energy per Si atom -12400.275147 kJ/mol
# Density = 2.031837 g / cm^3
# Si number density = 20.364717 Si / 1000 Ang^3
#
#
#
# Elastic Constant Matrix: (Units=GPa)
#
#
# Indices 1 2 3 4 5 6 
#
# 1 120.6303 60.4749 47.0529 0.0000 -5.5531 0.0000
# 2 60.4749 115.6797 37.9382 0.0000 -14.5537 0.0000
# 3 47.0529 37.9382 81.4477 0.0000 -11.9584 0.0000
# 4 0.0000 0.0000 0.0000 22.5644 0.0000 -5.5788
# 5 -5.5531 -14.5537 -11.9584 0.0000 28.9816 0.0000
# 6 0.0000 0.0000 0.0000 -5.5788 0.0000 14.4085
#
#
#
# Elastic Compliance Matrix: (Units=1/GPa)
#
#
# Indices 1 2 3 4 5 6 
#
# 1 0.012924 -0.005304 -0.005347 0.000000 -0.002394 0.000000
# 2 -0.005304 0.012698 -0.002197 0.000000 0.004454 0.000000
# 3 -0.005347 -0.002197 0.017115 0.000000 0.004934 0.000000
# 4 0.000000 0.000000 0.000000 0.049009 0.000000 0.018976
# 5 -0.002394 0.004454 0.004934 0.000000 0.038319 0.000000
# 6 0.000000 0.000000 0.000000 0.018976 0.000000 0.076750
#
#
# Mechanical properties :
#
#
# Convention : Reuss Voigt Hill
#
# Bulk Modulus (GPa) = 58.68144 67.63220 63.15682
# Shear Modulus (GPa) = 20.99148 24.67703 22.83425
#
# Velocity S-wave (km/s) = 3.21405 3.48480 3.35216
# Velocity P-wave (km/s) = 6.53080 7.03380 6.78696
#
# Compressibility (1/GPa) = 0.01704116
#
# Stress axis : x y z
#
# Youngs Moduli (GPa) = 77.37283 78.75159 58.42944
#
# Poissons Ratio (x) = 0.41770 0.31244
# Poissons Ratio (y) = 0.41039 0.12835
# Poissons Ratio (z) = 0.41374 0.17299
#
# Static dielectric constant tensor:
#      x y z
#    x 3.954120 0.000000 0.067280 
#    y 0.000000 3.623230 0.000000 
#    z 0.067280 0.000000 3.424650 
# 
# 
# High freq. dielectric constant tensor:
#      x y z
#    x 1.804520 0.000000 0.001610 
#    y 0.000000 1.794140 0.000000 
#    z 0.001610 0.000000 1.777440 
# 
# From -- ./inp_files/34070.got.cif
#   From: 2010.06.25/outbox.cif.g09.slc.cpg/sg10_18_cif.got.tgz:34070.got - 2010.06.27 22:07:45.
