data_PCOD8062165
_publ_section_title
;
Structure prediction by ZEFSAII (Michael W. Deem and Ramdas Pophale) SiO2 
 PCOD8062165
Probable space group: P 2/M
;
_chemical_formula_sum "Si O2"
_cell_formula_units_Z 28
_cell_length_a 14.872822
_cell_length_b 8.810740
_cell_length_c 11.867292
_cell_angle_alpha 90.000000
_cell_angle_beta 71.157741
_cell_angle_gamma 90.000000
_cell_volume 1471.761091
_symmetry_space_group_name_H-M "P 2/M"
_symmetry_group_IT_number 10
_symmetry_cell_setting 'monoclinic'
loop_
_space_group_symop_operation_xyz
x,y,z
-x,y,-z
-x,-y,-z
x,-y,z
loop_
_atom_site_type_symbol
_atom_site_label
_atom_site_fract_x
_atom_site_fract_y
_atom_site_fract_z
Si Si1 0.671026 0.321072 0.614542
Si Si2 0.751851 0.177658 0.800745
Si Si3 0.601126 0.673966 0.013237
Si Si4 0.546088 0.676336 0.285999
Si Si5 0.298985 0.179602 0.631069
Si Si6 0.917343 0.820275 0.888858
Si Si7 0.124902 0.819499 0.847968
O O1 0.677003 0.500000 0.598801
O O2 0.732786 0.271956 0.696413
O O3 0.562474 0.267037 0.675851
O O4 0.716110 0.243305 0.487421
O O5 0.675140 0.211562 0.928340
O O6 0.854058 0.231519 0.808224
O O7 0.749831 0.000000 0.773272
O O8 0.631269 0.500000 0.977159
O O9 0.500000 0.706803 0.000000
O O10 0.596991 0.709351 0.147160
O O11 0.549598 0.500000 0.316200
O O12 0.599772 0.767484 0.361638
O O13 0.214021 0.247057 0.742764
O O14 0.296526 0.000000 0.627356
O O15 0.026084 0.764813 0.829541
O O16 0.915413 0.000000 0.899661
O O17 0.873378 0.756902 0.024334
O O18 0.130561 0.000000 0.844454
#
# Coordination Sequence:
#
# PCOD8062165 Si02
#       7
#     4   4   4   4   4   4   4
#     4  11  23  40  55  70 104 153 190 213 258 331
#     4  11  21  33  54  85 112 136 177 230 275 305
#     4  10  19  35  54  75 107 147 182 208 253 324
#     4  10  21  37  56  75 102 146 188 215 256 324
#     4  11  22  35  55  83 108 133 177 234 277 305
#     4   8  15  30  54  82 110 140 168 206 268 333
#     4   8  15  31  54  80 111 139 167 209 268 330
#
# _framework density 19.024826000000001
#
# number of rings (size 3 to 8) (size 9 to 14) (size 15 to 20)
#    0.000    2.143    1.429    3.429    0.000    4.857 
#    0.000    0.714    0.000    7.714    0.000   10.000 
#    0.000    0.000    0.000    0.000    0.000    0.000 
#
# Total GULP energy -347206.232896 kJ/mol
# GULP energy per Si atom -12400.222603 kJ/mol
# Density = 1.898152 g / cm^3
# Si number density = 19.024826 Si / 1000 Ang^3
#
#
#
# Elastic Constant Matrix: (Units=GPa)
#
#
# Indices 1 2 3 4 5 6 
#
# 1 117.7938 25.1283 62.5064 0.0000 16.1150 0.0000
# 2 25.1283 38.7450 29.3286 0.0000 2.0746 0.0000
# 3 62.5064 29.3286 91.1965 0.0000 9.6003 0.0000
# 4 0.0000 0.0000 0.0000 29.4516 0.0000 7.6884
# 5 16.1150 2.0746 9.6003 0.0000 24.8411 0.0000
# 6 0.0000 0.0000 0.0000 7.6884 0.0000 4.4162
#
#
#
# Elastic Compliance Matrix: (Units=1/GPa)
#
#
# Indices 1 2 3 4 5 6 
#
# 1 0.014260 -0.002646 -0.008310 0.000000 -0.005818 0.000000
# 2 -0.002646 0.034656 -0.009598 0.000000 0.002532 0.000000
# 3 -0.008310 -0.009598 0.019906 0.000000 -0.001500 0.000000
# 4 0.000000 0.000000 0.000000 0.062241 0.000000 -0.108358
# 5 -0.005818 0.002532 -0.001500 0.000000 0.044399 0.000000
# 6 0.000000 0.000000 0.000000 -0.108358 0.000000 0.415082
#
#
# Mechanical properties :
#
#
# Convention : Reuss Voigt Hill
#
# Bulk Modulus (GPa) = 36.08479 53.51799 44.80139
# Shear Modulus (GPa) = 7.80167 20.45992 14.13080
#
# Velocity S-wave (km/s) = 2.02724 3.28294 2.72831
# Velocity P-wave (km/s) = 4.94853 6.52395 5.79007
#
# Compressibility (1/GPa) = 0.02771250
#
# Stress axis : x y z
#
# Youngs Moduli (GPa) = 70.12862 28.85519 50.23670
#
# Poissons Ratio (x) = 0.07635 0.41747
# Poissons Ratio (y) = 0.18557 0.48218
# Poissons Ratio (z) = 0.58277 0.27695
#
# Static dielectric constant tensor:
#      x y z
#    x 3.764590 0.000000 0.003680 
#    y 0.000000 3.160900 0.000000 
#    z 0.003680 0.000000 3.582940 
# 
# 
# High freq. dielectric constant tensor:
#      x y z
#    x 1.744500 0.000000 0.008070 
#    y 0.000000 1.712090 0.000000 
#    z 0.008070 0.000000 1.738670 
# 
# From -- ./inp_files/49073.got.cif
#   From: 2010.06.25/outbox.cif.g09.slc.cpg/sg10_25_cif.got.tgz:49073.got - 2010.06.27 22:07:45.
