data_PCOD8062101
_publ_section_title
;
Structure prediction by ZEFSAII (Michael W. Deem and Ramdas Pophale) SiO2 
 PCOD8062101
Probable space group: P 2/M
;
_chemical_formula_sum "Si O2"
_cell_formula_units_Z 28
_cell_length_a 26.991274
_cell_length_b 8.620863
_cell_length_c 9.494564
_cell_angle_alpha 90.000000
_cell_angle_beta 138.976006
_cell_angle_gamma 90.000000
_cell_volume 1450.110847
_symmetry_space_group_name_H-M "P 2/M"
_symmetry_group_IT_number 10
_symmetry_cell_setting 'monoclinic'
loop_
_space_group_symop_operation_xyz
x,y,z
-x,y,-z
-x,-y,-z
x,-y,z
loop_
_atom_site_type_symbol
_atom_site_label
_atom_site_fract_x
_atom_site_fract_y
_atom_site_fract_z
Si Si1 0.932174 0.818059 0.960417
Si Si2 0.688474 0.678381 0.640428
Si Si3 0.285403 0.682489 0.857881
Si Si4 0.069567 0.670037 0.749150
Si Si5 0.796011 0.823398 0.082860
Si Si6 0.239731 0.819288 0.474922
Si Si7 0.582808 0.316358 0.654060
O O1 0.953715 0.726572 0.146585
O O2 0.930217 0.000000 0.987738
O O3 0.848064 0.765524 0.727923
O O4 0.000000 0.775246 0.000000
O O5 0.684871 0.500000 0.582845
O O6 0.710408 0.786437 0.556895
O O7 0.611481 0.729651 0.557432
O O8 0.751549 0.699100 0.894015
O O9 0.274917 0.500000 0.852491
O O10 0.215344 0.773752 0.779255
O O11 0.283560 0.726817 0.690665
O O12 0.361572 0.741426 0.101142
O O13 0.109066 0.500000 0.847462
O O14 0.118237 0.803186 0.778439
O O15 0.000000 0.649349 0.500000
O O16 0.770143 0.000000 0.000968
O O17 0.243028 0.000000 0.515767
O O18 0.500000 0.241971 0.500000
O O19 0.578469 0.500000 0.654577
#
# Coordination Sequence:
#
# PCOD8062101 Si02
#       7
#     4   4   4   4   4   4   4
#     4  10  23  41  58  80 110 150 196 237 286 341
#     4  10  19  34  59  86 112 146 187 234 280 331
#     4  10  21  36  58  86 115 148 189 237 283 332
#     4  11  24  39  56  82 111 142 188 240 290 337
#     4  11  21  36  57  80 109 148 189 232 282 339
#     4  11  22  37  57  83 116 154 191 236 286 342
#     4   8  16  34  60  88 115 145 187 234 280 333
#
# _framework density 19.308869999999999
#
# number of rings (size 3 to 8) (size 9 to 14) (size 15 to 20)
#    0.000    1.857    1.429    3.857    2.000    2.000 
#    0.000    0.714    0.000   19.714    0.000    0.000 
#    0.000    0.000    0.000    0.000    0.000    0.000 
#
# Total GULP energy -347017.717186 kJ/mol
# GULP energy per Si atom -12393.489899 kJ/mol
# Density = 1.926492 g / cm^3
# Si number density = 19.308870 Si / 1000 Ang^3
#
#
#
# Elastic Constant Matrix: (Units=GPa)
#
#
# Indices 1 2 3 4 5 6 
#
# 1 142.2342 35.7433 60.6358 0.0000 4.9920 0.0000
# 2 35.7433 68.1783 28.6580 0.0000 0.3416 0.0000
# 3 60.6358 28.6580 84.8680 0.0000 -7.2288 0.0000
# 4 0.0000 0.0000 0.0000 17.4183 0.0000 -2.5705
# 5 4.9920 0.3416 -7.2288 0.0000 29.3767 0.0000
# 6 0.0000 0.0000 0.0000 -2.5705 0.0000 23.4991
#
#
#
# Elastic Compliance Matrix: (Units=1/GPa)
#
#
# Indices 1 2 3 4 5 6 
#
# 1 0.010891 -0.002672 -0.007185 0.000000 -0.003588 0.000000
# 2 -0.002672 0.017828 -0.004178 0.000000 -0.000781 0.000000
# 3 -0.007185 -0.004178 0.018830 0.000000 0.005903 0.000000
# 4 0.000000 0.000000 0.000000 0.058353 0.000000 0.006383
# 5 -0.003588 -0.000781 0.005903 0.000000 0.036112 0.000000
# 6 0.000000 0.000000 0.000000 0.006383 0.000000 0.043253
#
#
# Mechanical properties :
#
#
# Convention : Reuss Voigt Hill
#
# Bulk Modulus (GPa) = 51.33363 60.59499 55.96431
# Shear Modulus (GPa) = 22.74502 25.40838 24.07670
#
# Velocity S-wave (km/s) = 3.43586 3.63146 3.53501
# Velocity P-wave (km/s) = 6.51026 7.00238 6.76080
#
# Compressibility (1/GPa) = 0.01948041
#
# Stress axis : x y z
#
# Youngs Moduli (GPa) = 91.82036 56.09109 53.10739
#
# Poissons Ratio (x) = 0.14986 0.38156
# Poissons Ratio (y) = 0.24532 0.22188
# Poissons Ratio (z) = 0.65969 0.23434
#
# Static dielectric constant tensor:
#      x y z
#    x 4.717150 0.000000 0.230140 
#    y 0.000000 3.409910 0.000000 
#    z 0.230140 0.000000 3.474150 
# 
# 
# High freq. dielectric constant tensor:
#      x y z
#    x 1.760450 0.000000 -0.008020 
#    y 0.000000 1.747410 0.000000 
#    z -0.008020 0.000000 1.730170 
# 
# From -- ./inp_files/37319.got.cif
#   From: 2010.06.25/outbox.cif.g09.slc.cpg/sg10_19_cif.got.tgz:37319.got - 2010.06.27 22:07:45.
