data_PCOD8062054
_publ_section_title
;
Structure prediction by ZEFSAII (Michael W. Deem and Ramdas Pophale) SiO2 
 PCOD8062054
Probable space group: P 2/M
;
_chemical_formula_sum "Si O2"
_cell_formula_units_Z 28
_cell_length_a 27.935470
_cell_length_b 8.757763
_cell_length_c 9.796752
_cell_angle_alpha 90.000000
_cell_angle_beta 38.016132
_cell_angle_gamma 90.000000
_cell_volume 1476.147406
_symmetry_space_group_name_H-M "P 2/M"
_symmetry_group_IT_number 10
_symmetry_cell_setting 'monoclinic'
loop_
_space_group_symop_operation_xyz
x,y,z
-x,y,-z
-x,-y,-z
x,-y,z
loop_
_atom_site_type_symbol
_atom_site_label
_atom_site_fract_x
_atom_site_fract_y
_atom_site_fract_z
Si Si1 0.005613 0.823049 0.644878
Si Si2 0.297429 0.327344 0.178044
Si Si3 0.450194 0.826969 0.247320
Si Si4 0.126713 0.681585 0.572487
Si Si5 0.298636 0.326235 0.491956
Si Si6 0.865181 0.822154 0.159741
Si Si7 0.457217 0.680646 0.726364
O O1 0.071261 0.725594 0.573207
O O2 0.000000 0.768829 0.500000
O O3 0.029485 0.000000 0.598622
O O4 0.924763 0.792773 0.902798
O O5 0.290741 0.500000 0.142171
O O6 0.212963 0.251625 0.342404
O O7 0.319448 0.318850 0.286777
O O8 0.369672 0.247767 0.936184
O O9 0.361543 0.773828 0.429953
O O10 0.490448 0.715715 0.262452
O O11 0.449529 0.000000 0.303023
O O12 0.500000 0.812542 0.000000
O O13 0.128834 0.500000 0.588197
O O14 0.100210 0.753414 0.776838
O O15 0.300615 0.500000 0.541069
O O16 0.213500 0.259104 0.710392
O O17 0.849698 0.000000 0.218447
O O18 0.500000 0.753007 0.500000
O O19 0.449075 0.500000 0.732068
#
# Coordination Sequence:
#
# PCOD8062054 Si02
#       7
#     4   4   4   4   4   4   4
#     4  10  22  40  58  79 113 152 184 219 275 337
#     4   8  16  32  53  79 109 139 177 227 275 318
#     4  11  22  35  55  83 114 148 188 229 275 327
#     4  10  20  35  58  85 111 143 186 232 274 325
#     4  10  19  34  58  84 111 144 184 232 281 324
#     4  10  20  36  59  84 113 144 182 230 276 327
#     4  10  20  36  57  79 109 150 191 230 277 327
#
# _framework density 18.968295000000001
#
# number of rings (size 3 to 8) (size 9 to 14) (size 15 to 20)
#    0.000    2.143    1.429    3.000    0.000    4.000 
#    2.571    0.714    0.000    0.000    0.000    0.000 
#    0.000    0.000    0.000    0.000    0.000    0.000 
#
# Total GULP energy -347122.350269 kJ/mol
# GULP energy per Si atom -12397.226795 kJ/mol
# Density = 1.892512 g / cm^3
# Si number density = 18.968295 Si / 1000 Ang^3
#
#
#
# Elastic Constant Matrix: (Units=GPa)
#
#
# Indices 1 2 3 4 5 6 
#
# 1 79.8079 20.9000 54.2028 0.0000 -7.4676 0.0000
# 2 20.9000 50.1523 38.5813 0.0000 -1.0585 0.0000
# 3 54.2028 38.5813 130.1542 0.0000 -1.8956 0.0000
# 4 0.0000 0.0000 0.0000 21.3369 0.0000 -5.8120
# 5 -7.4676 -1.0585 -1.8956 0.0000 26.0421 0.0000
# 6 0.0000 0.0000 0.0000 -5.8120 0.0000 37.1772
#
#
#
# Elastic Compliance Matrix: (Units=1/GPa)
#
#
# Indices 1 2 3 4 5 6 
#
# 1 0.018199 -0.002212 -0.006856 0.000000 0.004630 0.000000
# 2 -0.002212 0.026105 -0.006818 0.000000 -0.000070 0.000000
# 3 -0.006856 -0.006818 0.012540 0.000000 -0.001330 0.000000
# 4 0.000000 0.000000 0.000000 0.048952 0.000000 0.007653
# 5 0.004630 -0.000070 -0.001330 0.000000 0.039627 0.000000
# 6 0.000000 0.000000 0.000000 0.007653 0.000000 0.028095
#
#
# Mechanical properties :
#
#
# Convention : Reuss Voigt Hill
#
# Bulk Modulus (GPa) = 39.88576 54.16472 47.02524
# Shear Modulus (GPa) = 23.40326 26.67327 25.03827
#
# Velocity S-wave (km/s) = 3.51637 3.75401 3.63713
# Velocity P-wave (km/s) = 6.12860 6.88531 6.51795
#
# Compressibility (1/GPa) = 0.02507161
#
# Stress axis : x y z
#
# Youngs Moduli (GPa) = 54.94870 38.30750 79.74575
#
# Poissons Ratio (x) = 0.08475 0.54671
# Poissons Ratio (y) = 0.12156 0.54369
# Poissons Ratio (z) = 0.37671 0.26117
#
# Static dielectric constant tensor:
#      x y z
#    x 3.350150 0.000000 -0.179060 
#    y 0.000000 3.389510 0.000000 
#    z -0.179060 0.000000 3.650520 
# 
# 
# High freq. dielectric constant tensor:
#      x y z
#    x 1.730220 0.000000 -0.018830 
#    y 0.000000 1.726100 0.000000 
#    z -0.018830 0.000000 1.741860 
# 
# From -- ./inp_files/36942.got.cif
#   From: 2010.06.25/outbox.cif.g09.slc.cpg/sg10_19_cif.got.tgz:36942.got - 2010.06.27 22:07:45.
