data_PCOD8062965
_publ_section_title
;
Structure prediction by ZEFSAII (Michael W. Deem and Ramdas Pophale) SiO2 
 PCOD8062965
Probable space group: P 2/M
;
_chemical_formula_sum "Si O2"
_cell_formula_units_Z 28
_cell_length_a 9.108357
_cell_length_b 9.037823
_cell_length_c 25.718830
_cell_angle_alpha 90.000000
_cell_angle_beta 135.097373
_cell_angle_gamma 90.000000
_cell_volume 1494.516643
_symmetry_space_group_name_H-M "P 2/M"
_symmetry_group_IT_number 10
_symmetry_cell_setting 'monoclinic'
loop_
_space_group_symop_operation_xyz
x,y,z
-x,y,-z
-x,-y,-z
x,-y,z
loop_
_atom_site_type_symbol
_atom_site_label
_atom_site_fract_x
_atom_site_fract_y
_atom_site_fract_z
Si Si1 0.497582 0.324192 0.581151
Si Si2 0.610820 0.675849 0.722246
Si Si3 0.827025 0.324192 0.581158
Si Si4 0.961642 0.172817 0.145235
Si Si5 0.834249 0.175885 0.000004
Si Si6 0.278178 0.324151 0.722255
Si Si7 0.619280 0.172817 0.145225
O O1 0.499496 0.500000 0.582066
O O2 0.512780 0.263926 0.643658
O O3 0.695235 0.266233 0.597621
O O4 0.283960 0.268517 0.499995
O O5 0.626972 0.500000 0.725844
O O6 0.464413 0.732083 0.732207
O O7 0.838638 0.740533 0.785304
O O8 0.828765 0.500000 0.582071
O O9 0.061854 0.263926 0.643668
O O10 0.896260 0.234635 0.072409
O O11 0.772795 0.205841 0.136396
O O12 0.015827 0.000000 0.156468
O O13 0.832181 0.000000 0.000001
O O14 0.606634 0.234640 0.927606
O O15 0.000000 0.237783 0.000000
O O16 0.276414 0.500000 0.725854
O O17 0.302617 0.259461 0.785317
O O18 0.610015 0.000000 0.156453
#
# Coordination Sequence:
#
# PCOD8062965 Si02
#       7
#     4   4   4   4   4   4   4
#     4   8  14  26  45  68  94 126 163 200 238 283
#     4  10  20  32  48  73 103 132 162 199 244 290
#     4   8  14  26  45  68  94 126 163 200 238 283
#     4  10  20  34  53  75  98 127 164 202 240 286
#     4   9  17  31  52  75  98 125 158 198 242 287
#     4  10  20  32  48  73 103 132 162 199 244 290
#     4  10  20  34  53  75  98 127 164 202 240 286
#
# _framework density 18.735153
#
# number of rings (size 3 to 8) (size 9 to 14) (size 15 to 20)
#    0.000    2.714    0.000    3.000    0.000    5.714 
#    0.000    3.571    0.000    5.143    0.000    6.000 
#    0.000    0.000    0.000    0.000    0.000    0.000 
#
# Total GULP energy -347139.028703 kJ/mol
# GULP energy per Si atom -12397.822454 kJ/mol
# Density = 1.869251 g / cm^3
# Si number density = 18.735153 Si / 1000 Ang^3
#
#
#
# Elastic Constant Matrix: (Units=GPa)
#
#
# Indices 1 2 3 4 5 6 
#
# 1 119.7368 21.2630 70.9816 0.0000 -1.8062 0.0000
# 2 21.2630 13.2793 22.3768 0.0000 -0.0882 0.0000
# 3 70.9816 22.3768 162.5993 0.0000 -1.4942 0.0000
# 4 0.0000 0.0000 0.0000 41.3376 0.0000 -1.5613
# 5 -1.8062 -0.0882 -1.4942 0.0000 36.0968 0.0000
# 6 0.0000 0.0000 0.0000 -1.5613 0.0000 20.9577
#
#
#
# Elastic Compliance Matrix: (Units=1/GPa)
#
#
# Indices 1 2 3 4 5 6 
#
# 1 0.013201 -0.014882 -0.003710 0.000000 0.000471 0.000000
# 2 -0.014882 0.114823 -0.009313 0.000000 -0.000850 0.000000
# 3 -0.003710 -0.009313 0.009053 0.000000 0.000166 0.000000
# 4 0.000000 0.000000 0.000000 0.024259 0.000000 0.001807
# 5 0.000471 -0.000850 0.000166 0.000000 0.027732 0.000000
# 6 0.000000 0.000000 0.000000 0.001807 0.000000 0.047850
#
#
# Mechanical properties :
#
#
# Convention : Reuss Voigt Hill
#
# Bulk Modulus (GPa) = 12.30535 58.31757 35.31146
# Shear Modulus (GPa) = 15.63392 31.74466 23.68929
#
# Velocity S-wave (km/s) = 2.89185 4.12076 3.55974
# Velocity P-wave (km/s) = 4.21102 7.33729 5.98200
#
# Compressibility (1/GPa) = 0.08126549
#
# Stress axis : x y z
#
# Youngs Moduli (GPa) = 75.75078 8.70909 110.46027
#
# Poissons Ratio (x) = 0.12961 0.40986
# Poissons Ratio (y) = 1.12735 1.02870
# Poissons Ratio (z) = 0.28107 0.08111
#
# Static dielectric constant tensor:
#      x y z
#    x 3.664460 0.000000 -0.010560 
#    y 0.000000 2.897330 0.000000 
#    z -0.010560 0.000000 3.802460 
# 
# 
# High freq. dielectric constant tensor:
#      x y z
#    x 1.738440 0.000000 -0.000700 
#    y 0.000000 1.668410 0.000000 
#    z -0.000700 0.000000 1.747610 
# 
# From -- ./inp_files/37014.got.cif
#   From: 2010.06.25/outbox.cif.g09.slc.cpg/sg10_19_cif.got.tgz:37014.got - 2010.06.27 22:07:45.
