data_PCOD8062297
_publ_section_title
;
Structure prediction by ZEFSAII (Michael W. Deem and Ramdas Pophale) SiO2 
 PCOD8062297
Probable space group: P 2/M
;
_chemical_formula_sum "Si O2"
_cell_formula_units_Z 28
_cell_length_a 8.930417
_cell_length_b 7.795176
_cell_length_c 29.868161
_cell_angle_alpha 90.000000
_cell_angle_beta 138.395702
_cell_angle_gamma 90.000000
_cell_volume 1380.583421
_symmetry_space_group_name_H-M "P 2/M"
_symmetry_group_IT_number 10
_symmetry_cell_setting 'monoclinic'
loop_
_space_group_symop_operation_xyz
x,y,z
-x,y,-z
-x,-y,-z
x,-y,z
loop_
_atom_site_type_symbol
_atom_site_label
_atom_site_fract_x
_atom_site_fract_y
_atom_site_fract_z
Si Si1 0.068721 0.695048 0.799111
Si Si2 0.418444 0.199773 0.806414
Si Si3 0.987375 0.500000 0.424334
Si Si4 0.408295 0.809417 0.333307
Si Si5 0.738824 0.696078 0.066444
Si Si6 0.072879 0.201754 0.065661
Si Si7 0.634700 0.500000 0.425389
Si Si8 0.254521 0.803969 0.670688
O O1 0.987531 0.500000 0.788638
O O2 0.265464 0.696394 0.806548
O O3 0.157327 0.780324 0.865326
O O4 0.857786 0.803686 0.734599
O O5 0.673579 0.264659 0.868994
O O6 0.339446 0.240923 0.738847
O O7 0.399657 0.000000 0.813727
O O8 0.822594 0.500000 0.429485
O O9 0.946896 0.672776 0.386436
O O10 0.245503 0.500000 0.499286
O O11 0.481687 0.670522 0.386910
O O12 0.534398 0.773189 0.314822
O O13 0.468556 0.000000 0.364782
O O14 0.687734 0.500000 0.067453
O O15 0.911693 0.705170 0.064464
O O16 0.500000 0.785878 0.000000
O O17 0.047755 0.000000 0.067329
O O18 0.000000 0.258630 0.000000
O O19 0.164691 0.000000 0.647177
#
# Coordination Sequence:
#
# PCOD8062297 Si02
#       8
#     4   4   2   4   4   4   2   4
#     4  11  22  35  54  81 110 146 194 236 280 340
#     4  10  21  36  53  79 111 143 188 237 282 338
#     4   9  18  32  57  83 120 149 178 233 279 325
#     4  10  19  35  58  82 115 151 184 234 286 330
#     4  10  22  38  55  79 113 148 186 234 283 337
#     4  10  21  37  57  81 110 145 189 237 282 336
#     4   9  18  34  53  89 118 145 188 225 273 347
#     4   9  19  34  55  83 112 148 190 229 282 341
#
# _framework density 20.281281
#
# number of rings (size 3 to 8) (size 9 to 14) (size 15 to 20)
#    0.000    2.143    0.714    2.143    1.000    4.000 
#    0.000    2.857    0.000    1.714    0.000    3.000 
#    0.000    0.000    0.000    0.000    0.000    0.000 
#
# Total GULP energy -347257.501085 kJ/mol
# GULP energy per Si atom -12402.053610 kJ/mol
# Density = 2.023512 g / cm^3
# Si number density = 20.281281 Si / 1000 Ang^3
#
#
#
# Elastic Constant Matrix: (Units=GPa)
#
#
# Indices 1 2 3 4 5 6 
#
# 1 90.4551 23.3459 53.3802 0.0000 2.0731 0.0000
# 2 23.3459 89.1161 60.8438 0.0000 -0.4997 0.0000
# 3 53.3802 60.8438 182.7796 0.0000 4.6178 0.0000
# 4 0.0000 0.0000 0.0000 15.3984 0.0000 3.1529
# 5 2.0731 -0.4997 4.6178 0.0000 24.3949 0.0000
# 6 0.0000 0.0000 0.0000 3.1529 0.0000 24.0094
#
#
#
# Elastic Compliance Matrix: (Units=1/GPa)
#
#
# Indices 1 2 3 4 5 6 
#
# 1 0.013444 -0.001103 -0.003547 0.000000 -0.000494 0.000000
# 2 -0.001103 0.014648 -0.004586 0.000000 0.001262 0.000000
# 3 -0.003547 -0.004586 0.008067 0.000000 -0.001320 0.000000
# 4 0.000000 0.000000 0.000000 0.066736 0.000000 -0.008764
# 5 -0.000494 0.001262 -0.001320 0.000000 0.041310 0.000000
# 6 0.000000 0.000000 0.000000 -0.008764 0.000000 0.042801
#
#
# Mechanical properties :
#
#
# Convention : Reuss Voigt Hill
#
# Bulk Modulus (GPa) = 56.53606 70.83228 63.68417
# Shear Modulus (GPa) = 23.65475 27.74593 25.70034
#
# Velocity S-wave (km/s) = 3.41887 3.70274 3.56363
# Velocity P-wave (km/s) = 6.59707 7.29939 6.95710
#
# Compressibility (1/GPa) = 0.01768782
#
# Stress axis : x y z
#
# Youngs Moduli (GPa) = 74.38127 68.26690 123.96636
#
# Poissons Ratio (x) = 0.07532 0.43966
# Poissons Ratio (y) = 0.08207 0.56849
# Poissons Ratio (z) = 0.26380 0.31306
#
# Static dielectric constant tensor:
#      x y z
#    x 3.372690 0.000000 0.003900 
#    y 0.000000 3.607630 0.000000 
#    z 0.003900 0.000000 3.878790 
# 
# 
# High freq. dielectric constant tensor:
#      x y z
#    x 1.773540 0.000000 0.000640 
#    y 0.000000 1.791410 0.000000 
#    z 0.000640 0.000000 1.794310 
# 
# From -- ./inp_files/37181.got.cif
#   From: 2010.06.25/outbox.cif.g09.slc.cpg/sg10_19_cif.got.tgz:37181.got - 2010.06.27 22:07:45.
