data_PCOD8062467
_publ_section_title
;
Structure prediction by ZEFSAII (Michael W. Deem and Ramdas Pophale) SiO2 
 PCOD8062467
Probable space group: P 2/M
;
_chemical_formula_sum "Si O2"
_cell_formula_units_Z 26
_cell_length_a 12.490287
_cell_length_b 7.433114
_cell_length_c 16.170857
_cell_angle_alpha 90.000000
_cell_angle_beta 60.750040
_cell_angle_gamma 90.000000
_cell_volume 1309.905199
_symmetry_space_group_name_H-M "P 2/M"
_symmetry_group_IT_number 10
_symmetry_cell_setting 'monoclinic'
loop_
_space_group_symop_operation_xyz
x,y,z
-x,y,-z
-x,-y,-z
x,-y,z
loop_
_atom_site_type_symbol
_atom_site_label
_atom_site_fract_x
_atom_site_fract_y
_atom_site_fract_z
Si Si1 0.762853 0.795875 0.703473
Si Si2 0.047960 0.790487 0.232010
Si Si3 0.672134 0.791323 0.566302
Si Si4 0.774262 0.211815 0.358525
Si Si5 0.385953 0.500000 0.154739
Si Si6 0.199468 0.500000 0.084849
Si Si7 0.642239 0.500000 0.125226
Si Si8 0.594138 0.787181 0.278621
O O1 0.892217 0.757799 0.699693
O O2 0.771818 0.756235 0.601635
O O3 0.655490 0.677308 0.781334
O O4 0.719961 0.000000 0.733964
O O5 0.121615 0.678341 0.135519
O O6 0.910237 0.713945 0.288790
O O7 0.053680 0.000000 0.204204
O O8 0.721501 0.700511 0.463312
O O9 0.539791 0.714872 0.643716
O O10 0.651818 0.000000 0.555961
O O11 0.686066 0.264906 0.317373
O O12 0.785091 0.000000 0.366362
O O13 0.328119 0.500000 0.085639
O O14 0.532516 0.500000 0.099417
O O15 0.231827 0.500000 0.975375
O O16 0.638349 0.680260 0.181400
O O17 0.595919 0.000000 0.258266
#
# Coordination Sequence:
#
# PCOD8062467 Si02
#       8
#     4   4   4   4   2   2   2   4
#     4   9  17  31  54  82 112 143 174 217 266 315
#     4   9  19  37  57  79 111 145 181 222 267 319
#     4   9  16  30  55  83 113 146 179 217 264 316
#     4   9  18  34  57  81 110 152 185 213 262 319
#     4  10  19  36  56  79 109 138 171 221 282 330
#     4  10  23  39  58  81 106 138 179 231 279 324
#     4  12  23  37  59  83 104 139 185 225 277 332
#     4  10  21  37  55  81 116 144 177 225 268 313
#
# _framework density 19.848763999999999
#
# number of rings (size 3 to 8) (size 9 to 14) (size 15 to 20)
#    0.000    2.462    1.538    0.692    0.000    3.692 
#    0.000    8.462    0.000   10.154    0.000    0.000 
#    0.000    0.000    0.000    0.000    0.000    0.000 
#
# Total GULP energy -322303.117060 kJ/mol
# GULP energy per Si atom -12396.273733 kJ/mol
# Density = 1.980359 g / cm^3
# Si number density = 19.848764 Si / 1000 Ang^3
#
#
#
# Elastic Constant Matrix: (Units=GPa)
#
#
# Indices 1 2 3 4 5 6 
#
# 1 99.9967 26.3003 60.6502 0.0000 -11.0339 0.0000
# 2 26.3003 76.3357 45.4604 0.0000 -1.3819 0.0000
# 3 60.6502 45.4604 161.1439 0.0000 -5.6400 0.0000
# 4 0.0000 0.0000 0.0000 31.8141 0.0000 -2.6688
# 5 -11.0339 -1.3819 -5.6400 0.0000 17.5900 0.0000
# 6 0.0000 0.0000 0.0000 -2.6688 0.0000 18.0728
#
#
#
# Elastic Compliance Matrix: (Units=1/GPa)
#
#
# Indices 1 2 3 4 5 6 
#
# 1 0.014036 -0.002055 -0.004451 0.000000 0.007216 0.000000
# 2 -0.002055 0.016047 -0.003797 0.000000 -0.001246 0.000000
# 3 -0.004451 -0.003797 0.008944 0.000000 -0.000222 0.000000
# 4 0.000000 0.000000 0.000000 0.031827 0.000000 0.004700
# 5 0.007216 -0.001246 -0.000222 0.000000 0.061208 0.000000
# 6 0.000000 0.000000 0.000000 0.004700 0.000000 0.056026
#
#
# Mechanical properties :
#
#
# Convention : Reuss Voigt Hill
#
# Bulk Modulus (GPa) = 54.28294 66.92200 60.60247
# Shear Modulus (GPa) = 23.27375 27.16640 25.22008
#
# Velocity S-wave (km/s) = 3.42797 3.70357 3.56843
# Velocity P-wave (km/s) = 6.56320 7.21649 6.89758
#
# Compressibility (1/GPa) = 0.01842199
#
# Stress axis : x y z
#
# Youngs Moduli (GPa) = 71.24291 62.31768 111.80444
#
# Poissons Ratio (x) = 0.12806 0.49760
# Poissons Ratio (y) = 0.14640 0.42454
# Poissons Ratio (z) = 0.31708 0.23663
#
# Static dielectric constant tensor:
#      x y z
#    x 3.747650 0.000000 0.038950 
#    y 0.000000 3.520690 0.000000 
#    z 0.038950 0.000000 3.421310 
# 
# 
# High freq. dielectric constant tensor:
#      x y z
#    x 1.779100 0.000000 0.006410 
#    y 0.000000 1.769900 0.000000 
#    z 0.006410 0.000000 1.751360 
# 
# From -- ./inp_files/63337.got.cif
#   From: 2010.06.25/outbox.cif.g09.slc.cpg/sg10_32_cif.got.tgz:63337.got - 2010.06.27 22:07:45.
