data_PCOD8062262
_publ_section_title
;
Structure prediction by ZEFSAII (Michael W. Deem and Ramdas Pophale) SiO2 
 PCOD8062262
Probable space group: P 2/M
;
_chemical_formula_sum "Si O2"
_cell_formula_units_Z 28
_cell_length_a 14.200014
_cell_length_b 8.707200
_cell_length_c 17.505892
_cell_angle_alpha 90.000000
_cell_angle_beta 43.338461
_cell_angle_gamma 90.000000
_cell_volume 1485.490217
_symmetry_space_group_name_H-M "P 2/M"
_symmetry_group_IT_number 10
_symmetry_cell_setting 'monoclinic'
loop_
_space_group_symop_operation_xyz
x,y,z
-x,y,-z
-x,-y,-z
x,-y,z
loop_
_atom_site_type_symbol
_atom_site_label
_atom_site_fract_x
_atom_site_fract_y
_atom_site_fract_z
Si Si1 0.370203 0.819111 0.359764
Si Si2 0.660483 0.680511 0.175809
Si Si3 0.875895 0.680026 0.918079
Si Si4 0.174857 0.321407 0.778073
Si Si5 0.921623 0.818632 0.734720
Si Si6 0.782937 0.320298 0.417328
Si Si7 0.147387 0.680805 0.379232
O O1 0.520909 0.770755 0.244619
O O2 0.341409 0.749778 0.460810
O O3 0.263007 0.754811 0.362866
O O4 0.357614 0.000000 0.370984
O O5 0.629951 0.500000 0.202673
O O6 0.735694 0.751196 0.206476
O O7 0.754144 0.715235 0.047606
O O8 0.891582 0.500000 0.890453
O O9 0.845367 0.767249 0.857168
O O10 0.019345 0.743520 0.868696
O O11 0.164923 0.500000 0.802278
O O12 0.247781 0.288645 0.653815
O O13 0.836269 0.748829 0.715028
O O14 0.076005 0.756516 0.640029
O O15 0.923928 0.000000 0.726943
O O16 0.796361 0.500000 0.426587
O O17 0.169941 0.500000 0.363717
O O18 0.000000 0.726043 0.500000
#
# Coordination Sequence:
#
# PCOD8062262 Si02
#       7
#     4   4   4   4   4   4   4
#     4  12  25  38  54  81 119 153 184 228 286 346
#     4  10  20  37  59  82 112 153 196 237 278 325
#     4   9  18  35  60  86 113 148 194 238 275 324
#     4   8  16  32  59  88 110 141 193 245 279 315
#     4  11  21  34  57  88 119 146 178 228 286 337
#     4  10  19  35  57  83 113 147 191 236 277 329
#     4  11  22  38  63  87 109 142 187 234 276 331
#
# _framework density 18.848998000000002
#
# number of rings (size 3 to 8) (size 9 to 14) (size 15 to 20)
#    0.000    1.857    1.429    4.714    0.000    3.429 
#    0.000    7.143    0.000    8.571    0.000    0.000 
#    0.000    0.000    0.000    0.000    0.000    0.000 
#
# Total GULP energy -347262.057992 kJ/mol
# GULP energy per Si atom -12402.216357 kJ/mol
# Density = 1.880610 g / cm^3
# Si number density = 18.848998 Si / 1000 Ang^3
#
#
#
# Elastic Constant Matrix: (Units=GPa)
#
#
# Indices 1 2 3 4 5 6 
#
# 1 118.6030 63.5684 76.4934 0.0000 6.6360 0.0000
# 2 63.5684 100.8998 56.2524 0.0000 3.9894 0.0000
# 3 76.4934 56.2524 118.5986 0.0000 3.2361 0.0000
# 4 0.0000 0.0000 0.0000 20.8450 0.0000 3.1840
# 5 6.6360 3.9894 3.2361 0.0000 27.2182 0.0000
# 6 0.0000 0.0000 0.0000 3.1840 0.0000 -15.3370
#
#
#
# Elastic Compliance Matrix: (Units=1/GPa)
#
#
# Indices 1 2 3 4 5 6 
#
# 1 0.017023 -0.006183 -0.007985 0.000000 -0.002295 0.000000
# 2 -0.006183 0.015760 -0.003477 0.000000 -0.000389 0.000000
# 3 -0.007985 -0.003477 0.015213 0.000000 0.000647 0.000000
# 4 0.000000 0.000000 0.000000 0.046499 0.000000 0.009653
# 5 -0.002295 -0.000389 0.000647 0.000000 0.037280 0.000000
# 6 0.000000 0.000000 0.000000 0.009653 0.000000 -0.063198
#
#
# Mechanical properties :
#
#
# Convention : Reuss Voigt Hill
#
# Bulk Modulus (GPa) = 78.68933 81.19221 79.94077
# Shear Modulus (GPa) = 46.25324 15.99770 31.12547
#
# Velocity S-wave (km/s) = 4.95904 2.91646 4.06804
# Velocity P-wave (km/s) = 8.63871 7.38306 8.03545
#
# Compressibility (1/GPa) = 0.01270820
#
# Stress axis : x y z
#
# Youngs Moduli (GPa) = 58.74271 63.45292 65.73352
#
# Poissons Ratio (x) = 0.39232 0.52485
# Poissons Ratio (y) = 0.36320 0.22853
# Poissons Ratio (z) = 0.46903 0.22060
#
# Static dielectric constant tensor:
#      x y z
#    x 3.545200 0.000000 0.186670 
#    y 0.000000 3.321030 0.000000 
#    z 0.186670 0.000000 3.493280 
# 
# 
# High freq. dielectric constant tensor:
#      x y z
#    x 1.731970 0.000000 0.015740 
#    y 0.000000 1.720610 0.000000 
#    z 0.015740 0.000000 1.730870 
# 
# From -- ./inp_files/77697.got.cif
#   From: 2010.06.25/outbox.cif.g09.slc.cpg/sg10_39_cif.got.tgz:77697.got - 2010.06.27 22:07:45.
