data_PCOD8062063
_publ_section_title
;
Structure prediction by ZEFSAII (Michael W. Deem and Ramdas Pophale) SiO2 
 PCOD8062063
Probable space group: P 2/M
;
_chemical_formula_sum "Si O2"
_cell_formula_units_Z 24
_cell_length_a 24.641511
_cell_length_b 8.815902
_cell_length_c 9.812288
_cell_angle_alpha 90.000000
_cell_angle_beta 144.447137
_cell_angle_gamma 90.000000
_cell_volume 1239.423189
_symmetry_space_group_name_H-M "P 2/M"
_symmetry_group_IT_number 10
_symmetry_cell_setting 'monoclinic'
loop_
_space_group_symop_operation_xyz
x,y,z
-x,y,-z
-x,-y,-z
x,-y,z
loop_
_atom_site_type_symbol
_atom_site_label
_atom_site_fract_x
_atom_site_fract_y
_atom_site_fract_z
Si Si1 0.897357 0.676648 0.324721
Si Si2 0.721949 0.827675 0.471571
Si Si3 0.259596 0.323160 0.212068
Si Si4 0.600334 0.320737 0.018419
Si Si5 0.450538 0.821219 0.536807
Si Si6 0.775681 0.828135 0.293028
O O1 0.900655 0.500000 0.366041
O O2 0.862220 0.760151 0.388522
O O3 0.000000 0.739201 0.500000
O O4 0.831649 0.712618 0.062600
O O5 0.761823 0.732916 0.678976
O O6 0.625831 0.751568 0.218363
O O7 0.797235 0.823594 0.500610
O O8 0.700739 0.000000 0.474413
O O9 0.284135 0.500000 0.263290
O O10 0.343804 0.230710 0.316869
O O11 0.597148 0.500000 0.024454
O O12 0.680412 0.268520 0.072468
O O13 0.500661 0.258782 0.766916
O O14 0.500000 0.766121 0.500000
O O15 0.457281 0.000000 0.569178
O O16 0.756568 0.000000 0.205609
#
# Coordination Sequence:
#
# PCOD8062063 Si02
#       6
#     4   4   4   4   4   4
#     4  10  22  40  62  88 117 151 192 241 296 350
#     4   9  20  38  59  85 119 156 193 237 289 342
#     4  11  23  38  59  87 117 151 196 243 289 344
#     4  10  19  34  58  84 115 153 193 233 280 338
#     4  11  23  37  55  83 120 159 196 237 286 339
#     4   9  19  36  59  86 116 154 193 233 285 344
#
# _framework density 19.363847
#
# number of rings (size 3 to 8) (size 9 to 14) (size 15 to 20)
#    1.000    1.000    0.000    4.000    0.000    6.333 
#    0.000    4.167    0.000    5.000    0.000    0.000 
#    0.000    0.000    0.000    0.000    0.000    0.000 
#
# Total GULP energy -297528.816254 kJ/mol
# GULP energy per Si atom -12397.034011 kJ/mol
# Density = 1.931977 g / cm^3
# Si number density = 19.363847 Si / 1000 Ang^3
#
#
#
# Elastic Constant Matrix: (Units=GPa)
#
#
# Indices 1 2 3 4 5 6 
#
# 1 83.8091 36.6906 51.1581 0.0000 -11.3571 0.0000
# 2 36.6906 90.5454 31.5669 0.0000 -1.4166 0.0000
# 3 51.1581 31.5669 93.2549 0.0000 5.9824 0.0000
# 4 0.0000 0.0000 0.0000 13.9021 0.0000 0.6804
# 5 -11.3571 -1.4166 5.9824 0.0000 25.6218 0.0000
# 6 0.0000 0.0000 0.0000 0.6804 0.0000 34.2337
#
#
#
# Elastic Compliance Matrix: (Units=1/GPa)
#
#
# Indices 1 2 3 4 5 6 
#
# 1 0.023015 -0.005038 -0.011733 0.000000 0.012663 0.000000
# 2 -0.005038 0.013699 -0.001806 0.000000 -0.001054 0.000000
# 3 -0.011733 -0.001806 0.018386 0.000000 -0.009594 0.000000
# 4 0.000000 0.000000 0.000000 0.072001 0.000000 -0.001431
# 5 0.012663 -0.001054 -0.009594 0.000000 0.046824 0.000000
# 6 0.000000 0.000000 0.000000 -0.001431 0.000000 0.029239
#
#
# Mechanical properties :
#
#
# Convention : Reuss Voigt Hill
#
# Bulk Modulus (GPa) = 55.71759 56.27118 55.99439
# Shear Modulus (GPa) = 20.30048 24.63112 22.46580
#
# Velocity S-wave (km/s) = 3.24137 3.57040 3.40986
# Velocity P-wave (km/s) = 6.54562 6.79117 6.66953
#
# Compressibility (1/GPa) = 0.01794765
#
# Stress axis : x y z
#
# Youngs Moduli (GPa) = 43.44990 73.00028 54.38805
#
# Poissons Ratio (x) = 0.36775 0.63812
# Poissons Ratio (y) = 0.21888 0.09822
# Poissons Ratio (z) = 0.50979 0.13183
#
# Static dielectric constant tensor:
#      x y z
#    x 3.483780 0.000000 -0.064540 
#    y 0.000000 3.543680 0.000000 
#    z -0.064540 0.000000 3.314800 
# 
# 
# High freq. dielectric constant tensor:
#      x y z
#    x 1.752550 0.000000 -0.010850 
#    y 0.000000 1.765350 0.000000 
#    z -0.010850 0.000000 1.727410 
# 
# From -- ./inp_files/57321.got.cif
#   From: 2010.06.25/outbox.cif.g09.slc.cpg/sg10_29_cif.got.tgz:57321.got - 2010.06.27 22:07:45.
