data_PCOD8062863
_publ_section_title
;
Structure prediction by ZEFSAII (Michael W. Deem and Ramdas Pophale) SiO2 
 PCOD8062863
Probable space group: P 2/M
;
_chemical_formula_sum "Si O2"
_cell_formula_units_Z 28
_cell_length_a 23.243325
_cell_length_b 13.112585
_cell_length_c 19.978795
_cell_angle_alpha 90.000000
_cell_angle_beta 163.019169
_cell_angle_gamma 90.000000
_cell_volume 1778.343563
_symmetry_space_group_name_H-M "P 2/M"
_symmetry_group_IT_number 10
_symmetry_cell_setting 'monoclinic'
loop_
_space_group_symop_operation_xyz
x,y,z
-x,y,-z
-x,-y,-z
x,-y,z
loop_
_atom_site_type_symbol
_atom_site_label
_atom_site_fract_x
_atom_site_fract_y
_atom_site_fract_z
Si Si1 0.099228 0.120918 0.710950
Si Si2 0.712736 0.117675 0.708736
Si Si3 0.568607 0.617771 0.652261
Si Si4 0.291839 0.121520 0.790947
Si Si5 0.091247 0.230864 0.960365
Si Si6 0.335336 0.772875 0.477418
Si Si7 0.712053 0.878605 0.942269
O O1 0.242912 0.159915 0.811536
O O2 0.877197 0.159421 0.448690
O O3 0.101129 0.000000 0.713720
O O4 0.172595 0.161849 0.863959
O O5 0.500000 0.150355 0.500000
O O6 0.720619 0.142199 0.639502
O O7 0.756781 0.000000 0.769104
O O8 0.876272 0.180212 0.930990
O O9 0.500000 0.634296 0.500000
O O10 0.579047 0.500000 0.683324
O O11 0.410291 0.670340 0.524890
O O12 0.785236 0.664542 0.905904
O O13 0.301029 0.000000 0.800261
O O14 0.500000 0.169308 0.000000
O O15 0.858215 0.253679 0.693980
O O16 0.161958 0.152229 0.982286
O O17 0.501219 0.822472 0.709287
O O18 0.681072 0.000000 0.907628
#
# Coordination Sequence:
#
# PCOD8062863 Si02
#       7
#     4   4   4   4   4   4   4
#     4   8  15  26  39  57  83 115 151 188 220 251
#     4  11  19  31  47  61  85 120 155 188 220 258
#     4  10  20  36  53  67  84 105 137 190 247 290
#     4   8  13  23  40  59  79 108 149 191 222 248
#     4  11  21  33  47  66  88 114 150 190 229 271
#     4  11  21  33  47  66  88 114 150 190 229 271
#     4  10  20  32  43  62  94 127 157 187 221 262
#
# _framework density 15.744987999999999
#
# number of rings (size 3 to 8) (size 9 to 14) (size 15 to 20)
#    0.000    2.143    4.286    2.143    0.000    4.571 
#    0.000    4.286    0.000    0.000    0.000    0.000 
#    0.000    0.000    0.000   41.143    0.000   93.714 
#
# Total GULP energy -347137.404631 kJ/mol
# GULP energy per Si atom -12397.764451 kJ/mol
# Density = 1.570915 g / cm^3
# Si number density = 15.744988 Si / 1000 Ang^3
#
#
#
# Elastic Constant Matrix: (Units=GPa)
#
#
# Indices 1 2 3 4 5 6 
#
# 1 52.8121 14.3377 55.8357 0.0000 -1.6804 0.0000
# 2 14.3377 67.9222 29.7103 0.0000 2.9583 0.0000
# 3 55.8357 29.7103 122.1130 0.0000 12.3971 0.0000
# 4 0.0000 0.0000 0.0000 8.8462 0.0000 0.7237
# 5 -1.6804 2.9583 12.3971 0.0000 39.1924 0.0000
# 6 0.0000 0.0000 0.0000 0.7237 0.0000 2.7634
#
#
#
# Elastic Compliance Matrix: (Units=1/GPa)
#
#
# Indices 1 2 3 4 5 6 
#
# 1 0.038687 -0.000473 -0.018335 0.000000 0.007494 0.000000
# 2 -0.000473 0.016482 -0.003787 0.000000 -0.000066 0.000000
# 3 -0.018335 -0.003787 0.018127 0.000000 -0.006234 0.000000
# 4 0.000000 0.000000 0.000000 0.115517 0.000000 -0.030252
# 5 0.007494 -0.000066 -0.006234 0.000000 0.027813 0.000000
# 6 0.000000 0.000000 0.000000 -0.030252 0.000000 0.369795
#
#
# Mechanical properties :
#
#
# Convention : Reuss Voigt Hill
#
# Bulk Modulus (GPa) = 35.57990 49.17943 42.37967
# Shear Modulus (GPa) = 7.80054 19.69131 13.74593
#
# Velocity S-wave (km/s) = 2.22824 3.54028 2.95792
# Velocity P-wave (km/s) = 5.40987 6.92923 6.21615
#
# Compressibility (1/GPa) = 0.02810575
#
# Stress axis : x y z
#
# Youngs Moduli (GPa) = 25.84862 60.67229 55.16573
#
# Poissons Ratio (x) = 0.02868 1.01148
# Poissons Ratio (y) = 0.01222 0.20893
# Poissons Ratio (z) = 0.47394 0.22978
#
# Static dielectric constant tensor:
#      x y z
#    x 3.030490 0.000000 0.039550 
#    y 0.000000 2.643290 0.000000 
#    z 0.039550 0.000000 3.302900 
# 
# 
# High freq. dielectric constant tensor:
#      x y z
#    x 1.594400 0.000000 0.010030 
#    y 0.000000 1.557390 0.000000 
#    z 0.010030 0.000000 1.612470 
# 
# From -- ./inp_files/79667.got.cif
#   From: 2010.06.25/outbox.cif.g09.slc.cpg/sg10_40_cif.got.tgz:79667.got - 2010.06.27 22:07:45.
