data_PCOD8062921
_publ_section_title
;
Structure prediction by ZEFSAII (Michael W. Deem and Ramdas Pophale) SiO2 
 PCOD8062921
Probable space group: P 2/M
;
_chemical_formula_sum "Si O2"
_cell_formula_units_Z 32
_cell_length_a 27.794180
_cell_length_b 9.315917
_cell_length_c 22.484810
_cell_angle_alpha 90.000000
_cell_angle_beta 17.993410
_cell_angle_gamma 90.000000
_cell_volume 1798.445568
_symmetry_space_group_name_H-M "P 2/M"
_symmetry_group_IT_number 10
_symmetry_cell_setting 'monoclinic'
loop_
_space_group_symop_operation_xyz
x,y,z
-x,y,-z
-x,-y,-z
x,-y,z
loop_
_atom_site_type_symbol
_atom_site_label
_atom_site_fract_x
_atom_site_fract_y
_atom_site_fract_z
Si Si1 0.487304 0.833817 0.192967
Si Si2 0.363056 0.661451 0.443452
Si Si3 0.904797 0.161205 0.022455
Si Si4 0.911070 0.663437 0.513368
Si Si5 0.761554 0.336565 0.814721
Si Si6 0.240643 0.838793 0.687363
Si Si7 0.155980 0.833830 0.523545
Si Si8 0.026590 0.338539 0.779164
O O1 0.479830 0.750560 0.264416
O O2 0.331163 0.809888 0.339259
O O3 0.516210 0.000000 0.173062
O O4 0.627277 0.773467 0.989348
O O5 0.426970 0.500000 0.374886
O O6 0.358427 0.733362 0.514371
O O7 0.192764 0.662168 0.615411
O O8 0.076133 0.161374 0.848100
O O9 0.898255 0.266655 0.973511
O O10 0.862992 0.000000 0.050714
O O11 0.782801 0.212929 0.216712
O O12 0.885047 0.500000 0.522309
O O13 0.808013 0.694585 0.692398
O O14 0.855566 0.773295 0.528924
O O15 0.091825 0.689597 0.314916
O O16 0.701672 0.500000 0.891860
O O17 0.309420 0.000000 0.605288
O O18 0.035154 0.750534 0.708091
O O19 0.109137 0.000000 0.579193
O O20 0.972300 0.500000 0.828525
#
# Coordination Sequence:
#
# PCOD8062921 Si02
#       8
#     4   4   4   4   4   4   4   4
#     4  10  20  32  47  69  97 127 158 193 233 278
#     4   9  16  25  38  57  83 116 153 192 232 273
#     4   8  13  21  33  50  76 112 150 186 227 275
#     4   9  19  36  55  73  94 121 153 190 233 280
#     4   9  19  36  55  73  94 121 153 190 233 280
#     4   8  13  21  33  50  76 112 150 186 227 275
#     4  10  20  32  47  69  97 127 158 193 233 278
#     4   9  16  25  38  57  83 116 153 192 232 273
#
# _framework density 17.793142
#
# number of rings (size 3 to 8) (size 9 to 14) (size 15 to 20)
#    0.000    3.000    0.000    3.000    0.000    6.500 
#    0.000    6.250    0.000    0.000    0.000    0.000 
#    0.000    1.000    0.000   10.500    0.000   14.500 
#
# Total GULP energy -396718.256595 kJ/mol
# GULP energy per Si atom -12397.445519 kJ/mol
# Density = 1.775264 g / cm^3
# Si number density = 17.793142 Si / 1000 Ang^3
#
#
#
# Elastic Constant Matrix: (Units=GPa)
#
#
# Indices 1 2 3 4 5 6 
#
# 1 49.8026 61.3299 56.7148 0.0000 26.6480 0.0000
# 2 61.3299 150.9559 67.3701 0.0000 29.1512 0.0000
# 3 56.7148 67.3701 60.9295 0.0000 30.5750 0.0000
# 4 0.0000 0.0000 0.0000 31.2214 0.0000 12.1477
# 5 26.6480 29.1512 30.5750 0.0000 22.3060 0.0000
# 6 0.0000 0.0000 0.0000 12.1477 0.0000 29.2035
#
#
#
# Elastic Compliance Matrix: (Units=1/GPa)
#
#
# Indices 1 2 3 4 5 6 
#
# 1 -0.281525 -0.009946 0.313149 0.000000 -0.079912 0.000000
# 2 -0.009946 0.013282 -0.008584 0.000000 0.006292 0.000000
# 3 0.313149 -0.008584 -0.267432 0.000000 0.003685 0.000000
# 4 0.000000 0.000000 0.000000 0.038214 0.000000 -0.015896
# 5 -0.079912 0.006292 0.003685 0.000000 0.127024 0.000000
# 6 0.000000 0.000000 0.000000 -0.015896 0.000000 0.040855
#
#
# Mechanical properties :
#
#
# Convention : Reuss Voigt Hill
#
# Bulk Modulus (GPa) = 18.67034 70.27974 44.47504
# Shear Modulus (GPa) = -5.54961 21.63106 8.04073
#
# Velocity S-wave (km/s) = -1.76797 3.49047 2.12810
# Velocity P-wave (km/s) = 2.51955 7.47184 5.57569
#
# Compressibility (1/GPa) = 0.05356090
#
# Stress axis : x y z
#
# Youngs Moduli (GPa) = -3.55209 75.29219 -3.73926
#
# Poissons Ratio (x) = 0.74889 1.17095
# Poissons Ratio (y) = -0.03533 -0.03210
# Poissons Ratio (z) = 1.11233 0.64634
#
# Static dielectric constant tensor:
#      x y z
#    x 3.056840 0.000000 0.411640 
#    y 0.000000 3.443830 0.000000 
#    z 0.411640 0.000000 3.119310 
# 
# 
# High freq. dielectric constant tensor:
#      x y z
#    x 1.659180 0.000000 0.041620 
#    y 0.000000 1.696020 0.000000 
#    z 0.041620 0.000000 1.665590 
# 
# From -- ./inp_files/82482.got.cif
#   From: 2010.06.25/outbox.cif.g09.slc.cpg/sg10_42_cif.got.tgz:82482.got - 2010.06.27 22:07:45.
