data_PCOD8062500
_publ_section_title
;
Structure prediction by ZEFSAII (Michael W. Deem and Ramdas Pophale) SiO2 
 PCOD8062500
Probable space group: P 2/M
;
_chemical_formula_sum "Si O2"
_cell_formula_units_Z 32
_cell_length_a 29.569706
_cell_length_b 8.977375
_cell_length_c 12.141452
_cell_angle_alpha 90.000000
_cell_angle_beta 31.178107
_cell_angle_gamma 90.000000
_cell_volume 1668.573250
_symmetry_space_group_name_H-M "P 2/M"
_symmetry_group_IT_number 10
_symmetry_cell_setting 'monoclinic'
loop_
_space_group_symop_operation_xyz
x,y,z
-x,y,-z
-x,-y,-z
x,-y,z
loop_
_atom_site_type_symbol
_atom_site_label
_atom_site_fract_x
_atom_site_fract_y
_atom_site_fract_z
Si Si1 0.138379 0.323213 0.533445
Si Si2 0.571562 0.322128 0.264809
Si Si3 0.470132 0.676088 0.890326
Si Si4 0.635683 0.676173 0.678937
Si Si5 0.233322 0.323403 0.118122
Si Si6 0.044162 0.171511 0.123300
Si Si7 0.911293 0.674536 0.749977
Si Si8 0.806398 0.171266 0.362779
O O1 0.135213 0.500000 0.543069
O O2 0.194337 0.263256 0.313858
O O3 0.185168 0.265136 0.544215
O O4 0.040786 0.264945 0.727382
O O5 0.500000 0.260303 0.500000
O O6 0.569019 0.500000 0.267126
O O7 0.550480 0.256444 0.187156
O O8 0.667387 0.265525 0.103231
O O9 0.465944 0.500000 0.892968
O O10 0.566551 0.724154 0.729128
O O11 0.399075 0.728237 0.128428
O O12 0.652531 0.500000 0.640946
O O13 0.724044 0.764009 0.467534
O O14 0.231510 0.500000 0.124715
O O15 0.171903 0.268209 0.146596
O O16 0.091668 0.233181 0.132126
O O17 0.018659 0.000000 0.194291
O O18 0.107773 0.191719 0.888178
O O19 0.905193 0.500000 0.790042
O O20 0.000000 0.709927 0.500000
O O21 0.790748 0.000000 0.425288
#
# Coordination Sequence:
#
# PCOD8062500 Si02
#       8
#     4   4   4   4   4   4   4   4
#     4  11  21  37  60  81 105 141 186 230 277 329
#     4   9  16  26  43  72 109 141 166 205 269 330
#     4   8  15  29  50  77 106 133 175 229 272 316
#     4   9  17  32  55  78 101 137 181 226 272 322
#     4   9  18  32  53  81 110 139 175 226 276 316
#     4  11  24  39  54  77 112 149 181 224 280 332
#     4  10  19  36  58  81 109 140 183 233 272 316
#     4  11  24  38  51  77 116 147 179 226 277 333
#
# _framework density 19.178061
#
# number of rings (size 3 to 8) (size 9 to 14) (size 15 to 20)
#    0.000    2.250    1.250    3.000    0.000    6.750 
#    0.000    3.750    0.000    0.000    0.000    0.000 
#    0.000    7.500    0.000    0.000    0.000    0.000 
#
# Total GULP energy -396799.657640 kJ/mol
# GULP energy per Si atom -12399.989301 kJ/mol
# Density = 1.913441 g / cm^3
# Si number density = 19.178061 Si / 1000 Ang^3
#
#
#
# Elastic Constant Matrix: (Units=GPa)
#
#
# Indices 1 2 3 4 5 6 
#
# 1 107.8298 17.7789 33.6768 0.0000 -22.6118 0.0000
# 2 17.7789 50.9971 26.9793 0.0000 -6.3474 0.0000
# 3 33.6768 26.9793 89.2456 0.0000 -28.9861 0.0000
# 4 0.0000 0.0000 0.0000 14.7506 0.0000 4.7166
# 5 -22.6118 -6.3474 -28.9861 0.0000 30.9583 0.0000
# 6 0.0000 0.0000 0.0000 4.7166 0.0000 -6.6130
#
#
#
# Elastic Compliance Matrix: (Units=1/GPa)
#
#
# Indices 1 2 3 4 5 6 
#
# 1 0.011503 -0.002407 -0.001501 0.000000 0.006503 0.000000
# 2 -0.002407 0.023994 -0.007643 0.000000 -0.003994 0.000000
# 3 -0.001501 -0.007643 0.018992 0.000000 0.015119 0.000000
# 4 0.000000 0.000000 0.000000 0.055204 0.000000 0.039373
# 5 0.006503 -0.003994 0.015119 0.000000 0.050389 0.000000
# 6 0.000000 0.000000 0.000000 0.039373 0.000000 -0.123135
#
#
# Mechanical properties :
#
#
# Convention : Reuss Voigt Hill
#
# Bulk Modulus (GPa) = 31.85838 44.99362 38.42600
# Shear Modulus (GPa) = 70.91093 19.12833 45.01963
#
# Velocity S-wave (km/s) = 6.08731 3.16160 4.85031
# Velocity P-wave (km/s) = 8.12742 6.06956 7.17268
#
# Compressibility (1/GPa) = 0.03138891
#
# Stress axis : x y z
#
# Youngs Moduli (GPa) = 86.93255 41.67694 52.65263
#
# Poissons Ratio (x) = 0.10031 0.07903
# Poissons Ratio (y) = 0.20923 0.40240
# Poissons Ratio (z) = 0.13049 0.31852
#
# Static dielectric constant tensor:
#      x y z
#    x 3.864540 0.000000 -0.027470 
#    y 0.000000 3.110630 0.000000 
#    z -0.027470 0.000000 3.604930 
# 
# 
# High freq. dielectric constant tensor:
#      x y z
#    x 1.761310 0.000000 -0.007710 
#    y 0.000000 1.702800 0.000000 
#    z -0.007710 0.000000 1.749350 
# 
# From -- ./inp_files/58160.got.cif
#   From: 2010.06.25/outbox.cif.g09.slc.cpg/sg10_30_cif.got.tgz:58160.got - 2010.06.27 22:07:45.
