data_PCOD8062071
_publ_section_title
;
Structure prediction by ZEFSAII (Michael W. Deem and Ramdas Pophale) SiO2 
 PCOD8062071
Probable space group: P 2/M
;
_chemical_formula_sum "Si O2"
_cell_formula_units_Z 32
_cell_length_a 14.695442
_cell_length_b 9.007079
_cell_length_c 12.452493
_cell_angle_alpha 90.000000
_cell_angle_beta 90.272870
_cell_angle_gamma 90.000000
_cell_volume 1648.230726
_symmetry_space_group_name_H-M "P 2/M"
_symmetry_group_IT_number 10
_symmetry_cell_setting 'monoclinic'
loop_
_space_group_symop_operation_xyz
x,y,z
-x,y,-z
-x,-y,-z
x,-y,z
loop_
_atom_site_type_symbol
_atom_site_label
_atom_site_fract_x
_atom_site_fract_y
_atom_site_fract_z
Si Si1 0.524291 0.823138 0.879472
Si Si2 0.805835 0.828158 0.619962
Si Si3 0.053113 0.664338 0.891234
Si Si4 0.214866 0.831539 0.983308
Si Si5 0.003051 0.827902 0.695213
Si Si6 0.801445 0.824295 0.380046
Si Si7 0.660265 0.168686 0.209232
Si Si8 0.711929 0.324029 0.816667
O O1 0.442870 0.770037 0.798273
O O2 0.613196 0.744071 0.835334
O O3 0.539199 0.000000 0.876026
O O4 0.500000 0.771806 0.000000
O O5 0.914911 0.801291 0.620829
O O6 0.772416 0.781991 0.500881
O O7 0.751735 0.727195 0.703159
O O8 0.784071 0.000000 0.645352
O O9 0.085885 0.500000 0.856942
O O10 0.137890 0.774133 0.902483
O O11 0.985737 0.734163 0.803082
O O12 0.000000 0.655099 0.000000
O O13 0.306182 0.822218 0.913892
O O14 0.194332 0.000000 0.019352
O O15 0.220901 0.730268 0.088704
O O16 0.096105 0.765490 0.642204
O O17 0.012739 0.000000 0.725079
O O18 0.727222 0.751723 0.296663
O O19 0.804885 0.000000 0.366090
O O20 0.655878 0.000000 0.247600
O O21 0.706363 0.500000 0.818972
#
# Coordination Sequence:
#
# PCOD8062071 Si02
#       8
#     4   4   4   4   4   4   4   4
#     4  10  19  36  62  89 115 147 190 237 290 351
#     4  10  21  37  60  86 114 153 199 243 289 340
#     4  11  23  35  48  76 119 160 193 231 283 344
#     4  11  20  36  60  84 112 147 190 237 287 342
#     4  10  19  34  58  86 113 148 196 246 290 337
#     4   9  17  34  60  90 117 144 191 250 295 334
#     4   9  17  32  59  90 114 138 178 239 294 336
#     4  12  25  39  56  83 121 157 191 236 291 350
#
# _framework density 19.414757999999999
#
# number of rings (size 3 to 8) (size 9 to 14) (size 15 to 20)
#    0.000    1.750    2.500    3.000    0.000    5.250 
#    0.000    1.250    0.000    5.250    0.000    0.000 
#    0.000    0.000    0.000    0.000    0.000    0.000 
#
# Total GULP energy -396691.150569 kJ/mol
# GULP energy per Si atom -12396.598455 kJ/mol
# Density = 1.937057 g / cm^3
# Si number density = 19.414758 Si / 1000 Ang^3
#
#
#
# Elastic Constant Matrix: (Units=GPa)
#
#
# Indices 1 2 3 4 5 6 
#
# 1 95.0140 37.8378 41.1757 0.0000 7.2674 0.0000
# 2 37.8378 75.2263 35.6199 0.0000 0.8598 0.0000
# 3 41.1757 35.6199 113.8498 0.0000 10.6880 0.0000
# 4 0.0000 0.0000 0.0000 -0.5419 0.0000 -0.6522
# 5 7.2674 0.8598 10.6880 0.0000 23.2937 0.0000
# 6 0.0000 0.0000 0.0000 -0.6522 0.0000 15.3267
#
#
#
# Elastic Compliance Matrix: (Units=1/GPa)
#
#
# Indices 1 2 3 4 5 6 
#
# 1 0.014379 -0.005709 -0.003149 0.000000 -0.002831 0.000000
# 2 -0.005709 0.017940 -0.003817 0.000000 0.002871 0.000000
# 3 -0.003149 -0.003817 0.011507 0.000000 -0.004156 0.000000
# 4 0.000000 0.000000 0.000000 -1.755439 0.000000 -0.074699
# 5 -0.002831 0.002871 -0.004156 0.000000 0.045614 0.000000
# 6 0.000000 0.000000 0.000000 -0.074699 0.000000 0.062067
#
#
# Mechanical properties :
#
#
# Convention : Reuss Voigt Hill
#
# Bulk Modulus (GPa) = 54.12637 57.03967 55.58302
# Shear Modulus (GPa) = -3.17981 18.91282 7.86651
#
# Velocity S-wave (km/s) = -1.28117 3.12452 2.01510
# Velocity P-wave (km/s) = 5.07454 6.51614 5.84000
#
# Compressibility (1/GPa) = 0.01847528
#
# Stress axis : x y z
#
# Youngs Moduli (GPa) = 69.54367 55.74225 86.90569
#
# Poissons Ratio (x) = 0.31826 0.27362
# Poissons Ratio (y) = 0.39706 0.33175
# Poissons Ratio (z) = 0.21896 0.21279
#
# Static dielectric constant tensor:
#      x y z
#    x 3.829360 0.000000 0.257550 
#    y 0.000000 3.362910 0.000000 
#    z 0.257550 0.000000 3.588640 
# 
# 
# High freq. dielectric constant tensor:
#      x y z
#    x 1.759480 0.000000 0.009960 
#    y 0.000000 1.721650 0.000000 
#    z 0.009960 0.000000 1.753730 
# 
# From -- ./inp_files/49825.got.cif
#   From: 2010.06.25/outbox.cif.g09.slc.cpg/sg10_25_cif.got.tgz:49825.got - 2010.06.27 22:07:45.
