data_PCOD8062038
_publ_section_title
;
Structure prediction by ZEFSAII (Michael W. Deem and Ramdas Pophale) SiO2 
 PCOD8062038
Probable space group: P 2/M
;
_chemical_formula_sum "Si O2"
_cell_formula_units_Z 32
_cell_length_a 20.795883
_cell_length_b 9.102014
_cell_length_c 25.989133
_cell_angle_alpha 90.000000
_cell_angle_beta 159.093986
_cell_angle_gamma 90.000000
_cell_volume 1755.397138
_symmetry_space_group_name_H-M "P 2/M"
_symmetry_group_IT_number 10
_symmetry_cell_setting 'monoclinic'
loop_
_space_group_symop_operation_xyz
x,y,z
-x,y,-z
-x,-y,-z
x,-y,z
loop_
_atom_site_type_symbol
_atom_site_label
_atom_site_fract_x
_atom_site_fract_y
_atom_site_fract_z
Si Si1 0.956730 0.172559 0.409678
Si Si2 0.406123 0.666934 0.875688
Si Si3 0.835517 0.828046 0.020086
Si Si4 0.410987 0.331855 0.090827
Si Si5 0.207831 0.331410 0.289512
Si Si6 0.522290 0.330827 0.600375
Si Si7 0.529807 0.827053 0.711724
Si Si8 0.276626 0.671743 0.597077
O O1 0.754045 0.217530 0.245859
O O2 0.000000 0.221112 0.500000
O O3 0.084607 0.257164 0.465577
O O4 0.982595 0.000000 0.420994
O O5 0.334962 0.500000 0.813721
O O6 0.553148 0.705804 0.941879
O O7 0.500000 0.684318 0.000000
O O8 0.033982 0.769582 0.158590
O O9 0.847039 0.000000 0.035413
O O10 0.754941 0.764394 0.012871
O O11 0.708032 0.782776 0.877044
O O12 0.355213 0.500000 0.057404
O O13 0.593172 0.294383 0.257751
O O14 0.146190 0.500000 0.245651
O O15 0.331021 0.293880 0.430966
O O16 0.318365 0.300077 0.320482
O O17 0.525713 0.500000 0.621095
O O18 0.556571 0.224145 0.673569
O O19 0.356175 0.745421 0.605236
O O20 0.495346 0.000000 0.687914
O O21 0.250760 0.500000 0.567438
#
# Coordination Sequence:
#
# PCOD8062038 Si02
#       8
#     4   4   4   4   4   4   4   4
#     4  11  22  35  56  83 111 145 182 224 275 328
#     4  10  21  38  58  81 109 142 184 231 276 323
#     4  10  21  35  54  81 111 144 181 220 271 328
#     4   9  18  34  56  79 105 141 182 225 272 320
#     4   9  19  37  59  81 108 142 185 227 264 315
#     4   9  19  37  59  82 108 143 183 225 269 315
#     4  10  21  36  54  81 116 145 175 223 275 324
#     4  10  19  34  58  82 106 141 186 230 269 318
#
# _framework density 18.229493999999999
#
# number of rings (size 3 to 8) (size 9 to 14) (size 15 to 20)
#    0.000    2.250    1.250    2.250    0.000    4.750 
#    2.250    3.750    0.000    0.000    0.000    0.000 
#    0.000    0.000    0.000    0.000    0.000    0.000 
#
# Total GULP energy -396912.379595 kJ/mol
# GULP energy per Si atom -12403.511862 kJ/mol
# Density = 1.818800 g / cm^3
# Si number density = 18.229494 Si / 1000 Ang^3
#
#
#
# Elastic Constant Matrix: (Units=GPa)
#
#
# Indices 1 2 3 4 5 6 
#
# 1 114.1769 51.6025 51.5442 0.0000 0.3993 0.0000
# 2 51.6025 85.3184 50.2995 0.0000 9.3795 0.0000
# 3 51.5442 50.2995 84.9494 0.0000 14.3205 0.0000
# 4 0.0000 0.0000 0.0000 29.2804 0.0000 2.0559
# 5 0.3993 9.3795 14.3205 0.0000 25.3098 0.0000
# 6 0.0000 0.0000 0.0000 2.0559 0.0000 23.5276
#
#
#
# Elastic Compliance Matrix: (Units=1/GPa)
#
#
# Indices 1 2 3 4 5 6 
#
# 1 0.013958 -0.005384 -0.006169 0.000000 0.005266 0.000000
# 2 -0.005384 0.020095 -0.008170 0.000000 -0.002740 0.000000
# 3 -0.006169 -0.008170 0.021916 0.000000 -0.009275 0.000000
# 4 0.000000 0.000000 0.000000 0.034363 0.000000 -0.003003
# 5 0.005266 -0.002740 -0.009275 0.000000 0.045691 0.000000
# 6 0.000000 0.000000 0.000000 -0.003003 0.000000 0.042766
#
#
# Mechanical properties :
#
#
# Convention : Reuss Voigt Hill
#
# Bulk Modulus (GPa) = 60.52081 65.70411 63.11246
# Shear Modulus (GPa) = 22.34719 24.35680 23.35199
#
# Velocity S-wave (km/s) = 3.50506 3.65926 3.58299
# Velocity P-wave (km/s) = 7.04642 7.34674 7.19815
#
# Compressibility (1/GPa) = 0.01652324
#
# Stress axis : x y z
#
# Youngs Moduli (GPa) = 71.64217 49.76392 45.62938
#
# Poissons Ratio (x) = 0.26794 0.28149
# Poissons Ratio (y) = 0.38574 0.37277
# Poissons Ratio (z) = 0.44196 0.40655
#
# Static dielectric constant tensor:
#      x y z
#    x 3.365170 0.000000 0.064830 
#    y 0.000000 3.345810 0.000000 
#    z 0.064830 0.000000 3.175260 
# 
# 
# High freq. dielectric constant tensor:
#      x y z
#    x 1.711710 0.000000 0.008550 
#    y 0.000000 1.710170 0.000000 
#    z 0.008550 0.000000 1.694370 
# 
# From -- ./inp_files/86974.got.cif
#   From: 2010.06.25/outbox.cif.g09.slc.cpg/sg10_44_cif.got.tgz:86974.got - 2010.06.27 22:07:45.
