data_PCOD8062893
_publ_section_title
;
Structure prediction by ZEFSAII (Michael W. Deem and Ramdas Pophale) SiO2 
 PCOD8062893
Probable space group: P 2/M
;
_chemical_formula_sum "Si O2"
_cell_formula_units_Z 32
_cell_length_a 29.015036
_cell_length_b 8.826149
_cell_length_c 15.497676
_cell_angle_alpha 90.000000
_cell_angle_beta 153.847600
_cell_angle_gamma 90.000000
_cell_volume 1749.296371
_symmetry_space_group_name_H-M "P 2/M"
_symmetry_group_IT_number 10
_symmetry_cell_setting 'monoclinic'
loop_
_space_group_symop_operation_xyz
x,y,z
-x,y,-z
-x,-y,-z
x,-y,z
loop_
_atom_site_type_symbol
_atom_site_label
_atom_site_fract_x
_atom_site_fract_y
_atom_site_fract_z
Si Si1 0.414816 0.178945 0.553678
Si Si2 0.086074 0.170860 0.218601
Si Si3 0.065710 0.322830 0.915170
Si Si4 0.234024 0.676981 0.343228
Si Si5 0.377834 0.165070 0.303816
Si Si6 0.038268 0.179556 0.691118
Si Si7 0.857219 0.323750 0.296087
Si Si8 0.371319 0.672893 0.122550
O O1 0.350038 0.259895 0.520307
O O2 0.360760 0.228609 0.371976
O O3 0.536236 0.227319 0.762365
O O4 0.409711 0.000000 0.557157
O O5 0.191842 0.245089 0.359478
O O6 0.044208 0.266653 0.229390
O O7 0.109629 0.000000 0.288519
O O8 0.000000 0.174505 0.000000
O O9 0.057567 0.500000 0.882370
O O10 0.088620 0.233496 0.865520
O O11 0.159774 0.283189 0.137849
O O12 0.239204 0.500000 0.369316
O O13 0.500000 0.138456 0.500000
O O14 0.339764 0.282449 0.167762
O O15 0.322363 0.000000 0.198097
O O16 0.113803 0.233328 0.741777
O O17 0.923448 0.255018 0.486632
O O18 0.027301 0.000000 0.671156
O O19 0.884829 0.500000 0.329286
O O20 0.734101 0.303569 0.110296
O O21 0.409041 0.500000 0.186312
#
# Coordination Sequence:
#
# PCOD8062893 Si02
#       8
#     4   4   4   4   4   4   4   4
#     4  10  20  32  46  68  98 131 166 204 244 289
#     4   9  17  31  50  73 101 131 164 202 245 294
#     4  10  20  34  52  74 102 134 166 203 249 297
#     4  10  20  32  49  73 103 136 169 203 243 293
#     4   8  16  29  42  60  88 123 159 198 239 279
#     4  11  22  35  53  76  98 127 168 210 251 298
#     4  10  21  37  53  71  99 131 165 210 258 296
#     4  10  20  32  49  69  92 127 166 204 248 295
#
# _framework density 18.293068000000002
#
# number of rings (size 3 to 8) (size 9 to 14) (size 15 to 20)
#    0.000    2.250    0.000    4.875    1.750    7.750 
#    0.000    0.000    0.000    0.000    0.000    0.875 
#    0.000    7.000    0.000    0.000    0.000    0.000 
#
# Total GULP energy -396747.510376 kJ/mol
# GULP energy per Si atom -12398.359699 kJ/mol
# Density = 1.825143 g / cm^3
# Si number density = 18.293068 Si / 1000 Ang^3
#
#
#
# Elastic Constant Matrix: (Units=GPa)
#
#
# Indices 1 2 3 4 5 6 
#
# 1 48.9028 18.5599 8.2694 0.0000 14.1321 0.0000
# 2 18.5599 95.8277 25.0171 0.0000 5.8071 0.0000
# 3 8.2694 25.0171 56.0999 0.0000 13.7137 0.0000
# 4 0.0000 0.0000 0.0000 20.0287 0.0000 -1.7345
# 5 14.1321 5.8071 13.7137 0.0000 24.2624 0.0000
# 6 0.0000 0.0000 0.0000 -1.7345 0.0000 58.8196
#
#
#
# Elastic Compliance Matrix: (Units=1/GPa)
#
#
# Indices 1 2 3 4 5 6 
#
# 1 0.026320 -0.004679 0.001950 0.000000 -0.015313 0.000000
# 2 -0.004679 0.012643 -0.005656 0.000000 0.002896 0.000000
# 3 0.001950 -0.005656 0.023214 0.000000 -0.012903 0.000000
# 4 0.000000 0.000000 0.000000 0.050056 0.000000 0.001476
# 5 -0.015313 0.002896 -0.012903 0.000000 0.056735 0.000000
# 6 0.000000 0.000000 0.000000 0.001476 0.000000 0.017045
#
#
# Mechanical properties :
#
#
# Convention : Reuss Voigt Hill
#
# Bulk Modulus (GPa) = 22.02293 33.83591 27.92942
# Shear Modulus (GPa) = 22.94432 30.55441 26.74936
#
# Velocity S-wave (km/s) = 3.54540 4.09133 3.82811
# Velocity P-wave (km/s) = 5.36888 6.39182 5.90255
#
# Compressibility (1/GPa) = 0.04540722
#
# Stress axis : x y z
#
# Youngs Moduli (GPa) = 37.99410 79.09707 43.07653
#
# Poissons Ratio (x) = 0.37008 -0.08400
# Poissons Ratio (y) = 0.17777 0.24365
# Poissons Ratio (z) = -0.07409 0.44739
#
# Static dielectric constant tensor:
#      x y z
#    x 3.354940 0.000000 0.084710 
#    y 0.000000 3.445550 0.000000 
#    z 0.084710 0.000000 3.196790 
# 
# 
# High freq. dielectric constant tensor:
#      x y z
#    x 1.688150 0.000000 0.022720 
#    y 0.000000 1.725620 0.000000 
#    z 0.022720 0.000000 1.677770 
# 
# From -- ./inp_files/72227.got.cif
#   From: 2010.06.25/outbox.cif.g09.slc.cpg/sg10_37_cif.got.tgz:72227.got - 2010.06.27 22:07:45.
