data_PCOD8062147
_publ_section_title
;
Structure prediction by ZEFSAII (Michael W. Deem and Ramdas Pophale) SiO2 
 PCOD8062147
Probable space group: P 2/M
;
_chemical_formula_sum "Si O2"
_cell_formula_units_Z 26
_cell_length_a 5.288719
_cell_length_b 15.860642
_cell_length_c 22.307163
_cell_angle_alpha 90.000000
_cell_angle_beta 69.124479
_cell_angle_gamma 90.000000
_cell_volume 1748.349877
_symmetry_space_group_name_H-M "P 2/M"
_symmetry_group_IT_number 10
_symmetry_cell_setting 'monoclinic'
loop_
_space_group_symop_operation_xyz
x,y,z
-x,y,-z
-x,-y,-z
x,-y,z
loop_
_atom_site_type_symbol
_atom_site_label
_atom_site_fract_x
_atom_site_fract_y
_atom_site_fract_z
Si Si1 0.034984 0.651288 0.637561
Si Si2 0.812101 0.500000 0.458572
Si Si3 0.425213 0.600456 0.709603
Si Si4 0.390587 0.399421 0.072974
Si Si5 0.786966 0.599545 0.141942
Si Si6 0.654794 0.902901 0.563009
Si Si7 0.867171 0.166030 0.422431
O O1 0.127128 0.582275 0.583495
O O2 0.207728 0.641346 0.683389
O O3 0.098500 0.738561 0.600069
O O4 0.717299 0.642446 0.677136
O O5 0.500000 0.500000 0.500000
O O6 0.000000 0.500000 0.500000
O O7 0.443428 0.500000 0.697673
O O8 0.326299 0.624333 0.783918
O O9 0.386391 0.500000 0.075882
O O10 0.587073 0.363110 0.108153
O O11 0.088513 0.363060 0.108294
O O12 0.500000 0.367178 0.000000
O O13 0.800664 0.500000 0.133371
O O14 0.343524 0.880363 0.604696
O O15 0.750428 0.843807 0.499767
O O16 0.841302 0.880807 0.604643
O O17 0.686274 0.000000 0.541535
#
# Coordination Sequence:
#
# PCOD8062147 Si02
#       7
#     4   2   4   4   4   4   4
#     4  12  23  36  47  65  85 112 148 190 228 258
#     4  12  26  36  50  60  84 112 143 186 241 286
#     4  11  20  36  47  59  81 117 159 189 216 257
#     4   9  15  24  37  60  84 100 125 174 231 271
#     4   9  17  26  42  57  74 108 144 174 215 264
#     4  10  19  35  52  70  88 106 124 160 222 289
#     4  10  20  30  49  68  86 104 132 167 216 269
#
# _framework density 14.871165
#
# number of rings (size 3 to 8) (size 9 to 14) (size 15 to 20)
#    0.000    1.692    1.538    5.538    4.308    4.308 
#    0.000    0.000    0.000    0.000    0.000    0.000 
#    0.000    0.000    0.000    0.000    0.000    0.000 
#
# Total GULP energy -322274.470202 kJ/mol
# GULP energy per Si atom -12395.171931 kJ/mol
# Density = 1.483732 g / cm^3
# Si number density = 14.871165 Si / 1000 Ang^3
#
#
#
# Elastic Constant Matrix: (Units=GPa)
#
#
# Indices 1 2 3 4 5 6 
#
# 1 138.6486 25.5208 31.2726 0.0000 5.6909 0.0000
# 2 25.5208 73.4603 28.1679 0.0000 3.1594 0.0000
# 3 31.2726 28.1679 70.8871 0.0000 4.5658 0.0000
# 4 0.0000 0.0000 0.0000 7.2471 0.0000 -2.1928
# 5 5.6909 3.1594 4.5658 0.0000 26.9159 0.0000
# 6 0.0000 0.0000 0.0000 -2.1928 0.0000 14.7840
#
#
#
# Elastic Compliance Matrix: (Units=1/GPa)
#
#
# Indices 1 2 3 4 5 6 
#
# 1 0.008219 -0.001706 -0.002881 0.000000 -0.001049 0.000000
# 2 -0.001706 0.016431 -0.005738 0.000000 -0.000595 0.000000
# 3 -0.002881 -0.005738 0.017770 0.000000 -0.001732 0.000000
# 4 0.000000 0.000000 0.000000 0.144469 0.000000 0.021429
# 5 -0.001049 -0.000595 -0.001732 0.000000 0.037738 0.000000
# 6 0.000000 0.000000 0.000000 0.021429 0.000000 0.070819
#
#
# Mechanical properties :
#
#
# Convention : Reuss Voigt Hill
#
# Bulk Modulus (GPa) = 45.93370 50.32429 48.12900
# Shear Modulus (GPa) = 15.46297 22.99172 19.22734
#
# Velocity S-wave (km/s) = 3.22808 3.93626 3.59963
# Velocity P-wave (km/s) = 6.69693 7.38732 7.05058
#
# Compressibility (1/GPa) = 0.02177051
#
# Stress axis : x y z
#
# Youngs Moduli (GPa) = 121.66571 60.85933 56.27619
#
# Poissons Ratio (x) = 0.10381 0.16211
# Poissons Ratio (y) = 0.20753 0.32293
# Poissons Ratio (z) = 0.35047 0.34923
#
# Static dielectric constant tensor:
#      x y z
#    x 3.029500 0.000000 0.175050 
#    y 0.000000 2.516830 0.000000 
#    z 0.175050 0.000000 2.713300 
# 
# 
# High freq. dielectric constant tensor:
#      x y z
#    x 1.610220 0.000000 -0.002170 
#    y 0.000000 1.517070 0.000000 
#    z -0.002170 0.000000 1.542770 
# 
# From -- ./inp_files/81294.got.cif
#   From: 2010.06.25/outbox.cif.g09.slc.cpg/sg10_41_cif.got.tgz:81294.got - 2010.06.27 22:07:45.
