data_PCOD8062449
_publ_section_title
;
Structure prediction by ZEFSAII (Michael W. Deem and Ramdas Pophale) SiO2 
 PCOD8062449
Probable space group: P 2/M
;
_chemical_formula_sum "Si O2"
_cell_formula_units_Z 32
_cell_length_a 9.062506
_cell_length_b 19.478634
_cell_length_c 14.660380
_cell_angle_alpha 90.000000
_cell_angle_beta 39.774252
_cell_angle_gamma 90.000000
_cell_volume 1655.663547
_symmetry_space_group_name_H-M "P 2/M"
_symmetry_group_IT_number 10
_symmetry_cell_setting 'monoclinic'
loop_
_space_group_symop_operation_xyz
x,y,z
-x,y,-z
-x,-y,-z
x,-y,z
loop_
_atom_site_type_symbol
_atom_site_label
_atom_site_fract_x
_atom_site_fract_y
_atom_site_fract_z
Si Si1 0.518864 0.211251 0.889444
Si Si2 0.267412 0.310143 0.558611
Si Si3 0.054037 0.684565 0.843567
Si Si4 0.227478 0.079100 0.632481
Si Si5 0.622820 0.340592 0.150806
Si Si6 0.744081 0.578757 0.587273
Si Si7 0.019541 0.179475 0.597320
Si Si8 0.049681 0.156353 0.078926
O O1 0.496751 0.270329 0.824107
O O2 0.769530 0.179140 0.761646
O O3 0.500000 0.243231 0.000000
O O4 0.325233 0.151298 0.967965
O O5 0.500000 0.286592 0.500000
O O6 0.082838 0.331530 0.723608
O O7 0.307390 0.376045 0.477078
O O8 0.168492 0.247430 0.547110
O O9 0.283831 0.666941 0.790302
O O10 0.006263 0.763904 0.884011
O O11 0.834237 0.640210 0.983103
O O12 0.500000 0.089151 0.500000
O O13 0.142152 0.112989 0.579802
O O14 0.109518 0.113881 0.776609
O O15 0.155591 0.000000 0.667792
O O16 0.429588 0.399970 0.247958
O O17 0.703022 0.500000 0.580409
O O18 0.000000 0.592687 0.500000
O O19 0.000000 0.169734 0.500000
O O20 0.000000 0.130381 0.000000
#
# Coordination Sequence:
#
# PCOD8062449 Si02
#       8
#     4   4   4   4   4   4   4   4
#     4  11  20  37  61  97 124 157 201 265 314 367
#     4  12  22  38  65  95 124 160 215 266 306 367
#     4  10  19  35  62  96 120 155 198 270 309 356
#     4  11  26  46  64  89 129 171 213 261 314 376
#     4  10  19  37  59  89 124 154 200 254 322 362
#     4  11  25  43  60  86 128 169 208 259 316 377
#     4  12  25  37  64  97 126 165 210 256 321 375
#     4  11  21  39  66  92 129 159 208 261 316 372
#
# _framework density 19.327597999999998
#
# number of rings (size 3 to 8) (size 9 to 14) (size 15 to 20)
#    0.000    1.000    6.250    3.000    1.750    0.750 
#    0.000    3.125    0.000    1.875    0.000    0.000 
#    0.000    0.000    0.000    0.000    0.000    0.000 
#
# Total GULP energy -396779.082125 kJ/mol
# GULP energy per Si atom -12399.346316 kJ/mol
# Density = 1.928361 g / cm^3
# Si number density = 19.327598 Si / 1000 Ang^3
#
#
#
# Elastic Constant Matrix: (Units=GPa)
#
#
# Indices 1 2 3 4 5 6 
#
# 1 110.4234 48.4115 60.3861 0.0000 2.4367 0.0000
# 2 48.4115 85.9004 68.4623 0.0000 -9.9056 0.0000
# 3 60.3861 68.4623 124.6808 0.0000 7.1299 0.0000
# 4 0.0000 0.0000 0.0000 28.5632 0.0000 0.7980
# 5 2.4367 -9.9056 7.1299 0.0000 41.9076 0.0000
# 6 0.0000 0.0000 0.0000 0.7980 0.0000 22.2500
#
#
#
# Elastic Compliance Matrix: (Units=1/GPa)
#
#
# Indices 1 2 3 4 5 6 
#
# 1 0.013147 -0.004487 -0.003837 0.000000 -0.001172 0.000000
# 2 -0.004487 0.024412 -0.011690 0.000000 0.008020 0.000000
# 3 -0.003837 -0.011690 0.016605 0.000000 -0.005365 0.000000
# 4 0.000000 0.000000 0.000000 0.035045 0.000000 -0.001257
# 5 -0.001172 0.008020 -0.005365 0.000000 0.026739 0.000000
# 6 0.000000 0.000000 0.000000 -0.001257 0.000000 0.044989
#
#
# Mechanical properties :
#
#
# Convention : Reuss Voigt Hill
#
# Bulk Modulus (GPa) = 70.73995 75.05827 72.89911
# Shear Modulus (GPa) = 24.31012 28.12715 26.21864
#
# Velocity S-wave (km/s) = 3.55039 3.81896 3.68712
# Velocity P-wave (km/s) = 7.31348 7.63970 7.47837
#
# Compressibility (1/GPa) = 0.01413628
#
# Stress axis : x y z
#
# Youngs Moduli (GPa) = 76.06205 40.96384 60.22408
#
# Poissons Ratio (x) = 0.18379 0.23107
# Poissons Ratio (y) = 0.34126 0.70403
# Poissons Ratio (z) = 0.29184 0.47887
#
# Static dielectric constant tensor:
#      x y z
#    x 3.673280 0.000000 -0.180500 
#    y 0.000000 3.250020 0.000000 
#    z -0.180500 0.000000 3.998930 
# 
# 
# High freq. dielectric constant tensor:
#      x y z
#    x 1.767040 0.000000 -0.006080 
#    y 0.000000 1.708310 0.000000 
#    z -0.006080 0.000000 1.778020 
# 
# From -- ./inp_files/62481.got.cif
#   From: 2010.06.25/outbox.cif.g09.slc.cpg/sg10_32_cif.got.tgz:62481.got - 2010.06.27 22:07:45.
