data_PCOD8062932
_publ_section_title
;
Structure prediction by ZEFSAII (Michael W. Deem and Ramdas Pophale) SiO2 
 PCOD8062932
Probable space group: P 2/M
;
_chemical_formula_sum "Si O2"
_cell_formula_units_Z 24
_cell_length_a 25.381518
_cell_length_b 13.470005
_cell_length_c 13.466452
_cell_angle_alpha 90.000000
_cell_angle_beta 19.541863
_cell_angle_gamma 90.000000
_cell_volume 1540.028746
_symmetry_space_group_name_H-M "P 2/M"
_symmetry_group_IT_number 10
_symmetry_cell_setting 'monoclinic'
loop_
_space_group_symop_operation_xyz
x,y,z
-x,y,-z
-x,-y,-z
x,-y,z
loop_
_atom_site_type_symbol
_atom_site_label
_atom_site_fract_x
_atom_site_fract_y
_atom_site_fract_z
Si Si1 0.437734 0.713537 0.329977
Si Si2 0.021406 0.613415 0.347332
Si Si3 0.676107 0.612727 0.647784
Si Si4 0.767713 0.713534 0.670018
Si Si5 0.436856 0.886114 0.000006
Si Si6 0.631262 0.386585 0.347333
O O1 0.309551 0.661694 0.486022
O O2 0.385914 0.693030 0.534025
O O3 0.613228 0.667344 0.999999
O O4 0.442921 0.831085 0.290607
O O5 0.967258 0.500000 0.420745
O O6 0.000000 0.638789 0.500000
O O7 0.919939 0.693029 0.465972
O O8 0.201992 0.629536 0.999999
O O9 0.725004 0.500000 0.549985
O O10 0.795574 0.661687 0.513976
O O11 0.500000 0.630613 0.000000
O O12 0.733533 0.831082 0.709380
O O13 0.419362 0.000000 0.000014
O O14 0.500000 0.873694 0.000000
O O15 0.500000 0.361212 0.500000
O O16 0.611998 0.500000 0.420745
#
# Coordination Sequence:
#
# PCOD8062932 Si02
#       6
#     4   4   4   4   4   4
#     4   9  16  29  46  72  94 129 161 196 244 279
#     4  10  20  32  47  70  99 132 164 196 236 290
#     4   9  14  22  39  67  99 124 154 186 225 285
#     4   9  16  29  46  72  94 129 161 196 244 279
#     4   9  16  30  52  78 100 122 166 209 244 287
#     4  10  20  32  47  70  99 132 164 196 236 290
#
# _framework density 15.584123999999999
#
# number of rings (size 3 to 8) (size 9 to 14) (size 15 to 20)
#    1.000    1.667    1.667    2.000    0.000    3.333 
#    0.000    0.833    0.000    5.000    0.000    2.333 
#    0.000    0.000    0.000    0.000    0.000    0.000 
#
# Total GULP energy -297356.503477 kJ/mol
# GULP energy per Si atom -12389.854312 kJ/mol
# Density = 1.554865 g / cm^3
# Si number density = 15.584124 Si / 1000 Ang^3
#
#
#
# Elastic Constant Matrix: (Units=GPa)
#
#
# Indices 1 2 3 4 5 6 
#
# 1 121.6274 64.8619 46.1683 0.0000 2.4284 0.0000
# 2 64.8619 124.2354 30.0109 0.0000 3.0349 0.0000
# 3 46.1683 30.0109 56.8101 0.0000 3.2185 0.0000
# 4 0.0000 0.0000 0.0000 11.2226 0.0000 0.9101
# 5 2.4284 3.0349 3.2185 0.0000 23.7167 0.0000
# 6 0.0000 0.0000 0.0000 0.9101 0.0000 21.6625
#
#
#
# Elastic Compliance Matrix: (Units=1/GPa)
#
#
# Indices 1 2 3 4 5 6 
#
# 1 0.014498 -0.005419 -0.008944 0.000000 0.000423 0.000000
# 2 -0.005419 0.011259 -0.001505 0.000000 -0.000682 0.000000
# 3 -0.008944 -0.001505 0.025801 0.000000 -0.002393 0.000000
# 4 0.000000 0.000000 0.000000 0.089410 0.000000 -0.003757
# 5 0.000423 -0.000682 -0.002393 0.000000 0.042533 0.000000
# 6 0.000000 0.000000 0.000000 -0.003757 0.000000 0.046320
#
#
# Mechanical properties :
#
#
# Convention : Reuss Voigt Hill
#
# Bulk Modulus (GPa) = 50.44670 64.97279 57.70974
# Shear Modulus (GPa) = 18.64522 22.09582 20.37052
#
# Velocity S-wave (km/s) = 3.46269 3.76951 3.61935
# Velocity P-wave (km/s) = 6.95901 7.79280 7.38768
#
# Compressibility (1/GPa) = 0.01982290
#
# Stress axis : x y z
#
# Youngs Moduli (GPa) = 68.97386 88.81988 38.75771
#
# Poissons Ratio (x) = 0.48134 0.34663
# Poissons Ratio (y) = 0.37379 0.05833
# Poissons Ratio (z) = 0.61687 0.13367
#
# Static dielectric constant tensor:
#      x y z
#    x 2.976900 0.000000 0.030960 
#    y 0.000000 2.803020 0.000000 
#    z 0.030960 0.000000 2.621730 
# 
# 
# High freq. dielectric constant tensor:
#      x y z
#    x 1.607100 0.000000 0.003990 
#    y 0.000000 1.572520 0.000000 
#    z 0.003990 0.000000 1.561380 
# 
# From -- ./inp_files/57057.got.cif
#   From: 2010.06.25/outbox.cif.g09.slc.cpg/sg10_29_cif.got.tgz:57057.got - 2010.06.27 22:07:45.
