data_PCOD8062516
_publ_section_title
;
Structure prediction by ZEFSAII (Michael W. Deem and Ramdas Pophale) SiO2 
 PCOD8062516
Probable space group: P 2/M
;
_chemical_formula_sum "Si O2"
_cell_formula_units_Z 32
_cell_length_a 31.005249
_cell_length_b 9.074942
_cell_length_c 12.081472
_cell_angle_alpha 90.000000
_cell_angle_beta 28.495006
_cell_angle_gamma 90.000000
_cell_volume 1621.780631
_symmetry_space_group_name_H-M "P 2/M"
_symmetry_group_IT_number 10
_symmetry_cell_setting 'monoclinic'
loop_
_space_group_symop_operation_xyz
x,y,z
-x,y,-z
-x,-y,-z
x,-y,z
loop_
_atom_site_type_symbol
_atom_site_label
_atom_site_fract_x
_atom_site_fract_y
_atom_site_fract_z
Si Si1 0.239600 0.675031 0.982902
Si Si2 0.434752 0.826360 0.545917
Si Si3 0.087095 0.327007 0.489571
Si Si4 0.090412 0.673213 0.731462
Si Si5 0.359914 0.665859 0.309572
Si Si6 0.814605 0.828265 0.299989
Si Si7 0.502414 0.665505 0.182610
Si Si8 0.111975 0.671938 0.070537
O O1 0.253145 0.500000 0.960394
O O2 0.336977 0.749601 0.776103
O O3 0.171092 0.738838 0.230731
O O4 0.191288 0.717184 0.976086
O O5 0.500000 0.779722 0.500000
O O6 0.485082 0.779432 0.320085
O O7 0.418488 0.000000 0.581006
O O8 0.101920 0.500000 0.457571
O O9 0.088537 0.265013 0.611014
O O10 0.989033 0.292189 0.655006
O O11 0.108132 0.500000 0.694138
O O12 0.170743 0.756041 0.613017
O O13 0.000000 0.716904 0.000000
O O14 0.318863 0.500000 0.401339
O O15 0.287327 0.789444 0.502198
O O16 0.428814 0.679557 0.253878
O O17 0.402992 0.699481 0.091871
O O18 0.831134 0.000000 0.267981
O O19 0.880650 0.760682 0.059548
O O20 0.501913 0.500000 0.233446
O O21 0.118499 0.500000 0.026110
#
# Coordination Sequence:
#
# PCOD8062516 Si02
#       8
#     4   4   4   4   4   4   4   4
#     4  10  21  37  62  91 113 141 190 246 287 332
#     4  11  25  42  58  79 116 159 192 229 285 349
#     4   9  18  35  60  88 114 146 190 237 286 337
#     4  10  19  36  59  79 107 149 191 231 279 329
#     4   9  19  37  60  87 115 142 181 235 294 341
#     4  12  24  34  51  83 120 155 193 230 273 334
#     4   9  19  38  64  88 109 139 185 242 289 334
#     4  10  19  36  60  85 116 151 189 235 288 339
#
# _framework density 19.731400000000001
#
# number of rings (size 3 to 8) (size 9 to 14) (size 15 to 20)
#    0.000    2.000    1.250    3.375    0.000    8.250 
#    0.000    6.250    0.000    1.500    0.000    0.000 
#    0.000    0.000    0.000    0.000    0.000    0.000 
#
# Total GULP energy -396682.861283 kJ/mol
# GULP energy per Si atom -12396.339415 kJ/mol
# Density = 1.968649 g / cm^3
# Si number density = 19.731400 Si / 1000 Ang^3
#
#
#
# Elastic Constant Matrix: (Units=GPa)
#
#
# Indices 1 2 3 4 5 6 
#
# 1 106.3126 40.5626 46.6609 0.0000 4.6569 0.0000
# 2 40.5626 49.6442 26.9006 0.0000 4.5044 0.0000
# 3 46.6609 26.9006 93.2065 0.0000 8.9474 0.0000
# 4 0.0000 0.0000 0.0000 7.2045 0.0000 2.5108
# 5 4.6569 4.5044 8.9474 0.0000 24.7106 0.0000
# 6 0.0000 0.0000 0.0000 2.5108 0.0000 14.4333
#
#
#
# Elastic Compliance Matrix: (Units=1/GPa)
#
#
# Indices 1 2 3 4 5 6 
#
# 1 0.015296 -0.009928 -0.004858 0.000000 0.000686 0.000000
# 2 -0.009928 0.030410 -0.003578 0.000000 -0.002377 0.000000
# 3 -0.004858 -0.003578 0.014549 0.000000 -0.003700 0.000000
# 4 0.000000 0.000000 0.000000 0.147760 0.000000 -0.025704
# 5 0.000686 -0.002377 -0.003700 0.000000 0.042112 0.000000
# 6 0.000000 0.000000 0.000000 -0.025704 0.000000 0.073755
#
#
# Mechanical properties :
#
#
# Convention : Reuss Voigt Hill
#
# Bulk Modulus (GPa) = 42.50610 53.04575 47.77593
# Shear Modulus (GPa) = 13.57023 18.27229 15.92126
#
# Velocity S-wave (km/s) = 2.62534 3.04641 2.84368
# Velocity P-wave (km/s) = 5.54788 6.27028 5.92011
#
# Compressibility (1/GPa) = 0.02352603
#
# Stress axis : x y z
#
# Youngs Moduli (GPa) = 65.37518 32.88422 68.73353
#
# Poissons Ratio (x) = 0.32647 0.33392
# Poissons Ratio (y) = 0.64904 0.24596
# Poissons Ratio (z) = 0.31760 0.11767
#
# Static dielectric constant tensor:
#      x y z
#    x 3.718240 0.000000 0.117650 
#    y 0.000000 3.281750 0.000000 
#    z 0.117650 0.000000 3.870900 
# 
# 
# High freq. dielectric constant tensor:
#      x y z
#    x 1.774120 0.000000 0.000610 
#    y 0.000000 1.735510 0.000000 
#    z 0.000610 0.000000 1.779200 
# 
# From -- ./inp_files/58208.got.cif
#   From: 2010.06.25/outbox.cif.g09.slc.cpg/sg10_30_cif.got.tgz:58208.got - 2010.06.27 22:07:45.
