data_PCOD8062437
_publ_section_title
;
Structure prediction by ZEFSAII (Michael W. Deem and Ramdas Pophale) SiO2 
 PCOD8062437
Probable space group: P 2/M
;
_chemical_formula_sum "Si O2"
_cell_formula_units_Z 16
_cell_length_a 17.739530
_cell_length_b 7.814566
_cell_length_c 12.800932
_cell_angle_alpha 90.000000
_cell_angle_beta 27.316174
_cell_angle_gamma 90.000000
_cell_volume 814.342281
_symmetry_space_group_name_H-M "P 2/M"
_symmetry_group_IT_number 10
_symmetry_cell_setting 'monoclinic'
loop_
_space_group_symop_operation_xyz
x,y,z
-x,y,-z
-x,-y,-z
x,-y,z
loop_
_atom_site_type_symbol
_atom_site_label
_atom_site_fract_x
_atom_site_fract_y
_atom_site_fract_z
Si Si1 0.805736 0.689319 0.457509
Si Si2 0.460831 0.189022 0.832801
Si Si3 0.370759 0.000000 0.751259
Si Si4 0.171435 0.203488 0.335885
Si Si5 0.005470 0.000000 0.116756
O O1 0.875349 0.500000 0.346328
O O2 0.621441 0.694738 0.638767
O O3 0.798325 0.713004 0.590159
O O4 0.919192 0.829707 0.264101
O O5 0.508784 0.000000 0.818169
O O6 0.397179 0.168807 0.791234
O O7 0.315635 0.268156 0.081621
O O8 0.500000 0.000000 0.500000
O O9 0.190328 0.000000 0.927684
O O10 0.000000 0.269669 0.500000
O O11 0.169385 0.000000 0.348855
O O12 0.000000 0.000000 0.000000
#
# Coordination Sequence:
#
# PCOD8062437 Si02
#       5
#     4   4   2   4   2
#     4  12  24  39  64  95 127 163 207 255 312 371
#     4   9  19  36  60  91 120 166 205 248 305 368
#     4  10  20  39  68  93 114 162 210 254 314 362
#     4  10  19  35  61  90 127 169 209 253 308 369
#     4  12  24  45  70  89 124 160 206 260 312 370
#
# _framework density 19.647760000000002
#
# number of rings (size 3 to 8) (size 9 to 14) (size 15 to 20)
#    0.750    0.750    2.500    3.750    0.000    5.000 
#    0.000    3.750    0.000    3.000    0.000    0.000 
#    0.000    0.000    0.000    0.000    0.000    0.000 
#
# Total GULP energy -198368.358260 kJ/mol
# GULP energy per Si atom -12398.022391 kJ/mol
# Density = 1.960304 g / cm^3
# Si number density = 19.647760 Si / 1000 Ang^3
#
#
#
# Elastic Constant Matrix: (Units=GPa)
#
#
# Indices 1 2 3 4 5 6 
#
# 1 169.6485 42.7780 82.2290 0.0000 -2.2502 0.0000
# 2 42.7780 97.3304 64.2467 0.0000 2.5952 0.0000
# 3 82.2290 64.2467 166.0056 0.0000 1.1605 0.0000
# 4 0.0000 0.0000 0.0000 9.0696 0.0000 1.1295
# 5 -2.2502 2.5952 1.1605 0.0000 48.0717 0.0000
# 6 0.0000 0.0000 0.0000 1.1295 0.0000 7.0749
#
#
#
# Elastic Compliance Matrix: (Units=1/GPa)
#
#
# Indices 1 2 3 4 5 6 
#
# 1 0.007871 -0.001205 -0.003436 0.000000 0.000516 0.000000
# 2 -0.001205 0.014002 -0.004817 0.000000 -0.000696 0.000000
# 3 -0.003436 -0.004817 0.009591 0.000000 -0.000132 0.000000
# 4 0.000000 0.000000 0.000000 0.112496 0.000000 -0.017960
# 5 0.000516 -0.000696 -0.000132 0.000000 0.020867 0.000000
# 6 0.000000 0.000000 0.000000 -0.017960 0.000000 0.144212
#
#
# Mechanical properties :
#
#
# Convention : Reuss Voigt Hill
#
# Bulk Modulus (GPa) = 79.69665 90.16578 84.93121
# Shear Modulus (GPa) = 15.05398 29.09196 22.07297
#
# Velocity S-wave (km/s) = 2.77102 3.85213 3.35540
# Velocity P-wave (km/s) = 7.13364 8.11024 7.63757
#
# Compressibility (1/GPa) = 0.01254758
#
# Stress axis : x y z
#
# Youngs Moduli (GPa) = 127.05482 71.41652 104.26299
#
# Poissons Ratio (x) = 0.08606 0.35823
# Poissons Ratio (y) = 0.15311 0.50227
# Poissons Ratio (z) = 0.43654 0.34404
#
# Static dielectric constant tensor:
#      x y z
#    x 3.651700 0.000000 -0.024780 
#    y 0.000000 3.353910 0.000000 
#    z -0.024780 0.000000 3.584080 
# 
# 
# High freq. dielectric constant tensor:
#      x y z
#    x 1.775620 0.000000 -0.007370 
#    y 0.000000 1.737500 0.000000 
#    z -0.007370 0.000000 1.770390 
# 
# From -- ./inp_files/52543.got.cif
#   From: 2010.06.25/outbox.cif.g09.slc.cpg/sg10_27_cif.got.tgz:52543.got - 2010.06.27 22:07:45.
