data_PCOD8062383
_publ_section_title
;
Structure prediction by ZEFSAII (Michael W. Deem and Ramdas Pophale) SiO2 
 PCOD8062383
Probable space group: P 2/M
;
_chemical_formula_sum "Si O2"
_cell_formula_units_Z 32
_cell_length_a 11.912813
_cell_length_b 9.235613
_cell_length_c 15.092620
_cell_angle_alpha 90.000000
_cell_angle_beta 88.361684
_cell_angle_gamma 90.000000
_cell_volume 1659.843419
_symmetry_space_group_name_H-M "P 2/M"
_symmetry_group_IT_number 10
_symmetry_cell_setting 'monoclinic'
loop_
_space_group_symop_operation_xyz
x,y,z
-x,y,-z
-x,-y,-z
x,-y,z
loop_
_atom_site_type_symbol
_atom_site_label
_atom_site_fract_x
_atom_site_fract_y
_atom_site_fract_z
Si Si1 0.054693 0.665600 0.867463
Si Si2 0.329078 0.168964 0.618993
Si Si3 0.297043 0.831698 0.424066
Si Si4 0.179601 0.664978 0.047735
Si Si5 0.589799 0.827794 0.923507
Si Si6 0.096785 0.829098 0.698475
Si Si7 0.072093 0.336497 0.410753
Si Si8 0.470170 0.171476 0.271176
O O1 0.063239 0.500000 0.833632
O O2 0.109457 0.778560 0.798859
O O3 0.923221 0.705334 0.884591
O O4 0.130592 0.686107 0.951587
O O5 0.362687 0.197034 0.515580
O O6 0.204740 0.229147 0.641905
O O7 0.418403 0.239727 0.685483
O O8 0.328419 0.000000 0.639412
O O9 0.190496 0.731231 0.429263
O O10 0.368598 0.783484 0.337730
O O11 0.261781 0.000000 0.419264
O O12 0.218188 0.500000 0.062268
O O13 0.286853 0.766342 0.059991
O O14 0.548084 0.769326 0.828156
O O15 0.600353 0.000000 0.923103
O O16 0.500000 0.776621 0.000000
O O17 0.984988 0.755596 0.664724
O O18 0.083034 0.000000 0.692369
O O19 0.087222 0.500000 0.376605
O O20 0.000000 0.328735 0.500000
O O21 0.479854 0.000000 0.267719
#
# Coordination Sequence:
#
# PCOD8062383 Si02
#       8
#     4   4   4   4   4   4   4   4
#     4   9  20  39  60  84 113 149 186 231 286 338
#     4   9  18  33  55  83 113 145 185 235 285 328
#     4  10  19  35  60  84 109 144 193 244 278 328
#     4   9  20  40  62  81 111 150 191 233 279 341
#     4  10  22  37  56  83 118 151 185 238 291 336
#     4  11  22  34  57  88 116 146 186 235 280 337
#     4  11  23  38  55  78 116 158 189 226 282 338
#     4   9  19  35  56  83 112 147 188 231 288 340
#
# _framework density 19.278926999999999
#
# number of rings (size 3 to 8) (size 9 to 14) (size 15 to 20)
#    0.000    2.250    1.250    1.875    3.500    3.250 
#    0.000    1.250    0.000    3.750    0.000    0.000 
#    0.000    0.000    0.000    0.000    0.000    0.000 
#
# Total GULP energy -396686.977387 kJ/mol
# GULP energy per Si atom -12396.468043 kJ/mol
# Density = 1.923505 g / cm^3
# Si number density = 19.278927 Si / 1000 Ang^3
#
#
#
# Elastic Constant Matrix: (Units=GPa)
#
#
# Indices 1 2 3 4 5 6 
#
# 1 117.4982 41.8933 57.8626 0.0000 9.6284 0.0000
# 2 41.8933 60.3923 34.7581 0.0000 1.2310 0.0000
# 3 57.8626 34.7581 124.6735 0.0000 -6.2053 0.0000
# 4 0.0000 0.0000 0.0000 24.7383 0.0000 2.1404
# 5 9.6284 1.2310 -6.2053 0.0000 28.3258 0.0000
# 6 0.0000 0.0000 0.0000 2.1404 0.0000 17.3252
#
#
#
# Elastic Compliance Matrix: (Units=1/GPa)
#
#
# Indices 1 2 3 4 5 6 
#
# 1 0.013660 -0.006625 -0.004761 0.000000 -0.005398 0.000000
# 2 -0.006625 0.023059 -0.003328 0.000000 0.000521 0.000000
# 3 -0.004761 -0.003328 0.011370 0.000000 0.004254 0.000000
# 4 0.000000 0.000000 0.000000 0.040860 0.000000 -0.005048
# 5 -0.005398 0.000521 0.004254 0.000000 0.038048 0.000000
# 6 0.000000 0.000000 0.000000 -0.005048 0.000000 0.058343
#
#
# Mechanical properties :
#
#
# Convention : Reuss Voigt Hill
#
# Bulk Modulus (GPa) = 53.59020 63.51021 58.55021
# Shear Modulus (GPa) = 22.62549 25.28121 23.95335
#
# Velocity S-wave (km/s) = 3.42948 3.62517 3.52868
# Velocity P-wave (km/s) = 6.59844 7.10892 6.85843
#
# Compressibility (1/GPa) = 0.01866013
#
# Stress axis : x y z
#
# Youngs Moduli (GPa) = 73.20521 43.36691 87.94846
#
# Poissons Ratio (x) = 0.28733 0.41876
# Poissons Ratio (y) = 0.48502 0.29267
# Poissons Ratio (z) = 0.34856 0.14432
#
# Static dielectric constant tensor:
#      x y z
#    x 3.652200 0.000000 -0.005020 
#    y 0.000000 3.242440 0.000000 
#    z -0.005020 0.000000 3.749280 
# 
# 
# High freq. dielectric constant tensor:
#      x y z
#    x 1.755260 0.000000 0.002220 
#    y 0.000000 1.717490 0.000000 
#    z 0.002220 0.000000 1.763080 
# 
# From -- ./inp_files/58335.got.cif
#   From: 2010.06.25/outbox.cif.g09.slc.cpg/sg10_30_cif.got.tgz:58335.got - 2010.06.27 22:07:45.
