data_PCOD8062971
_publ_section_title
;
Structure prediction by ZEFSAII (Michael W. Deem and Ramdas Pophale) SiO2 
 PCOD8062971
Probable space group: P 2/M
;
_chemical_formula_sum "Si O2"
_cell_formula_units_Z 24
_cell_length_a 9.126630
_cell_length_b 9.581741
_cell_length_c 20.465457
_cell_angle_alpha 90.000000
_cell_angle_beta 131.984487
_cell_angle_gamma 90.000000
_cell_volume 1330.318478
_symmetry_space_group_name_H-M "P 2/M"
_symmetry_group_IT_number 10
_symmetry_cell_setting 'monoclinic'
loop_
_space_group_symop_operation_xyz
x,y,z
-x,y,-z
-x,-y,-z
x,-y,z
loop_
_atom_site_type_symbol
_atom_site_label
_atom_site_fract_x
_atom_site_fract_y
_atom_site_fract_z
Si Si1 0.457349 0.333784 0.415172
Si Si2 0.014660 0.161001 0.898238
Si Si3 0.692115 0.338079 0.241853
Si Si4 0.680055 0.838999 0.898238
Si Si5 0.033443 0.338079 0.241853
Si Si6 0.211834 0.333784 0.584828
O O1 0.500000 0.273442 0.500000
O O2 0.459881 0.500000 0.418036
O O3 0.245854 0.280262 0.327390
O O4 0.623872 0.276072 0.415914
O O5 0.813528 0.201150 0.875686
O O6 0.042295 0.255221 0.843276
O O7 0.009383 0.000000 0.875466
O O8 0.200028 0.190043 1.000000
O O9 0.632897 0.500000 0.225985
O O10 0.512468 0.255221 0.156724
O O11 0.736315 0.280262 0.327390
O O12 0.886236 0.312504 0.257491
O O13 0.617016 0.000000 0.875466
O O14 0.045057 0.500000 0.225985
O O15 0.205773 0.500000 0.581964
O O16 0.000000 0.273442 0.500000
#
# Coordination Sequence:
#
# PCOD8062971 Si02
#       6
#     4   4   4   4   4   4
#     4   9  16  27  45  69  98 131 165 201 242 288
#     4   9  19  36  55  73  95 127 167 207 248 297
#     4  10  20  32  48  74 105 133 164 203 245 290
#     4   9  19  36  55  73  95 127 167 207 248 297
#     4  10  20  32  48  74 105 133 164 203 245 290
#     4   9  16  27  45  69  98 131 165 201 242 288
#
# _framework density 18.040792
#
# number of rings (size 3 to 8) (size 9 to 14) (size 15 to 20)
#    0.000    2.667    0.000    3.000    0.000    8.000 
#    0.000    5.000    0.000    1.000    0.000    0.000 
#    0.000    0.000    0.000    0.000    0.000    0.000 
#
# Total GULP energy -297636.581858 kJ/mol
# GULP energy per Si atom -12401.524244 kJ/mol
# Density = 1.799973 g / cm^3
# Si number density = 18.040792 Si / 1000 Ang^3
#
#
#
# Elastic Constant Matrix: (Units=GPa)
#
#
# Indices 1 2 3 4 5 6 
#
# 1 131.0827 41.6122 74.7927 0.0000 0.0014 0.0000
# 2 41.6122 39.9485 45.2343 0.0000 0.0002 0.0000
# 3 74.7927 45.2343 122.2118 0.0000 -0.0018 0.0000
# 4 0.0000 0.0000 0.0000 -2.0266 0.0000 -0.0012
# 5 0.0014 0.0002 -0.0018 0.0000 42.8855 0.0000
# 6 0.0000 0.0000 0.0000 -0.0012 0.0000 24.3172
#
#
#
# Elastic Compliance Matrix: (Units=1/GPa)
#
#
# Indices 1 2 3 4 5 6 
#
# 1 0.012996 -0.007800 -0.005066 0.000000 -0.000001 0.000000
# 2 -0.007800 0.047775 -0.012909 0.000000 0.000000 0.000000
# 3 -0.005066 -0.012909 0.016061 0.000000 0.000001 0.000000
# 4 0.000000 0.000000 0.000000 -0.493440 0.000000 -0.000025
# 5 -0.000001 0.000000 0.000001 0.000000 0.023318 0.000000
# 6 0.000000 0.000000 0.000000 -0.000025 0.000000 0.041123
#
#
# Mechanical properties :
#
#
# Convention : Reuss Voigt Hill
#
# Bulk Modulus (GPa) = 39.55681 68.50239 54.02960
# Shear Modulus (GPa) = -17.11211 21.80881 2.34835
#
# Velocity S-wave (km/s) = -3.08315 3.48064 1.14215
# Velocity P-wave (km/s) = 3.04951 7.36250 5.63497
#
# Compressibility (1/GPa) = 0.02528010
#
# Stress axis : x y z
#
# Youngs Moduli (GPa) = 76.94934 20.93163 62.26308
#
# Poissons Ratio (x) = 0.16328 0.31542
# Poissons Ratio (y) = 0.60024 0.80375
# Poissons Ratio (z) = 0.38982 0.27021
#
# Static dielectric constant tensor:
#      x y z
#    x 3.415810 0.000000 0.000000 
#    y 0.000000 2.894010 0.000000 
#    z 0.000000 0.000000 3.401220 
# 
# 
# High freq. dielectric constant tensor:
#      x y z
#    x 1.710070 0.000000 0.000000 
#    y 0.000000 1.652450 0.000000 
#    z 0.000000 0.000000 1.710780 
# 
# From -- ./inp_files/32074.got.cif
#   From: 2010.06.25/outbox.cif.g09.slc.cpg/sg10_17_cif.got.tgz:32074.got - 2010.06.27 22:07:45.
