data_PCOD8062556
_publ_section_title
;
Structure prediction by ZEFSAII (Michael W. Deem and Ramdas Pophale) SiO2 
 PCOD8062556
Probable space group: P 2/M
;
_chemical_formula_sum "Si O2"
_cell_formula_units_Z 32
_cell_length_a 9.579029
_cell_length_b 13.289212
_cell_length_c 27.340601
_cell_angle_alpha 90.000000
_cell_angle_beta 29.068317
_cell_angle_gamma 90.000000
_cell_volume 1690.958267
_symmetry_space_group_name_H-M "P 2/M"
_symmetry_group_IT_number 10
_symmetry_cell_setting 'monoclinic'
loop_
_space_group_symop_operation_xyz
x,y,z
-x,y,-z
-x,-y,-z
x,-y,z
loop_
_atom_site_type_symbol
_atom_site_label
_atom_site_fract_x
_atom_site_fract_y
_atom_site_fract_z
Si Si1 0.052956 0.387560 0.036738
Si Si2 0.547584 0.890285 0.042682
Si Si3 0.523697 0.886211 0.572948
Si Si4 0.458410 0.113821 0.701590
Si Si5 0.887425 0.118545 0.655417
Si Si6 0.917555 0.791788 0.747434
Si Si7 0.715827 0.615511 0.864469
Si Si8 0.031757 0.259057 0.124227
O O1 0.934150 0.500000 0.069086
O O2 0.381677 0.383672 0.954130
O O3 0.870348 0.334963 0.136238
O O4 0.000000 0.335479 0.000000
O O5 0.257137 0.855051 0.158384
O O6 0.640097 0.000000 0.035598
O O7 0.500000 0.901452 0.000000
O O8 0.792063 0.805837 0.970885
O O9 0.620307 0.881132 0.600098
O O10 0.790315 0.850323 0.458603
O O11 0.253465 0.816131 0.645384
O O12 0.435299 0.000000 0.585971
O O13 0.672591 0.149903 0.678057
O O14 0.188023 0.188194 0.779996
O O15 0.347569 0.000000 0.745608
O O16 0.794285 0.180713 0.731761
O O17 0.869161 0.000000 0.671597
O O18 0.881082 0.672581 0.769582
O O19 0.826221 0.500000 0.835881
O O20 0.775205 0.678356 0.896196
#
# Coordination Sequence:
#
# PCOD8062556 Si02
#       8
#     4   4   4   4   4   4   4   4
#     4  10  22  38  57  81 111 149 195 244 287 330
#     4  11  20  31  49  79 117 150 181 216 268 332
#     4  10  19  36  60  85 114 149 191 233 279 338
#     4  10  21  36  56  86 122 155 188 223 274 345
#     4  10  22  37  57  86 119 150 186 236 284 333
#     4  12  21  36  56  85 111 151 191 240 283 334
#     4  11  23  39  58  82 110 145 195 245 284 328
#     4  12  20  36  57  84 114 157 190 228 275 336
#
# _framework density 18.92418
#
# number of rings (size 3 to 8) (size 9 to 14) (size 15 to 20)
#    0.000    1.250    3.750    3.000    1.750    5.500 
#    0.000    0.000    0.000    4.500    0.000    0.875 
#    0.000    0.000    0.000    0.000    0.000    0.000 
#
# Total GULP energy -396580.211753 kJ/mol
# GULP energy per Si atom -12393.131617 kJ/mol
# Density = 1.888111 g / cm^3
# Si number density = 18.924180 Si / 1000 Ang^3
#
#
#
# Elastic Constant Matrix: (Units=GPa)
#
#
# Indices 1 2 3 4 5 6 
#
# 1 89.0931 26.3516 13.2498 0.0000 14.8943 0.0000
# 2 26.3516 107.4163 35.1790 0.0000 6.4045 0.0000
# 3 13.2498 35.1790 72.9117 0.0000 10.2747 0.0000
# 4 0.0000 0.0000 0.0000 12.7339 0.0000 0.7136
# 5 14.8943 6.4045 10.2747 0.0000 25.8459 0.0000
# 6 0.0000 0.0000 0.0000 0.7136 0.0000 25.1814
#
#
#
# Elastic Compliance Matrix: (Units=1/GPa)
#
#
# Indices 1 2 3 4 5 6 
#
# 1 0.013218 -0.002807 -0.000077 0.000000 -0.006891 0.000000
# 2 -0.002807 0.011663 -0.005231 0.000000 0.000807 0.000000
# 3 -0.000077 -0.005231 0.017018 0.000000 -0.005425 0.000000
# 4 0.000000 0.000000 0.000000 0.078656 0.000000 -0.002229
# 5 -0.006891 0.000807 -0.005425 0.000000 0.044619 0.000000
# 6 0.000000 0.000000 0.000000 -0.002229 0.000000 0.039775
#
#
# Mechanical properties :
#
#
# Convention : Reuss Voigt Hill
#
# Bulk Modulus (GPa) = 38.95639 46.55355 42.75497
# Shear Modulus (GPa) = 21.76439 25.72827 23.74633
#
# Velocity S-wave (km/s) = 3.39497 3.69120 3.54618
# Velocity P-wave (km/s) = 5.99983 6.54370 6.27766
#
# Compressibility (1/GPa) = 0.02566973
#
# Stress axis : x y z
#
# Youngs Moduli (GPa) = 75.65560 85.74009 58.76303
#
# Poissons Ratio (x) = 0.24064 0.00451
# Poissons Ratio (y) = 0.21234 0.30739
# Poissons Ratio (z) = 0.00581 0.44851
#
# Static dielectric constant tensor:
#      x y z
#    x 3.572820 0.000000 0.198770 
#    y 0.000000 3.982280 0.000000 
#    z 0.198770 0.000000 3.366410 
# 
# 
# High freq. dielectric constant tensor:
#      x y z
#    x 1.744760 0.000000 0.013930 
#    y 0.000000 1.723840 0.000000 
#    z 0.013930 0.000000 1.713120 
# 
# From -- ./inp_files/92367.got.cif
#   From: 2010.06.25/outbox.cif.g09.slc.cpg/sg10_47_cif.got.tgz:92367.got - 2010.06.27 22:07:45.
