data_PCOD8062228
_publ_section_title
;
Structure prediction by ZEFSAII (Michael W. Deem and Ramdas Pophale) SiO2 
 PCOD8062228
Probable space group: P 2/M
;
_chemical_formula_sum "Si O2"
_cell_formula_units_Z 28
_cell_length_a 13.792968
_cell_length_b 8.652838
_cell_length_c 11.798398
_cell_angle_alpha 90.000000
_cell_angle_beta 108.534087
_cell_angle_gamma 90.000000
_cell_volume 1335.086459
_symmetry_space_group_name_H-M "P 2/M"
_symmetry_group_IT_number 10
_symmetry_cell_setting 'monoclinic'
loop_
_space_group_symop_operation_xyz
x,y,z
-x,y,-z
-x,-y,-z
x,-y,z
loop_
_atom_site_type_symbol
_atom_site_label
_atom_site_fract_x
_atom_site_fract_y
_atom_site_fract_z
Si Si1 0.619331 0.319062 0.043004
Si Si2 0.292547 0.677293 0.540547
Si Si3 0.492817 0.827333 0.630389
Si Si4 0.173821 0.821073 0.309957
Si Si5 0.689364 0.180108 0.840816
Si Si6 0.984679 0.319022 0.363694
Si Si7 0.219330 0.181093 0.728464
O O1 0.624396 0.500000 0.069870
O O2 0.683159 0.230483 0.161887
O O3 0.500000 0.262989 0.000000
O O4 0.678265 0.283127 0.948091
O O5 0.277709 0.500000 0.501748
O O6 0.404177 0.709921 0.634974
O O7 0.273452 0.783535 0.423418
O O8 0.213678 0.725212 0.608398
O O9 0.500000 0.818226 0.500000
O O10 0.596495 0.771449 0.725511
O O11 0.464184 0.000000 0.660382
O O12 0.206025 0.785421 0.190849
O O13 0.082719 0.714836 0.321347
O O14 0.144450 0.000000 0.312268
O O15 0.685154 0.000000 0.873520
O O16 0.962297 0.500000 0.351979
O O17 0.892039 0.228466 0.264695
O O18 0.000000 0.262583 0.500000
O O19 0.226757 0.000000 0.710034
#
# Coordination Sequence:
#
# PCOD8062228 Si02
#       7
#     4   4   4   4   4   4   4
#     4  11  25  45  68  95 129 168 213 266 321 380
#     4  12  23  35  55  89 128 164 205 259 319 377
#     4  10  19  35  56  84 121 163 206 253 309 376
#     4  11  22  39  62  91 126 167 211 257 312 379
#     4  10  22  40  63  90 125 167 214 263 313 376
#     4  11  23  40  64  97 133 167 207 266 325 382
#     4  12  25  42  67  93 123 168 217 265 316 379
#
# _framework density 20.972424
#
# number of rings (size 3 to 8) (size 9 to 14) (size 15 to 20)
#    0.000    1.000    2.857    4.714    0.000    6.000 
#    0.000    0.714    0.000    4.286    0.000    0.000 
#    0.000    0.000    0.000    0.000    0.000    0.000 
#
# Total GULP energy -347139.135514 kJ/mol
# GULP energy per Si atom -12397.826268 kJ/mol
# Density = 2.092469 g / cm^3
# Si number density = 20.972424 Si / 1000 Ang^3
#
#
#
# Elastic Constant Matrix: (Units=GPa)
#
#
# Indices 1 2 3 4 5 6 
#
# 1 108.0412 27.3426 23.6271 0.0000 -1.2627 0.0000
# 2 27.3426 70.6134 21.8415 0.0000 0.3518 0.0000
# 3 23.6271 21.8415 64.2081 0.0000 -6.0969 0.0000
# 4 0.0000 0.0000 0.0000 28.7977 0.0000 -1.2482
# 5 -1.2627 0.3518 -6.0969 0.0000 36.8077 0.0000
# 6 0.0000 0.0000 0.0000 -1.2482 0.0000 33.7097
#
#
#
# Elastic Compliance Matrix: (Units=1/GPa)
#
#
# Indices 1 2 3 4 5 6 
#
# 1 0.010701 -0.003267 -0.002833 0.000000 -0.000071 0.000000
# 2 -0.003267 0.016865 -0.004634 0.000000 -0.001041 0.000000
# 3 -0.002833 -0.004634 0.018479 0.000000 0.003008 0.000000
# 4 0.000000 0.000000 0.000000 0.034781 0.000000 0.001288
# 5 -0.000071 -0.001041 0.003008 0.000000 0.027674 0.000000
# 6 0.000000 0.000000 0.000000 0.001288 0.000000 0.029713
#
#
# Mechanical properties :
#
#
# Convention : Reuss Voigt Hill
#
# Bulk Modulus (GPa) = 40.68771 43.16498 41.92635
# Shear Modulus (GPa) = 29.78445 31.19978 30.49211
#
# Velocity S-wave (km/s) = 3.77261 3.86120 3.81716
# Velocity P-wave (km/s) = 6.19834 6.36435 6.28189
#
# Compressibility (1/GPa) = 0.02457745
#
# Stress axis : x y z
#
# Youngs Moduli (GPa) = 93.44676 59.29417 54.11623
#
# Poissons Ratio (x) = 0.19371 0.15332
# Poissons Ratio (y) = 0.30529 0.25075
# Poissons Ratio (z) = 0.26476 0.27475
#
# Static dielectric constant tensor:
#      x y z
#    x 4.104880 0.000000 -0.036240 
#    y 0.000000 3.632620 0.000000 
#    z -0.036240 0.000000 3.741110 
# 
# 
# High freq. dielectric constant tensor:
#      x y z
#    x 1.835810 0.000000 -0.003460 
#    y 0.000000 1.818720 0.000000 
#    z -0.003460 0.000000 1.799740 
# 
# From -- ./inp_files/49368.got.cif
#   From: 2010.06.25/outbox.cif.g09.slc.cpg/sg10_25_cif.got.tgz:49368.got - 2010.06.27 22:07:45.
