data_PCOD8062551
_publ_section_title
;
Structure prediction by ZEFSAII (Michael W. Deem and Ramdas Pophale) SiO2 
 PCOD8062551
Probable space group: P 2/M
;
_chemical_formula_sum "Si O2"
_cell_formula_units_Z 32
_cell_length_a 28.053563
_cell_length_b 8.826862
_cell_length_c 21.625852
_cell_angle_alpha 90.000000
_cell_angle_beta 161.210125
_cell_angle_gamma 90.000000
_cell_volume 1724.869183
_symmetry_space_group_name_H-M "P 2/M"
_symmetry_group_IT_number 10
_symmetry_cell_setting 'monoclinic'
loop_
_space_group_symop_operation_xyz
x,y,z
-x,y,-z
-x,-y,-z
x,-y,z
loop_
_atom_site_type_symbol
_atom_site_label
_atom_site_fract_x
_atom_site_fract_y
_atom_site_fract_z
Si Si1 0.827213 0.323400 0.792965
Si Si2 0.681454 0.322441 0.855555
Si Si3 0.166699 0.173237 0.850924
Si Si4 0.449627 0.825294 0.121355
Si Si5 0.906591 0.825232 0.443222
Si Si6 0.671923 0.822913 0.718256
Si Si7 0.397872 0.178486 0.566839
Si Si8 0.407599 0.321818 0.944031
O O1 0.794632 0.500000 0.763040
O O2 0.760879 0.228635 0.767649
O O3 0.750184 0.266405 0.635047
O O4 0.000000 0.289325 0.000000
O O5 0.648584 0.500000 0.816495
O O6 0.735522 0.270150 0.854565
O O7 0.533290 0.231403 0.690404
O O8 0.811638 0.282084 0.063756
O O9 0.002267 0.196263 0.622960
O O10 0.194556 0.000000 0.906157
O O11 0.284806 0.214431 0.942586
O O12 0.568638 0.781977 0.320445
O O13 0.462138 0.000000 0.119215
O O14 0.482168 0.732547 0.099409
O O15 0.759962 0.729506 0.269846
O O16 0.000000 0.763942 0.500000
O O17 0.863654 0.000000 0.379319
O O18 0.500000 0.783107 0.500000
O O19 0.698174 0.000000 0.761247
O O20 0.377443 0.000000 0.531620
O O21 0.412647 0.500000 0.949964
O O22 0.500000 0.254725 0.000000
#
# Coordination Sequence:
#
# PCOD8062551 Si02
#       8
#     4   4   4   4   4   4   4   4
#     4  11  24  40  59  87 120 153 190 234 289 346
#     4  11  21  33  55  86 119 150 186 236 292 341
#     4   9  18  34  56  83 115 144 183 237 288 340
#     4   9  18  35  58  82 109 144 189 236 278 333
#     4  10  19  36  60  84 109 143 187 235 283 331
#     4  11  22  37  60  86 113 150 194 237 280 331
#     4  10  20  36  58  84 113 148 192 236 281 338
#     4  11  24  38  53  81 119 154 189 232 283 340
#
# _framework density 18.552132
#
# number of rings (size 3 to 8) (size 9 to 14) (size 15 to 20)
#    0.000    1.750    2.500    3.375    0.000    5.750 
#    0.000    1.250    0.000    3.000    0.000    0.000 
#    0.000    0.000    0.000    0.000    0.000    0.000 
#
# Total GULP energy -396903.567109 kJ/mol
# GULP energy per Si atom -12403.236472 kJ/mol
# Density = 1.850991 g / cm^3
# Si number density = 18.552132 Si / 1000 Ang^3
#
#
#
# Elastic Constant Matrix: (Units=GPa)
#
#
# Indices 1 2 3 4 5 6 
#
# 1 116.2048 42.1857 53.1016 0.0000 -9.8281 0.0000
# 2 42.1857 67.2826 32.0482 0.0000 -6.0850 0.0000
# 3 53.1016 32.0482 97.1296 0.0000 -12.8634 0.0000
# 4 0.0000 0.0000 0.0000 35.9526 0.0000 7.2008
# 5 -9.8281 -6.0850 -12.8634 0.0000 24.8023 0.0000
# 6 0.0000 0.0000 0.0000 7.2008 0.0000 32.3539
#
#
#
# Elastic Compliance Matrix: (Units=1/GPa)
#
#
# Indices 1 2 3 4 5 6 
#
# 1 0.013111 -0.005666 -0.005148 0.000000 0.001135 0.000000
# 2 -0.005666 0.020128 -0.003422 0.000000 0.000918 0.000000
# 3 -0.005148 -0.003422 0.014880 0.000000 0.004838 0.000000
# 4 0.000000 0.000000 0.000000 0.029112 0.000000 -0.006479
# 5 0.001135 0.000918 0.004838 0.000000 0.043503 0.000000
# 6 0.000000 0.000000 0.000000 -0.006479 0.000000 0.032350
#
#
# Mechanical properties :
#
#
# Convention : Reuss Voigt Hill
#
# Bulk Modulus (GPa) = 50.89849 59.47643 55.18746
# Shear Modulus (GPa) = 26.58093 28.84054 27.71073
#
# Velocity S-wave (km/s) = 3.78930 3.94708 3.86899
# Velocity P-wave (km/s) = 6.82935 7.27332 7.05483
#
# Compressibility (1/GPa) = 0.01964695
#
# Stress axis : x y z
#
# Youngs Moduli (GPa) = 76.27330 49.68177 67.20483
#
# Poissons Ratio (x) = 0.28147 0.34597
# Poissons Ratio (y) = 0.43213 0.23000
# Poissons Ratio (z) = 0.39266 0.17003
#
# Static dielectric constant tensor:
#      x y z
#    x 3.436920 0.000000 -0.249010 
#    y 0.000000 3.370410 0.000000 
#    z -0.249010 0.000000 3.471230 
# 
# 
# High freq. dielectric constant tensor:
#      x y z
#    x 1.711100 0.000000 -0.025170 
#    y 0.000000 1.722730 0.000000 
#    z -0.025170 0.000000 1.713840 
# 
# From -- ./inp_files/86921.got.cif
#   From: 2010.06.25/outbox.cif.g09.slc.cpg/sg10_44_cif.got.tgz:86921.got - 2010.06.27 22:07:45.
