data_PCOD8062337
_publ_section_title
;
Structure prediction by ZEFSAII (Michael W. Deem and Ramdas Pophale) SiO2 
 PCOD8062337
Probable space group: P 2/M
;
_chemical_formula_sum "Si O2"
_cell_formula_units_Z 32
_cell_length_a 13.588471
_cell_length_b 13.580742
_cell_length_c 18.677705
_cell_angle_alpha 90.000000
_cell_angle_beta 30.059844
_cell_angle_gamma 90.000000
_cell_volume 1726.522869
_symmetry_space_group_name_H-M "P 2/M"
_symmetry_group_IT_number 10
_symmetry_cell_setting 'monoclinic'
loop_
_space_group_symop_operation_xyz
x,y,z
-x,y,-z
-x,-y,-z
x,-y,z
loop_
_atom_site_type_symbol
_atom_site_label
_atom_site_fract_x
_atom_site_fract_y
_atom_site_fract_z
Si Si1 0.938459 0.200692 0.701039
Si Si2 0.682906 0.252226 0.218463
Si Si3 0.986972 0.389687 0.756689
Si Si4 0.663962 0.885748 0.590011
Si Si5 0.443349 0.390739 0.460236
Si Si6 0.259687 0.888141 0.045941
Si Si7 0.945136 0.264259 0.919882
Si Si8 0.693499 0.885814 0.738515
O O1 0.814488 0.123490 0.826494
O O2 0.855928 0.184794 0.672990
O O3 0.894540 0.310852 0.759041
O O4 0.170371 0.174192 0.558783
O O5 0.555205 0.152853 0.289675
O O6 0.533864 0.337086 0.335104
O O7 0.846096 0.238183 0.176659
O O8 0.782192 0.287430 0.082264
O O9 0.895463 0.500000 0.804797
O O10 0.213150 0.393978 0.594900
O O11 0.956630 0.356382 0.858251
O O12 0.711222 0.869983 0.643165
O O13 0.671363 0.000000 0.563623
O O14 0.500000 0.338132 0.500000
O O15 0.535421 0.500000 0.403115
O O16 0.111715 0.832745 0.087019
O O17 0.255983 0.000000 0.023016
O O18 0.481479 0.848736 0.899215
O O19 0.733296 0.000000 0.733305
#
# Coordination Sequence:
#
# PCOD8062337 Si02
#       8
#     4   4   4   4   4   4   4   4
#     4  11  21  35  59  84 109 144 183 237 283 328
#     4  11  21  36  54  84 113 151 185 224 278 327
#     4  10  21  38  59  83 111 143 182 233 284 336
#     4  11  22  36  54  83 118 148 186 228 273 330
#     4  10  19  35  59  82 107 141 184 231 280 331
#     4  10  20  36  55  82 112 146 191 230 268 326
#     4  10  22  35  56  80 115 149 187 226 273 334
#     4  10  20  36  58  82 111 148 190 231 274 325
#
# _framework density 18.534362000000002
#
# number of rings (size 3 to 8) (size 9 to 14) (size 15 to 20)
#    0.000    1.625    3.750    1.875    0.000    3.000 
#    0.000    2.500    0.000   10.875    0.000    0.000 
#    0.000    0.000    0.000    0.000    0.000    0.000 
#
# Total GULP energy -396784.252196 kJ/mol
# GULP energy per Si atom -12399.507881 kJ/mol
# Density = 1.849218 g / cm^3
# Si number density = 18.534362 Si / 1000 Ang^3
#
#
#
# Elastic Constant Matrix: (Units=GPa)
#
#
# Indices 1 2 3 4 5 6 
#
# 1 70.2543 47.8979 13.3766 0.0000 2.3965 0.0000
# 2 47.8979 107.8713 37.5702 0.0000 2.5330 0.0000
# 3 13.3766 37.5702 97.9469 0.0000 -0.8982 0.0000
# 4 0.0000 0.0000 0.0000 8.2451 0.0000 5.6472
# 5 2.3965 2.5330 -0.8982 0.0000 25.5216 0.0000
# 6 0.0000 0.0000 0.0000 5.6472 0.0000 23.3515
#
#
#
# Elastic Compliance Matrix: (Units=1/GPa)
#
#
# Indices 1 2 3 4 5 6 
#
# 1 0.020492 -0.009347 0.000778 0.000000 -0.000969 0.000000
# 2 -0.009347 0.015001 -0.004484 0.000000 -0.000769 0.000000
# 3 0.000778 -0.004484 0.011831 0.000000 0.000788 0.000000
# 4 0.000000 0.000000 0.000000 0.145362 0.000000 -0.035153
# 5 -0.000969 -0.000769 0.000788 0.000000 0.039378 0.000000
# 6 0.000000 0.000000 0.000000 -0.035153 0.000000 0.051325
#
#
# Mechanical properties :
#
#
# Convention : Reuss Voigt Hill
#
# Bulk Modulus (GPa) = 47.13475 52.64023 49.88749
# Shear Modulus (GPa) = 15.79449 23.23882 19.51666
#
# Velocity S-wave (km/s) = 2.92237 3.54478 3.24851
# Velocity P-wave (km/s) = 6.07233 6.72436 6.40665
#
# Compressibility (1/GPa) = 0.02121577
#
# Stress axis : x y z
#
# Youngs Moduli (GPa) = 48.80067 66.66422 84.52567
#
# Poissons Ratio (x) = 0.62311 -0.06575
# Poissons Ratio (y) = 0.45614 0.37905
# Poissons Ratio (z) = -0.03796 0.29895
#
# Static dielectric constant tensor:
#      x y z
#    x 3.339060 0.000000 0.036010 
#    y 0.000000 3.402160 0.000000 
#    z 0.036010 0.000000 3.627460 
# 
# 
# High freq. dielectric constant tensor:
#      x y z
#    x 1.709580 0.000000 0.002460 
#    y 0.000000 1.701750 0.000000 
#    z 0.002460 0.000000 1.736500 
# 
# From -- ./inp_files/78177.got.cif
#   From: 2010.06.25/outbox.cif.g09.slc.cpg/sg10_40_cif.got.tgz:78177.got - 2010.06.27 22:07:45.
