data_PCOD8062357
_publ_section_title
;
Structure prediction by ZEFSAII (Michael W. Deem and Ramdas Pophale) SiO2 
 PCOD8062357
Probable space group: P 2/M
;
_chemical_formula_sum "Si O2"
_cell_formula_units_Z 28
_cell_length_a 26.953003
_cell_length_b 9.039075
_cell_length_c 9.306275
_cell_angle_alpha 90.000000
_cell_angle_beta 38.735658
_cell_angle_gamma 90.000000
_cell_volume 1418.707237
_symmetry_space_group_name_H-M "P 2/M"
_symmetry_group_IT_number 10
_symmetry_cell_setting 'monoclinic'
loop_
_space_group_symop_operation_xyz
x,y,z
-x,y,-z
-x,-y,-z
x,-y,z
loop_
_atom_site_type_symbol
_atom_site_label
_atom_site_fract_x
_atom_site_fract_y
_atom_site_fract_z
Si Si1 0.727223 0.825859 0.472438
Si Si2 0.995428 0.671168 0.174942
Si Si3 0.845210 0.669496 0.703907
Si Si4 0.129275 0.825357 0.053751
Si Si5 0.535307 0.332022 0.280818
Si Si6 0.293451 0.673881 0.188649
Si Si7 0.429139 0.332324 0.256276
O O1 0.743839 0.752940 0.588800
O O2 0.645245 0.773120 0.589346
O O3 0.725602 0.000000 0.496692
O O4 0.794781 0.775008 0.209299
O O5 0.020876 0.500000 0.122129
O O6 0.052396 0.761470 0.150416
O O7 0.907407 0.695975 0.434735
O O8 0.000000 0.729875 0.000000
O O9 0.847672 0.500000 0.750209
O O10 0.863649 0.768920 0.799552
O O11 0.759228 0.710476 0.832494
O O12 0.120642 0.000000 0.079726
O O13 0.500000 0.248472 0.500000
O O14 0.558802 0.500000 0.267841
O O15 0.460720 0.327590 0.345062
O O16 0.617201 0.261340 0.036721
O O17 0.293571 0.500000 0.221496
O O18 0.406768 0.500000 0.258050
O O19 0.500000 0.269207 0.000000
#
# Coordination Sequence:
#
# PCOD8062357 Si02
#       7
#     4   4   4   4   4   4   4
#     4  11  24  39  56  82 118 156 197 240 286 343
#     4  10  21  40  65  93 120 147 189 242 291 342
#     4  10  22  38  62  92 119 150 190 240 294 343
#     4  11  25  41  58  85 121 160 197 233 282 348
#     4   9  18  32  54  85 115 142 184 239 288 341
#     4  10  20  38  61  86 115 150 194 241 291 345
#     4  10  19  35  59  85 111 146 194 243 289 341
#
# _framework density 19.736277000000001
#
# number of rings (size 3 to 8) (size 9 to 14) (size 15 to 20)
#    0.000    1.857    1.429    2.143    2.000    6.857 
#    0.000    0.000    0.000    0.857    0.000    0.000 
#    0.000    0.000    0.000    0.000    0.000    0.000 
#
# Total GULP energy -347201.942253 kJ/mol
# GULP energy per Si atom -12400.069366 kJ/mol
# Density = 1.969136 g / cm^3
# Si number density = 19.736277 Si / 1000 Ang^3
#
#
#
# Elastic Constant Matrix: (Units=GPa)
#
#
# Indices 1 2 3 4 5 6 
#
# 1 116.7670 30.8073 31.1483 0.0000 5.2478 0.0000
# 2 30.8073 49.0112 30.4186 0.0000 2.0814 0.0000
# 3 31.1483 30.4186 91.1345 0.0000 13.1482 0.0000
# 4 0.0000 0.0000 0.0000 26.6305 0.0000 -5.6173
# 5 5.2478 2.0814 13.1482 0.0000 38.0401 0.0000
# 6 0.0000 0.0000 0.0000 -5.6173 0.0000 -5.4959
#
#
#
# Elastic Compliance Matrix: (Units=1/GPa)
#
#
# Indices 1 2 3 4 5 6 
#
# 1 0.010494 -0.005546 -0.001653 0.000000 -0.000573 0.000000
# 2 -0.005546 0.028764 -0.007987 0.000000 0.001952 0.000000
# 3 -0.001653 -0.007987 0.014848 0.000000 -0.004467 0.000000
# 4 0.000000 0.000000 0.000000 0.030891 0.000000 -0.031574
# 5 -0.000573 0.001952 -0.004467 0.000000 0.027804 0.000000
# 6 0.000000 0.000000 0.000000 -0.031574 0.000000 -0.149684
#
#
# Mechanical properties :
#
#
# Convention : Reuss Voigt Hill
#
# Bulk Modulus (GPa) = 42.13308 49.07347 45.60327
# Shear Modulus (GPa) = 3572.86621 22.80418 1797.83520
#
# Velocity S-wave (km/s) = 42.59383 3.40287 30.21435
# Velocity P-wave (km/s) = 49.40013 6.35279 35.21882
#
# Compressibility (1/GPa) = 0.02373432
#
# Stress axis : x y z
#
# Youngs Moduli (GPa) = 95.29275 34.76614 67.34935
#
# Poissons Ratio (x) = 0.19282 0.11132
# Poissons Ratio (y) = 0.52850 0.53790
# Poissons Ratio (z) = 0.15751 0.27767
#
# Static dielectric constant tensor:
#      x y z
#    x 3.653640 0.000000 -0.060750 
#    y 0.000000 3.336210 0.000000 
#    z -0.060750 0.000000 3.873720 
# 
# 
# High freq. dielectric constant tensor:
#      x y z
#    x 1.782870 0.000000 0.001190 
#    y 0.000000 1.738180 0.000000 
#    z 0.001190 0.000000 1.783570 
# 
# From -- ./inp_files/37111.got.cif
#   From: 2010.06.25/outbox.cif.g09.slc.cpg/sg10_19_cif.got.tgz:37111.got - 2010.06.27 22:07:45.
