data_PCOD8062687
_publ_section_title
;
Structure prediction by ZEFSAII (Michael W. Deem and Ramdas Pophale) SiO2 
 PCOD8062687
Probable space group: P 2/M
;
_chemical_formula_sum "Si O2"
_cell_formula_units_Z 32
_cell_length_a 29.189213
_cell_length_b 8.979754
_cell_length_c 12.091408
_cell_angle_alpha 90.000000
_cell_angle_beta 148.521844
_cell_angle_gamma 90.000000
_cell_volume 1654.925675
_symmetry_space_group_name_H-M "P 2/M"
_symmetry_group_IT_number 10
_symmetry_cell_setting 'monoclinic'
loop_
_space_group_symop_operation_xyz
x,y,z
-x,y,-z
-x,-y,-z
x,-y,z
loop_
_atom_site_type_symbol
_atom_site_label
_atom_site_fract_x
_atom_site_fract_y
_atom_site_fract_z
Si Si1 0.588364 0.175797 0.246327
Si Si2 0.631139 0.170434 0.959033
Si Si3 0.736502 0.176247 0.386034
Si Si4 0.068077 0.177048 0.231721
Si Si5 0.313858 0.169758 0.173334
Si Si6 0.970080 0.671918 0.617090
Si Si7 0.552022 0.675820 0.398422
Si Si8 0.137244 0.672152 0.817019
O O1 0.673033 0.233685 0.352838
O O2 0.592915 0.258155 0.371549
O O3 0.590921 0.000000 0.271841
O O4 0.500000 0.221163 0.000000
O O5 0.682532 0.183901 0.950837
O O6 0.546791 0.273678 0.786113
O O7 0.601404 0.000000 0.921642
O O8 0.697451 0.229870 0.188730
O O9 0.835238 0.239178 0.601771
O O10 0.738950 0.000000 0.394029
O O11 0.041152 0.230304 0.297432
O O12 0.067705 0.000000 0.233102
O O13 0.000000 0.238237 0.000000
O O14 0.391519 0.267887 0.382471
O O15 0.325514 0.000000 0.236821
O O16 0.220049 0.228375 0.020248
O O17 0.956422 0.500000 0.619935
O O18 0.900636 0.721041 0.380288
O O19 0.066841 0.699047 0.768275
O O20 0.555784 0.500000 0.400525
O O21 0.165189 0.500000 0.870083
#
# Coordination Sequence:
#
# PCOD8062687 Si02
#       8
#     4   4   4   4   4   4   4   4
#     4  10  19  37  63  82 106 149 196 239 286 342
#     4  10  20  38  60  81 108 147 195 239 285 344
#     4   9  18  35  60  85 110 145 189 238 294 343
#     4  10  21  36  55  84 119 150 188 242 291 332
#     4  11  23  37  58  86 116 150 193 237 283 345
#     4   9  19  37  60  83 113 154 191 227 283 351
#     4  12  25  38  55  82 119 153 187 237 290 343
#     4   9  19  37  59  84 116 150 186 233 288 343
#
# _framework density 19.336217000000001
#
# number of rings (size 3 to 8) (size 9 to 14) (size 15 to 20)
#    0.000    2.000    1.250    3.375    0.000    6.000 
#    0.000    3.750    0.000    0.000    0.000    0.000 
#    0.000    0.000    0.000    0.000    0.000    0.000 
#
# Total GULP energy -396875.367794 kJ/mol
# GULP energy per Si atom -12402.355244 kJ/mol
# Density = 1.929221 g / cm^3
# Si number density = 19.336217 Si / 1000 Ang^3
#
#
#
# Elastic Constant Matrix: (Units=GPa)
#
#
# Indices 1 2 3 4 5 6 
#
# 1 92.1459 31.7823 41.4358 0.0000 17.5406 0.0000
# 2 31.7823 54.0274 30.1248 0.0000 3.5031 0.0000
# 3 41.4358 30.1248 118.8992 0.0000 22.8506 0.0000
# 4 0.0000 0.0000 0.0000 26.4041 0.0000 -1.8358
# 5 17.5406 3.5031 22.8506 0.0000 24.4330 0.0000
# 6 0.0000 0.0000 0.0000 -1.8358 0.0000 20.3536
#
#
#
# Elastic Compliance Matrix: (Units=1/GPa)
#
#
# Indices 1 2 3 4 5 6 
#
# 1 0.016058 -0.007789 -0.001977 0.000000 -0.008562 0.000000
# 2 -0.007789 0.025454 -0.005008 0.000000 0.006626 0.000000
# 3 -0.001977 -0.005008 0.012140 0.000000 -0.009216 0.000000
# 4 0.000000 0.000000 0.000000 0.038112 0.000000 0.003438
# 5 -0.008562 0.006626 -0.009216 0.000000 0.054744 0.000000
# 6 0.000000 0.000000 0.000000 0.003438 0.000000 0.049441
#
#
# Mechanical properties :
#
#
# Convention : Reuss Voigt Hill
#
# Bulk Modulus (GPa) = 41.48835 52.41759 46.95297
# Shear Modulus (GPa) = 21.41049 25.02012 23.21530
#
# Velocity S-wave (km/s) = 3.33118 3.60106 3.46874
# Velocity P-wave (km/s) = 6.02483 6.66764 6.35437
#
# Compressibility (1/GPa) = 0.02410315
#
# Stress axis : x y z
#
# Youngs Moduli (GPa) = 62.27559 39.28708 82.37529
#
# Poissons Ratio (x) = 0.30599 0.16287
# Poissons Ratio (y) = 0.48503 0.41255
# Poissons Ratio (z) = 0.12313 0.19676
#
# Static dielectric constant tensor:
#      x y z
#    x 3.614240 0.000000 0.047110 
#    y 0.000000 3.309640 0.000000 
#    z 0.047110 0.000000 3.760160 
# 
# 
# High freq. dielectric constant tensor:
#      x y z
#    x 1.762530 0.000000 0.003480 
#    y 0.000000 1.730680 0.000000 
#    z 0.003480 0.000000 1.758420 
# 
# From -- ./inp_files/49821.got.cif
#   From: 2010.06.25/outbox.cif.g09.slc.cpg/sg10_25_cif.got.tgz:49821.got - 2010.06.27 22:07:45.
