data_PCOD8062183
_publ_section_title
;
Structure prediction by ZEFSAII (Michael W. Deem and Ramdas Pophale) SiO2 
 PCOD8062183
Probable space group: P 2/M
;
_chemical_formula_sum "Si O2"
_cell_formula_units_Z 32
_cell_length_a 9.925470
_cell_length_b 13.405251
_cell_length_c 17.263627
_cell_angle_alpha 90.000000
_cell_angle_beta 127.087515
_cell_angle_gamma 90.000000
_cell_volume 1832.339843
_symmetry_space_group_name_H-M "P 2/M"
_symmetry_group_IT_number 10
_symmetry_cell_setting 'monoclinic'
loop_
_space_group_symop_operation_xyz
x,y,z
-x,y,-z
-x,-y,-z
x,-y,z
loop_
_atom_site_type_symbol
_atom_site_label
_atom_site_fract_x
_atom_site_fract_y
_atom_site_fract_z
Si Si1 0.007588 0.612578 0.592847
Si Si2 0.345616 0.194355 0.593225
Si Si3 0.299186 0.114071 0.286906
Si Si4 0.375691 0.388666 0.527148
Si Si5 0.865296 0.114656 0.616762
Si Si6 0.815365 0.118250 0.916521
Si Si7 0.208376 0.202828 0.712147
Si Si8 0.500209 0.115905 0.091262
O O1 0.080308 0.500000 0.622680
O O2 0.821287 0.617051 0.566500
O O3 0.000000 0.647240 0.500000
O O4 0.134082 0.684578 0.684154
O O5 0.500892 0.121091 0.632064
O O6 0.407710 0.309670 0.607521
O O7 0.203287 0.177411 0.479266
O O8 0.272149 0.169224 0.650663
O O9 0.207802 0.162943 0.329437
O O10 0.242771 0.164842 0.186313
O O11 0.242782 0.000000 0.264982
O O12 0.500000 0.360676 0.500000
O O13 0.417035 0.500000 0.572441
O O14 0.066139 0.124634 0.688621
O O15 0.810956 0.000000 0.588617
O O16 0.681503 0.147447 0.936736
O O17 0.825624 0.000000 0.913394
O O18 0.000000 0.162831 0.000000
O O19 0.360776 0.190687 0.825290
O O20 0.540693 0.000000 0.125616
O O21 0.500000 0.133278 0.000000
#
# Coordination Sequence:
#
# PCOD8062183 Si02
#       8
#     4   4   4   4   4   4   4   4
#     4  10  19  35  55  78 109 142 177 216 263 320
#     4  12  21  34  51  74 109 145 181 216 262 316
#     4  10  21  35  50  72 105 144 180 219 264 315
#     4  10  20  34  53  77 107 142 181 223 262 306
#     4  11  23  33  47  73 108 149 181 212 256 319
#     4   9  18  34  55  74  95 130 178 225 270 315
#     4  12  22  35  53  79 106 140 184 223 269 322
#     4  10  22  38  55  76 106 140 178 233 284 322
#
# _framework density 17.464009000000001
#
# number of rings (size 3 to 8) (size 9 to 14) (size 15 to 20)
#    0.000    1.500    3.750    2.250    1.750    3.000 
#    0.000    0.000    0.000    0.375    0.000    0.000 
#    0.000    1.000    0.000    0.000    0.000    0.000 
#
# Total GULP energy -396767.385914 kJ/mol
# GULP energy per Si atom -12398.980810 kJ/mol
# Density = 1.742426 g / cm^3
# Si number density = 17.464009 Si / 1000 Ang^3
#
#
#
# Elastic Constant Matrix: (Units=GPa)
#
#
# Indices 1 2 3 4 5 6 
#
# 1 146.1690 20.0324 52.5873 0.0000 -4.8258 0.0000
# 2 20.0324 54.0325 24.9482 0.0000 -1.2118 0.0000
# 3 52.5873 24.9482 95.7923 0.0000 0.9340 0.0000
# 4 0.0000 0.0000 0.0000 16.7081 0.0000 5.4474
# 5 -4.8258 -1.2118 0.9340 0.0000 32.6594 0.0000
# 6 0.0000 0.0000 0.0000 5.4474 0.0000 16.1920
#
#
#
# Elastic Compliance Matrix: (Units=1/GPa)
#
#
# Indices 1 2 3 4 5 6 
#
# 1 0.008647 -0.001111 -0.004471 0.000000 0.001364 0.000000
# 2 -0.001111 0.021209 -0.004921 0.000000 0.000764 0.000000
# 3 -0.004471 -0.004921 0.014188 0.000000 -0.001249 0.000000
# 4 0.000000 0.000000 0.000000 0.067224 0.000000 -0.022616
# 5 0.001364 0.000764 -0.001249 0.000000 0.030885 0.000000
# 6 0.000000 0.000000 0.000000 -0.022616 0.000000 0.069367
#
#
# Mechanical properties :
#
#
# Convention : Reuss Voigt Hill
#
# Bulk Modulus (GPa) = 43.40818 54.56994 48.98906
# Shear Modulus (GPa) = 20.81552 26.34030 23.57791
#
# Velocity S-wave (km/s) = 3.45615 3.88785 3.67834
# Velocity P-wave (km/s) = 6.39033 7.17417 6.79357
#
# Compressibility (1/GPa) = 0.02303713
#
# Stress axis : x y z
#
# Youngs Moduli (GPa) = 115.64366 47.15066 70.48412
#
# Poissons Ratio (x) = 0.05238 0.31514
# Poissons Ratio (y) = 0.12847 0.34686
# Poissons Ratio (z) = 0.51705 0.23204
#
# Static dielectric constant tensor:
#      x y z
#    x 3.521940 0.000000 -0.030140 
#    y 0.000000 3.173990 0.000000 
#    z -0.030140 0.000000 3.147340 
# 
# 
# High freq. dielectric constant tensor:
#      x y z
#    x 1.702460 0.000000 -0.003890 
#    y 0.000000 1.647030 0.000000 
#    z -0.003890 0.000000 1.644400 
# 
# From -- ./inp_files/29537.got.cif
#   From: 2010.06.25/outbox.cif.g09.slc.cpg/sg10_15_cif.got.tgz:29537.got - 2010.06.27 22:07:45.
