data_PCOD8062966
_publ_section_title
;
Structure prediction by ZEFSAII (Michael W. Deem and Ramdas Pophale) SiO2 
 PCOD8062966
Probable space group: P 2/M
;
_chemical_formula_sum "Si O2"
_cell_formula_units_Z 32
_cell_length_a 20.686095
_cell_length_b 8.926991
_cell_length_c 15.388918
_cell_angle_alpha 90.000000
_cell_angle_beta 136.915279
_cell_angle_gamma 90.000000
_cell_volume 1941.165908
_symmetry_space_group_name_H-M "P 2/M"
_symmetry_group_IT_number 10
_symmetry_cell_setting 'monoclinic'
loop_
_space_group_symop_operation_xyz
x,y,z
-x,y,-z
-x,-y,-z
x,-y,z
loop_
_atom_site_type_symbol
_atom_site_label
_atom_site_fract_x
_atom_site_fract_y
_atom_site_fract_z
Si Si1 0.888796 0.822724 0.708314
Si Si2 0.783177 0.676732 0.448992
Si Si3 0.889217 0.173972 0.394942
Si Si4 0.088271 0.672137 0.910083
Si Si5 0.209956 0.327477 0.861518
Si Si6 0.390971 0.827847 0.992507
Si Si7 0.394868 0.172314 0.793573
Si Si8 0.111770 0.835444 0.100848
O O1 0.817610 0.743656 0.573302
O O2 0.851218 0.781001 0.768406
O O3 0.995579 0.767568 0.797013
O O4 0.888462 0.000000 0.692797
O O5 0.791865 0.500000 0.460569
O O6 0.847709 0.736291 0.434748
O O7 0.674141 0.723464 0.329799
O O8 0.844309 0.226850 0.261130
O O9 0.000000 0.205323 0.500000
O O10 0.865384 0.000000 0.384986
O O11 0.057711 0.500000 0.887403
O O12 0.164853 0.699184 0.910902
O O13 0.138042 0.721664 0.049442
O O14 0.203876 0.500000 0.826746
O O15 0.319178 0.276619 0.975187
O O16 0.370688 0.806318 0.870797
O O17 0.375524 0.000000 0.003803
O O18 0.497610 0.777719 0.120030
O O19 0.379647 0.000000 0.751927
O O20 0.153184 0.000000 0.118906
O O21 0.000000 0.847313 0.000000
#
# Coordination Sequence:
#
# PCOD8062966 Si02
#       8
#     4   4   4   4   4   4   4   4
#     4  10  20  34  51  71  98 132 169 207 241 284
#     4  12  23  33  49  74 100 129 162 200 247 296
#     4  11  23  36  49  65  92 134 174 203 235 279
#     4  10  20  32  48  73 104 133 162 202 247 290
#     4  11  22  33  47  72 102 130 162 201 243 290
#     4   9  18  33  54  73  93 125 164 205 245 287
#     4   9  18  34  53  73  95 123 163 206 245 288
#     4   8  16  31  50  71  94 125 166 206 243 284
#
# _framework density 16.484938
#
# number of rings (size 3 to 8) (size 9 to 14) (size 15 to 20)
#    0.000    2.000    1.250    4.875    0.000    8.250 
#    0.000    1.250    0.000    0.000    0.000    0.875 
#    0.000    7.000    0.000    0.000    0.000    0.000 
#
# Total GULP energy -396816.159951 kJ/mol
# GULP energy per Si atom -12400.504998 kJ/mol
# Density = 1.644742 g / cm^3
# Si number density = 16.484938 Si / 1000 Ang^3
#
#
#
# Elastic Constant Matrix: (Units=GPa)
#
#
# Indices 1 2 3 4 5 6 
#
# 1 68.1133 45.5920 62.4419 0.0000 -1.2500 0.0000
# 2 45.5920 99.0758 65.4878 0.0000 -1.2725 0.0000
# 3 62.4419 65.4878 105.9534 0.0000 -6.9059 0.0000
# 4 0.0000 0.0000 0.0000 17.6657 0.0000 -5.9952
# 5 -1.2500 -1.2725 -6.9059 0.0000 25.3254 0.0000
# 6 0.0000 0.0000 0.0000 -5.9952 0.0000 24.8035
#
#
#
# Elastic Compliance Matrix: (Units=1/GPa)
#
#
# Indices 1 2 3 4 5 6 
#
# 1 0.033076 -0.003782 -0.017370 0.000000 -0.003294 0.000000
# 2 -0.003782 0.017603 -0.008762 0.000000 -0.001691 0.000000
# 3 -0.017370 -0.008762 0.025459 0.000000 0.005645 0.000000
# 4 0.000000 0.000000 0.000000 0.061665 0.000000 0.014905
# 5 -0.003294 -0.001691 0.005645 0.000000 0.040778 0.000000
# 6 0.000000 0.000000 0.000000 0.014905 0.000000 0.043920
#
#
# Mechanical properties :
#
#
# Convention : Reuss Voigt Hill
#
# Bulk Modulus (GPa) = 61.31048 68.90954 65.11001
# Shear Modulus (GPa) = 17.37532 20.20028 18.78780
#
# Velocity S-wave (km/s) = 3.25008 3.50434 3.37960
# Velocity P-wave (km/s) = 7.16635 7.63322 7.40347
#
# Compressibility (1/GPa) = 0.01631043
#
# Stress axis : x y z
#
# Youngs Moduli (GPa) = 30.23329 56.80778 39.27961
#
# Poissons Ratio (x) = 0.21482 0.68230
# Poissons Ratio (y) = 0.11433 0.34416
# Poissons Ratio (z) = 0.52516 0.49774
#
# Static dielectric constant tensor:
#      x y z
#    x 3.098980 0.000000 -0.117730 
#    y 0.000000 3.201100 0.000000 
#    z -0.117730 0.000000 3.209110 
# 
# 
# High freq. dielectric constant tensor:
#      x y z
#    x 1.616430 0.000000 -0.004170 
#    y 0.000000 1.644910 0.000000 
#    z -0.004170 0.000000 1.624000 
# 
# From -- ./inp_files/70031.got.cif
#   From: 2010.06.25/outbox.cif.g09.slc.cpg/sg10_36_cif.got.tgz:70031.got - 2010.06.27 22:07:45.
