data_PCOD8062941
_publ_section_title
;
Structure prediction by ZEFSAII (Michael W. Deem and Ramdas Pophale) SiO2 
 PCOD8062941
Probable space group: P 2/M
;
_chemical_formula_sum "Si O2"
_cell_formula_units_Z 32
_cell_length_a 24.662259
_cell_length_b 9.112795
_cell_length_c 20.645126
_cell_angle_alpha 90.000000
_cell_angle_beta 22.336939
_cell_angle_gamma 90.000000
_cell_volume 1763.379007
_symmetry_space_group_name_H-M "P 2/M"
_symmetry_group_IT_number 10
_symmetry_cell_setting 'monoclinic'
loop_
_space_group_symop_operation_xyz
x,y,z
-x,y,-z
-x,-y,-z
x,-y,z
loop_
_atom_site_type_symbol
_atom_site_label
_atom_site_fract_x
_atom_site_fract_y
_atom_site_fract_z
Si Si1 0.933516 0.673026 0.507480
Si Si2 0.118691 0.827114 0.957818
Si Si3 0.479568 0.172307 0.851839
Si Si4 0.808908 0.172708 0.261656
Si Si5 0.265574 0.329246 0.911417
Si Si6 0.803056 0.329779 0.867716
Si Si7 0.454708 0.827921 0.366720
Si Si8 0.379821 0.673131 0.185152
O O1 0.919743 0.500000 0.530682
O O2 0.774360 0.733589 0.668786
O O3 0.000000 0.740406 0.500000
O O4 0.041835 0.716444 0.330262
O O5 0.214464 0.788785 0.788537
O O6 0.124537 0.000000 0.966652
O O7 0.166354 0.736550 0.966556
O O8 0.959979 0.768369 0.119393
O O9 0.549022 0.207979 0.705356
O O10 0.583291 0.245831 0.789126
O O11 0.469121 0.000000 0.876564
O O12 0.320495 0.238675 0.031795
O O13 0.685697 0.237703 0.443615
O O14 0.812205 0.000000 0.265696
O O15 0.287021 0.500000 0.876008
O O16 0.192837 0.295781 0.060788
O O17 0.417190 0.252251 0.739161
O O18 0.770700 0.500000 0.888723
O O19 0.473053 0.000000 0.358834
O O20 0.375137 0.500000 0.203724
O O21 0.500000 0.713781 0.000000
#
# Coordination Sequence:
#
# PCOD8062941 Si02
#       8
#     4   4   4   4   4   4   4   4
#     4   9  17  31  53  77  96 121 164 207 236 274
#     4   9  17  32  53  73  94 125 165 206 245 288
#     4  10  20  33  51  75 102 130 161 201 246 289
#     4   8  16  32  53  73  93 124 168 208 241 287
#     4  10  20  32  47  72 103 131 160 198 245 293
#     4   9  18  34  53  71  97 132 166 200 239 288
#     4   9  18  34  53  72  96 129 166 201 241 289
#     4  10  20  34  54  77 100 130 165 199 240 290
#
# _framework density 18.146978000000001
#
# number of rings (size 3 to 8) (size 9 to 14) (size 15 to 20)
#    0.000    2.750    0.000    2.250    0.000    4.750 
#    0.000    5.625    0.000    1.500    0.000    0.000 
#    0.000    0.000    0.000    0.000    0.000    0.000 
#
# Total GULP energy -396740.985128 kJ/mol
# GULP energy per Si atom -12398.155785 kJ/mol
# Density = 1.810567 g / cm^3
# Si number density = 18.146978 Si / 1000 Ang^3
#
#
#
# Elastic Constant Matrix: (Units=GPa)
#
#
# Indices 1 2 3 4 5 6 
#
# 1 123.4568 34.3254 65.9204 0.0000 -14.2380 0.0000
# 2 34.3254 37.3136 30.1475 0.0000 -3.0804 0.0000
# 3 65.9204 30.1475 151.9585 0.0000 2.3412 0.0000
# 4 0.0000 0.0000 0.0000 15.8016 0.0000 -2.6300
# 5 -14.2380 -3.0804 2.3412 0.0000 26.2563 0.0000
# 6 0.0000 0.0000 0.0000 -2.6300 0.0000 32.9662
#
#
#
# Elastic Compliance Matrix: (Units=1/GPa)
#
#
# Indices 1 2 3 4 5 6 
#
# 1 0.013503 -0.008396 -0.004295 0.000000 0.006720 0.000000
# 2 -0.008396 0.037633 -0.003827 0.000000 0.000203 0.000000
# 3 -0.004295 -0.003827 0.009259 0.000000 -0.003604 0.000000
# 4 0.000000 0.000000 0.000000 0.064136 0.000000 0.005117
# 5 0.006720 0.000203 -0.003604 0.000000 0.042075 0.000000
# 6 0.000000 0.000000 0.000000 0.005117 0.000000 0.030742
#
#
# Mechanical properties :
#
#
# Convention : Reuss Voigt Hill
#
# Bulk Modulus (GPa) = 36.55344 63.72394 50.13869
# Shear Modulus (GPa) = 20.87641 27.16054 24.01847
#
# Velocity S-wave (km/s) = 3.39544 3.87291 3.64201
# Velocity P-wave (km/s) = 5.96312 7.42906 6.73609
#
# Compressibility (1/GPa) = 0.02735720
#
# Stress axis : x y z
#
# Youngs Moduli (GPa) = 74.05695 26.57277 108.00463
#
# Poissons Ratio (x) = 0.22312 0.46393
# Poissons Ratio (y) = 0.62181 0.41331
# Poissons Ratio (z) = 0.31811 0.10169
#
# Static dielectric constant tensor:
#      x y z
#    x 3.389310 0.000000 0.070120 
#    y 0.000000 3.082580 0.000000 
#    z 0.070120 0.000000 3.744030 
# 
# 
# High freq. dielectric constant tensor:
#      x y z
#    x 1.710160 0.000000 0.004370 
#    y 0.000000 1.674190 0.000000 
#    z 0.004370 0.000000 1.708240 
# 
# From -- ./inp_files/91222.got.cif
#   From: 2010.06.25/outbox.cif.g09.slc.cpg/sg10_46_cif.got.tgz:91222.got - 2010.06.27 22:07:45.
