data_PCOD8062439
_publ_section_title
;
Structure prediction by ZEFSAII (Michael W. Deem and Ramdas Pophale) SiO2 
 PCOD8062439
Probable space group: P 2/M
;
_chemical_formula_sum "Si O2"
_cell_formula_units_Z 32
_cell_length_a 23.647953
_cell_length_b 8.883640
_cell_length_c 13.805028
_cell_angle_alpha 90.000000
_cell_angle_beta 33.575600
_cell_angle_gamma 90.000000
_cell_volume 1603.894581
_symmetry_space_group_name_H-M "P 2/M"
_symmetry_group_IT_number 10
_symmetry_cell_setting 'monoclinic'
loop_
_space_group_symop_operation_xyz
x,y,z
-x,y,-z
-x,-y,-z
x,-y,z
loop_
_atom_site_type_symbol
_atom_site_label
_atom_site_fract_x
_atom_site_fract_y
_atom_site_fract_z
Si Si1 0.908855 0.675881 0.693171
Si Si2 0.539091 0.675186 0.171199
Si Si3 0.672609 0.822880 0.530427
Si Si4 0.167054 0.822792 0.536671
Si Si5 0.742902 0.326402 0.778301
Si Si6 0.240136 0.821958 0.798173
Si Si7 0.949282 0.678858 0.848554
Si Si8 0.399197 0.673809 0.706385
O O1 0.930520 0.500000 0.671586
O O2 0.801078 0.709796 0.795943
O O3 0.911932 0.741444 0.797103
O O4 0.000000 0.750069 0.500000
O O5 0.515526 0.500000 0.216518
O O6 0.436140 0.755093 0.284510
O O7 0.578446 0.737112 0.218356
O O8 0.623632 0.705845 0.967786
O O9 0.754718 0.770587 0.492215
O O10 0.707277 0.763758 0.375667
O O11 0.660373 0.000000 0.547295
O O12 0.215046 0.780283 0.364994
O O13 0.063048 0.735389 0.706623
O O14 0.146062 0.000000 0.569169
O O15 0.762191 0.500000 0.720928
O O16 0.307237 0.769441 0.793337
O O17 0.228816 0.000000 0.814742
O O18 0.127555 0.749251 0.963236
O O19 0.946595 0.500000 0.860501
O O20 0.500000 0.696916 0.500000
O O21 0.363921 0.500000 0.759621
#
# Coordination Sequence:
#
# PCOD8062439 Si02
#       8
#     4   4   4   4   4   4   4   4
#     4   9  16  32  60  87 115 150 183 222 283 352
#     4  10  21  37  61  90 120 152 192 242 290 344
#     4  10  24  43  60  79 114 160 199 239 291 346
#     4  11  24  42  60  82 114 154 199 245 290 342
#     4  10  20  37  60  88 118 151 190 234 290 347
#     4  11  23  39  60  87 119 156 195 237 289 350
#     4  11  22  39  64  90 117 151 191 239 292 348
#     4  10  19  35  61  91 121 153 190 236 290 345
#
# _framework density 19.951435
#
# number of rings (size 3 to 8) (size 9 to 14) (size 15 to 20)
#    0.000    1.750    2.500    1.875    0.000    5.750 
#    0.000    8.125    0.000    0.000    0.000    0.000 
#    0.000    0.000    0.000    0.000    0.000    0.000 
#
# Total GULP energy -396907.593718 kJ/mol
# GULP energy per Si atom -12403.362304 kJ/mol
# Density = 1.990602 g / cm^3
# Si number density = 19.951435 Si / 1000 Ang^3
#
#
#
# Elastic Constant Matrix: (Units=GPa)
#
#
# Indices 1 2 3 4 5 6 
#
# 1 82.4998 25.6508 30.3419 0.0000 -28.1643 0.0000
# 2 25.6508 51.0866 33.6782 0.0000 -12.2595 0.0000
# 3 30.3419 33.6782 119.9468 0.0000 -26.4090 0.0000
# 4 0.0000 0.0000 0.0000 31.9977 0.0000 -4.6282
# 5 -28.1643 -12.2595 -26.4090 0.0000 23.5667 0.0000
# 6 0.0000 0.0000 0.0000 -4.6282 0.0000 29.2638
#
#
#
# Elastic Compliance Matrix: (Units=1/GPa)
#
#
# Indices 1 2 3 4 5 6 
#
# 1 0.021894 -0.006121 0.001646 0.000000 0.024826 0.000000
# 2 -0.006121 0.026520 -0.005935 0.000000 -0.000170 0.000000
# 3 0.001646 -0.005935 0.012400 0.000000 0.012775 0.000000
# 4 0.000000 0.000000 0.000000 0.031984 0.000000 0.005058
# 5 0.024826 -0.000170 0.012775 0.000000 0.086330 0.000000
# 6 0.000000 0.000000 0.000000 0.005058 0.000000 0.034972
#
#
# Mechanical properties :
#
#
# Convention : Reuss Voigt Hill
#
# Bulk Modulus (GPa) = 25.00363 48.09721 36.55042
# Shear Modulus (GPa) = 20.14098 27.88981 24.01539
#
# Velocity S-wave (km/s) = 3.18071 3.74289 3.47319
# Velocity P-wave (km/s) = 5.10379 6.54511 5.86886
#
# Compressibility (1/GPa) = 0.03999419
#
# Stress axis : x y z
#
# Youngs Moduli (GPa) = 45.67434 37.70773 80.64638
#
# Poissons Ratio (x) = 0.23080 -0.13276
# Poissons Ratio (y) = 0.27956 0.47866
# Poissons Ratio (z) = -0.07519 0.22381
#
# Static dielectric constant tensor:
#      x y z
#    x 3.693580 0.000000 0.032040 
#    y 0.000000 3.371460 0.000000 
#    z 0.032040 0.000000 3.734430 
# 
# 
# High freq. dielectric constant tensor:
#      x y z
#    x 1.775800 0.000000 -0.003860 
#    y 0.000000 1.756470 0.000000 
#    z -0.003860 0.000000 1.794840 
# 
# From -- ./inp_files/71473.got.cif
#   From: 2010.06.25/outbox.cif.g09.slc.cpg/sg10_36_cif.got.tgz:71473.got - 2010.06.27 22:07:45.
