data_PCOD8062994
_publ_section_title
;
Structure prediction by ZEFSAII (Michael W. Deem and Ramdas Pophale) SiO2 
 PCOD8062994
Probable space group: P 2/M
;
_chemical_formula_sum "Si O2"
_cell_formula_units_Z 18
_cell_length_a 9.857616
_cell_length_b 9.429895
_cell_length_c 12.623609
_cell_angle_alpha 90.000000
_cell_angle_beta 53.273472
_cell_angle_gamma 90.000000
_cell_volume 940.513850
_symmetry_space_group_name_H-M "P 2/M"
_symmetry_group_IT_number 10
_symmetry_cell_setting 'monoclinic'
loop_
_space_group_symop_operation_xyz
x,y,z
-x,y,-z
-x,-y,-z
x,-y,z
loop_
_atom_site_type_symbol
_atom_site_label
_atom_site_fract_x
_atom_site_fract_y
_atom_site_fract_z
Si Si1 0.680015 0.158685 0.721367
Si Si2 0.851822 0.659898 0.797079
Si Si3 0.542522 0.831668 0.364531
Si Si4 0.077185 0.166731 0.851112
Si Si5 0.500000 0.753367 0.000000
O O1 0.830773 0.261826 0.692056
O O2 0.597788 0.224133 0.653176
O O3 0.750812 0.000000 0.669235
O O4 0.532595 0.150300 0.880604
O O5 0.917371 0.500000 0.750391
O O6 0.667936 0.657698 0.940949
O O7 0.984803 0.747998 0.802410
O O8 0.500000 0.768253 0.500000
O O9 0.728284 0.784083 0.241101
O O10 0.532669 0.000000 0.370706
O O11 0.055170 0.000000 0.838013
O O12 0.000000 0.208687 0.000000
#
# Coordination Sequence:
#
# PCOD8062994 Si02
#       5
#     4   4   4   4   2
#     4   9  17  30  53  78 101 135 176 218 260 309
#     4  10  20  32  49  76 107 139 175 218 263 310
#     4   9  18  34  55  80 108 138 174 218 266 315
#     4  10  20  34  54  82 109 136 174 221 266 309
#     4   8  18  28  50  76 104 136 172 220 252 316
#
# _framework density 19.138473999999999
#
# number of rings (size 3 to 8) (size 9 to 14) (size 15 to 20)
#    1.333    1.333    0.000    2.667    0.000    2.222 
#    0.000    2.222    0.000    9.333    0.000    0.000 
#    0.000    0.000    0.000    0.000    0.000    0.000 
#
# Total GULP energy -223013.380326 kJ/mol
# GULP energy per Si atom -12389.632240 kJ/mol
# Density = 1.909491 g / cm^3
# Si number density = 19.138474 Si / 1000 Ang^3
#
#
#
# Elastic Constant Matrix: (Units=GPa)
#
#
# Indices 1 2 3 4 5 6 
#
# 1 154.5608 60.2725 39.5143 0.0000 34.7215 0.0000
# 2 60.2725 82.1734 17.0774 0.0000 12.0530 0.0000
# 3 39.5143 17.0774 80.9335 0.0000 21.2471 0.0000
# 4 0.0000 0.0000 0.0000 0.7767 0.0000 -1.7194
# 5 34.7215 12.0530 21.2471 0.0000 35.0134 0.0000
# 6 0.0000 0.0000 0.0000 -1.7194 0.0000 13.7926
#
#
#
# Elastic Compliance Matrix: (Units=1/GPa)
#
#
# Indices 1 2 3 4 5 6 
#
# 1 0.011376 -0.006781 -0.002111 0.000000 -0.007666 0.000000
# 2 -0.006781 0.017093 -0.000615 0.000000 0.001213 0.000000
# 3 -0.002111 -0.000615 0.015358 0.000000 -0.007015 0.000000
# 4 0.000000 0.000000 0.000000 1.778146 0.000000 0.221668
# 5 -0.007666 0.001213 -0.007015 0.000000 0.040002 0.000000
# 6 0.000000 0.000000 0.000000 0.221668 0.000000 0.100136
#
#
# Mechanical properties :
#
#
# Convention : Reuss Voigt Hill
#
# Bulk Modulus (GPa) = 40.30002 61.26623 50.78312
# Shear Modulus (GPa) = 2.51333 23.30344 12.90839
#
# Velocity S-wave (km/s) = 1.14721 3.49323 2.59988
# Velocity P-wave (km/s) = 4.78096 6.95355 5.96697
#
# Compressibility (1/GPa) = 0.02481388
#
# Stress axis : x y z
#
# Youngs Moduli (GPa) = 87.90396 58.50399 65.11445
#
# Poissons Ratio (x) = 0.39672 0.13744
# Poissons Ratio (y) = 0.59608 0.04001
# Poissons Ratio (z) = 0.18555 0.03595
#
# Static dielectric constant tensor:
#      x y z
#    x 3.517640 0.000000 0.126410 
#    y 0.000000 3.035570 0.000000 
#    z 0.126410 0.000000 3.402400 
# 
# 
# High freq. dielectric constant tensor:
#      x y z
#    x 1.752310 0.000000 0.012940 
#    y 0.000000 1.705110 0.000000 
#    z 0.012940 0.000000 1.719620 
# 
# From -- ./inp_files/41575.got.cif
#   From: 2010.06.25/outbox.cif.g09.slc.cpg/sg10_21_cif.got.tgz:41575.got - 2010.06.27 22:07:45.
