data_PCOD8062040
_publ_section_title
;
Structure prediction by ZEFSAII (Michael W. Deem and Ramdas Pophale) SiO2 
 PCOD8062040
Probable space group: P 2/M
;
_chemical_formula_sum "Si O2"
_cell_formula_units_Z 28
_cell_length_a 26.187723
_cell_length_b 8.889368
_cell_length_c 9.146044
_cell_angle_alpha 90.000000
_cell_angle_beta 42.858456
_cell_angle_gamma 90.000000
_cell_volume 1448.211054
_symmetry_space_group_name_H-M "P 2/M"
_symmetry_group_IT_number 10
_symmetry_cell_setting 'monoclinic'
loop_
_space_group_symop_operation_xyz
x,y,z
-x,y,-z
-x,-y,-z
x,-y,z
loop_
_atom_site_type_symbol
_atom_site_label
_atom_site_fract_x
_atom_site_fract_y
_atom_site_fract_z
Si Si1 0.638700 0.177301 0.417120
Si Si2 0.489122 0.669506 0.695343
Si Si3 0.797170 0.172943 0.555093
Si Si4 0.770992 0.675968 0.308272
Si Si5 0.912960 0.321653 0.819395
Si Si6 0.657800 0.175060 0.046486
Si Si7 0.933779 0.824145 0.471235
O O1 0.556521 0.240340 0.630945
O O2 0.697024 0.239243 0.411583
O O3 0.663094 0.230550 0.203368
O O4 0.636167 0.000000 0.435570
O O5 0.500000 0.678012 0.500000
O O6 0.490192 0.500000 0.752294
O O7 0.408729 0.742115 0.902190
O O8 0.787455 0.282750 0.440173
O O9 0.878955 0.203048 0.450484
O O10 0.788339 0.000000 0.523454
O O11 0.736082 0.213991 0.806134
O O12 0.756669 0.500000 0.324378
O O13 0.841237 0.727369 0.063297
O O14 0.924962 0.500000 0.791602
O O15 0.901145 0.261130 0.680772
O O16 0.985440 0.243689 0.740918
O O17 0.638545 0.000000 0.083084
O O18 0.940898 0.000000 0.494005
#
# Coordination Sequence:
#
# PCOD8062040 Si02
#       7
#     4   4   4   4   4   4   4
#     4  10  19  34  58  82 107 140 178 223 270 316
#     4   9  17  30  51  81 112 139 173 218 266 317
#     4  10  22  38  55  78 109 143 180 222 267 316
#     4  11  24  38  53  77 110 146 182 219 264 320
#     4  10  21  37  57  82 111 142 176 218 269 320
#     4   9  18  34  56  81 107 138 178 221 268 319
#     4  10  20  36  60  86 108 136 179 225 266 314
#
# _framework density 19.334198000000001
#
# number of rings (size 3 to 8) (size 9 to 14) (size 15 to 20)
#    0.000    2.143    0.000    3.857    0.000    8.000 
#    0.000    3.571    0.000    4.286    0.000    0.000 
#    0.000    0.000    0.000    0.000    0.000    0.000 
#
# Total GULP energy -347289.004990 kJ/mol
# GULP energy per Si atom -12403.178750 kJ/mol
# Density = 1.929019 g / cm^3
# Si number density = 19.334198 Si / 1000 Ang^3
#
#
#
# Elastic Constant Matrix: (Units=GPa)
#
#
# Indices 1 2 3 4 5 6 
#
# 1 125.5854 43.4752 32.4795 0.0000 -17.8201 0.0000
# 2 43.4752 75.6210 20.5318 0.0000 -10.8653 0.0000
# 3 32.4795 20.5318 25.5399 0.0000 -10.2520 0.0000
# 4 0.0000 0.0000 0.0000 29.2019 0.0000 -2.1048
# 5 -17.8201 -10.8653 -10.2520 0.0000 25.4460 0.0000
# 6 0.0000 0.0000 0.0000 -2.1048 0.0000 29.1173
#
#
#
# Elastic Compliance Matrix: (Units=1/GPa)
#
#
# Indices 1 2 3 4 5 6 
#
# 1 0.012752 -0.003639 -0.012323 0.000000 0.002411 0.000000
# 2 -0.003639 0.018047 -0.009317 0.000000 0.001404 0.000000
# 3 -0.012323 -0.009317 0.068301 0.000000 0.014909 0.000000
# 4 0.000000 0.000000 0.000000 0.034424 0.000000 0.002488
# 5 0.002411 0.001404 0.014909 0.000000 0.047594 0.000000
# 6 0.000000 0.000000 0.000000 0.002488 0.000000 0.034524
#
#
# Mechanical properties :
#
#
# Convention : Reuss Voigt Hill
#
# Bulk Modulus (GPa) = 20.60098 46.63548 33.61823
# Shear Modulus (GPa) = 17.70656 25.43700 21.57178
#
# Velocity S-wave (km/s) = 3.02953 3.63112 3.34388
# Velocity P-wave (km/s) = 4.78704 6.46167 5.68634
#
# Compressibility (1/GPa) = 0.04854138
#
# Stress axis : x y z
#
# Youngs Moduli (GPa) = 78.42115 55.41019 14.64099
#
# Poissons Ratio (x) = 0.20162 0.18043
# Poissons Ratio (y) = 0.28535 0.13642
# Poissons Ratio (z) = 0.96641 0.51628
#
# Static dielectric constant tensor:
#      x y z
#    x 3.499500 0.000000 -0.220370 
#    y 0.000000 3.572440 0.000000 
#    z -0.220370 0.000000 3.471060 
# 
# 
# High freq. dielectric constant tensor:
#      x y z
#    x 1.752980 0.000000 -0.021180 
#    y 0.000000 1.760040 0.000000 
#    z -0.021180 0.000000 1.740780 
# 
# From -- ./inp_files/36685.got.cif
#   From: 2010.06.25/outbox.cif.g09.slc.cpg/sg10_19_cif.got.tgz:36685.got - 2010.06.27 22:07:45.
