data_PCOD8062669
_publ_section_title
;
Structure prediction by ZEFSAII (Michael W. Deem and Ramdas Pophale) SiO2 
 PCOD8062669
Probable space group: P 2/M
;
_chemical_formula_sum "Si O2"
_cell_formula_units_Z 28
_cell_length_a 9.850714
_cell_length_b 15.356675
_cell_length_c 11.802157
_cell_angle_alpha 90.000000
_cell_angle_beta 54.136141
_cell_angle_gamma 90.000000
_cell_volume 1446.877644
_symmetry_space_group_name_H-M "P 2/M"
_symmetry_group_IT_number 10
_symmetry_cell_setting 'monoclinic'
loop_
_space_group_symop_operation_xyz
x,y,z
-x,y,-z
-x,-y,-z
x,-y,z
loop_
_atom_site_type_symbol
_atom_site_label
_atom_site_fract_x
_atom_site_fract_y
_atom_site_fract_z
Si Si1 0.508756 0.403924 0.623957
Si Si2 0.309719 0.903942 0.559359
Si Si3 0.069517 0.183647 0.845790
Si Si4 0.310022 0.398460 0.060236
Si Si5 0.752566 0.744408 0.567708
Si Si6 0.815735 0.360376 0.110109
Si Si7 0.084643 0.272431 0.284562
O O1 0.500000 0.372226 0.500000
O O2 0.594144 0.500000 0.595836
O O3 0.606009 0.328631 0.645544
O O4 0.316306 0.418176 0.756991
O O5 0.500000 0.906166 0.500000
O O6 0.198579 0.882157 0.724697
O O7 0.297016 0.835136 0.464782
O O8 0.253339 0.000000 0.544377
O O9 0.166520 0.271176 0.830706
O O10 0.927516 0.209330 0.820499
O O11 0.000000 0.144275 0.000000
O O12 0.277799 0.500000 0.055251
O O13 0.180514 0.363339 0.216593
O O14 0.500000 0.379396 0.000000
O O15 0.269663 0.342927 0.968702
O O16 0.811168 0.772864 0.664796
O O17 0.900637 0.702295 0.419866
O O18 0.000000 0.404262 0.000000
#
# Coordination Sequence:
#
# PCOD8062669 Si02
#       7
#     4   4   4   4   4   4   4
#     4  11  23  36  55  84 117 159 208 254 299 348
#     4  10  21  38  64  93 119 153 194 245 308 368
#     4  10  19  37  61  87 117 150 203 242 297 362
#     4  11  23  36  53  81 118 158 209 257 299 354
#     4  10  21  38  61  82 123 154 202 248 305 364
#     4  11  21  38  58  81 115 162 203 250 297 354
#     4  10  20  38  56  84 112 162 198 246 303 359
#
# _framework density 19.352017
#
# number of rings (size 3 to 8) (size 9 to 14) (size 15 to 20)
#    0.000    1.571    2.857    4.286    0.000    3.714 
#    0.000    7.143    0.000    0.000    0.000    2.000 
#    0.000    0.000    0.000    0.000    0.000    0.000 
#
# Total GULP energy -346898.878953 kJ/mol
# GULP energy per Si atom -12389.245677 kJ/mol
# Density = 1.930797 g / cm^3
# Si number density = 19.352017 Si / 1000 Ang^3
#
#
#
# Elastic Constant Matrix: (Units=GPa)
#
#
# Indices 1 2 3 4 5 6 
#
# 1 122.0132 54.5330 54.2257 0.0000 9.7447 0.0000
# 2 54.5330 108.0817 37.2158 0.0000 1.0661 0.0000
# 3 54.2257 37.2158 107.8927 0.0000 -0.7606 0.0000
# 4 0.0000 0.0000 0.0000 -35.4002 0.0000 -29.5511
# 5 9.7447 1.0661 -0.7606 0.0000 39.6181 0.0000
# 6 0.0000 0.0000 0.0000 -29.5511 0.0000 -58.9486
#
#
#
# Elastic Compliance Matrix: (Units=1/GPa)
#
#
# Indices 1 2 3 4 5 6 
#
# 1 0.012668 -0.004722 -0.004759 0.000000 -0.003080 0.000000
# 2 -0.004722 0.012265 -0.001851 0.000000 0.000796 0.000000
# 3 -0.004759 -0.001851 0.012309 0.000000 0.001457 0.000000
# 4 0.000000 0.000000 0.000000 -0.048577 0.000000 0.024352
# 5 -0.003080 0.000796 0.001457 0.000000 0.026005 0.000000
# 6 0.000000 0.000000 0.000000 0.024352 0.000000 -0.029171
#
#
# Mechanical properties :
#
#
# Convention : Reuss Voigt Hill
#
# Bulk Modulus (GPa) = 68.60973 69.99294 69.30133
# Shear Modulus (GPa) = 383.91487 1.85475 192.88481
#
# Velocity S-wave (km/s) = 14.10020 0.98005 9.99440
# Velocity P-wave (km/s) = 17.33834 6.12597 13.00280
#
# Compressibility (1/GPa) = 0.01457519
#
# Stress axis : x y z
#
# Youngs Moduli (GPa) = 78.94119 81.53562 81.23850
#
# Poissons Ratio (x) = 0.38504 0.38665
# Poissons Ratio (y) = 0.37278 0.15041
# Poissons Ratio (z) = 0.37572 0.15096
#
# Static dielectric constant tensor:
#      x y z
#    x 3.741370 0.000000 -0.026590 
#    y 0.000000 3.393930 0.000000 
#    z -0.026590 0.000000 4.149810 
# 
# 
# High freq. dielectric constant tensor:
#      x y z
#    x 1.758960 0.000000 0.003390 
#    y 0.000000 1.721070 0.000000 
#    z 0.003390 0.000000 1.766420 
# 
# From -- ./inp_files/42904.got.cif
#   From: 2010.06.25/outbox.cif.g09.slc.cpg/sg10_22_cif.got.tgz:42904.got - 2010.06.27 22:07:45.
