data_PCOD8062113
_publ_section_title
;
Structure prediction by ZEFSAII (Michael W. Deem and Ramdas Pophale) SiO2 
 PCOD8062113
Probable space group: P 2/M
;
_chemical_formula_sum "Si O2"
_cell_formula_units_Z 32
_cell_length_a 14.108575
_cell_length_b 9.028449
_cell_length_c 12.468775
_cell_angle_alpha 90.000000
_cell_angle_beta 85.710176
_cell_angle_gamma 90.000000
_cell_volume 1583.804879
_symmetry_space_group_name_H-M "P 2/M"
_symmetry_group_IT_number 10
_symmetry_cell_setting 'monoclinic'
loop_
_space_group_symop_operation_xyz
x,y,z
-x,y,-z
-x,-y,-z
x,-y,z
loop_
_atom_site_type_symbol
_atom_site_label
_atom_site_fract_x
_atom_site_fract_y
_atom_site_fract_z
Si Si1 0.371395 0.330308 0.274577
Si Si2 0.249724 0.676117 0.863513
Si Si3 0.225722 0.170999 0.645656
Si Si4 0.536483 0.323542 0.110420
Si Si5 0.164513 0.670159 0.234850
Si Si6 0.602931 0.829402 0.515350
Si Si7 0.895788 0.826466 0.965999
Si Si8 0.111394 0.333444 0.476665
O O1 0.390451 0.500000 0.300998
O O2 0.463225 0.262529 0.206415
O O3 0.278154 0.313359 0.208057
O O4 0.349924 0.249751 0.387672
O O5 0.244804 0.500000 0.865195
O O6 0.210953 0.734539 0.753770
O O7 0.357396 0.733464 0.873669
O O8 0.183313 0.737421 0.962257
O O9 0.332852 0.194428 0.594763
O O10 0.153574 0.223847 0.561028
O O11 0.204567 0.000000 0.673428
O O12 0.533552 0.500000 0.108792
O O13 0.500000 0.260385 0.000000
O O14 0.132661 0.500000 0.219699
O O15 0.109409 0.774712 0.156671
O O16 0.136969 0.724339 0.356040
O O17 0.500000 0.759093 0.500000
O O18 0.593027 0.000000 0.547308
O O19 0.874594 0.000000 0.976830
O O20 0.000000 0.786830 0.000000
O O21 0.152615 0.500000 0.488997
O O22 0.000000 0.333323 0.500000
#
# Coordination Sequence:
#
# PCOD8062113 Si02
#       8
#     4   4   4   4   4   4   4   4
#     4  10  19  34  59  88 117 151 196 247 295 350
#     4  11  23  40  64  91 122 160 203 252 303 356
#     4  11  23  39  60  88 126 166 203 246 301 362
#     4   9  18  34  58  88 119 152 195 249 304 354
#     4  10  21  39  64  93 123 157 201 252 302 357
#     4  10  21  36  54  81 120 163 200 238 290 352
#     4  11  26  45  64  89 121 158 201 249 303 363
#     4  10  22  40  63  93 123 156 203 255 304 357
#
# _framework density 20.204509000000002
#
# number of rings (size 3 to 8) (size 9 to 14) (size 15 to 20)
#    0.000    1.750    1.250    2.625    1.750    5.000 
#    0.000    0.625    0.000    2.625    0.000    0.000 
#    0.000    0.000    0.000    0.000    0.000    0.000 
#
# Total GULP energy -396922.575573 kJ/mol
# GULP energy per Si atom -12403.830487 kJ/mol
# Density = 2.015852 g / cm^3
# Si number density = 20.204509 Si / 1000 Ang^3
#
#
#
# Elastic Constant Matrix: (Units=GPa)
#
#
# Indices 1 2 3 4 5 6 
#
# 1 99.1242 33.6453 38.3615 0.0000 1.6882 0.0000
# 2 33.6453 65.3323 38.0369 0.0000 6.4005 0.0000
# 3 38.3615 38.0369 119.2668 0.0000 7.3264 0.0000
# 4 0.0000 0.0000 0.0000 -8.3047 0.0000 9.4269
# 5 1.6882 6.4005 7.3264 0.0000 33.9677 0.0000
# 6 0.0000 0.0000 0.0000 9.4269 0.0000 13.5515
#
#
#
# Elastic Compliance Matrix: (Units=1/GPa)
#
#
# Indices 1 2 3 4 5 6 
#
# 1 0.012819 -0.005227 -0.002511 0.000000 0.000889 0.000000
# 2 -0.005227 0.021103 -0.004886 0.000000 -0.002663 0.000000
# 3 -0.002511 -0.004886 0.010830 0.000000 -0.001290 0.000000
# 4 0.000000 0.000000 0.000000 -0.067284 0.000000 0.046805
# 5 0.000889 -0.002663 -0.001290 0.000000 0.030176 0.000000
# 6 0.000000 0.000000 0.000000 0.046805 0.000000 0.041233
#
#
# Mechanical properties :
#
#
# Convention : Reuss Voigt Hill
#
# Bulk Modulus (GPa) = 51.26790 55.97896 53.62343
# Shear Modulus (GPa) = 62.01489 19.42154 40.71821
#
# Velocity S-wave (km/s) = 5.54619 3.10376 4.49408
# Velocity P-wave (km/s) = 8.15127 6.37266 7.31621
#
# Compressibility (1/GPa) = 0.01950538
#
# Stress axis : x y z
#
# Youngs Moduli (GPa) = 78.00875 47.38551 92.33997
#
# Poissons Ratio (x) = 0.24768 0.23185
# Poissons Ratio (y) = 0.40775 0.45113
# Poissons Ratio (z) = 0.19587 0.23151
#
# Static dielectric constant tensor:
#      x y z
#    x 3.803820 0.000000 -0.052260 
#    y 0.000000 3.495580 0.000000 
#    z -0.052260 0.000000 3.696950 
# 
# 
# High freq. dielectric constant tensor:
#      x y z
#    x 1.799930 0.000000 -0.003760 
#    y 0.000000 1.769630 0.000000 
#    z -0.003760 0.000000 1.796700 
# 
# From -- ./inp_files/49876.got.cif
#   From: 2010.06.25/outbox.cif.g09.slc.cpg/sg10_25_cif.got.tgz:49876.got - 2010.06.27 22:07:45.
