data_PCOD8062370
_publ_section_title
;
Structure prediction by ZEFSAII (Michael W. Deem and Ramdas Pophale) SiO2 
 PCOD8062370
Probable space group: P 2/M
;
_chemical_formula_sum "Si O2"
_cell_formula_units_Z 28
_cell_length_a 11.622536
_cell_length_b 8.720594
_cell_length_c 14.495653
_cell_angle_alpha 90.000000
_cell_angle_beta 110.653797
_cell_angle_gamma 90.000000
_cell_volume 1374.784836
_symmetry_space_group_name_H-M "P 2/M"
_symmetry_group_IT_number 10
_symmetry_cell_setting 'monoclinic'
loop_
_space_group_symop_operation_xyz
x,y,z
-x,y,-z
-x,-y,-z
x,-y,z
loop_
_atom_site_type_symbol
_atom_site_label
_atom_site_fract_x
_atom_site_fract_y
_atom_site_fract_z
Si Si1 0.843329 0.681213 0.535842
Si Si2 0.671557 0.319483 0.790226
Si Si3 0.613419 0.680737 0.975453
Si Si4 0.827919 0.825419 0.145988
Si Si5 0.955919 0.323882 0.884708
Si Si6 0.104182 0.821816 0.635357
Si Si7 0.375949 0.820385 0.412445
O O1 0.841301 0.500000 0.524274
O O2 0.818327 0.757968 0.429124
O O3 0.738804 0.730151 0.577621
O O4 0.976100 0.732046 0.610638
O O5 0.650153 0.500000 0.770655
O O6 0.613135 0.259239 0.870052
O O7 0.814902 0.278635 0.833594
O O8 0.607203 0.228200 0.689232
O O9 0.601352 0.500000 0.968988
O O10 0.500000 0.755001 0.000000
O O11 0.739311 0.717588 0.062784
O O12 0.811590 0.797095 0.250672
O O13 0.968393 0.784994 0.161982
O O14 0.799294 0.000000 0.111561
O O15 0.978859 0.500000 0.863770
O O16 0.000000 0.290936 0.000000
O O17 0.073250 0.000000 0.611626
O O18 0.500000 0.773075 0.500000
O O19 0.350205 0.000000 0.413175
#
# Coordination Sequence:
#
# PCOD8062370 Si02
#       7
#     4   4   4   4   4   4   4
#     4  11  22  38  62  91 118 152 200 251 300 352
#     4  10  21  39  63  91 119 153 197 249 301 349
#     4  10  22  41  62  84 116 157 198 241 293 350
#     4  11  23  36  56  88 121 156 197 239 288 352
#     4  10  19  35  59  86 120 156 191 241 297 349
#     4  10  21  38  60  88 125 161 193 239 299 359
#     4  11  25  43  62  85 118 161 202 247 306 363
#
# _framework density 20.366824000000001
#
# number of rings (size 3 to 8) (size 9 to 14) (size 15 to 20)
#    0.000    1.571    1.429    4.286    0.000    8.571 
#    0.000    2.857    0.000    0.000    0.000    0.000 
#    0.000    0.000    0.000    0.000    0.000    0.000 
#
# Total GULP energy -347293.032537 kJ/mol
# GULP energy per Si atom -12403.322591 kJ/mol
# Density = 2.032047 g / cm^3
# Si number density = 20.366824 Si / 1000 Ang^3
#
#
#
# Elastic Constant Matrix: (Units=GPa)
#
#
# Indices 1 2 3 4 5 6 
#
# 1 90.2725 22.2854 50.2625 0.0000 -18.2116 0.0000
# 2 22.2854 48.3771 35.3886 0.0000 -4.0323 0.0000
# 3 50.2625 35.3886 147.8900 0.0000 -8.5230 0.0000
# 4 0.0000 0.0000 0.0000 29.0880 0.0000 -3.4125
# 5 -18.2116 -4.0323 -8.5230 0.0000 29.6079 0.0000
# 6 0.0000 0.0000 0.0000 -3.4125 0.0000 15.7173
#
#
#
# Elastic Compliance Matrix: (Units=1/GPa)
#
#
# Indices 1 2 3 4 5 6 
#
# 1 0.015873 -0.003675 -0.004048 0.000000 0.008097 0.000000
# 2 -0.003675 0.025994 -0.004980 0.000000 -0.000154 0.000000
# 3 -0.004048 -0.004980 0.009301 0.000000 -0.000491 0.000000
# 4 0.000000 0.000000 0.000000 0.035277 0.000000 0.007659
# 5 0.008097 -0.000154 -0.000491 0.000000 0.038593 0.000000
# 6 0.000000 0.000000 0.000000 0.007659 0.000000 0.065287
#
#
# Mechanical properties :
#
#
# Convention : Reuss Voigt Hill
#
# Bulk Modulus (GPa) = 38.81950 55.82360 47.32155
# Shear Modulus (GPa) = 22.28971 26.78952 24.53962
#
# Velocity S-wave (km/s) = 3.31178 3.63071 3.47491
# Velocity P-wave (km/s) = 5.80736 6.71153 6.27575
#
# Compressibility (1/GPa) = 0.02576025
#
# Stress axis : x y z
#
# Youngs Moduli (GPa) = 63.00203 38.47031 107.51532
#
# Poissons Ratio (x) = 0.14140 0.43526
# Poissons Ratio (y) = 0.23156 0.53541
# Poissons Ratio (z) = 0.25505 0.19158
#
# Static dielectric constant tensor:
#      x y z
#    x 3.761640 0.000000 -0.235020 
#    y 0.000000 3.571020 0.000000 
#    z -0.235020 0.000000 3.869230 
# 
# 
# High freq. dielectric constant tensor:
#      x y z
#    x 1.787520 0.000000 -0.012110 
#    y 0.000000 1.791920 0.000000 
#    z -0.012110 0.000000 1.810010 
# 
# From -- ./inp_files/49398.got.cif
#   From: 2010.06.25/outbox.cif.g09.slc.cpg/sg10_25_cif.got.tgz:49398.got - 2010.06.27 22:07:45.
