data_PCOD8062522
_publ_section_title
;
Structure prediction by ZEFSAII (Michael W. Deem and Ramdas Pophale) SiO2 
 PCOD8062522
Probable space group: P 2/M
;
_chemical_formula_sum "Si O2"
_cell_formula_units_Z 32
_cell_length_a 14.591405
_cell_length_b 9.001928
_cell_length_c 25.276665
_cell_angle_alpha 90.000000
_cell_angle_beta 149.409817
_cell_angle_gamma 90.000000
_cell_volume 1689.583618
_symmetry_space_group_name_H-M "P 2/M"
_symmetry_group_IT_number 10
_symmetry_cell_setting 'monoclinic'
loop_
_space_group_symop_operation_xyz
x,y,z
-x,y,-z
-x,-y,-z
x,-y,z
loop_
_atom_site_type_symbol
_atom_site_label
_atom_site_fract_x
_atom_site_fract_y
_atom_site_fract_z
Si Si1 0.980745 0.324303 0.151497
Si Si2 0.697937 0.674167 0.213071
Si Si3 0.609797 0.326288 0.501091
Si Si4 0.187742 0.672919 0.612803
Si Si5 0.339224 0.827126 0.293557
Si Si6 0.343999 0.175217 0.067187
Si Si7 0.990288 0.675591 0.275789
Si Si8 0.467545 0.829884 0.243039
O O1 0.967271 0.500000 0.137224
O O2 0.180297 0.272900 0.236878
O O3 0.940685 0.275930 0.191776
O O4 0.841778 0.244394 0.044135
O O5 0.658921 0.500000 0.186190
O O6 0.790688 0.709472 0.314869
O O7 0.508602 0.759414 0.114569
O O8 0.833422 0.737464 0.235932
O O9 0.500000 0.297723 0.500000
O O10 0.605959 0.500000 0.483894
O O11 0.524168 0.230171 0.411399
O O12 0.812928 0.264927 0.609621
O O13 0.190666 0.500000 0.602375
O O14 0.348055 0.740896 0.658145
O O15 0.000000 0.743161 0.500000
O O16 0.344090 0.802981 0.232755
O O17 0.309253 0.000000 0.292484
O O18 0.362562 0.221776 0.138024
O O19 0.337475 0.000000 0.055956
O O20 0.998495 0.500000 0.284377
O O21 0.523208 0.000000 0.264634
#
# Coordination Sequence:
#
# PCOD8062522 Si02
#       8
#     4   4   4   4   4   4   4   4
#     4  11  22  39  60  83 109 145 189 232 280 335
#     4   9  18  35  56  80 111 146 184 225 274 332
#     4  10  19  36  59  82 113 152 188 227 275 329
#     4   9  18  31  52  83 111 138 182 235 275 313
#     4  11  23  38  56  84 115 148 188 230 276 330
#     4  10  21  40  60  80 109 146 185 233 284 330
#     4   9  19  35  57  83 112 148 186 222 273 334
#     4   9  21  39  56  76 111 152 185 220 277 341
#
# _framework density 18.939578999999998
#
# number of rings (size 3 to 8) (size 9 to 14) (size 15 to 20)
#    0.000    2.250    1.250    1.125    1.750    3.000 
#    0.000    6.875    0.000    0.000    0.000    0.000 
#    0.000    0.000    0.000    0.000    0.000    0.000 
#
# Total GULP energy -396863.213964 kJ/mol
# GULP energy per Si atom -12401.975436 kJ/mol
# Density = 1.889647 g / cm^3
# Si number density = 18.939579 Si / 1000 Ang^3
#
#
#
# Elastic Constant Matrix: (Units=GPa)
#
#
# Indices 1 2 3 4 5 6 
#
# 1 85.9203 27.1329 13.0438 0.0000 -9.6540 0.0000
# 2 27.1329 47.5572 28.8585 0.0000 -3.0445 0.0000
# 3 13.0438 28.8585 92.9851 0.0000 -6.5138 0.0000
# 4 0.0000 0.0000 0.0000 3.4653 0.0000 -15.4243
# 5 -9.6540 -3.0445 -6.5138 0.0000 17.1248 0.0000
# 6 0.0000 0.0000 0.0000 -15.4243 0.0000 12.3924
#
#
#
# Elastic Compliance Matrix: (Units=1/GPa)
#
#
# Indices 1 2 3 4 5 6 
#
# 1 0.015080 -0.008823 0.001139 0.000000 0.007366 0.000000
# 2 -0.008823 0.031111 -0.008608 0.000000 -0.002717 0.000000
# 3 0.001139 -0.008608 0.013565 0.000000 0.004272 0.000000
# 4 0.000000 0.000000 0.000000 -0.063562 0.000000 -0.079113
# 5 0.007366 -0.002717 0.004272 0.000000 0.063689 0.000000
# 6 0.000000 0.000000 0.000000 -0.079113 0.000000 -0.017774
#
#
# Mechanical properties :
#
#
# Convention : Reuss Voigt Hill
#
# Bulk Modulus (GPa) = 36.80330 40.50367 38.65349
# Shear Modulus (GPa) = 59.70124 17.09165 38.39644
#
# Velocity S-wave (km/s) = 5.62053 3.00731 4.50745
# Velocity P-wave (km/s) = 7.84823 5.78711 6.89512
#
# Compressibility (1/GPa) = 0.02717147
#
# Stress axis : x y z
#
# Youngs Moduli (GPa) = 66.31472 32.14328 73.71667
#
# Poissons Ratio (x) = 0.28360 -0.08396
# Poissons Ratio (y) = 0.58509 0.63456
# Poissons Ratio (z) = -0.07553 0.27669
#
# Static dielectric constant tensor:
#      x y z
#    x 3.601350 0.000000 -0.032240 
#    y 0.000000 3.320900 0.000000 
#    z -0.032240 0.000000 3.600340 
# 
# 
# High freq. dielectric constant tensor:
#      x y z
#    x 1.739270 0.000000 0.000010 
#    y 0.000000 1.721600 0.000000 
#    z 0.000010 0.000000 1.741870 
# 
# From -- ./inp_files/66481.got.cif
#   From: 2010.06.25/outbox.cif.g09.slc.cpg/sg10_34_cif.got.tgz:66481.got - 2010.06.27 22:07:45.
