data_PCOD8062918
_publ_section_title
;
Structure prediction by ZEFSAII (Michael W. Deem and Ramdas Pophale) SiO2 
 PCOD8062918
Probable space group: P 2/M
;
_chemical_formula_sum "Si O2"
_cell_formula_units_Z 24
_cell_length_a 9.046199
_cell_length_b 9.295820
_cell_length_c 16.544906
_cell_angle_alpha 90.000000
_cell_angle_beta 89.811533
_cell_angle_gamma 90.000000
_cell_volume 1391.284021
_symmetry_space_group_name_H-M "P 2/M"
_symmetry_group_IT_number 10
_symmetry_cell_setting 'monoclinic'
loop_
_space_group_symop_operation_xyz
x,y,z
-x,y,-z
-x,-y,-z
x,-y,z
loop_
_atom_site_type_symbol
_atom_site_label
_atom_site_fract_x
_atom_site_fract_y
_atom_site_fract_z
Si Si1 0.679000 0.167527 0.158881
Si Si2 0.170584 0.667713 0.983674
Si Si3 0.605642 0.158115 0.923257
Si Si4 0.831265 0.832277 0.495603
Si Si5 0.350031 0.166211 0.660770
Si Si6 0.593122 0.661735 0.581242
O O1 0.784606 0.259894 0.101066
O O2 0.504143 0.208005 0.148741
O O3 0.721250 0.199873 0.251691
O O4 0.702363 0.000000 0.136492
O O5 0.205915 0.500000 0.977551
O O6 0.261833 0.731025 0.059861
O O7 0.000000 0.699193 0.000000
O O8 0.673914 0.000000 0.905094
O O9 0.500000 0.149910 0.000000
O O10 0.771443 0.793954 0.406401
O O11 0.745496 0.745596 0.565329
O O12 0.000000 0.783010 0.500000
O O13 0.811935 0.000000 0.514809
O O14 0.498682 0.259031 0.650284
O O15 0.396871 0.000000 0.653830
O O16 0.500000 0.663270 0.500000
O O17 0.628705 0.500000 0.609698
#
# Coordination Sequence:
#
# PCOD8062918 Si02
#       6
#     4   4   4   4   4   4
#     4   9  18  32  50  71  92 118 156 198 236 274
#     4  10  20  32  47  69  96 125 155 186 226 280
#     4   8  15  29  48  68  88 113 150 190 225 267
#     4   9  17  30  49  71  95 125 159 193 231 276
#     4   9  17  31  50  70  93 121 155 196 237 275
#     4   9  17  29  46  68  92 120 155 190 227 275
#
# _framework density 17.250253000000001
#
# number of rings (size 3 to 8) (size 9 to 14) (size 15 to 20)
#    0.000    3.000    0.000    2.000    0.000    7.333 
#    0.000    1.667    0.000    8.000    0.000    0.000 
#    0.000    0.000    0.000    0.000    0.000    0.000 
#
# Total GULP energy -297507.093112 kJ/mol
# GULP energy per Si atom -12396.128880 kJ/mol
# Density = 1.721099 g / cm^3
# Si number density = 17.250253 Si / 1000 Ang^3
#
#
#
# Elastic Constant Matrix: (Units=GPa)
#
#
# Indices 1 2 3 4 5 6 
#
# 1 120.9642 69.6666 42.0302 0.0000 -5.1268 0.0000
# 2 69.6666 98.6938 41.5409 0.0000 -9.3464 0.0000
# 3 42.0302 41.5409 75.1308 0.0000 -2.1659 0.0000
# 4 0.0000 0.0000 0.0000 14.4614 0.0000 -2.8577
# 5 -5.1268 -9.3464 -2.1659 0.0000 18.4105 0.0000
# 6 0.0000 0.0000 0.0000 -2.8577 0.0000 26.2892
#
#
#
# Elastic Compliance Matrix: (Units=1/GPa)
#
#
# Indices 1 2 3 4 5 6 
#
# 1 0.014510 -0.008993 -0.003171 0.000000 -0.000898 0.000000
# 2 -0.008993 0.019442 -0.005525 0.000000 0.006716 0.000000
# 3 -0.003171 -0.005525 0.018094 0.000000 -0.001559 0.000000
# 4 0.000000 0.000000 0.000000 0.070667 0.000000 0.007682
# 5 -0.000898 0.006716 -0.001559 0.000000 0.057293 0.000000
# 6 0.000000 0.000000 0.000000 0.007682 0.000000 0.038873
#
#
# Mechanical properties :
#
#
# Convention : Reuss Voigt Hill
#
# Bulk Modulus (GPa) = 59.99536 66.80713 63.40124
# Shear Modulus (GPa) = 19.24467 21.26899 20.25683
#
# Velocity S-wave (km/s) = 3.34371 3.51517 3.43051
# Velocity P-wave (km/s) = 7.05423 7.43556 7.24740
#
# Compressibility (1/GPa) = 0.01666795
#
# Stress axis : x y z
#
# Youngs Moduli (GPa) = 68.91962 51.43596 55.26680
#
# Poissons Ratio (x) = 0.46254 0.17524
# Poissons Ratio (y) = 0.61976 0.30537
# Poissons Ratio (z) = 0.21854 0.28420
#
# Static dielectric constant tensor:
#      x y z
#    x 3.230210 0.000000 0.252620 
#    y 0.000000 3.284820 0.000000 
#    z 0.252620 0.000000 3.307620 
# 
# 
# High freq. dielectric constant tensor:
#      x y z
#    x 1.651950 0.000000 0.004220 
#    y 0.000000 1.666400 0.000000 
#    z 0.004220 0.000000 1.647220 
# 
# From -- ./inp_files/31209.got.cif
#   From: 2010.06.25/outbox.cif.g09.slc.cpg/sg10_16_cif.got.tgz:31209.got - 2010.06.27 22:07:45.
