data_PCOD8062430
_publ_section_title
;
Structure prediction by ZEFSAII (Michael W. Deem and Ramdas Pophale) SiO2 
 PCOD8062430
Probable space group: P 2/M
;
_chemical_formula_sum "Si O2"
_cell_formula_units_Z 24
_cell_length_a 12.175309
_cell_length_b 8.838099
_cell_length_c 11.625359
_cell_angle_alpha 90.000000
_cell_angle_beta 69.848769
_cell_angle_gamma 90.000000
_cell_volume 1174.389355
_symmetry_space_group_name_H-M "P 2/M"
_symmetry_group_IT_number 10
_symmetry_cell_setting 'monoclinic'
loop_
_space_group_symop_operation_xyz
x,y,z
-x,y,-z
-x,-y,-z
x,-y,z
loop_
_atom_site_type_symbol
_atom_site_label
_atom_site_fract_x
_atom_site_fract_y
_atom_site_fract_z
Si Si1 0.952138 0.827156 0.733631
Si Si2 0.213161 0.820417 0.603964
Si Si3 0.122875 0.673355 0.016169
Si Si4 0.471332 0.678506 0.138776
Si Si5 0.322005 0.178193 0.800998
Si Si6 0.735594 0.827397 0.663537
O O1 0.872244 0.819319 0.648836
O O2 0.080536 0.758450 0.662875
O O3 0.961526 0.000000 0.775735
O O4 0.887501 0.722866 0.849137
O O5 0.291284 0.764629 0.683094
O O6 0.272053 0.762746 0.464146
O O7 0.205610 0.000000 0.602017
O O8 0.165466 0.500000 0.994081
O O9 0.216978 0.779752 0.922743
O O10 0.000000 0.698676 0.000000
O O11 0.481295 0.500000 0.136509
O O12 0.559408 0.744235 0.201358
O O13 0.341649 0.728070 0.221952
O O14 0.500000 0.740154 0.000000
O O15 0.340455 0.000000 0.796389
O O16 0.690037 0.000000 0.686410
#
# Coordination Sequence:
#
# PCOD8062430 Si02
#       6
#     4   4   4   4   4   4
#     4  10  19  35  61  89 119 155 197 241 285 341
#     4   9  19  36  59  90 122 151 188 241 295 340
#     4  11  22  35  54  84 122 157 190 234 289 343
#     4  11  25  44  62  82 116 155 194 242 294 348
#     4  11  22  38  63  89 117 152 196 244 288 343
#     4  10  21  38  62  89 117 153 197 240 287 344
#
# _framework density 20.436153999999998
#
# number of rings (size 3 to 8) (size 9 to 14) (size 15 to 20)
#    0.000    1.667    1.667    3.000    0.000    8.000 
#    0.000    5.833    0.000    2.000    0.000    0.000 
#    0.000    0.000    0.000    0.000    0.000    0.000 
#
# Total GULP energy -297660.874151 kJ/mol
# GULP energy per Si atom -12402.536423 kJ/mol
# Density = 2.038964 g / cm^3
# Si number density = 20.436154 Si / 1000 Ang^3
#
#
#
# Elastic Constant Matrix: (Units=GPa)
#
#
# Indices 1 2 3 4 5 6 
#
# 1 109.2637 33.7345 47.1386 0.0000 11.2113 0.0000
# 2 33.7345 44.0884 21.2838 0.0000 1.2078 0.0000
# 3 47.1386 21.2838 135.3198 0.0000 7.7355 0.0000
# 4 0.0000 0.0000 0.0000 -20.4029 0.0000 20.2495
# 5 11.2113 1.2078 7.7355 0.0000 29.2021 0.0000
# 6 0.0000 0.0000 0.0000 20.2495 0.0000 14.6545
#
#
#
# Elastic Compliance Matrix: (Units=1/GPa)
#
#
# Indices 1 2 3 4 5 6 
#
# 1 0.013640 -0.008813 -0.003134 0.000000 -0.004042 0.000000
# 2 -0.008813 0.030240 -0.001836 0.000000 0.002619 0.000000
# 3 -0.003134 -0.001836 0.008831 0.000000 -0.001060 0.000000
# 4 0.000000 0.000000 0.000000 -0.020668 0.000000 0.028559
# 5 -0.004042 0.002619 -0.001060 0.000000 0.035968 0.000000
# 6 0.000000 0.000000 0.000000 0.028559 0.000000 0.028776
#
#
# Mechanical properties :
#
#
# Convention : Reuss Voigt Hill
#
# Bulk Modulus (GPa) = 39.77046 54.77617 47.27332
# Shear Modulus (GPa) = 37.66924 17.12507 27.39715
#
# Velocity S-wave (km/s) = 4.29798 2.89793 3.66542
# Velocity P-wave (km/s) = 6.64329 6.16920 6.41063
#
# Compressibility (1/GPa) = 0.02514429
#
# Stress axis : x y z
#
# Youngs Moduli (GPa) = 73.31354 33.06929 113.23612
#
# Poissons Ratio (x) = 0.29144 0.35492
# Poissons Ratio (y) = 0.64611 0.20790
# Poissons Ratio (z) = 0.22979 0.06071
#
# Static dielectric constant tensor:
#      x y z
#    x 3.912680 0.000000 0.115070 
#    y 0.000000 3.476420 0.000000 
#    z 0.115070 0.000000 3.853760 
# 
# 
# High freq. dielectric constant tensor:
#      x y z
#    x 1.807680 0.000000 0.007090 
#    y 0.000000 1.774400 0.000000 
#    z 0.007090 0.000000 1.804560 
# 
# From -- ./inp_files/45018.got.cif
#   From: 2010.06.25/outbox.cif.g09.slc.cpg/sg10_23_cif.got.tgz:45018.got - 2010.06.27 22:07:45.
