data_PCOD8062784
_publ_section_title
;
Structure prediction by ZEFSAII (Michael W. Deem and Ramdas Pophale) SiO2 
 PCOD8062784
Probable space group: P 2/M
;
_chemical_formula_sum "Si O2"
_cell_formula_units_Z 24
_cell_length_a 15.060653
_cell_length_b 12.757229
_cell_length_c 12.032911
_cell_angle_alpha 90.000000
_cell_angle_beta 155.143397
_cell_angle_gamma 90.000000
_cell_volume 971.808169
_symmetry_space_group_name_H-M "P 2/M"
_symmetry_group_IT_number 10
_symmetry_cell_setting 'monoclinic'
loop_
_space_group_symop_operation_xyz
x,y,z
-x,y,-z
-x,-y,-z
x,-y,z
loop_
_atom_site_type_symbol
_atom_site_label
_atom_site_fract_x
_atom_site_fract_y
_atom_site_fract_z
Si Si1 0.397484 0.381403 0.052166
Si Si2 0.565907 0.188230 0.348911
Si Si3 0.993189 0.000000 0.360282
Si Si4 0.032247 0.207845 0.781762
Si Si5 0.449126 0.000000 0.812668
Si Si6 0.159419 0.383473 0.564872
Si Si7 0.772423 0.118219 0.798129
O O1 0.398034 0.500000 0.102894
O O2 0.409695 0.290277 0.161107
O O3 0.611754 0.361622 0.226968
O O4 0.194411 0.368339 0.738224
O O5 0.802252 0.207471 0.575852
O O6 0.583969 0.151145 0.498647
O O7 0.459476 0.100644 0.147818
O O8 0.895387 0.889702 0.213052
O O9 0.201520 0.000000 0.522526
O O10 0.000000 0.000000 0.500000
O O11 0.028690 0.312174 0.701321
O O12 0.212933 0.201578 0.082672
O O13 0.500000 0.000000 0.000000
O O14 0.082910 0.500000 0.450279
O O15 0.728238 0.000000 0.790950
O O16 0.000000 0.119308 0.000000
#
# Coordination Sequence:
#
# PCOD8062784 Si02
#       7
#     4   4   2   4   2   4   4
#     4   8  14  23  35  54  86 119 139 167 222 276
#     4   9  16  24  38  61  88 113 142 180 222 260
#     4  10  20  31  43  65  93 122 148 175 225 282
#     4   9  16  26  42  58  81 115 150 179 210 262
#     4  10  20  27  43  69  95 114 142 194 228 255
#     4   8  14  24  38  57  82 113 144 176 219 264
#     4   9  14  24  36  55  83 114 147 178 214 259
#
# _framework density 24.696231999999998
#
# number of rings (size 3 to 8) (size 9 to 14) (size 15 to 20)
#    0.000    3.167    1.667    1.000    7.000    0.000 
#    0.000    0.833    0.000    5.500    0.000    2.333 
#    0.000    0.000    0.000    3.667    0.000   15.333 
#
# Total GULP energy -297326.815613 kJ/mol
# GULP energy per Si atom -12388.617317 kJ/mol
# Density = 2.464002 g / cm^3
# Si number density = 24.696232 Si / 1000 Ang^3
#
#
#
# Elastic Constant Matrix: (Units=GPa)
#
#
# Indices 1 2 3 4 5 6 
#
# 1 58.6940 42.5082 45.6506 0.0000 -23.6750 0.0000
# 2 42.5082 218.4210 104.3476 0.0000 -45.1869 0.0000
# 3 45.6506 104.3476 186.5333 0.0000 -23.7209 0.0000
# 4 0.0000 0.0000 0.0000 30.2687 0.0000 -24.4922
# 5 -23.6750 -45.1869 -23.7209 0.0000 59.2675 0.0000
# 6 0.0000 0.0000 0.0000 -24.4922 0.0000 11.8009
#
#
#
# Elastic Compliance Matrix: (Units=1/GPa)
#
#
# Indices 1 2 3 4 5 6 
#
# 1 0.024087 -0.001159 -0.004357 0.000000 0.006994 0.000000
# 2 -0.001159 0.007101 -0.003223 0.000000 0.003661 0.000000
# 3 -0.004357 -0.003223 0.008109 0.000000 -0.000952 0.000000
# 4 0.000000 0.000000 0.000000 -0.048629 0.000000 -0.100928
# 5 0.006994 0.003661 -0.000952 0.000000 0.022077 0.000000
# 6 0.000000 0.000000 0.000000 -0.100928 0.000000 -0.124731
#
#
# Mechanical properties :
#
#
# Convention : Reuss Voigt Hill
#
# Bulk Modulus (GPa) = 45.83246 94.29570 70.06408
# Shear Modulus (GPa) = -57.31649 38.34355 -9.48647
#
# Velocity S-wave (km/s) = -4.82276 3.94459 -1.96204
# Velocity P-wave (km/s) = 3.52324 7.68189 4.82692
#
# Compressibility (1/GPa) = 0.02181860
#
# Stress axis : x y z
#
# Youngs Moduli (GPa) = 41.51617 140.82298 123.31700
#
# Poissons Ratio (x) = 0.16326 0.53728
# Poissons Ratio (y) = 0.04813 0.39747
# Poissons Ratio (z) = 0.18088 0.45389
#
# Static dielectric constant tensor:
#      x y z
#    x 4.364860 0.000000 1.203970 
#    y 0.000000 4.573910 0.000000 
#    z 1.203970 0.000000 2.148190 
# 
# 
# High freq. dielectric constant tensor:
#      x y z
#    x 2.026130 0.000000 0.041620 
#    y 0.000000 1.964520 0.000000 
#    z 0.041620 0.000000 1.995980 
# 
# From -- ./inp_files/53743.got.cif
#   From: 2010.06.25/outbox.cif.g09.slc.cpg/sg10_27_cif.got.tgz:53743.got - 2010.06.27 22:07:45.
