data_PCOD8062967
_publ_section_title
;
Structure prediction by ZEFSAII (Michael W. Deem and Ramdas Pophale) SiO2 
 PCOD8062967
Probable space group: P 2/M
;
_chemical_formula_sum "Si O2"
_cell_formula_units_Z 28
_cell_length_a 9.321578
_cell_length_b 8.960491
_cell_length_c 26.016167
_cell_angle_alpha 90.000000
_cell_angle_beta 135.798553
_cell_angle_gamma 90.000000
_cell_volume 1514.995965
_symmetry_space_group_name_H-M "P 2/M"
_symmetry_group_IT_number 10
_symmetry_cell_setting 'monoclinic'
loop_
_space_group_symop_operation_xyz
x,y,z
-x,y,-z
-x,-y,-z
x,-y,z
loop_
_atom_site_type_symbol
_atom_site_label
_atom_site_fract_x
_atom_site_fract_y
_atom_site_fract_z
Si Si1 0.823279 0.322834 0.081276
Si Si2 0.629390 0.175564 0.647552
Si Si3 0.274850 0.325033 0.220942
Si Si4 0.608738 0.325040 0.220773
Si Si5 0.329427 0.331949 0.499909
Si Si6 0.039239 0.824440 0.352274
Si Si7 0.501356 0.322842 0.081103
O O1 0.823079 0.500000 0.080294
O O2 0.698610 0.265848 0.099347
O O3 0.056363 0.264137 0.143682
O O4 0.708489 0.263749 0.000104
O O5 0.668925 0.235486 0.714090
O O6 0.418505 0.248204 0.572585
O O7 0.821783 0.220410 0.661000
O O8 0.596605 0.000000 0.640436
O O9 0.264639 0.500000 0.231561
O O10 0.442026 0.289114 0.220972
O O11 0.661535 0.500000 0.231421
O O12 0.517536 0.264281 0.143414
O O13 0.812564 0.235386 0.285590
O O14 0.500000 0.329824 0.500000
O O15 0.268781 0.500000 0.499891
O O16 0.127819 0.248275 0.427150
O O17 0.035003 0.000000 0.359427
O O18 0.497682 0.500000 0.080063
#
# Coordination Sequence:
#
# PCOD8062967 Si02
#       7
#     4   4   4   4   4   4   4
#     4   8  14  26  46  72 100 130 166 209 255 300
#     4  10  20  34  53  76 102 133 169 208 251 300
#     4  10  20  32  48  73 104 137 172 209 251 300
#     4  10  20  32  48  73 104 137 172 209 251 300
#     4   9  17  31  54  81 104 127 160 206 256 301
#     4  10  20  34  53  76 102 133 169 208 251 300
#     4   8  14  26  46  72 100 130 166 209 255 300
#
# _framework density 18.481897
#
# number of rings (size 3 to 8) (size 9 to 14) (size 15 to 20)
#    0.000    2.714    0.000    3.000    0.000    5.714 
#    0.000    3.571    0.000    5.143    0.000    6.000 
#    0.000    0.000    0.000    0.000    0.000    0.000 
#
# Total GULP energy -347143.683192 kJ/mol
# GULP energy per Si atom -12397.988685 kJ/mol
# Density = 1.843983 g / cm^3
# Si number density = 18.481897 Si / 1000 Ang^3
#
#
#
# Elastic Constant Matrix: (Units=GPa)
#
#
# Indices 1 2 3 4 5 6 
#
# 1 84.7872 41.2016 76.3388 0.0000 0.5811 0.0000
# 2 41.2016 61.9814 56.1720 0.0000 -1.4155 0.0000
# 3 76.3388 56.1720 183.1738 0.0000 -9.3198 0.0000
# 4 0.0000 0.0000 0.0000 -2.8171 0.0000 1.7590
# 5 0.5811 -1.4155 -9.3198 0.0000 -1.4924 0.0000
# 6 0.0000 0.0000 0.0000 1.7590 0.0000 19.0662
#
#
#
# Elastic Compliance Matrix: (Units=1/GPa)
#
#
# Indices 1 2 3 4 5 6 
#
# 1 0.018718 -0.008607 -0.003320 0.000000 0.036186 0.000000
# 2 -0.008607 0.025785 -0.004352 0.000000 -0.000629 0.000000
# 3 -0.003320 -0.004352 0.006315 0.000000 -0.036603 0.000000
# 4 0.000000 0.000000 0.000000 -0.335640 0.000000 0.030965
# 5 0.036186 -0.000629 -0.036603 0.000000 -0.426784 0.000000
# 6 0.000000 0.000000 0.000000 0.030965 0.000000 0.049592
#
#
# Mechanical properties :
#
#
# Convention : Reuss Voigt Hill
#
# Bulk Modulus (GPa) = 54.76622 75.26304 65.01463
# Shear Modulus (GPa) = -8.02097 13.36665 2.67284
#
# Velocity S-wave (km/s) = -2.08550 2.69221 1.20388
# Velocity P-wave (km/s) = 4.88852 7.10457 6.09806
#
# Compressibility (1/GPa) = 0.01825943
#
# Stress axis : x y z
#
# Youngs Moduli (GPa) = 53.42340 38.78149 158.34367
#
# Poissons Ratio (x) = 0.33381 0.52575
# Poissons Ratio (y) = 0.45984 0.68914
# Poissons Ratio (z) = 0.17738 0.16878
#
# Static dielectric constant tensor:
#      x y z
#    x 3.276920 0.000000 -0.043350 
#    y 0.000000 3.124480 0.000000 
#    z -0.043350 0.000000 3.825310 
# 
# 
# High freq. dielectric constant tensor:
#      x y z
#    x 1.695680 0.000000 -0.003280 
#    y 0.000000 1.687020 0.000000 
#    z -0.003280 0.000000 1.737330 
# 
# From -- ./inp_files/37013.got.cif
#   From: 2010.06.25/outbox.cif.g09.slc.cpg/sg10_19_cif.got.tgz:37013.got - 2010.06.27 22:07:45.
