data_PCOD8062265
_publ_section_title
;
Structure prediction by ZEFSAII (Michael W. Deem and Ramdas Pophale) SiO2 
 PCOD8062265
Probable space group: P 2/M
;
_chemical_formula_sum "Si O2"
_cell_formula_units_Z 28
_cell_length_a 9.362184
_cell_length_b 8.689887
_cell_length_c 27.226366
_cell_angle_alpha 90.000000
_cell_angle_beta 141.090169
_cell_angle_gamma 90.000000
_cell_volume 1391.257152
_symmetry_space_group_name_H-M "P 2/M"
_symmetry_group_IT_number 10
_symmetry_cell_setting 'monoclinic'
loop_
_space_group_symop_operation_xyz
x,y,z
-x,y,-z
-x,-y,-z
x,-y,z
loop_
_atom_site_type_symbol
_atom_site_label
_atom_site_fract_x
_atom_site_fract_y
_atom_site_fract_z
Si Si1 0.245909 0.677563 0.065548
Si Si2 0.545126 0.683010 0.232587
Si Si3 0.172767 0.317301 0.209095
Si Si4 0.279803 0.677702 0.963657
Si Si5 0.056164 0.681452 0.370180
Si Si6 0.691332 0.818692 0.655276
Si Si7 0.204754 0.319166 0.519198
O O1 0.213803 0.500000 0.073156
O O2 0.418916 0.752493 0.150772
O O3 0.337490 0.697376 0.035895
O O4 0.000000 0.759606 0.000000
O O5 0.559821 0.500000 0.234341
O O6 0.404453 0.733656 0.243273
O O7 0.800117 0.749752 0.300889
O O8 0.165032 0.500000 0.212863
O O9 0.159063 0.242386 0.259159
O O10 0.959524 0.253643 0.119603
O O11 0.272742 0.500000 0.946312
O O12 0.500000 0.761816 0.000000
O O13 0.057518 0.500000 0.361750
O O14 0.210893 0.755575 0.369672
O O15 0.155445 0.724073 0.449768
O O16 0.433643 0.766426 0.595776
O O17 0.704328 0.000000 0.656984
O O18 0.244376 0.500000 0.536794
O O19 0.000000 0.264142 0.500000
#
# Coordination Sequence:
#
# PCOD8062265 Si02
#       7
#     4   4   4   4   4   4   4
#     4   9  14  24  42  74 116 146 173 224 287 338
#     4   9  17  30  53  84 115 145 183 233 288 340
#     4  10  19  35  57  83 115 150 192 239 287 338
#     4   9  17  26  44  80 117 146 180 230 290 344
#     4  10  21  37  60  88 114 146 185 231 284 335
#     4  12  26  40  56  82 118 156 193 230 276 332
#     4  10  21  41  68  94 117 142 181 229 281 340
#
# _framework density 20.125684
#
# number of rings (size 3 to 8) (size 9 to 14) (size 15 to 20)
#    0.000    2.143    1.429    2.571    2.000    4.857 
#    0.000    2.143    0.000    0.429    0.000    1.000 
#    0.000    0.000    0.000    0.000    0.000    0.000 
#
# Total GULP energy -347075.717112 kJ/mol
# GULP energy per Si atom -12395.561325 kJ/mol
# Density = 2.007988 g / cm^3
# Si number density = 20.125684 Si / 1000 Ang^3
#
#
#
# Elastic Constant Matrix: (Units=GPa)
#
#
# Indices 1 2 3 4 5 6 
#
# 1 124.8092 26.3871 38.8773 0.0000 4.9560 0.0000
# 2 26.3871 33.9809 25.7051 0.0000 -5.2488 0.0000
# 3 38.8773 25.7051 102.7484 0.0000 -7.2350 0.0000
# 4 0.0000 0.0000 0.0000 4.1257 0.0000 -0.5116
# 5 4.9560 -5.2488 -7.2350 0.0000 38.8361 0.0000
# 6 0.0000 0.0000 0.0000 -0.5116 0.0000 4.1877
#
#
#
# Elastic Compliance Matrix: (Units=1/GPa)
#
#
# Indices 1 2 3 4 5 6 
#
# 1 0.010256 -0.006533 -0.002433 0.000000 -0.002645 0.000000
# 2 -0.006533 0.040869 -0.007402 0.000000 0.004978 0.000000
# 3 -0.002433 -0.007402 0.012622 0.000000 0.001661 0.000000
# 4 0.000000 0.000000 0.000000 0.246108 0.000000 0.030065
# 5 -0.002645 0.004978 0.001661 0.000000 0.027069 0.000000
# 6 0.000000 0.000000 0.000000 0.030065 0.000000 0.242467
#
#
# Mechanical properties :
#
#
# Convention : Reuss Voigt Hill
#
# Bulk Modulus (GPa) = 32.24498 49.27527 40.76012
# Shear Modulus (GPa) = 8.03259 20.80117 14.41688
#
# Velocity S-wave (km/s) = 1.99997 3.21840 2.67936
# Velocity P-wave (km/s) = 4.62491 6.19255 5.46523
#
# Compressibility (1/GPa) = 0.03101258
#
# Stress axis : x y z
#
# Youngs Moduli (GPa) = 97.50300 24.46816 79.22807
#
# Poissons Ratio (x) = 0.15984 0.19273
# Poissons Ratio (y) = 0.63694 0.58647
# Poissons Ratio (z) = 0.23719 0.18112
#
# Static dielectric constant tensor:
#      x y z
#    x 3.828270 0.000000 0.089390 
#    y 0.000000 3.020180 0.000000 
#    z 0.089390 0.000000 4.018360 
# 
# 
# High freq. dielectric constant tensor:
#      x y z
#    x 1.801990 0.000000 -0.000840 
#    y 0.000000 1.713370 0.000000 
#    z -0.000840 0.000000 1.805440 
# 
# From -- ./inp_files/92055.got.cif
#   From: 2010.06.25/outbox.cif.g09.slc.cpg/sg10_47_cif.got.tgz:92055.got - 2010.06.27 22:07:45.
