data_PCOD8062284
_publ_section_title
;
Structure prediction by ZEFSAII (Michael W. Deem and Ramdas Pophale) SiO2 
 PCOD8062284
Probable space group: P 2/M
;
_chemical_formula_sum "Si O2"
_cell_formula_units_Z 20
_cell_length_a 20.267897
_cell_length_b 9.194762
_cell_length_c 13.850103
_cell_angle_alpha 90.000000
_cell_angle_beta 155.824699
_cell_angle_gamma 90.000000
_cell_volume 1057.030925
_symmetry_space_group_name_H-M "P 2/M"
_symmetry_group_IT_number 10
_symmetry_cell_setting 'monoclinic'
loop_
_space_group_symop_operation_xyz
x,y,z
-x,y,-z
-x,-y,-z
x,-y,z
loop_
_atom_site_type_symbol
_atom_site_label
_atom_site_fract_x
_atom_site_fract_y
_atom_site_fract_z
Si Si1 0.285504 0.672726 0.472176
Si Si2 0.667067 0.672856 0.679396
Si Si3 0.886988 0.835707 0.440556
Si Si4 0.429333 0.336303 0.011711
Si Si5 0.005542 0.327575 0.785476
O O1 0.282624 0.500000 0.464992
O O2 0.303188 0.737161 0.388052
O O3 0.119730 0.727183 0.299921
O O4 0.436506 0.726764 0.736679
O O5 0.500000 0.735357 0.500000
O O6 0.658206 0.500000 0.661627
O O7 0.815267 0.721348 0.944772
O O8 0.719920 0.770036 0.181909
O O9 0.000000 0.830762 0.500000
O O10 0.965680 0.743431 0.630611
O O11 0.859545 0.000000 0.440332
O O12 0.377213 0.500000 0.972115
O O13 0.500000 0.338411 0.000000
O O14 0.992267 0.500000 0.754507
#
# Coordination Sequence:
#
# PCOD8062284 Si02
#       5
#     4   4   4   4   4
#     4   9  17  31  52  82 116 143 172 222 277 326
#     4   9  18  30  50  84 115 141 177 224 278 328
#     4  11  25  40  54  78 115 152 187 228 279 334
#     4  10  19  35  59  87 113 139 184 233 276 330
#     4  10  19  35  58  81 109 145 185 228 275 325
#
# _framework density 18.920921
#
# number of rings (size 3 to 8) (size 9 to 14) (size 15 to 20)
#    0.000    2.200    2.000    1.200    2.800    4.400 
#    0.000    0.000    0.000    4.200    0.000    0.000 
#    0.000    0.000    0.000    0.000    0.000    0.000 
#
# Total GULP energy -247999.052578 kJ/mol
# GULP energy per Si atom -12399.952629 kJ/mol
# Density = 1.887786 g / cm^3
# Si number density = 18.920921 Si / 1000 Ang^3
#
#
#
# Elastic Constant Matrix: (Units=GPa)
#
#
# Indices 1 2 3 4 5 6 
#
# 1 100.5553 28.3716 63.4682 0.0000 3.3162 0.0000
# 2 28.3716 45.3457 42.0046 0.0000 3.4209 0.0000
# 3 63.4682 42.0046 175.7635 0.0000 5.7046 0.0000
# 4 0.0000 0.0000 0.0000 17.0042 0.0000 1.9848
# 5 3.3162 3.4209 5.7046 0.0000 28.7157 0.0000
# 6 0.0000 0.0000 0.0000 1.9848 0.0000 13.8447
#
#
#
# Elastic Compliance Matrix: (Units=1/GPa)
#
#
# Indices 1 2 3 4 5 6 
#
# 1 0.013757 -0.005131 -0.003734 0.000000 -0.000236 0.000000
# 2 -0.005131 0.030356 -0.005338 0.000000 -0.001963 0.000000
# 3 -0.003734 -0.005338 0.008333 0.000000 -0.000588 0.000000
# 4 0.000000 0.000000 0.000000 0.059810 0.000000 -0.008575
# 5 -0.000236 -0.001963 -0.000588 0.000000 0.035202 0.000000
# 6 0.000000 0.000000 0.000000 -0.008575 0.000000 0.073459
#
#
# Mechanical properties :
#
#
# Convention : Reuss Voigt Hill
#
# Bulk Modulus (GPa) = 41.59750 65.48369 53.54060
# Shear Modulus (GPa) = 19.42991 24.43426 21.93208
#
# Velocity S-wave (km/s) = 3.20801 3.59749 3.40831
# Velocity P-wave (km/s) = 5.97950 7.20695 6.62173
#
# Compressibility (1/GPa) = 0.02403990
#
# Stress axis : x y z
#
# Youngs Moduli (GPa) = 72.69081 32.94250 120.01141
#
# Poissons Ratio (x) = 0.16902 0.44810
# Poissons Ratio (y) = 0.37297 0.64063
# Poissons Ratio (z) = 0.27141 0.17585
#
# Static dielectric constant tensor:
#      x y z
#    x 3.628390 0.000000 0.018580 
#    y 0.000000 3.120440 0.000000 
#    z 0.018580 0.000000 3.655230 
# 
# 
# High freq. dielectric constant tensor:
#      x y z
#    x 1.745230 0.000000 -0.001700 
#    y 0.000000 1.680380 0.000000 
#    z -0.001700 0.000000 1.753640 
# 
# From -- ./inp_files/22131.got.cif
#   From: 2010.06.25/outbox.cif.g09.slc.cpg/sg10_12_cif.got.tgz:22131.got - 2010.06.27 22:07:45.
