data_PCOD8062324
_publ_section_title
;
Structure prediction by ZEFSAII (Michael W. Deem and Ramdas Pophale) SiO2 
 PCOD8062324
Probable space group: P 2/M
;
_chemical_formula_sum "Si O2"
_cell_formula_units_Z 32
_cell_length_a 11.636378
_cell_length_b 13.875095
_cell_length_c 18.268048
_cell_angle_alpha 90.000000
_cell_angle_beta 146.085067
_cell_angle_gamma 90.000000
_cell_volume 1645.697835
_symmetry_space_group_name_H-M "P 2/M"
_symmetry_group_IT_number 10
_symmetry_cell_setting 'monoclinic'
loop_
_space_group_symop_operation_xyz
x,y,z
-x,y,-z
-x,-y,-z
x,-y,z
loop_
_atom_site_type_symbol
_atom_site_label
_atom_site_fract_x
_atom_site_fract_y
_atom_site_fract_z
Si Si1 0.869661 0.610488 0.000968
Si Si2 0.397266 0.390390 0.743686
Si Si3 0.759132 0.264173 0.219337
Si Si4 0.493090 0.109330 0.685521
Si Si5 0.107269 0.231051 0.866578
Si Si6 0.292270 0.111173 0.347106
Si Si7 0.858545 0.246283 0.488106
Si Si8 0.457107 0.887207 0.121549
O O1 0.915241 0.500000 0.048547
O O2 0.931917 0.678768 0.101184
O O3 0.635603 0.622793 0.851010
O O4 0.000000 0.642128 0.000000
O O5 0.324769 0.500000 0.703660
O O6 0.370841 0.350081 0.812403
O O7 0.261043 0.335990 0.611321
O O8 0.761474 0.270281 0.133111
O O9 0.657134 0.163664 0.192255
O O10 0.994956 0.278820 0.368910
O O11 0.674404 0.125236 0.722622
O O12 0.296077 0.170777 0.557954
O O13 0.563856 0.139734 0.803889
O O14 0.417559 0.000000 0.644197
O O15 0.893337 0.181859 0.728183
O O16 0.243353 0.148090 0.975139
O O17 0.500000 0.140732 0.500000
O O18 0.235649 0.000000 0.335298
O O19 0.000000 0.196837 0.500000
O O20 0.482645 0.000000 0.120784
#
# Coordination Sequence:
#
# PCOD8062324 Si02
#       8
#     4   4   4   4   4   4   4   4
#     4  10  23  42  65  92 118 153 198 247 305 360
#     4  10  21  40  65  90 119 154 195 248 303 355
#     4  11  23  38  55  91 123 157 203 241 296 358
#     4  10  20  36  59  86 117 156 205 248 291 349
#     4  12  24  38  63  87 119 162 200 248 300 355
#     4  10  23  41  60  87 123 162 204 246 297 356
#     4  10  19  35  58  86 122 152 196 241 294 357
#     4  11  23  38  58  88 124 160 201 246 294 350
#
# _framework density 19.44464
#
# number of rings (size 3 to 8) (size 9 to 14) (size 15 to 20)
#    0.000    1.500    3.750    1.500    3.500    5.000 
#    0.000    3.125    0.000    0.375    0.000    0.000 
#    0.000    0.000    0.000    0.000    0.000    0.000 
#
# Total GULP energy -396799.465138 kJ/mol
# GULP energy per Si atom -12399.983286 kJ/mol
# Density = 1.940038 g / cm^3
# Si number density = 19.444640 Si / 1000 Ang^3
#
#
#
# Elastic Constant Matrix: (Units=GPa)
#
#
# Indices 1 2 3 4 5 6 
#
# 1 118.8232 46.6900 37.3669 0.0000 -5.6501 0.0000
# 2 46.6900 99.5409 42.2523 0.0000 4.4842 0.0000
# 3 37.3669 42.2523 90.7850 0.0000 3.4412 0.0000
# 4 0.0000 0.0000 0.0000 20.4440 0.0000 2.0845
# 5 -5.6501 4.4842 3.4412 0.0000 30.8543 0.0000
# 6 0.0000 0.0000 0.0000 2.0845 0.0000 24.4698
#
#
#
# Elastic Compliance Matrix: (Units=1/GPa)
#
#
# Indices 1 2 3 4 5 6 
#
# 1 0.011045 -0.004157 -0.002722 0.000000 0.002930 0.000000
# 2 -0.004157 0.014127 -0.004777 0.000000 -0.002282 0.000000
# 3 -0.002722 -0.004777 0.014412 0.000000 -0.001412 0.000000
# 4 0.000000 0.000000 0.000000 0.049343 0.000000 -0.004203
# 5 0.002930 -0.002282 -0.001412 0.000000 0.033436 0.000000
# 6 0.000000 0.000000 0.000000 -0.004203 0.000000 0.041225
#
#
# Mechanical properties :
#
#
# Convention : Reuss Voigt Hill
#
# Bulk Modulus (GPa) = 61.46031 62.41859 61.93945
# Shear Modulus (GPa) = 25.99785 27.34296 26.67040
#
# Velocity S-wave (km/s) = 3.66049 3.75399 3.70754
# Velocity P-wave (km/s) = 7.03861 7.13865 7.08881
#
# Compressibility (1/GPa) = 0.01627066
#
# Stress axis : x y z
#
# Youngs Moduli (GPa) = 90.54070 70.78880 69.38475
#
# Poissons Ratio (x) = 0.29427 0.18889
# Poissons Ratio (y) = 0.37638 0.33146
# Poissons Ratio (z) = 0.24648 0.33817
#
# Static dielectric constant tensor:
#      x y z
#    x 3.670220 0.000000 0.010020 
#    y 0.000000 3.523840 0.000000 
#    z 0.010020 0.000000 3.569390 
# 
# 
# High freq. dielectric constant tensor:
#      x y z
#    x 1.760430 0.000000 0.003970 
#    y 0.000000 1.750010 0.000000 
#    z 0.003970 0.000000 1.759810 
# 
# From -- ./inp_files/77053.got.cif
#   From: 2010.06.25/outbox.cif.g09.slc.cpg/sg10_39_cif.got.tgz:77053.got - 2010.06.27 22:07:45.
