data_PCOD8062717
_publ_section_title
;
Structure prediction by ZEFSAII (Michael W. Deem and Ramdas Pophale) SiO2 
 PCOD8062717
Probable space group: P 2/M
;
_chemical_formula_sum "Si O2"
_cell_formula_units_Z 24
_cell_length_a 8.767972
_cell_length_b 15.576661
_cell_length_c 14.166825
_cell_angle_alpha 90.000000
_cell_angle_beta 36.298362
_cell_angle_gamma 90.000000
_cell_volume 1145.408822
_symmetry_space_group_name_H-M "P 2/M"
_symmetry_group_IT_number 10
_symmetry_cell_setting 'monoclinic'
loop_
_space_group_symop_operation_xyz
x,y,z
-x,y,-z
-x,-y,-z
x,-y,z
loop_
_atom_site_type_symbol
_atom_site_label
_atom_site_fract_x
_atom_site_fract_y
_atom_site_fract_z
Si Si1 0.965230 0.733923 0.907856
Si Si2 0.637930 0.400491 0.330811
Si Si3 0.551080 0.181462 0.837917
Si Si4 0.757487 0.711036 0.570204
Si Si5 0.833088 0.000000 0.448926
Si Si6 0.588674 0.000000 0.761624
Si Si7 0.064945 0.174750 0.683923
O O1 0.121368 0.802397 0.765293
O O2 0.075239 0.640778 0.821428
O O3 0.664828 0.746711 0.031937
O O4 0.000000 0.755427 0.000000
O O5 0.500000 0.386071 0.500000
O O6 0.670534 0.500000 0.292114
O O7 0.469774 0.357784 0.330735
O O8 0.690547 0.209538 0.671716
O O9 0.754652 0.174209 0.821857
O O10 0.440610 0.085057 0.873583
O O11 0.000000 0.663414 0.500000
O O12 0.818740 0.749732 0.437688
O O13 0.606350 0.000000 0.639411
O O14 0.116965 0.000000 0.350828
O O15 0.799502 0.915764 0.401650
#
# Coordination Sequence:
#
# PCOD8062717 Si02
#       7
#     4   4   4   4   2   2   4
#     4  12  24  39  60  85 124 164 199 238 302 364
#     4  11  24  44  68  88 113 152 199 248 303 374
#     4  10  20  36  60  93 122 162 200 250 293 347
#     4  10  19  37  66  92 118 153 196 248 300 354
#     4   9  16  31  59  92 118 162 211 256 285 332
#     4   9  16  31  59  90 123 156 212 250 290 343
#     4  10  20  36  62  89 123 162 210 244 287 344
#
# _framework density 20.953218
#
# number of rings (size 3 to 8) (size 9 to 14) (size 15 to 20)
#    0.000    1.667    5.000    0.500    0.000    1.333 
#    0.000    4.167    0.000    4.000    0.000    0.000 
#    0.000    0.000    0.000    0.000    0.000    0.000 
#
# Total GULP energy -297434.459634 kJ/mol
# GULP energy per Si atom -12393.102485 kJ/mol
# Density = 2.090553 g / cm^3
# Si number density = 20.953218 Si / 1000 Ang^3
#
#
#
# Elastic Constant Matrix: (Units=GPa)
#
#
# Indices 1 2 3 4 5 6 
#
# 1 60.7569 52.9484 28.9715 0.0000 20.2920 0.0000
# 2 52.9484 142.5361 44.4844 0.0000 -1.9061 0.0000
# 3 28.9715 44.4844 74.6478 0.0000 4.3552 0.0000
# 4 0.0000 0.0000 0.0000 31.5990 0.0000 -0.0867
# 5 20.2920 -1.9061 4.3552 0.0000 46.5835 0.0000
# 6 0.0000 0.0000 0.0000 -0.0867 0.0000 24.3507
#
#
#
# Elastic Compliance Matrix: (Units=1/GPa)
#
#
# Indices 1 2 3 4 5 6 
#
# 1 0.033463 -0.010853 -0.005674 0.000000 -0.014490 0.000000
# 2 -0.010853 0.012172 -0.003364 0.000000 0.005540 0.000000
# 3 -0.005674 -0.003364 0.017563 0.000000 0.000692 0.000000
# 4 0.000000 0.000000 0.000000 0.031647 0.000000 0.000113
# 5 -0.014490 0.005540 0.000692 0.000000 0.027941 0.000000
# 6 0.000000 0.000000 0.000000 0.000113 0.000000 0.041067
#
#
# Mechanical properties :
#
#
# Convention : Reuss Voigt Hill
#
# Bulk Modulus (GPa) = 42.70989 58.97215 50.84102
# Shear Modulus (GPa) = 23.64740 30.60906 27.12823
#
# Velocity S-wave (km/s) = 3.36308 3.82623 3.60210
# Velocity P-wave (km/s) = 5.95887 6.90838 6.45112
#
# Compressibility (1/GPa) = 0.02341378
#
# Stress axis : x y z
#
# Youngs Moduli (GPa) = 29.88403 82.15850 56.93844
#
# Poissons Ratio (x) = 0.89171 0.32306
# Poissons Ratio (y) = 0.32435 0.19156
# Poissons Ratio (z) = 0.16956 0.27640
#
# Static dielectric constant tensor:
#      x y z
#    x 3.708550 0.000000 0.097730 
#    y 0.000000 3.646220 0.000000 
#    z 0.097730 0.000000 3.858460 
# 
# 
# High freq. dielectric constant tensor:
#      x y z
#    x 1.807250 0.000000 0.016790 
#    y 0.000000 1.798460 0.000000 
#    z 0.016790 0.000000 1.825460 
# 
# From -- ./inp_files/29369.got.cif
#   From: 2010.06.25/outbox.cif.g09.slc.cpg/sg10_15_cif.got.tgz:29369.got - 2010.06.27 22:07:45.
