data_PCOD8062246
_publ_section_title
;
Structure prediction by ZEFSAII (Michael W. Deem and Ramdas Pophale) SiO2 
 PCOD8062246
Probable space group: P 2/M
;
_chemical_formula_sum "Si O2"
_cell_formula_units_Z 28
_cell_length_a 14.702019
_cell_length_b 9.068075
_cell_length_c 21.706671
_cell_angle_alpha 90.000000
_cell_angle_beta 30.560593
_cell_angle_gamma 90.000000
_cell_volume 1471.407463
_symmetry_space_group_name_H-M "P 2/M"
_symmetry_group_IT_number 10
_symmetry_cell_setting 'monoclinic'
loop_
_space_group_symop_operation_xyz
x,y,z
-x,y,-z
-x,-y,-z
x,-y,z
loop_
_atom_site_type_symbol
_atom_site_label
_atom_site_fract_x
_atom_site_fract_y
_atom_site_fract_z
Si Si1 0.458849 0.330149 0.377776
Si Si2 0.839843 0.670483 0.352501
Si Si3 0.760533 0.174805 0.278599
Si Si4 0.543124 0.171428 0.877636
Si Si5 0.063146 0.671217 0.031733
Si Si6 0.474136 0.671541 0.797650
Si Si7 0.212799 0.827312 0.152308
O O1 0.525310 0.500000 0.343197
O O2 0.267490 0.308201 0.521320
O O3 0.607418 0.229163 0.322318
O O4 0.438055 0.282335 0.318721
O O5 0.850877 0.500000 0.326975
O O6 0.730363 0.757691 0.363937
O O7 0.037185 0.732149 0.245776
O O8 0.954107 0.228377 0.142702
O O9 0.756182 0.000000 0.285295
O O10 0.578386 0.249931 0.792187
O O11 0.707882 0.207668 0.826575
O O12 0.532099 0.000000 0.871237
O O13 0.356991 0.223361 0.017173
O O14 0.032868 0.500000 0.065757
O O15 0.267742 0.719554 0.918270
O O16 0.000000 0.706167 0.000000
O O17 0.494666 0.500000 0.797089
O O18 0.167665 0.000000 0.171881
#
# Coordination Sequence:
#
# PCOD8062246 Si02
#       7
#     4   4   4   4   4   4   4
#     4  10  22  41  57  75 109 151 191 230 272 324
#     4  11  23  38  59  81 106 145 191 233 276 326
#     4  12  24  36  55  83 114 146 185 231 279 331
#     4   9  19  36  59  85 113 145 175 217 279 337
#     4  10  19  35  57  79 110 147 183 224 271 322
#     4  10  20  35  57  82 109 145 185 227 273 321
#     4   9  19  38  60  83 113 143 177 224 277 330
#
# _framework density 19.029398
#
# number of rings (size 3 to 8) (size 9 to 14) (size 15 to 20)
#    0.000    1.857    1.429    3.857    0.000    7.714 
#    0.000    2.143    0.000    4.286    0.000    0.000 
#    0.000    0.000    0.000    0.000    0.000    0.000 
#
# Total GULP energy -347295.373463 kJ/mol
# GULP energy per Si atom -12403.406195 kJ/mol
# Density = 1.898609 g / cm^3
# Si number density = 19.029398 Si / 1000 Ang^3
#
#
#
# Elastic Constant Matrix: (Units=GPa)
#
#
# Indices 1 2 3 4 5 6 
#
# 1 105.6572 47.0986 33.3178 0.0000 26.2377 0.0000
# 2 47.0986 89.8528 39.3262 0.0000 11.2911 0.0000
# 3 33.3178 39.3262 75.7554 0.0000 19.2913 0.0000
# 4 0.0000 0.0000 0.0000 2.1967 0.0000 3.0464
# 5 26.2377 11.2911 19.2913 0.0000 29.0563 0.0000
# 6 0.0000 0.0000 0.0000 3.0464 0.0000 36.3747
#
#
#
# Elastic Compliance Matrix: (Units=1/GPa)
#
#
# Indices 1 2 3 4 5 6 
#
# 1 0.015165 -0.006310 -0.000639 0.000000 -0.010818 0.000000
# 2 -0.006310 0.017041 -0.007023 0.000000 0.003739 0.000000
# 3 -0.000639 -0.007023 0.019599 0.000000 -0.009706 0.000000
# 4 0.000000 0.000000 0.000000 0.515060 0.000000 -0.043137
# 5 -0.010818 0.003739 -0.009706 0.000000 0.049175 0.000000
# 6 0.000000 0.000000 0.000000 -0.043137 0.000000 0.031104
#
#
# Mechanical properties :
#
#
# Convention : Reuss Voigt Hill
#
# Bulk Modulus (GPa) = 41.91106 56.75006 49.33056
# Shear Modulus (GPa) = 7.32018 23.62706 15.47362
#
# Velocity S-wave (km/s) = 1.96345 3.52747 2.85466
# Velocity P-wave (km/s) = 5.21655 6.81746 6.07001
#
# Compressibility (1/GPa) = 0.02386005
#
# Stress axis : x y z
#
# Youngs Moduli (GPa) = 65.93970 58.68221 51.02277
#
# Poissons Ratio (x) = 0.37029 0.03262
# Poissons Ratio (y) = 0.41609 0.35834
# Poissons Ratio (z) = 0.04216 0.41214
#
# Static dielectric constant tensor:
#      x y z
#    x 3.550080 0.000000 0.202100 
#    y 0.000000 3.359530 0.000000 
#    z 0.202100 0.000000 3.542030 
# 
# 
# High freq. dielectric constant tensor:
#      x y z
#    x 1.743100 0.000000 0.011600 
#    y 0.000000 1.733130 0.000000 
#    z 0.011600 0.000000 1.735510 
# 
# From -- ./inp_files/49075.got.cif
#   From: 2010.06.25/outbox.cif.g09.slc.cpg/sg10_25_cif.got.tgz:49075.got - 2010.06.27 22:07:45.
