data_PCOD8062723
_publ_section_title
;
Structure prediction by ZEFSAII (Michael W. Deem and Ramdas Pophale) SiO2 
 PCOD8062723
Probable space group: P 2/M
;
_chemical_formula_sum "Si O2"
_cell_formula_units_Z 32
_cell_length_a 20.293373
_cell_length_b 15.685163
_cell_length_c 16.941620
_cell_angle_alpha 90.000000
_cell_angle_beta 20.632892
_cell_angle_gamma 90.000000
_cell_volume 1900.238780
_symmetry_space_group_name_H-M "P 2/M"
_symmetry_group_IT_number 10
_symmetry_cell_setting 'monoclinic'
loop_
_space_group_symop_operation_xyz
x,y,z
-x,y,-z
-x,-y,-z
x,-y,z
loop_
_atom_site_type_symbol
_atom_site_label
_atom_site_fract_x
_atom_site_fract_y
_atom_site_fract_z
Si Si1 0.613773 0.206762 0.991920
Si Si2 0.882987 0.599680 0.953960
Si Si3 0.071428 0.092498 0.332576
Si Si4 0.326197 0.647783 0.956682
Si Si5 0.024430 0.594253 0.564021
Si Si6 0.781070 0.765195 0.635186
Si Si7 0.719291 0.401814 0.464810
Si Si8 0.684729 0.399985 0.331058
O O1 0.665110 0.262476 0.010025
O O2 0.391610 0.204863 0.226274
O O3 0.706975 0.116361 0.911164
O O4 0.719496 0.239856 0.795361
O O5 0.843645 0.500000 0.978941
O O6 0.095260 0.629757 0.696420
O O7 0.743314 0.655125 0.056156
O O8 0.852837 0.617707 0.081130
O O9 0.000000 0.080369 0.500000
O O10 0.946412 0.166863 0.432385
O O11 0.053077 0.000000 0.309562
O O12 0.535671 0.610464 0.723360
O O13 0.180140 0.588334 0.166957
O O14 0.117901 0.500000 0.470823
O O15 0.000000 0.615850 0.500000
O O16 0.148956 0.669261 0.464408
O O17 0.756613 0.500000 0.406993
O O18 0.712368 0.356785 0.386095
O O19 0.500000 0.359119 0.500000
O O20 0.653201 0.500000 0.379116
#
# Coordination Sequence:
#
# PCOD8062723 Si02
#       8
#     4   4   4   4   4   4   4   4
#     4  10  21  33  53  69  98 127 159 205 255 301
#     4  10  20  32  47  65  88 121 163 210 255 296
#     4   9  17  33  57  79  96 116 151 202 258 312
#     4  12  21  33  45  66  93 126 164 214 247 283
#     4  11  21  35  50  62  89 135 180 218 252 283
#     4  10  19  38  52  69  94 129 169 207 254 300
#     4  10  20  31  45  66  89 119 164 209 253 298
#     4   9  15  29  48  64  87 117 150 201 259 304
#
# _framework density 16.839988999999999
#
# number of rings (size 3 to 8) (size 9 to 14) (size 15 to 20)
#    0.000    1.875    3.750    1.875    1.750    2.000 
#    0.000    5.000    0.000    0.000    0.000    0.000 
#    0.000    0.000    0.000    2.250    0.000   10.750 
#
# Total GULP energy -396419.622434 kJ/mol
# GULP energy per Si atom -12388.113201 kJ/mol
# Density = 1.680166 g / cm^3
# Si number density = 16.839989 Si / 1000 Ang^3
#
#
#
# Elastic Constant Matrix: (Units=GPa)
#
#
# Indices 1 2 3 4 5 6 
#
# 1 48.4577 28.5532 22.7290 0.0000 -4.3973 0.0000
# 2 28.5532 91.3602 31.7978 0.0000 -21.2452 0.0000
# 3 22.7290 31.7978 103.6004 0.0000 -21.1063 0.0000
# 4 0.0000 0.0000 0.0000 -3.7968 0.0000 -11.6703
# 5 -4.3973 -21.2452 -21.1063 0.0000 29.3495 0.0000
# 6 0.0000 0.0000 0.0000 -11.6703 0.0000 2.8112
#
#
#
# Elastic Compliance Matrix: (Units=1/GPa)
#
#
# Indices 1 2 3 4 5 6 
#
# 1 0.027027 -0.008051 -0.004477 0.000000 -0.004998 0.000000
# 2 -0.008051 0.016117 -0.001229 0.000000 0.009576 0.000000
# 3 -0.004477 -0.001229 0.012530 0.000000 0.007450 0.000000
# 4 0.000000 0.000000 0.000000 -0.019141 0.000000 -0.079460
# 5 -0.004998 0.009576 0.007450 0.000000 0.045612 0.000000
# 6 0.000000 0.000000 0.000000 -0.079460 0.000000 0.025851
#
#
# Mechanical properties :
#
#
# Convention : Reuss Voigt Hill
#
# Bulk Modulus (GPa) = 35.51242 45.50870 40.51056
# Shear Modulus (GPa) = 34.50752 16.36201 25.43477
#
# Velocity S-wave (km/s) = 4.53166 3.12046 3.89058
# Velocity P-wave (km/s) = 6.96528 6.32976 6.65511
#
# Compressibility (1/GPa) = 0.02815916
#
# Stress axis : x y z
#
# Youngs Moduli (GPa) = 37.00049 62.04790 79.81045
#
# Poissons Ratio (x) = 0.49954 0.35727
# Poissons Ratio (y) = 0.29789 0.09812
# Poissons Ratio (z) = 0.16563 0.07628
#
# Static dielectric constant tensor:
#      x y z
#    x 3.176350 0.000000 -0.153170 
#    y 0.000000 2.943390 0.000000 
#    z -0.153170 0.000000 3.391730 
# 
# 
# High freq. dielectric constant tensor:
#      x y z
#    x 1.639830 0.000000 -0.013830 
#    y 0.000000 1.588380 0.000000 
#    z -0.013830 0.000000 1.659260 
# 
# From -- ./inp_files/79721.got.cif
#   From: 2010.06.25/outbox.cif.g09.slc.cpg/sg10_40_cif.got.tgz:79721.got - 2010.06.27 22:07:45.
