data_PCOD8062799
_publ_section_title
;
Structure prediction by ZEFSAII (Michael W. Deem and Ramdas Pophale) SiO2 
 PCOD8062799
Probable space group: P 2/M
;
_chemical_formula_sum "Si O2"
_cell_formula_units_Z 32
_cell_length_a 12.689117
_cell_length_b 14.222998
_cell_length_c 9.896014
_cell_angle_alpha 90.000000
_cell_angle_beta 93.705021
_cell_angle_gamma 90.000000
_cell_volume 1782.272921
_symmetry_space_group_name_H-M "P 2/M"
_symmetry_group_IT_number 10
_symmetry_cell_setting 'monoclinic'
loop_
_space_group_symop_operation_xyz
x,y,z
-x,y,-z
-x,-y,-z
x,-y,z
loop_
_atom_site_type_symbol
_atom_site_label
_atom_site_fract_x
_atom_site_fract_y
_atom_site_fract_z
Si Si1 0.472196 0.106967 0.645281
Si Si2 0.122765 0.889450 0.367418
Si Si3 0.886889 0.889014 0.326146
Si Si4 0.305017 0.105953 0.191620
Si Si5 0.617234 0.739383 0.969660
Si Si6 0.652011 0.607806 0.426707
Si Si7 0.707447 0.760409 0.249107
Si Si8 0.577639 0.607432 0.712855
O O1 0.500000 0.147117 0.500000
O O2 0.580687 0.110821 0.733390
O O3 0.386711 0.171465 0.710244
O O4 0.428159 0.000000 0.632051
O O5 0.137086 0.856844 0.522356
O O6 0.216417 0.848478 0.282595
O O7 0.007618 0.862036 0.299638
O O8 0.133513 0.000000 0.369746
O O9 0.809967 0.825005 0.229343
O O10 0.866406 0.000000 0.300995
O O11 0.313252 0.168914 0.059487
O O12 0.274419 0.000000 0.147407
O O13 0.616449 0.667018 0.844595
O O14 0.500000 0.769423 0.000000
O O15 0.675380 0.703247 0.110106
O O16 0.686060 0.500000 0.405123
O O17 0.733191 0.680409 0.363788
O O18 0.648975 0.628185 0.586850
O O19 0.541405 0.629190 0.341988
O O20 0.588847 0.500000 0.759205
#
# Coordination Sequence:
#
# PCOD8062799 Si02
#       8
#     4   4   4   4   4   4   4   4
#     4  10  20  30  45  72 104 140 178 211 256 309
#     4   8  16  34  56  77  99 134 186 232 266 301
#     4   9  18  33  55  81 106 135 178 228 270 305
#     4  10  20  33  48  68 104 147 179 210 251 304
#     4  12  23  34  45  76 112 148 178 206 256 319
#     4   9  19  34  54  77 100 134 179 223 264 310
#     4  12  22  31  51  78 112 140 171 215 267 312
#     4   9  19  36  54  72 102 141 178 218 262 313
#
# _framework density 17.954601
#
# number of rings (size 3 to 8) (size 9 to 14) (size 15 to 20)
#    0.000    2.125    2.500    2.625    5.250    4.000 
#    0.000    0.625    0.000    2.250    0.000    2.625 
#    0.000    2.000    0.000    0.000    0.000    0.000 
#
# Total GULP energy -396569.478820 kJ/mol
# GULP energy per Si atom -12392.796213 kJ/mol
# Density = 1.791374 g / cm^3
# Si number density = 17.954601 Si / 1000 Ang^3
#
#
#
# Elastic Constant Matrix: (Units=GPa)
#
#
# Indices 1 2 3 4 5 6 
#
# 1 58.3135 24.1262 15.2177 0.0000 0.7151 0.0000
# 2 24.1262 75.2479 35.9744 0.0000 -2.3132 0.0000
# 3 15.2177 35.9744 83.2414 0.0000 3.2181 0.0000
# 4 0.0000 0.0000 0.0000 10.7679 0.0000 17.5519
# 5 0.7151 -2.3132 3.2181 0.0000 17.6965 0.0000
# 6 0.0000 0.0000 0.0000 17.5519 0.0000 -2.5699
#
#
#
# Elastic Compliance Matrix: (Units=1/GPa)
#
#
# Indices 1 2 3 4 5 6 
#
# 1 0.019886 -0.005932 -0.001018 0.000000 -0.001394 0.000000
# 2 -0.005932 0.018742 -0.007170 0.000000 0.003993 0.000000
# 3 -0.001018 -0.007170 0.015441 0.000000 -0.003704 0.000000
# 4 0.000000 0.000000 0.000000 0.007654 0.000000 0.052278
# 5 -0.001394 0.003993 -0.003704 0.000000 0.057760 0.000000
# 6 0.000000 0.000000 0.000000 0.052278 0.000000 -0.032072
#
#
# Mechanical properties :
#
#
# Convention : Reuss Voigt Hill
#
# Bulk Modulus (GPa) = 38.71533 40.82660 39.77096
# Shear Modulus (GPa) = 40.23841 14.61121 27.42481
#
# Velocity S-wave (km/s) = 4.73918 2.85579 3.91250
# Velocity P-wave (km/s) = 7.18026 5.80191 6.52757
#
# Compressibility (1/GPa) = 0.02582956
#
# Stress axis : x y z
#
# Youngs Moduli (GPa) = 50.28741 53.35695 64.76274
#
# Poissons Ratio (x) = 0.31652 0.06592
# Poissons Ratio (y) = 0.29831 0.46432
# Poissons Ratio (z) = 0.05118 0.38254
#
# Static dielectric constant tensor:
#      x y z
#    x 3.348960 0.000000 -0.235550 
#    y 0.000000 3.349000 0.000000 
#    z -0.235550 0.000000 3.498430 
# 
# 
# High freq. dielectric constant tensor:
#      x y z
#    x 1.663010 0.000000 -0.007350 
#    y 0.000000 1.681080 0.000000 
#    z -0.007350 0.000000 1.694410 
# 
# From -- ./inp_files/25343.got.cif
#   From: 2010.06.25/outbox.cif.g09.slc.cpg/sg10_13_cif.got.tgz:25343.got - 2010.06.27 22:07:45.
