data_PCOD8062768
_publ_section_title
;
Structure prediction by ZEFSAII (Michael W. Deem and Ramdas Pophale) SiO2 
 PCOD8062768
Probable space group: P 2/M
;
_chemical_formula_sum "Si O2"
_cell_formula_units_Z 32
_cell_length_a 14.731173
_cell_length_b 16.240502
_cell_length_c 12.334303
_cell_angle_alpha 90.000000
_cell_angle_beta 30.291577
_cell_angle_gamma 90.000000
_cell_volume 1488.425375
_symmetry_space_group_name_H-M "P 2/M"
_symmetry_group_IT_number 10
_symmetry_cell_setting 'monoclinic'
loop_
_space_group_symop_operation_xyz
x,y,z
-x,y,-z
-x,-y,-z
x,-y,z
loop_
_atom_site_type_symbol
_atom_site_label
_atom_site_fract_x
_atom_site_fract_y
_atom_site_fract_z
Si Si1 0.236697 0.910018 0.047317
Si Si2 0.723304 0.407067 0.527381
Si Si3 0.564966 0.336311 0.315696
Si Si4 0.537170 0.147138 0.584524
Si Si5 0.047139 0.868322 0.835824
Si Si6 0.040118 0.696129 0.135810
Si Si7 0.856045 0.750905 0.741228
Si Si8 0.213651 0.407761 0.290922
O O1 0.247889 0.836640 0.125475
O O2 0.058391 0.908072 0.155843
O O3 0.237915 0.000000 0.103808
O O4 0.411634 0.905777 0.791587
O O5 0.782030 0.500000 0.455616
O O6 0.525421 0.391225 0.684321
O O7 0.724906 0.383747 0.652184
O O8 0.866076 0.360646 0.303523
O O9 0.500000 0.366515 0.500000
O O10 0.512231 0.242277 0.347769
O O11 0.778192 0.350818 0.085317
O O12 0.500000 0.119900 0.500000
O O13 0.741282 0.127649 0.407343
O O14 0.981148 0.774439 0.919514
O O15 0.000000 0.911689 0.000000
O O16 0.037704 0.725611 0.261819
O O17 0.725738 0.671956 0.844287
O O18 0.000000 0.769917 0.500000
O O19 0.289886 0.500000 0.178524
O O20 0.000000 0.411629 0.500000
#
# Coordination Sequence:
#
# PCOD8062768 Si02
#       8
#     4   4   4   4   4   4   4   4
#     4  11  25  40  60  98 134 170 220 266 323 400
#     4  11  23  38  63  97 130 168 216 273 331 394
#     4  11  23  40  63  91 130 174 221 266 315 391
#     4  11  20  38  64  93 126 170 217 273 323 380
#     4  11  20  38  66  92 124 170 222 266 323 388
#     4  11  21  37  64  92 122 170 217 263 324 389
#     4  10  19  38  67  91 122 171 214 266 339 384
#     4   9  17  34  64  96 124 159 214 280 334 381
#
# _framework density 21.499230000000001
#
# number of rings (size 3 to 8) (size 9 to 14) (size 15 to 20)
#    0.000    1.375    7.500    0.750    0.000    2.000 
#    0.000    1.250    5.500    1.500    0.000    5.250 
#    0.000    0.000    0.000    0.000    0.000    0.000 
#
# Total GULP energy -396583.433090 kJ/mol
# GULP energy per Si atom -12393.232284 kJ/mol
# Density = 2.145030 g / cm^3
# Si number density = 21.499230 Si / 1000 Ang^3
#
#
#
# Elastic Constant Matrix: (Units=GPa)
#
#
# Indices 1 2 3 4 5 6 
#
# 1 93.8798 27.8466 31.1483 0.0000 -1.7784 0.0000
# 2 27.8466 126.9938 18.8544 0.0000 19.0653 0.0000
# 3 31.1483 18.8544 91.6547 0.0000 -5.3011 0.0000
# 4 0.0000 0.0000 0.0000 10.7257 0.0000 5.2376
# 5 -1.7784 19.0653 -5.3011 0.0000 38.4295 0.0000
# 6 0.0000 0.0000 0.0000 5.2376 0.0000 12.5904
#
#
#
# Elastic Compliance Matrix: (Units=1/GPa)
#
#
# Indices 1 2 3 4 5 6 
#
# 1 0.012624 -0.002405 -0.003722 0.000000 0.001264 0.000000
# 2 -0.002405 0.009350 -0.001392 0.000000 -0.004942 0.000000
# 3 -0.003722 -0.001392 0.012592 0.000000 0.002255 0.000000
# 4 0.000000 0.000000 0.000000 0.117002 0.000000 -0.048673
# 5 0.001264 -0.004942 0.002255 0.000000 0.028843 0.000000
# 6 0.000000 0.000000 0.000000 -0.048673 0.000000 0.099673
#
#
# Mechanical properties :
#
#
# Convention : Reuss Voigt Hill
#
# Bulk Modulus (GPa) = 51.20885 52.02522 51.61703
# Shear Modulus (GPa) = 16.57637 27.99440 22.28538
#
# Velocity S-wave (km/s) = 2.77974 3.61239 3.22307
# Velocity P-wave (km/s) = 5.84579 6.45371 6.15726
#
# Compressibility (1/GPa) = 0.01952788
#
# Stress axis : x y z
#
# Youngs Moduli (GPa) = 79.21176 106.94688 79.41344
#
# Poissons Ratio (x) = 0.25724 0.29561
# Poissons Ratio (y) = 0.19053 0.11054
# Poissons Ratio (z) = 0.29486 0.14886
#
# Static dielectric constant tensor:
#      x y z
#    x 3.967920 0.000000 0.011630 
#    y 0.000000 4.102000 0.000000 
#    z 0.011630 0.000000 3.757030 
# 
# 
# High freq. dielectric constant tensor:
#      x y z
#    x 1.836040 0.000000 -0.002130 
#    y 0.000000 1.838600 0.000000 
#    z -0.002130 0.000000 1.832270 
# 
# From -- ./inp_files/51923.got.cif
#   From: 2010.06.25/outbox.cif.g09.slc.cpg/sg10_26_cif.got.tgz:51923.got - 2010.06.27 22:07:45.
