data_PCOD8062347
_publ_section_title
;
Structure prediction by ZEFSAII (Michael W. Deem and Ramdas Pophale) SiO2 
 PCOD8062347
Probable space group: P 2/M
;
_chemical_formula_sum "Si O2"
_cell_formula_units_Z 28
_cell_length_a 27.688213
_cell_length_b 8.673324
_cell_length_c 9.402190
_cell_angle_alpha 90.000000
_cell_angle_beta 141.741700
_cell_angle_gamma 90.000000
_cell_volume 1398.124586
_symmetry_space_group_name_H-M "P 2/M"
_symmetry_group_IT_number 10
_symmetry_cell_setting 'monoclinic'
loop_
_space_group_symop_operation_xyz
x,y,z
-x,y,-z
-x,-y,-z
x,-y,z
loop_
_atom_site_type_symbol
_atom_site_label
_atom_site_fract_x
_atom_site_fract_y
_atom_site_fract_z
Si Si1 0.158852 0.683185 0.704114
Si Si2 0.460343 0.322039 0.258718
Si Si3 0.566631 0.670164 0.268156
Si Si4 0.724219 0.316358 0.507530
Si Si5 0.292239 0.181500 0.833322
Si Si6 0.134717 0.682948 0.968837
Si Si7 0.990176 0.316553 0.816506
O O1 0.166370 0.500000 0.722919
O O2 0.240563 0.753354 0.842782
O O3 0.139788 0.745378 0.818959
O O4 0.091510 0.738374 0.439691
O O5 0.500000 0.309419 0.500000
O O6 0.442696 0.500000 0.174268
O O7 0.525831 0.245581 0.306996
O O8 0.381042 0.228164 0.066745
O O9 0.594482 0.500000 0.381909
O O10 0.643019 0.753964 0.381689
O O11 0.500000 0.657035 0.000000
O O12 0.721094 0.500000 0.483253
O O13 0.740312 0.247761 0.389853
O O14 0.790861 0.261217 0.769311
O O15 0.285360 0.000000 0.814105
O O16 0.130650 0.500000 0.955606
O O17 0.058311 0.748726 0.871789
O O18 0.994495 0.500000 0.830961
O O19 0.000000 0.251117 0.000000
#
# Coordination Sequence:
#
# PCOD8062347 Si02
#       7
#     4   4   4   4   4   4   4
#     4  10  20  35  58  84 115 150 189 233 282 337
#     4  10  21  37  61  86 111 143 187 235 283 336
#     4   9  16  30  54  83 108 134 175 230 278 325
#     4  10  19  35  59  83 110 144 189 237 283 336
#     4  12  25  39  54  78 116 155 193 232 279 334
#     4   9  18  31  56  91 117 140 181 238 291 336
#     4   9  16  29  53  88 121 146 177 228 288 339
#
# _framework density 20.026827000000001
#
# number of rings (size 3 to 8) (size 9 to 14) (size 15 to 20)
#    0.000    2.143    1.429    2.571    2.000    4.286 
#    0.000    2.143    0.000    5.571    0.000    0.000 
#    0.000    0.000    0.000    0.000    0.000    0.000 
#
# Total GULP energy -347103.370138 kJ/mol
# GULP energy per Si atom -12396.548933 kJ/mol
# Density = 1.998124 g / cm^3
# Si number density = 20.026827 Si / 1000 Ang^3
#
#
#
# Elastic Constant Matrix: (Units=GPa)
#
#
# Indices 1 2 3 4 5 6 
#
# 1 175.8148 24.0065 48.7103 0.0000 -7.8698 0.0000
# 2 24.0065 35.9804 21.2908 0.0000 -1.0504 0.0000
# 3 48.7103 21.2908 100.2766 0.0000 -9.4913 0.0000
# 4 0.0000 0.0000 0.0000 5.6734 0.0000 0.4700
# 5 -7.8698 -1.0504 -9.4913 0.0000 37.2013 0.0000
# 6 0.0000 0.0000 0.0000 0.4700 0.0000 4.7365
#
#
#
# Elastic Compliance Matrix: (Units=1/GPa)
#
#
# Indices 1 2 3 4 5 6 
#
# 1 0.006857 -0.002999 -0.002628 0.000000 0.000695 0.000000
# 2 -0.002999 0.033125 -0.005685 0.000000 -0.001150 0.000000
# 3 -0.002628 -0.005685 0.012695 0.000000 0.002522 0.000000
# 4 0.000000 0.000000 0.000000 0.177722 0.000000 -0.017635
# 5 0.000695 -0.001150 0.002522 0.000000 0.027639 0.000000
# 6 0.000000 0.000000 0.000000 -0.017635 0.000000 0.212874
#
#
# Mechanical properties :
#
#
# Convention : Reuss Voigt Hill
#
# Bulk Modulus (GPa) = 33.27638 55.56523 44.42080
# Shear Modulus (GPa) = 9.92945 24.05986 16.99465
#
# Velocity S-wave (km/s) = 2.22909 3.46986 2.91622
# Velocity P-wave (km/s) = 4.82463 6.62260 5.79379
#
# Compressibility (1/GPa) = 0.03005135
#
# Stress axis : x y z
#
# Youngs Moduli (GPa) = 145.84539 30.18909 78.77270
#
# Poissons Ratio (x) = 0.09055 0.20701
# Poissons Ratio (y) = 0.43745 0.44781
# Poissons Ratio (z) = 0.38328 0.17162
#
# Static dielectric constant tensor:
#      x y z
#    x 4.020990 0.000000 -0.031270 
#    y 0.000000 3.038190 0.000000 
#    z -0.031270 0.000000 3.707350 
# 
# 
# High freq. dielectric constant tensor:
#      x y z
#    x 1.807580 0.000000 -0.000080 
#    y 0.000000 1.711420 0.000000 
#    z -0.000080 0.000000 1.790940 
# 
# From -- ./inp_files/37251.got.cif
#   From: 2010.06.25/outbox.cif.g09.slc.cpg/sg10_19_cif.got.tgz:37251.got - 2010.06.27 22:07:45.
