data_PCOD8062859
_publ_section_title
;
Structure prediction by ZEFSAII (Michael W. Deem and Ramdas Pophale) SiO2 
 PCOD8062859
Probable space group: P 2/M
;
_chemical_formula_sum "Si O2"
_cell_formula_units_Z 32
_cell_length_a 12.744215
_cell_length_b 9.461846
_cell_length_c 12.197110
_cell_angle_alpha 90.000000
_cell_angle_beta 86.205776
_cell_angle_gamma 90.000000
_cell_volume 1467.550145
_symmetry_space_group_name_H-M "P 2/M"
_symmetry_group_IT_number 10
_symmetry_cell_setting 'monoclinic'
loop_
_space_group_symop_operation_xyz
x,y,z
-x,y,-z
-x,-y,-z
x,-y,z
loop_
_atom_site_type_symbol
_atom_site_label
_atom_site_fract_x
_atom_site_fract_y
_atom_site_fract_z
Si Si1 0.783121 0.164888 0.245857
Si Si2 0.830661 0.333402 0.033218
Si Si3 0.608381 0.338691 0.937722
Si Si4 0.635212 0.343228 0.588682
Si Si5 0.088444 0.157458 0.162629
Si Si6 0.688782 0.152410 0.755829
Si Si7 0.030048 0.163266 0.617486
Si Si8 0.398101 0.341210 0.655809
O O1 0.847314 0.246364 0.145150
O O2 0.847542 0.182505 0.356265
O O3 0.667352 0.233274 0.264471
O O4 0.771491 0.000000 0.215474
O O5 0.855716 0.500000 0.046515
O O6 0.709221 0.309949 0.007194
O O7 0.913655 0.267427 0.939283
O O8 0.606214 0.500000 0.900238
O O9 0.500000 0.293557 0.000000
O O10 0.606678 0.247465 0.827764
O O11 0.656414 0.500000 0.632614
O O12 0.714354 0.232444 0.639800
O O13 0.517728 0.293652 0.631168
O O14 0.655820 0.340622 0.459082
O O15 0.209358 0.133186 0.179253
O O16 0.035311 0.226758 0.274747
O O17 0.039736 0.000000 0.138320
O O18 0.638486 0.000000 0.733662
O O19 0.000000 0.233024 0.500000
O O20 0.997402 0.000000 0.611800
O O21 0.390389 0.500000 0.706682
#
# Coordination Sequence:
#
# PCOD8062859 Si02
#       8
#     4   4   4   4   4   4   4   4
#     4  11  23  37  60  90 118 149 190 244 294 343
#     4  10  21  38  59  83 117 155 194 239 288 344
#     4   9  19  35  54  76 105 152 200 229 268 339
#     4   9  19  36  56  76 107 155 198 227 271 346
#     4   9  19  38  61  84 114 151 195 241 284 340
#     4  10  20  31  52  85 113 142 181 239 293 325
#     4   9  20  39  63  88 115 153 193 230 287 357
#     4   9  20  38  56  77 110 153 195 232 277 337
#
# _framework density 21.805047999999999
#
# number of rings (size 3 to 8) (size 9 to 14) (size 15 to 20)
#    0.000    2.500    0.000    1.875    3.500    2.750 
#    0.000    5.000    0.000    1.875    0.000    0.000 
#    0.000    0.000    0.000    0.000    0.000    0.000 
#
# Total GULP energy -396535.360047 kJ/mol
# GULP energy per Si atom -12391.730001 kJ/mol
# Density = 2.175542 g / cm^3
# Si number density = 21.805048 Si / 1000 Ang^3
#
#
#
# Elastic Constant Matrix: (Units=GPa)
#
#
# Indices 1 2 3 4 5 6 
#
# 1 25.0800 8.4851 10.7393 0.0000 -17.1484 0.0000
# 2 8.4851 108.9892 45.1387 0.0000 -4.8819 0.0000
# 3 10.7393 45.1387 99.1890 0.0000 -5.3741 0.0000
# 4 0.0000 0.0000 0.0000 28.0671 0.0000 1.6300
# 5 -17.1484 -4.8819 -5.3741 0.0000 34.7448 0.0000
# 6 0.0000 0.0000 0.0000 1.6300 0.0000 19.1981
#
#
#
# Elastic Compliance Matrix: (Units=1/GPa)
#
#
# Indices 1 2 3 4 5 6 
#
# 1 0.062953 -0.001730 -0.004395 0.000000 0.030148 0.000000
# 2 -0.001730 0.011376 -0.004991 0.000000 -0.000028 0.000000
# 3 -0.004395 -0.004991 0.012780 0.000000 -0.000894 0.000000
# 4 0.000000 0.000000 0.000000 0.035805 0.000000 -0.003040
# 5 0.030148 -0.000028 -0.000894 0.000000 0.043519 0.000000
# 6 0.000000 0.000000 0.000000 -0.003040 0.000000 0.052347
#
#
# Mechanical properties :
#
#
# Convention : Reuss Voigt Hill
#
# Bulk Modulus (GPa) = 15.41389 40.22049 27.81719
# Shear Modulus (GPa) = 19.03754 27.66167 23.34960
#
# Velocity S-wave (km/s) = 2.95800 3.56559 3.27591
# Velocity P-wave (km/s) = 4.33020 5.95288 5.20516
#
# Compressibility (1/GPa) = 0.06487653
#
# Stress axis : x y z
#
# Youngs Moduli (GPa) = 15.88478 87.90620 78.24429
#
# Poissons Ratio (x) = 0.15212 0.34389
# Poissons Ratio (y) = 0.02749 0.39052
# Poissons Ratio (z) = 0.06982 0.43874
#
# Static dielectric constant tensor:
#      x y z
#    x 3.745760 0.000000 0.041100 
#    y 0.000000 4.008820 0.000000 
#    z 0.041100 0.000000 4.039060 
# 
# 
# High freq. dielectric constant tensor:
#      x y z
#    x 1.845870 0.000000 0.001960 
#    y 0.000000 1.840440 0.000000 
#    z 0.001960 0.000000 1.861150 
# 
# From -- ./inp_files/49974.got.cif
#   From: 2010.06.25/outbox.cif.g09.slc.cpg/sg10_25_cif.got.tgz:49974.got - 2010.06.27 22:07:45.
