data_PCOD8062171
_publ_section_title
;
Structure prediction by ZEFSAII (Michael W. Deem and Ramdas Pophale) SiO2 
 PCOD8062171
Probable space group: P 2/M
;
_chemical_formula_sum "Si O2"
_cell_formula_units_Z 32
_cell_length_a 5.484617
_cell_length_b 21.387107
_cell_length_c 17.624777
_cell_angle_alpha 90.000000
_cell_angle_beta 130.104945
_cell_angle_gamma 90.000000
_cell_volume 1581.274343
_symmetry_space_group_name_H-M "P 2/M"
_symmetry_group_IT_number 10
_symmetry_cell_setting 'monoclinic'
loop_
_space_group_symop_operation_xyz
x,y,z
-x,y,-z
-x,-y,-z
x,-y,z
loop_
_atom_site_type_symbol
_atom_site_label
_atom_site_fract_x
_atom_site_fract_y
_atom_site_fract_z
Si Si1 0.859265 0.569403 0.600018
Si Si2 0.824239 0.243252 0.252583
Si Si3 0.116519 0.360844 0.253670
Si Si4 0.762481 0.069792 0.382915
Si Si5 0.682199 0.789203 0.966080
Si Si6 0.262778 0.138730 0.382335
Si Si7 0.220919 0.688214 0.608862
Si Si8 0.157456 0.352016 0.956231
O O1 0.500000 0.578224 0.500000
O O2 0.981449 0.500000 0.602041
O O3 0.908175 0.576176 0.701305
O O4 0.070510 0.622469 0.604397
O O5 0.541802 0.209113 0.152214
O O6 0.735763 0.257380 0.321350
O O7 0.841929 0.310299 0.214605
O O8 0.148174 0.202699 0.319112
O O9 0.430994 0.328023 0.350366
O O10 0.101963 0.371129 0.160499
O O11 0.438690 0.101714 0.349501
O O12 0.000000 0.065555 0.500000
O O13 0.940750 0.104678 0.348829
O O14 0.674837 0.000000 0.337263
O O15 0.500000 0.823153 0.000000
O O16 0.800294 0.722074 0.022572
O O17 0.000000 0.825010 0.000000
O O18 0.500000 0.152404 0.500000
O O19 0.000000 0.718494 0.500000
O O20 0.500000 0.381518 0.000000
O O21 0.000000 0.382474 0.000000
#
# Coordination Sequence:
#
# PCOD8062171 Si02
#       8
#     4   4   4   4   4   4   4   4
#     4  10  22  40  57  81 111 144 197 247 282 338
#     4  11  24  34  53  83 122 150 184 235 292 362
#     4  11  22  37  58  82 109 155 186 233 295 355
#     4   9  18  36  56  76 108 158 210 244 274 321
#     4  10  19  35  54  78 106 153 188 233 279 340
#     4  10  22  33  52  83 119 158 192 237 288 334
#     4  11  23  35  55  81 112 154 190 222 291 359
#     4  10  19  35  57  82 106 144 188 233 278 342
#
# _framework density 20.236844999999999
#
# number of rings (size 3 to 8) (size 9 to 14) (size 15 to 20)
#    0.000    1.750    3.750    1.875    5.250    2.750 
#    0.000    0.000    0.000    0.750    0.000    0.000 
#    0.000   10.000    0.000    0.000    0.000    0.000 
#
# Total GULP energy -396455.960006 kJ/mol
# GULP energy per Si atom -12389.248750 kJ/mol
# Density = 2.019078 g / cm^3
# Si number density = 20.236845 Si / 1000 Ang^3
#
#
#
# Elastic Constant Matrix: (Units=GPa)
#
#
# Indices 1 2 3 4 5 6 
#
# 1 129.8525 12.5691 23.5075 0.0000 -5.6569 0.0000
# 2 12.5691 59.9310 7.0601 0.0000 -1.8373 0.0000
# 3 23.5075 7.0601 109.0978 0.0000 -12.0546 0.0000
# 4 0.0000 0.0000 0.0000 -0.3998 0.0000 -4.7452
# 5 -5.6569 -1.8373 -12.0546 0.0000 32.7200 0.0000
# 6 0.0000 0.0000 0.0000 -4.7452 0.0000 7.3278
#
#
#
# Elastic Compliance Matrix: (Units=1/GPa)
#
#
# Indices 1 2 3 4 5 6 
#
# 1 0.008165 -0.001503 -0.001580 0.000000 0.000745 0.000000
# 2 -0.001503 0.017101 -0.000735 0.000000 0.000429 0.000000
# 3 -0.001580 -0.000735 0.009923 0.000000 0.003342 0.000000
# 4 0.000000 0.000000 0.000000 -0.287964 0.000000 -0.186475
# 5 0.000745 0.000429 0.003342 0.000000 0.031946 0.000000
# 6 0.000000 0.000000 0.000000 -0.186475 0.000000 0.015712
#
#
# Mechanical properties :
#
#
# Convention : Reuss Voigt Hill
#
# Bulk Modulus (GPa) = 36.29448 42.79497 39.54472
# Shear Modulus (GPa) = -26.55398 24.97924 -0.78737
#
# Velocity S-wave (km/s) = -3.62631 3.51714 -0.62444
# Velocity P-wave (km/s) = 0.66358 6.13894 4.36617
#
# Compressibility (1/GPa) = 0.02755240
#
# Stress axis : x y z
#
# Youngs Moduli (GPa) = 122.47377 58.47624 100.77333
#
# Poissons Ratio (x) = 0.08792 0.15919
# Poissons Ratio (y) = 0.18414 0.07409
# Poissons Ratio (z) = 0.19347 0.04299
#
# Static dielectric constant tensor:
#      x y z
#    x 4.198800 0.000000 -0.103830 
#    y 0.000000 3.398500 0.000000 
#    z -0.103830 0.000000 3.792540 
# 
# 
# High freq. dielectric constant tensor:
#      x y z
#    x 1.806600 0.000000 -0.002070 
#    y 0.000000 1.732670 0.000000 
#    z -0.002070 0.000000 1.784670 
# 
# From -- ./inp_files/11752.got.cif
#   From: 2010.06.25/outbox.cif.g09.slc.cpg/sg10_6_cif.got.tgz:11752.got - 2010.06.27 22:07:45.
