data_PCOD8062656
_publ_section_title
;
Structure prediction by ZEFSAII (Michael W. Deem and Ramdas Pophale) SiO2 
 PCOD8062656
Probable space group: P 2/M
;
_chemical_formula_sum "Si O2"
_cell_formula_units_Z 28
_cell_length_a 22.612004
_cell_length_b 13.695212
_cell_length_c 22.612254
_cell_angle_alpha 90.000000
_cell_angle_beta 166.854059
_cell_angle_gamma 90.000000
_cell_volume 1592.588593
_symmetry_space_group_name_H-M "P 2/M"
_symmetry_group_IT_number 10
_symmetry_cell_setting 'monoclinic'
loop_
_space_group_symop_operation_xyz
x,y,z
-x,y,-z
-x,-y,-z
x,-y,z
loop_
_atom_site_type_symbol
_atom_site_label
_atom_site_fract_x
_atom_site_fract_y
_atom_site_fract_z
Si Si1 0.665555 0.615935 0.334771
Si Si2 0.066659 0.385152 0.933104
Si Si3 0.566418 0.890456 0.433173
Si Si4 0.893777 0.109143 0.106725
Si Si5 0.866908 0.695434 0.132838
Si Si6 0.266977 0.616232 0.733057
Si Si7 0.465412 0.695808 0.534909
O O1 0.664264 0.500000 0.336720
O O2 0.699139 0.653979 0.300674
O O3 0.900286 0.655332 0.601730
O O4 0.398639 0.655276 0.100155
O O5 0.071284 0.500000 0.927984
O O6 0.098929 0.335574 0.901304
O O7 0.798047 0.353478 0.700333
O O8 0.299371 0.353625 0.201719
O O9 0.539563 0.812649 0.459697
O O10 0.836296 0.872571 0.663270
O O11 0.552991 0.000000 0.447093
O O12 0.336179 0.872751 0.163179
O O13 0.866356 0.186286 0.133647
O O14 0.880462 0.000000 0.120641
O O15 0.266409 0.500000 0.733649
O O16 0.000000 0.657856 0.500000
O O17 0.500000 0.657868 0.000000
O O18 0.500000 0.674953 0.500000
#
# Coordination Sequence:
#
# PCOD8062656 Si02
#       7
#     4   4   4   4   4   4   4
#     4  11  22  33  52  84 115 149 185 217 256 306
#     4  12  25  40  57  76 105 147 181 218 271 318
#     4  10  19  37  59  80 102 129 167 216 279 336
#     4  10  20  36  59  79 103 137 171 213 273 333
#     4  12  21  37  56  79 111 139 177 226 268 319
#     4   9  17  31  49  71 108 152 186 216 251 294
#     4  12  24  40  58  79 104 134 181 228 266 328
#
# _framework density 17.581439
#
# number of rings (size 3 to 8) (size 9 to 14) (size 15 to 20)
#    0.000    1.143    2.857    4.714    0.000    4.286 
#    0.000    0.000    0.000    4.286    0.000    0.000 
#    0.000   11.429    0.000    0.000    0.000    0.000 
#
# Total GULP energy -347269.465151 kJ/mol
# GULP energy per Si atom -12402.480898 kJ/mol
# Density = 1.754142 g / cm^3
# Si number density = 17.581439 Si / 1000 Ang^3
#
#
#
# Elastic Constant Matrix: (Units=GPa)
#
#
# Indices 1 2 3 4 5 6 
#
# 1 133.6231 35.7680 69.3788 0.0000 0.9512 0.0000
# 2 35.7680 101.2755 30.2482 0.0000 -0.4832 0.0000
# 3 69.3788 30.2482 172.9923 0.0000 2.5382 0.0000
# 4 0.0000 0.0000 0.0000 32.4324 0.0000 2.5164
# 5 0.9512 -0.4832 2.5382 0.0000 37.5272 0.0000
# 6 0.0000 0.0000 0.0000 2.5164 0.0000 3.7678
#
#
#
# Elastic Compliance Matrix: (Units=1/GPa)
#
#
# Indices 1 2 3 4 5 6 
#
# 1 0.010002 -0.002464 -0.003580 0.000000 -0.000043 0.000000
# 2 -0.002464 0.011027 -0.000944 0.000000 0.000268 0.000000
# 3 -0.003580 -0.000944 0.007388 0.000000 -0.000421 0.000000
# 4 0.000000 0.000000 0.000000 0.032518 0.000000 -0.021719
# 5 -0.000043 0.000268 -0.000421 0.000000 0.026680 0.000000
# 6 0.000000 0.000000 0.000000 -0.021719 0.000000 0.279915
#
#
# Mechanical properties :
#
#
# Convention : Reuss Voigt Hill
#
# Bulk Modulus (GPa) = 69.24264 75.40897 72.32580
# Shear Modulus (GPa) = 12.94262 32.91186 22.92724
#
# Velocity S-wave (km/s) = 2.71616 4.33132 3.61509
# Velocity P-wave (km/s) = 7.02183 8.24610 7.65847
#
# Compressibility (1/GPa) = 0.01444197
#
# Stress axis : x y z
#
# Youngs Moduli (GPa) = 99.97730 90.68355 135.36116
#
# Poissons Ratio (x) = 0.22340 0.48460
# Poissons Ratio (y) = 0.24629 0.12780
# Poissons Ratio (z) = 0.35792 0.08562
#
# Static dielectric constant tensor:
#      x y z
#    x 3.280610 0.000000 0.020080 
#    y 0.000000 3.483690 0.000000 
#    z 0.020080 0.000000 3.509410 
# 
# 
# High freq. dielectric constant tensor:
#      x y z
#    x 1.663720 0.000000 0.004060 
#    y 0.000000 1.673410 0.000000 
#    z 0.004060 0.000000 1.709870 
# 
# From -- ./inp_files/90943.got.cif
#   From: 2010.06.25/outbox.cif.g09.slc.cpg/sg10_46_cif.got.tgz:90943.got - 2010.06.27 22:07:45.
