data_PCOD8062620
_publ_section_title
;
Structure prediction by ZEFSAII (Michael W. Deem and Ramdas Pophale) SiO2 
 PCOD8062620
Probable space group: P 2/M
;
_chemical_formula_sum "Si O2"
_cell_formula_units_Z 32
_cell_length_a 14.682217
_cell_length_b 8.821727
_cell_length_c 12.505044
_cell_angle_alpha 90.000000
_cell_angle_beta 91.673656
_cell_angle_gamma 90.000000
_cell_volume 1618.993722
_symmetry_space_group_name_H-M "P 2/M"
_symmetry_group_IT_number 10
_symmetry_cell_setting 'monoclinic'
loop_
_space_group_symop_operation_xyz
x,y,z
-x,y,-z
-x,-y,-z
x,-y,z
loop_
_atom_site_type_symbol
_atom_site_label
_atom_site_fract_x
_atom_site_fract_y
_atom_site_fract_z
Si Si1 0.842898 0.322463 0.297122
Si Si2 0.689743 0.822387 0.898216
Si Si3 0.304593 0.320716 0.883055
Si Si4 0.727360 0.175701 0.461900
Si Si5 0.212188 0.177749 0.309898
Si Si6 0.492143 0.823026 0.813216
Si Si7 0.983735 0.180078 0.621531
Si Si8 0.449286 0.669514 0.608655
O O1 0.857400 0.500000 0.289795
O O2 0.773035 0.266071 0.202855
O O3 0.806188 0.275596 0.412205
O O4 0.941105 0.242564 0.292466
O O5 0.742500 0.754456 0.796142
O O6 0.580875 0.794249 0.888585
O O7 0.709726 0.000000 0.913458
O O8 0.728117 0.731469 0.001058
O O9 0.317656 0.500000 0.878572
O O10 0.401181 0.242713 0.862723
O O11 0.721796 0.215212 0.587466
O O12 0.634301 0.216012 0.400407
O O13 0.751457 0.000000 0.444519
O O14 0.112156 0.242277 0.334735
O O15 0.205666 0.000000 0.292654
O O16 0.513507 0.736791 0.702756
O O17 0.478690 0.000000 0.790965
O O18 0.000000 0.238211 0.500000
O O19 0.985515 0.000000 0.622514
O O20 0.500000 0.664887 0.500000
O O21 0.415272 0.500000 0.638114
#
# Coordination Sequence:
#
# PCOD8062620 Si02
#       8
#     4   4   4   4   4   4   4   4
#     4  11  23  38  57  86 120 152 191 241 296 349
#     4  10  22  40  61  86 116 151 198 249 294 346
#     4  11  24  41  60  83 118 158 198 245 296 350
#     4  11  20  35  60  85 115 154 195 239 292 350
#     4   9  19  37  60  88 120 150 189 246 298 347
#     4  11  22  37  60  87 114 151 202 251 292 344
#     4  10  19  36  62  90 118 152 194 238 292 356
#     4  11  23  36  51  80 123 162 195 237 291 353
#
# _framework density 19.765364000000002
#
# number of rings (size 3 to 8) (size 9 to 14) (size 15 to 20)
#    0.000    1.500    2.500    3.000    0.000    6.250 
#    0.000    2.500    0.000    3.750    0.000    0.000 
#    0.000    0.000    0.000    0.000    0.000    0.000 
#
# Total GULP energy -396751.070883 kJ/mol
# GULP energy per Si atom -12398.470965 kJ/mol
# Density = 1.972038 g / cm^3
# Si number density = 19.765364 Si / 1000 Ang^3
#
#
#
# Elastic Constant Matrix: (Units=GPa)
#
#
# Indices 1 2 3 4 5 6 
#
# 1 90.7954 31.7453 33.4281 0.0000 6.7350 0.0000
# 2 31.7453 42.5483 38.1137 0.0000 3.4055 0.0000
# 3 33.4281 38.1137 120.2648 0.0000 2.4972 0.0000
# 4 0.0000 0.0000 0.0000 24.2936 0.0000 2.9554
# 5 6.7350 3.4055 2.4972 0.0000 24.0866 0.0000
# 6 0.0000 0.0000 0.0000 2.9554 0.0000 22.1558
#
#
#
# Elastic Compliance Matrix: (Units=1/GPa)
#
#
# Indices 1 2 3 4 5 6 
#
# 1 0.015135 -0.010276 -0.000894 0.000000 -0.002686 0.000000
# 2 -0.010276 0.040106 -0.009817 0.000000 -0.001779 0.000000
# 3 -0.000894 -0.009817 0.011666 0.000000 0.000429 0.000000
# 4 0.000000 0.000000 0.000000 0.041842 0.000000 -0.005581
# 5 -0.002686 -0.001779 0.000429 0.000000 0.042475 0.000000
# 6 0.000000 0.000000 0.000000 -0.005581 0.000000 0.045879
#
#
# Mechanical properties :
#
#
# Convention : Reuss Voigt Hill
#
# Bulk Modulus (GPa) = 40.10923 51.13141 45.62032
# Shear Modulus (GPa) = 20.21107 24.12863 22.16985
#
# Velocity S-wave (km/s) = 3.20120 3.49772 3.35274
# Velocity P-wave (km/s) = 5.83098 6.49903 6.17405
#
# Compressibility (1/GPa) = 0.02493192
#
# Stress axis : x y z
#
# Youngs Moduli (GPa) = 66.07088 24.93404 85.72052
#
# Poissons Ratio (x) = 0.25623 0.07667
# Poissons Ratio (y) = 0.67895 0.84151
# Poissons Ratio (z) = 0.05910 0.24477
#
# Static dielectric constant tensor:
#      x y z
#    x 3.872620 0.000000 0.007600 
#    y 0.000000 3.539180 0.000000 
#    z 0.007600 0.000000 3.795350 
# 
# 
# High freq. dielectric constant tensor:
#      x y z
#    x 1.767620 0.000000 0.004730 
#    y 0.000000 1.757780 0.000000 
#    z 0.004730 0.000000 1.772720 
# 
# From -- ./inp_files/49973.got.cif
#   From: 2010.06.25/outbox.cif.g09.slc.cpg/sg10_25_cif.got.tgz:49973.got - 2010.06.27 22:07:45.
