data_PCOD8062991
_publ_section_title
;
Structure prediction by ZEFSAII (Michael W. Deem and Ramdas Pophale) SiO2 
 PCOD8062991
Probable space group: P 2/M
;
_chemical_formula_sum "Si O2"
_cell_formula_units_Z 32
_cell_length_a 22.394594
_cell_length_b 9.106115
_cell_length_c 27.454815
_cell_angle_alpha 90.000000
_cell_angle_beta 162.109527
_cell_angle_gamma 90.000000
_cell_volume 1719.941888
_symmetry_space_group_name_H-M "P 2/M"
_symmetry_group_IT_number 10
_symmetry_cell_setting 'monoclinic'
loop_
_space_group_symop_operation_xyz
x,y,z
-x,y,-z
-x,-y,-z
x,-y,z
loop_
_atom_site_type_symbol
_atom_site_label
_atom_site_fract_x
_atom_site_fract_y
_atom_site_fract_z
Si Si1 0.223795 0.667561 0.168958
Si Si2 0.507701 0.333061 0.709401
Si Si3 0.189622 0.326468 0.383828
Si Si4 0.530285 0.828915 0.467583
Si Si5 0.203500 0.173239 0.894298
Si Si6 0.289996 0.825399 0.852316
Si Si7 0.458854 0.172821 0.770144
Si Si8 0.039444 0.824802 0.476430
O O1 0.266880 0.500000 0.219126
O O2 0.295369 0.687285 0.168924
O O3 0.334164 0.780694 0.288802
O O4 0.000000 0.707671 0.000000
O O5 0.481545 0.500000 0.706211
O O6 0.322484 0.283796 0.533327
O O7 0.528418 0.233799 0.772679
O O8 0.174000 0.500000 0.365367
O O9 0.285177 0.260602 0.409283
O O10 0.978664 0.258340 0.225705
O O11 0.500000 0.790493 0.500000
O O12 0.568041 0.000000 0.487792
O O13 0.240497 0.227744 0.868146
O O14 0.162492 0.000000 0.864570
O O15 0.390754 0.218007 0.071144
O O16 0.126906 0.763840 0.688813
O O17 0.295126 0.000000 0.853973
O O18 0.500000 0.761641 0.000000
O O19 0.247288 0.236320 0.619919
O O20 0.447345 0.000000 0.755898
O O21 0.000000 0.764526 0.500000
O O22 0.039045 0.000000 0.476330
#
# Coordination Sequence:
#
# PCOD8062991 Si02
#       8
#     4   4   4   4   4   4   4   4
#     4   9  19  36  56  78 105 139 179 217 255 306
#     4   9  19  35  53  74 100 132 172 215 255 301
#     4  10  21  37  56  76 100 136 179 216 258 314
#     4  10  21  36  55  81 110 137 170 215 265 314
#     4  10  20  33  50  76 108 137 172 218 263 310
#     4   9  16  27  46  72 103 139 175 214 261 309
#     4  10  20  32  49  75 104 135 170 210 258 310
#     4   9  16  27  45  70 100 133 171 213 255 302
#
# _framework density 18.605281000000002
#
# number of rings (size 3 to 8) (size 9 to 14) (size 15 to 20)
#    0.000    2.500    0.000    3.000    0.000    9.250 
#    0.000    2.500    0.000    0.750    0.000    0.000 
#    0.000    0.000    0.000    0.000    0.000    0.000 
#
# Total GULP energy -396844.552281 kJ/mol
# GULP energy per Si atom -12401.392259 kJ/mol
# Density = 1.856293 g / cm^3
# Si number density = 18.605281 Si / 1000 Ang^3
#
#
#
# Elastic Constant Matrix: (Units=GPa)
#
#
# Indices 1 2 3 4 5 6 
#
# 1 151.7107 45.6495 87.6298 0.0000 -1.7611 0.0000
# 2 45.6495 35.1072 40.3908 0.0000 1.4531 0.0000
# 3 87.6298 40.3908 156.0367 0.0000 12.4350 0.0000
# 4 0.0000 0.0000 0.0000 18.2088 0.0000 1.5959
# 5 -1.7611 1.4531 12.4350 0.0000 34.4592 0.0000
# 6 0.0000 0.0000 0.0000 1.5959 0.0000 9.7755
#
#
#
# Elastic Compliance Matrix: (Units=1/GPa)
#
#
# Indices 1 2 3 4 5 6 
#
# 1 0.012564 -0.011514 -0.004289 0.000000 0.002675 0.000000
# 2 -0.011514 0.051269 -0.006781 0.000000 -0.000303 0.000000
# 3 -0.004289 -0.006781 0.010880 0.000000 -0.003860 0.000000
# 4 0.000000 0.000000 0.000000 0.055716 0.000000 -0.009096
# 5 0.002675 -0.000303 -0.003860 0.000000 0.030562 0.000000
# 6 0.000000 0.000000 0.000000 -0.009096 0.000000 0.103781
#
#
# Mechanical properties :
#
#
# Convention : Reuss Voigt Hill
#
# Bulk Modulus (GPa) = 33.84468 76.68830 55.26649
# Shear Modulus (GPa) = 15.63529 23.76768 19.70149
#
# Velocity S-wave (km/s) = 2.90206 3.57805 3.25763
# Velocity P-wave (km/s) = 5.42767 7.64055 6.62713
#
# Compressibility (1/GPa) = 0.02954674
#
# Stress axis : x y z
#
# Youngs Moduli (GPa) = 79.59057 19.50480 91.90903
#
# Poissons Ratio (x) = 0.22457 0.39419
# Poissons Ratio (y) = 0.91637 0.62325
# Poissons Ratio (z) = 0.34136 0.13227
#
# Static dielectric constant tensor:
#      x y z
#    x 3.502410 0.000000 0.070400 
#    y 0.000000 3.097090 0.000000 
#    z 0.070400 0.000000 3.543860 
# 
# 
# High freq. dielectric constant tensor:
#      x y z
#    x 1.732700 0.000000 0.006880 
#    y 0.000000 1.690410 0.000000 
#    z 0.006880 0.000000 1.729150 
# 
# From -- ./inp_files/93712.got.cif
#   From: 2010.06.25/outbox.cif.g09.slc.cpg/sg10_47_cif.got.tgz:93712.got - 2010.06.27 22:07:45.
