data_PCOD8062283
_publ_section_title
;
Structure prediction by ZEFSAII (Michael W. Deem and Ramdas Pophale) SiO2 
 PCOD8062283
Probable space group: P 2/M
;
_chemical_formula_sum "Si O2"
_cell_formula_units_Z 20
_cell_length_a 9.667613
_cell_length_b 22.224490
_cell_length_c 8.782755
_cell_angle_alpha 90.000000
_cell_angle_beta 31.487024
_cell_angle_gamma 90.000000
_cell_volume 985.612917
_symmetry_space_group_name_H-M "P 2/M"
_symmetry_group_IT_number 10
_symmetry_cell_setting 'monoclinic'
loop_
_space_group_symop_operation_xyz
x,y,z
-x,y,-z
-x,-y,-z
x,-y,z
loop_
_atom_site_type_symbol
_atom_site_label
_atom_site_fract_x
_atom_site_fract_y
_atom_site_fract_z
Si Si1 0.738620 0.067360 0.160515
Si Si2 0.954881 0.242260 0.363546
Si Si3 0.464680 0.430680 0.704884
Si Si4 0.548522 0.829082 0.132823
Si Si5 0.976995 0.622967 0.341417
O O1 0.500000 0.066118 0.500000
O O2 0.645519 0.107303 0.106059
O O3 0.799434 0.000000 0.041744
O O4 0.000000 0.093122 0.000000
O O5 0.717443 0.197050 0.539934
O O6 0.894436 0.309953 0.364717
O O7 0.000000 0.242490 0.500000
O O8 0.226428 0.219223 0.035131
O O9 0.500000 0.406418 0.500000
O O10 0.376011 0.500000 0.788727
O O11 0.749790 0.424185 0.514287
O O12 0.248987 0.393231 0.001328
O O13 0.500000 0.838090 0.000000
O O14 0.000000 0.620190 0.500000
#
# Coordination Sequence:
#
# PCOD8062283 Si02
#       5
#     4   4   4   4   4
#     4  10  21  37  55  78 112 148 181 225 279 325
#     4   9  19  35  56  83 113 143 177 230 288 326
#     4  11  24  41  59  83 119 155 186 233 295 343
#     4  10  19  35  58  81 108 144 186 226 272 333
#     4  11  22  39  63  87 113 149 195 238 280 341
#
# _framework density 20.291941000000001
#
# number of rings (size 3 to 8) (size 9 to 14) (size 15 to 20)
#    0.000    1.800    0.000    4.200    0.000    7.600 
#    0.000   10.000    0.000    7.200    0.000    0.000 
#    0.000    0.000    0.000    0.000    0.000    0.000 
#
# Total GULP energy -247974.064910 kJ/mol
# GULP energy per Si atom -12398.703245 kJ/mol
# Density = 2.024576 g / cm^3
# Si number density = 20.291941 Si / 1000 Ang^3
#
#
#
# Elastic Constant Matrix: (Units=GPa)
#
#
# Indices 1 2 3 4 5 6 
#
# 1 89.6904 49.5946 50.0561 0.0000 -7.4222 0.0000
# 2 49.5946 97.3012 31.0052 0.0000 1.4042 0.0000
# 3 50.0561 31.0052 126.3271 0.0000 -12.3220 0.0000
# 4 0.0000 0.0000 0.0000 54.7351 0.0000 1.5797
# 5 -7.4222 1.4042 -12.3220 0.0000 34.8755 0.0000
# 6 0.0000 0.0000 0.0000 1.5797 0.0000 27.7304
#
#
#
# Elastic Compliance Matrix: (Units=1/GPa)
#
#
# Indices 1 2 3 4 5 6 
#
# 1 0.018600 -0.007857 -0.005204 0.000000 0.002436 0.000000
# 2 -0.007857 0.014541 -0.000700 0.000000 -0.002505 0.000000
# 3 -0.005204 -0.000700 0.010403 0.000000 0.002596 0.000000
# 4 0.000000 0.000000 0.000000 0.018300 0.000000 -0.001042
# 5 0.002436 -0.002505 0.002596 0.000000 0.030210 0.000000
# 6 0.000000 0.000000 0.000000 -0.001042 0.000000 0.036121
#
#
# Mechanical properties :
#
#
# Convention : Reuss Voigt Hill
#
# Bulk Modulus (GPa) = 62.41433 63.84782 63.13108
# Shear Modulus (GPa) = 31.04837 35.64572 33.34705
#
# Velocity S-wave (km/s) = 3.91587 4.19578 4.05824
# Velocity P-wave (km/s) = 7.16033 7.41658 7.28958
#
# Compressibility (1/GPa) = 0.01602196
#
# Stress axis : x y z
#
# Youngs Moduli (GPa) = 53.76276 68.76874 96.12573
#
# Poissons Ratio (x) = 0.54035 0.50024
# Poissons Ratio (y) = 0.42244 0.06728
# Poissons Ratio (z) = 0.27978 0.04813
#
# Static dielectric constant tensor:
#      x y z
#    x 3.496100 0.000000 -0.153780 
#    y 0.000000 3.863310 0.000000 
#    z -0.153780 0.000000 3.836990 
# 
# 
# High freq. dielectric constant tensor:
#      x y z
#    x 1.778490 0.000000 -0.015690 
#    y 0.000000 1.796640 0.000000 
#    z -0.015690 0.000000 1.806180 
# 
# From -- ./inp_files/20332.got.cif
#   From: 2010.06.25/outbox.cif.g09.slc.cpg/sg10_11_cif.got.tgz:20332.got - 2010.06.27 22:07:45.
