data_PCOD8062331
_publ_section_title
;
Structure prediction by ZEFSAII (Michael W. Deem and Ramdas Pophale) SiO2 
 PCOD8062331
Probable space group: P 2/M
;
_chemical_formula_sum "Si O2"
_cell_formula_units_Z 32
_cell_length_a 16.148641
_cell_length_b 17.654610
_cell_length_c 13.382842
_cell_angle_alpha 90.000000
_cell_angle_beta 27.208511
_cell_angle_gamma 90.000000
_cell_volume 1744.525070
_symmetry_space_group_name_H-M "P 2/M"
_symmetry_group_IT_number 10
_symmetry_cell_setting 'monoclinic'
loop_
_space_group_symop_operation_xyz
x,y,z
-x,y,-z
-x,-y,-z
x,-y,z
loop_
_atom_site_type_symbol
_atom_site_label
_atom_site_fract_x
_atom_site_fract_y
_atom_site_fract_z
Si Si1 0.808645 0.917408 0.257285
Si Si2 0.206007 0.310270 0.632220
Si Si3 0.485909 0.412425 0.634050
Si Si4 0.172913 0.304603 0.038922
Si Si5 0.418265 0.088736 0.979185
Si Si6 0.922004 0.196255 0.688649
Si Si7 0.244070 0.840054 0.485221
Si Si8 0.700711 0.226571 0.280334
O O1 0.841864 0.887446 0.332745
O O2 0.682008 0.861184 0.329927
O O3 0.715874 0.000000 0.358436
O O4 0.000000 0.921169 0.000000
O O5 0.334964 0.382656 0.502952
O O6 0.289827 0.246192 0.468933
O O7 0.175294 0.272394 0.774083
O O8 0.018669 0.340424 0.787703
O O9 0.500000 0.399312 0.500000
O O10 0.462793 0.500000 0.684321
O O11 0.318737 0.370063 0.866470
O O12 0.162240 0.268445 0.161223
O O13 0.216595 0.234036 0.918598
O O14 0.567095 0.120912 0.744020
O O15 0.383187 0.000000 0.996825
O O16 0.500000 0.103426 0.000000
O O17 0.229710 0.132498 0.166786
O O18 0.000000 0.227005 0.500000
O O19 0.091975 0.158379 0.562831
O O20 0.500000 0.263131 0.500000
#
# Coordination Sequence:
#
# PCOD8062331 Si02
#       8
#     4   4   4   4   4   4   4   4
#     4  10  21  36  52  76 111 149 192 239 286 342
#     4  10  19  35  59  80 115 152 183 223 268 329
#     4  11  22  36  57  93 127 149 178 217 271 345
#     4  11  21  37  61  83 111 154 188 226 283 330
#     4  11  23  37  57  80 112 151 188 244 309 346
#     4  11  23  39  59  84 109 144 201 249 285 335
#     4  10  21  39  59  81 109 148 196 240 284 342
#     4  11  19  33  54  78 111 144 189 233 272 337
#
# _framework density 18.343101000000001
#
# number of rings (size 3 to 8) (size 9 to 14) (size 15 to 20)
#    0.000    1.375    3.750    3.750    1.750    2.000 
#    0.000    1.875    0.000    0.375    0.000    3.500 
#    0.000    0.000    0.000    0.000    0.000    0.000 
#
# Total GULP energy -396701.062422 kJ/mol
# GULP energy per Si atom -12396.908201 kJ/mol
# Density = 1.830135 g / cm^3
# Si number density = 18.343101 Si / 1000 Ang^3
#
#
#
# Elastic Constant Matrix: (Units=GPa)
#
#
# Indices 1 2 3 4 5 6 
#
# 1 95.8831 55.1249 54.0651 0.0000 4.2953 0.0000
# 2 55.1249 128.7416 54.5536 0.0000 -1.5746 0.0000
# 3 54.0651 54.5536 111.2678 0.0000 6.0785 0.0000
# 4 0.0000 0.0000 0.0000 -76.3926 0.0000 -17.8902
# 5 4.2953 -1.5746 6.0785 0.0000 33.0399 0.0000
# 6 0.0000 0.0000 0.0000 -17.8902 0.0000 15.1993
#
#
#
# Elastic Compliance Matrix: (Units=1/GPa)
#
#
# Indices 1 2 3 4 5 6 
#
# 1 0.016294 -0.004630 -0.005575 0.000000 -0.001313 0.000000
# 2 -0.004630 0.011182 -0.003328 0.000000 0.001747 0.000000
# 3 -0.005575 -0.003328 0.013432 0.000000 -0.001905 0.000000
# 4 0.000000 0.000000 0.000000 -0.010262 0.000000 -0.012078
# 5 -0.001313 0.001747 -0.001905 0.000000 0.030871 0.000000
# 6 0.000000 0.000000 0.000000 -0.012078 0.000000 0.051576
#
#
# Mechanical properties :
#
#
# Convention : Reuss Voigt Hill
#
# Bulk Modulus (GPa) = 72.25049 73.70885 72.97967
# Shear Modulus (GPa) = 34.53680 5.84592 20.19136
#
# Velocity S-wave (km/s) = 4.34386 1.78715 3.32137
# Velocity P-wave (km/s) = 8.03945 6.67302 7.38789
#
# Compressibility (1/GPa) = 0.01384074
#
# Stress axis : x y z
#
# Youngs Moduli (GPa) = 61.37241 89.43227 74.44891
#
# Poissons Ratio (x) = 0.41410 0.41507
# Poissons Ratio (y) = 0.28418 0.24775
# Poissons Ratio (z) = 0.34217 0.29761
#
# Static dielectric constant tensor:
#      x y z
#    x 3.471310 0.000000 -0.043140 
#    y 0.000000 3.406970 0.000000 
#    z -0.043140 0.000000 3.477240 
# 
# 
# High freq. dielectric constant tensor:
#      x y z
#    x 1.707440 0.000000 -0.008150 
#    y 0.000000 1.694430 0.000000 
#    z -0.008150 0.000000 1.717240 
# 
# From -- ./inp_files/51963.got.cif
#   From: 2010.06.25/outbox.cif.g09.slc.cpg/sg10_26_cif.got.tgz:51963.got - 2010.06.27 22:07:45.
