data_PCOD8062125
_publ_section_title
;
Structure prediction by ZEFSAII (Michael W. Deem and Ramdas Pophale) SiO2 
 PCOD8062125
Probable space group: P 2/M
;
_chemical_formula_sum "Si O2"
_cell_formula_units_Z 30
_cell_length_a 15.153097
_cell_length_b 17.821849
_cell_length_c 12.347068
_cell_angle_alpha 90.000000
_cell_angle_beta 28.688414
_cell_angle_gamma 90.000000
_cell_volume 1600.666898
_symmetry_space_group_name_H-M "P 2/M"
_symmetry_group_IT_number 10
_symmetry_cell_setting 'monoclinic'
loop_
_space_group_symop_operation_xyz
x,y,z
-x,y,-z
-x,-y,-z
x,-y,z
loop_
_atom_site_type_symbol
_atom_site_label
_atom_site_fract_x
_atom_site_fract_y
_atom_site_fract_z
Si Si1 0.737484 0.309407 0.470634
Si Si2 0.000000 0.856517 0.500000
Si Si3 0.558435 0.913275 0.687597
Si Si4 0.965577 0.586960 0.914335
Si Si5 0.882127 0.157959 0.233616
Si Si6 0.552533 0.416599 0.319767
Si Si7 0.137765 0.914399 0.131278
Si Si8 0.663421 0.792334 0.745677
O O1 0.896699 0.370360 0.313568
O O2 0.811833 0.243584 0.311286
O O3 0.557350 0.350132 0.618620
O O4 0.686266 0.277628 0.641926
O O5 0.090301 0.907857 0.309421
O O6 0.153252 0.802008 0.383009
O O7 0.698344 0.893944 0.438061
O O8 0.620233 0.868496 0.727368
O O9 0.572659 0.000000 0.703175
O O10 0.349904 0.891907 0.880285
O O11 0.013583 0.500000 0.856789
O O12 0.000000 0.615519 0.000000
O O13 0.765251 0.605633 0.085223
O O14 0.010114 0.141513 0.199970
O O15 0.000000 0.140152 0.000000
O O16 0.500000 0.421690 0.500000
O O17 0.517805 0.500000 0.305613
O O18 0.101739 0.000000 0.133168
O O19 0.500000 0.770513 0.000000
#
# Coordination Sequence:
#
# PCOD8062125 Si02
#       8
#     4   2   4   4   4   4   4   4
#     4  11  22  38  58  88 124 163 196 238 307 361
#     4  12  21  40  64  88 115 148 206 266 309 358
#     4  10  22  40  61  87 116 154 205 259 312 361
#     4  10  19  34  59  91 125 158 198 243 289 346
#     4  11  25  41  56  88 129 166 200 241 303 382
#     4  10  20  35  61  95 125 157 198 242 284 343
#     4  11  23  39  64  90 114 155 207 262 314 358
#     4  11  24  40  60  87 120 156 199 259 312 366
#
# _framework density 18.742187999999999
#
# number of rings (size 3 to 8) (size 9 to 14) (size 15 to 20)
#    0.000    1.333    5.333    1.400    0.000    5.600 
#    0.000    1.333    0.000    1.600    0.000    3.733 
#    0.000    0.000    0.000    0.000    0.000    0.000 
#
# Total GULP energy -372004.658278 kJ/mol
# GULP energy per Si atom -12400.155276 kJ/mol
# Density = 1.869953 g / cm^3
# Si number density = 18.742188 Si / 1000 Ang^3
#
#
#
# Elastic Constant Matrix: (Units=GPa)
#
#
# Indices 1 2 3 4 5 6 
#
# 1 85.7674 59.8293 48.7330 0.0000 -16.2699 0.0000
# 2 59.8293 107.5839 57.6908 0.0000 -16.3090 0.0000
# 3 48.7330 57.6908 156.2417 0.0000 -5.4415 0.0000
# 4 0.0000 0.0000 0.0000 25.7810 0.0000 -1.9994
# 5 -16.2699 -16.3090 -5.4415 0.0000 40.4998 0.0000
# 6 0.0000 0.0000 0.0000 -1.9994 0.0000 28.8654
#
#
#
# Elastic Compliance Matrix: (Units=1/GPa)
#
#
# Indices 1 2 3 4 5 6 
#
# 1 0.020515 -0.009262 -0.002835 0.000000 0.004131 0.000000
# 2 -0.009262 0.016496 -0.003115 0.000000 0.002503 0.000000
# 3 -0.002835 -0.003115 0.008391 0.000000 -0.001266 0.000000
# 4 0.000000 0.000000 0.000000 0.038998 0.000000 0.002701
# 5 0.004131 0.002503 -0.001266 0.000000 0.027189 0.000000
# 6 0.000000 0.000000 0.000000 0.002701 0.000000 0.034831
#
#
# Mechanical properties :
#
#
# Convention : Reuss Voigt Hill
#
# Bulk Modulus (GPa) = 66.76744 75.78880 71.27812
# Shear Modulus (GPa) = 27.49745 31.25191 29.37468
#
# Velocity S-wave (km/s) = 3.83448 4.08789 3.96321
# Velocity P-wave (km/s) = 7.43679 7.92505 7.68480
#
# Compressibility (1/GPa) = 0.01497736
#
# Stress axis : x y z
#
# Youngs Moduli (GPa) = 48.74469 60.62152 119.18159
#
# Poissons Ratio (x) = 0.56150 0.33786
# Poissons Ratio (y) = 0.45149 0.37122
# Poissons Ratio (z) = 0.13819 0.18882
#
# Static dielectric constant tensor:
#      x y z
#    x 3.182360 0.000000 -0.116430 
#    y 0.000000 3.427800 0.000000 
#    z -0.116430 0.000000 3.744810 
# 
# 
# High freq. dielectric constant tensor:
#      x y z
#    x 1.706810 0.000000 -0.022230 
#    y 0.000000 1.725540 0.000000 
#    z -0.022230 0.000000 1.747030 
# 
# From -- ./inp_files/51879.got.cif
#   From: 2010.06.25/outbox.cif.g09.slc.cpg/sg10_26_cif.got.tgz:51879.got - 2010.06.27 22:07:45.
