data_PCOD8062112
_publ_section_title
;
Structure prediction by ZEFSAII (Michael W. Deem and Ramdas Pophale) SiO2 
 PCOD8062112
Probable space group: P 2/M
;
_chemical_formula_sum "Si O2"
_cell_formula_units_Z 24
_cell_length_a 9.085288
_cell_length_b 13.046408
_cell_length_c 10.243609
_cell_angle_alpha 90.000000
_cell_angle_beta 86.036827
_cell_angle_gamma 90.000000
_cell_volume 1211.275317
_symmetry_space_group_name_H-M "P 2/M"
_symmetry_group_IT_number 10
_symmetry_cell_setting 'monoclinic'
loop_
_space_group_symop_operation_xyz
x,y,z
-x,y,-z
-x,-y,-z
x,-y,z
loop_
_atom_site_type_symbol
_atom_site_label
_atom_site_fract_x
_atom_site_fract_y
_atom_site_fract_z
Si Si1 0.845129 0.190717 0.957809
Si Si2 0.677546 0.116695 0.730804
Si Si3 0.919784 0.616385 0.797402
Si Si4 0.250906 0.382555 0.700208
Si Si5 0.163318 0.270922 0.450940
Si Si6 0.577595 0.244914 0.127675
O O1 0.798658 0.121126 0.838490
O O2 0.855776 0.309937 0.912867
O O3 0.725566 0.182534 0.080739
O O4 0.000000 0.147786 0.000000
O O5 0.741800 0.173417 0.600028
O O6 0.526422 0.168090 0.787279
O O7 0.645243 0.000000 0.694293
O O8 0.876379 0.500000 0.835309
O O9 0.849008 0.644214 0.662142
O O10 0.095711 0.630520 0.783571
O O11 0.284382 0.500000 0.665720
O O12 0.249860 0.320770 0.565429
O O13 0.381956 0.340740 0.783470
O O14 0.000000 0.232922 0.500000
O O15 0.500000 0.285675 0.000000
#
# Coordination Sequence:
#
# PCOD8062112 Si02
#       6
#     4   4   4   4   4   4
#     4  10  19  35  60  88 116 147 193 244 276 331
#     4  10  23  42  61  80 111 155 192 240 305 347
#     4   9  17  31  57  90 120 153 188 228 284 340
#     4  10  19  34  59  87 118 157 193 225 277 342
#     4   9  19  37  61  87 117 144 189 249 287 334
#     4  10  22  38  56  82 124 157 187 233 281 339
#
# _framework density 19.813825999999999
#
# number of rings (size 3 to 8) (size 9 to 14) (size 15 to 20)
#    0.000    2.333    1.667    0.500    0.000    7.667 
#    0.000   10.000    0.000    0.000    0.000    0.000 
#    0.000    0.000    0.000    0.000    0.000    0.000 
#
# Total GULP energy -297653.605777 kJ/mol
# GULP energy per Si atom -12402.233574 kJ/mol
# Density = 1.976873 g / cm^3
# Si number density = 19.813826 Si / 1000 Ang^3
#
#
#
# Elastic Constant Matrix: (Units=GPa)
#
#
# Indices 1 2 3 4 5 6 
#
# 1 114.1119 50.3602 53.8751 0.0000 1.4268 0.0000
# 2 50.3602 133.8491 51.8552 0.0000 -6.5287 0.0000
# 3 53.8751 51.8552 93.6751 0.0000 -0.9086 0.0000
# 4 0.0000 0.0000 0.0000 14.0083 0.0000 -1.7487
# 5 1.4268 -6.5287 -0.9086 0.0000 36.1384 0.0000
# 6 0.0000 0.0000 0.0000 -1.7487 0.0000 22.2440
#
#
#
# Elastic Compliance Matrix: (Units=1/GPa)
#
#
# Indices 1 2 3 4 5 6 
#
# 1 0.012684 -0.002541 -0.005899 0.000000 -0.001108 0.000000
# 2 -0.002541 0.010112 -0.004118 0.000000 0.001824 0.000000
# 3 -0.005899 -0.004118 0.016347 0.000000 -0.000100 0.000000
# 4 0.000000 0.000000 0.000000 0.072094 0.000000 0.005668
# 5 -0.001108 0.001824 -0.000100 0.000000 0.028042 0.000000
# 6 0.000000 0.000000 0.000000 0.005668 0.000000 0.045401
#
#
# Mechanical properties :
#
#
# Convention : Reuss Voigt Hill
#
# Bulk Modulus (GPa) = 71.29886 72.64635 71.97260
# Shear Modulus (GPa) = 23.31323 26.84785 25.08054
#
# Velocity S-wave (km/s) = 3.43390 3.68503 3.56168
# Velocity P-wave (km/s) = 7.19616 7.40608 7.30188
#
# Compressibility (1/GPa) = 0.01402547
#
# Stress axis : x y z
#
# Youngs Moduli (GPa) = 78.84250 98.89666 61.17479
#
# Poissons Ratio (x) = 0.25128 0.36086
# Poissons Ratio (y) = 0.20033 0.25194
# Poissons Ratio (z) = 0.46508 0.40730
#
# Static dielectric constant tensor:
#      x y z
#    x 3.689010 0.000000 0.000830 
#    y 0.000000 3.294000 0.000000 
#    z 0.000830 0.000000 3.640340 
# 
# 
# High freq. dielectric constant tensor:
#      x y z
#    x 1.773310 0.000000 -0.000280 
#    y 0.000000 1.747620 0.000000 
#    z -0.000280 0.000000 1.776050 
# 
# From -- ./inp_files/41993.got.cif
#   From: 2010.06.25/outbox.cif.g09.slc.cpg/sg10_21_cif.got.tgz:41993.got - 2010.06.27 22:07:45.
