data_PCOD8062571
_publ_section_title
;
Structure prediction by ZEFSAII (Michael W. Deem and Ramdas Pophale) SiO2 
 PCOD8062571
Probable space group: P 2/M
;
_chemical_formula_sum "Si O2"
_cell_formula_units_Z 28
_cell_length_a 15.613873
_cell_length_b 7.869972
_cell_length_c 20.859340
_cell_angle_alpha 90.000000
_cell_angle_beta 148.848206
_cell_angle_gamma 90.000000
_cell_volume 1325.967515
_symmetry_space_group_name_H-M "P 2/M"
_symmetry_group_IT_number 10
_symmetry_cell_setting 'monoclinic'
loop_
_space_group_symop_operation_xyz
x,y,z
-x,y,-z
-x,-y,-z
x,-y,z
loop_
_atom_site_type_symbol
_atom_site_label
_atom_site_fract_x
_atom_site_fract_y
_atom_site_fract_z
Si Si1 0.048717 0.693125 0.829725
Si Si2 0.237276 0.000000 0.881275
Si Si3 0.748361 0.690592 0.304898
Si Si4 0.759963 0.190598 0.566321
Si Si5 0.571959 0.303906 0.612792
Si Si6 0.615238 0.000000 0.154146
Si Si7 0.095746 0.690285 0.464609
Si Si8 0.078187 0.300780 0.115915
O O1 0.114905 0.500000 0.860466
O O2 0.157526 0.830194 0.860539
O O3 0.858313 0.702805 0.683569
O O4 0.047205 0.734363 0.904966
O O5 0.232849 0.000000 0.800603
O O6 0.431940 0.000000 0.011520
O O7 0.690774 0.500000 0.248536
O O8 0.763690 0.703987 0.391165
O O9 0.921669 0.737791 0.383562
O O10 0.618892 0.829942 0.199206
O O11 0.580794 0.273562 0.436263
O O12 0.864188 0.184230 0.567573
O O13 0.742237 0.000000 0.580432
O O14 0.500000 0.222186 0.500000
O O15 0.610526 0.500000 0.626127
O O16 0.740401 0.220401 0.749952
O O17 0.091045 0.500000 0.433247
O O18 0.102427 0.500000 0.120226
O O19 0.000000 0.221284 0.000000
#
# Coordination Sequence:
#
# PCOD8062571 Si02
#       8
#     4   2   4   4   4   2   4   4
#     4  11  22  42  67  89 123 161 206 264 312 365
#     4  11  26  44  59  95 116 157 215 257 307 371
#     4   9  20  38  61  88 119 160 202 248 310 375
#     4  12  23  34  57  93 126 156 204 255 309 369
#     4  10  19  36  60  87 120 158 202 253 311 365
#     4  11  24  41  64  82 126 160 203 261 305 372
#     4   9  19  36  58  88 121 156 204 249 304 374
#     4   9  19  39  66  91 119 166 215 253 311 379
#
# _framework density 21.116657
#
# number of rings (size 3 to 8) (size 9 to 14) (size 15 to 20)
#    0.000    1.857    2.143    3.000    2.000    3.143 
#    3.857    1.786    0.000    0.000    0.000    0.000 
#    0.000    0.000    0.000    0.000    0.000    0.000 
#
# Total GULP energy -346975.409025 kJ/mol
# GULP energy per Si atom -12391.978894 kJ/mol
# Density = 2.106859 g / cm^3
# Si number density = 21.116657 Si / 1000 Ang^3
#
#
#
# Elastic Constant Matrix: (Units=GPa)
#
#
# Indices 1 2 3 4 5 6 
#
# 1 74.1040 23.3343 38.4642 0.0000 -13.0397 0.0000
# 2 23.3343 96.5217 27.6285 0.0000 -3.7645 0.0000
# 3 38.4642 27.6285 103.9966 0.0000 -8.5190 0.0000
# 4 0.0000 0.0000 0.0000 20.6295 0.0000 -0.8234
# 5 -13.0397 -3.7645 -8.5190 0.0000 30.6734 0.0000
# 6 0.0000 0.0000 0.0000 -0.8234 0.0000 34.8688
#
#
#
# Elastic Compliance Matrix: (Units=1/GPa)
#
#
# Indices 1 2 3 4 5 6 
#
# 1 0.018239 -0.002583 -0.005577 0.000000 0.005888 0.000000
# 2 -0.002583 0.011588 -0.002145 0.000000 -0.000272 0.000000
# 3 -0.005577 -0.002145 0.012313 0.000000 0.000785 0.000000
# 4 0.000000 0.000000 0.000000 0.048520 0.000000 0.001146
# 5 0.005888 -0.000272 0.000785 0.000000 0.035289 0.000000
# 6 0.000000 0.000000 0.000000 0.001146 0.000000 0.028706
#
#
# Mechanical properties :
#
#
# Convention : Reuss Voigt Hill
#
# Bulk Modulus (GPa) = 46.45079 50.38625 48.41852
# Shear Modulus (GPa) = 27.40576 29.58070 28.49323
#
# Velocity S-wave (km/s) = 3.60644 3.74682 3.67730
# Velocity P-wave (km/s) = 6.27590 6.52923 6.40382
#
# Compressibility (1/GPa) = 0.02152816
#
# Stress axis : x y z
#
# Youngs Moduli (GPa) = 54.82781 86.29327 81.21608
#
# Poissons Ratio (x) = 0.22291 0.45296
# Poissons Ratio (y) = 0.14163 0.17425
# Poissons Ratio (z) = 0.30579 0.18514
#
# Static dielectric constant tensor:
#      x y z
#    x 3.875310 0.000000 -0.185460 
#    y 0.000000 3.580620 0.000000 
#    z -0.185460 0.000000 3.910720 
# 
# 
# High freq. dielectric constant tensor:
#      x y z
#    x 1.826370 0.000000 -0.007570 
#    y 0.000000 1.816900 0.000000 
#    z -0.007570 0.000000 1.811400 
# 
# From -- ./inp_files/85005.got.cif
#   From: 2010.06.25/outbox.cif.g09.slc.cpg/sg10_43_cif.got.tgz:85005.got - 2010.06.27 22:07:45.
