data_PCOD8062486
_publ_section_title
;
Structure prediction by ZEFSAII (Michael W. Deem and Ramdas Pophale) SiO2 
 PCOD8062486
Probable space group: P 2/M
;
_chemical_formula_sum "Si O2"
_cell_formula_units_Z 28
_cell_length_a 26.907821
_cell_length_b 9.310861
_cell_length_c 9.289474
_cell_angle_alpha 90.000000
_cell_angle_beta 140.249226
_cell_angle_gamma 90.000000
_cell_volume 1488.214984
_symmetry_space_group_name_H-M "P 2/M"
_symmetry_group_IT_number 10
_symmetry_cell_setting 'monoclinic'
loop_
_space_group_symop_operation_xyz
x,y,z
-x,y,-z
-x,-y,-z
x,-y,z
loop_
_atom_site_type_symbol
_atom_site_label
_atom_site_fract_x
_atom_site_fract_y
_atom_site_fract_z
Si Si1 0.430041 0.839674 0.235544
Si Si2 0.566240 0.664065 0.029635
Si Si3 0.917323 0.166529 0.367808
Si Si4 0.778082 0.832095 0.839583
Si Si5 0.256425 0.668821 0.515994
Si Si6 0.308589 0.341455 0.134855
Si Si7 0.829444 0.343098 0.386806
O O1 0.500000 0.848521 0.500000
O O2 0.365537 0.735538 0.153033
O O3 0.396379 0.000000 0.133770
O O4 0.459829 0.770991 0.154106
O O5 0.568755 0.500000 0.978727
O O6 0.651965 0.707357 0.277077
O O7 0.500000 0.683699 0.000000
O O8 0.896188 0.238803 0.474469
O O9 0.000000 0.228565 0.500000
O O10 0.923522 0.000000 0.417790
O O11 0.856225 0.195165 0.103913
O O12 0.786719 0.759540 0.703249
O O13 0.704706 0.756214 0.754120
O O14 0.759582 0.000000 0.782481
O O15 0.244737 0.500000 0.461311
O O16 0.214913 0.718092 0.571817
O O17 0.340231 0.500000 0.250943
O O18 0.229142 0.361258 0.874604
O O19 0.865256 0.500000 0.502639
#
# Coordination Sequence:
#
# PCOD8062486 Si02
#       7
#     4   4   4   4   4   4   4
#     4  11  24  38  53  79 112 142 181 233 285 332
#     4  10  22  40  59  80 107 148 196 234 276 330
#     4   9  19  37  59  83 113 146 182 223 268 327
#     4  10  21  35  55  85 114 143 183 226 276 330
#     4  10  20  37  56  81 114 147 187 232 274 330
#     4  10  19  36  58  78 103 142 187 230 273 324
#     4   9  18  34  57  82 108 139 182 227 269 323
#
# _framework density 18.814485999999999
#
# number of rings (size 3 to 8) (size 9 to 14) (size 15 to 20)
#    0.000    2.143    1.429    1.286    2.000    4.000 
#    0.000    0.714    0.000    4.286    0.000    0.000 
#    0.000    0.000    0.000    0.000    0.000    0.000 
#
# Total GULP energy -347140.992841 kJ/mol
# GULP energy per Si atom -12397.892601 kJ/mol
# Density = 1.877166 g / cm^3
# Si number density = 18.814486 Si / 1000 Ang^3
#
#
#
# Elastic Constant Matrix: (Units=GPa)
#
#
# Indices 1 2 3 4 5 6 
#
# 1 147.8877 70.1861 41.0280 0.0000 -0.4703 0.0000
# 2 70.1861 120.1994 41.8390 0.0000 -5.5977 0.0000
# 3 41.0280 41.8390 48.7317 0.0000 -8.9149 0.0000
# 4 0.0000 0.0000 0.0000 28.8863 0.0000 -6.7638
# 5 -0.4703 -5.5977 -8.9149 0.0000 30.4612 0.0000
# 6 0.0000 0.0000 0.0000 -6.7638 0.0000 33.6326
#
#
#
# Elastic Compliance Matrix: (Units=1/GPa)
#
#
# Indices 1 2 3 4 5 6 
#
# 1 0.010255 -0.004200 -0.005431 0.000000 -0.002203 0.000000
# 2 -0.004200 0.013607 -0.008136 0.000000 0.000055 0.000000
# 3 -0.005431 -0.008136 0.033587 0.000000 0.008251 0.000000
# 4 0.000000 0.000000 0.000000 0.036329 0.000000 0.007306
# 5 -0.002203 0.000055 0.008251 0.000000 0.035219 0.000000
# 6 0.000000 0.000000 0.000000 0.007306 0.000000 0.031202
#
#
# Mechanical properties :
#
#
# Convention : Reuss Voigt Hill
#
# Bulk Modulus (GPa) = 45.63033 69.21388 57.42210
# Shear Modulus (GPa) = 24.62600 29.51374 27.06987
#
# Velocity S-wave (km/s) = 3.62178 3.96494 3.79724
# Velocity P-wave (km/s) = 6.46491 7.60450 7.05774
#
# Compressibility (1/GPa) = 0.02191525
#
# Stress axis : x y z
#
# Youngs Moduli (GPa) = 97.51458 73.49408 29.77345
#
# Poissons Ratio (x) = 0.30870 0.16169
# Poissons Ratio (y) = 0.40959 0.24223
# Poissons Ratio (z) = 0.52956 0.59793
#
# Static dielectric constant tensor:
#      x y z
#    x 3.458880 0.000000 -0.138690 
#    y 0.000000 3.773420 0.000000 
#    z -0.138690 0.000000 3.068760 
# 
# 
# High freq. dielectric constant tensor:
#      x y z
#    x 1.737330 0.000000 -0.007550 
#    y 0.000000 1.737880 0.000000 
#    z -0.007550 0.000000 1.704490 
# 
# From -- ./inp_files/37039.got.cif
#   From: 2010.06.25/outbox.cif.g09.slc.cpg/sg10_19_cif.got.tgz:37039.got - 2010.06.27 22:07:45.
