data_PCOD8062239
_publ_section_title
;
Structure prediction by ZEFSAII (Michael W. Deem and Ramdas Pophale) SiO2 
 PCOD8062239
Probable space group: P 2/M
;
_chemical_formula_sum "Si O2"
_cell_formula_units_Z 26
_cell_length_a 17.157404
_cell_length_b 17.191586
_cell_length_c 5.035165
_cell_angle_alpha 90.000000
_cell_angle_beta 68.759228
_cell_angle_gamma 90.000000
_cell_volume 1384.292934
_symmetry_space_group_name_H-M "P 2/M"
_symmetry_group_IT_number 10
_symmetry_cell_setting 'monoclinic'
loop_
_space_group_symop_operation_xyz
x,y,z
-x,y,-z
-x,-y,-z
x,-y,z
loop_
_atom_site_type_symbol
_atom_site_label
_atom_site_fract_x
_atom_site_fract_y
_atom_site_fract_z
Si Si1 0.677890 0.787694 0.200582
Si Si2 0.445160 0.913227 0.826834
Si Si3 0.940712 0.168949 0.322989
Si Si4 0.690528 0.414100 0.667093
Si Si5 0.058029 0.000000 0.678361
Si Si6 0.592610 0.630443 0.291073
Si Si7 0.775159 0.255603 0.585756
O O1 0.638625 0.867544 0.145166
O O2 0.604885 0.723341 0.279570
O O3 0.714396 0.789694 0.453968
O O4 0.754568 0.769987 0.909848
O O5 0.500000 0.915634 0.500000
O O6 0.417365 0.000000 0.948228
O O7 0.500000 0.875472 0.000000
O O8 0.870884 0.235661 0.406225
O O9 0.000000 0.178926 0.500000
O O10 0.893241 0.083255 0.381043
O O11 0.000000 0.180112 0.000000
O O12 0.729098 0.500000 0.668830
O O13 0.654827 0.412107 0.414820
O O14 0.763030 0.349058 0.592742
O O15 0.614479 0.398872 0.968003
O O16 0.000000 0.000000 0.500000
O O17 0.000000 0.000000 0.000000
O O18 0.500000 0.609153 0.500000
#
# Coordination Sequence:
#
# PCOD8062239 Si02
#       7
#     4   4   4   4   2   4   4
#     4  10  20  35  50  74 106 135 176 216 262 307
#     4  10  20  34  52  72 100 140 182 221 257 296
#     4  10  19  35  57  79 105 134 169 207 255 314
#     4  10  21  35  51  73 105 138 168 213 266 312
#     4   8  16  30  50  76 102 126 154 194 246 302
#     4  10  20  32  51  75 100 135 177 217 257 306
#     4  10  21  36  54  77 104 136 172 211 260 321
#
# _framework density 18.782150999999999
#
# number of rings (size 3 to 8) (size 9 to 14) (size 15 to 20)
#    0.000    2.154    0.000    3.231    0.000    4.308 
#    2.769    0.000    0.000    0.923    0.000    0.000 
#    0.000    0.000    0.000    0.000    0.000    0.000 
#
# Total GULP energy -322233.598281 kJ/mol
# GULP energy per Si atom -12393.599934 kJ/mol
# Density = 1.873940 g / cm^3
# Si number density = 18.782151 Si / 1000 Ang^3
#
#
#
# Elastic Constant Matrix: (Units=GPa)
#
#
# Indices 1 2 3 4 5 6 
#
# 1 63.3388 49.7312 29.6602 0.0000 -3.2355 0.0000
# 2 49.7312 118.1824 32.6923 0.0000 -18.4520 0.0000
# 3 29.6602 32.6923 87.0522 0.0000 7.8162 0.0000
# 4 0.0000 0.0000 0.0000 17.1560 0.0000 0.5654
# 5 -3.2355 -18.4520 7.8162 0.0000 36.3713 0.0000
# 6 0.0000 0.0000 0.0000 0.5654 0.0000 17.5043
#
#
#
# Elastic Compliance Matrix: (Units=1/GPa)
#
#
# Indices 1 2 3 4 5 6 
#
# 1 0.025605 -0.009643 -0.004964 0.000000 -0.001548 0.000000
# 2 -0.009643 0.014375 -0.002744 0.000000 0.007025 0.000000
# 3 -0.004964 -0.002744 0.014656 0.000000 -0.004983 0.000000
# 4 0.000000 0.000000 0.000000 0.058351 0.000000 -0.001885
# 5 -0.001548 0.007025 -0.004983 0.000000 0.031991 0.000000
# 6 0.000000 0.000000 0.000000 -0.001885 0.000000 0.057190
#
#
# Mechanical properties :
#
#
# Convention : Reuss Voigt Hill
#
# Bulk Modulus (GPa) = 50.16184 54.74897 52.45541
# Shear Modulus (GPa) = 20.53273 24.63896 22.58584
#
# Velocity S-wave (km/s) = 3.30995 3.62585 3.47149
# Velocity P-wave (km/s) = 6.43217 6.83679 6.63757
#
# Compressibility (1/GPa) = 0.01993547
#
# Stress axis : x y z
#
# Youngs Moduli (GPa) = 39.05521 69.56492 68.22988
#
# Poissons Ratio (x) = 0.67082 0.33866
# Poissons Ratio (y) = 0.37661 0.18720
# Poissons Ratio (z) = 0.19385 0.19086
#
# Static dielectric constant tensor:
#      x y z
#    x 3.088630 0.000000 0.304920 
#    y 0.000000 3.786700 0.000000 
#    z 0.304920 0.000000 3.511280 
# 
# 
# High freq. dielectric constant tensor:
#      x y z
#    x 1.696790 0.000000 0.032570 
#    y 0.000000 1.729560 0.000000 
#    z 0.032570 0.000000 1.741570 
# 
# From -- ./inp_files/9598.got.cif
#   From: 2010.06.25/outbox.cif.g09.slc.cpg/sg10_5_cif.got.tgz:9598.got - 2010.06.27 22:07:45.
