data_PCOD8062507
_publ_section_title
;
Structure prediction by ZEFSAII (Michael W. Deem and Ramdas Pophale) SiO2 
 PCOD8062507
Probable space group: P 2/M
;
_chemical_formula_sum "Si O2"
_cell_formula_units_Z 24
_cell_length_a 14.598493
_cell_length_b 8.712867
_cell_length_c 16.096665
_cell_angle_alpha 90.000000
_cell_angle_beta 142.418292
_cell_angle_gamma 90.000000
_cell_volume 1248.699933
_symmetry_space_group_name_H-M "P 2/M"
_symmetry_group_IT_number 10
_symmetry_cell_setting 'monoclinic'
loop_
_space_group_symop_operation_xyz
x,y,z
-x,y,-z
-x,-y,-z
x,-y,z
loop_
_atom_site_type_symbol
_atom_site_label
_atom_site_fract_x
_atom_site_fract_y
_atom_site_fract_z
Si Si1 0.715361 0.818511 0.101825
Si Si2 0.547577 0.824238 0.628821
Si Si3 0.964828 0.817362 0.726420
Si Si4 0.882883 0.817431 0.849073
Si Si5 0.403230 0.818286 0.807037
Si Si6 0.697482 0.321136 0.434813
O O1 0.687429 0.765436 0.176233
O O2 0.871794 0.749534 0.180533
O O3 0.722557 0.000000 0.106404
O O4 0.577607 0.768033 0.943428
O O5 0.500000 0.808480 0.500000
O O6 0.718059 0.765589 0.759645
O O7 0.446861 0.717883 0.613701
O O8 0.529934 0.000000 0.646329
O O9 0.920794 0.750917 0.785241
O O10 0.843997 0.766227 0.572143
O O11 0.967603 0.000000 0.730042
O O12 0.891014 0.000000 0.851008
O O13 0.000000 0.750566 0.000000
O O14 0.331045 0.727434 0.679740
O O15 0.390172 0.000000 0.782227
O O16 0.729354 0.500000 0.462564
#
# Coordination Sequence:
#
# PCOD8062507 Si02
#       6
#     4   4   4   4   4   4
#     4   8  17  34  62  90 110 135 180 238 286 324
#     4  10  19  36  59  81 106 142 183 227 274 323
#     4  10  19  36  58  83 112 144 183 230 277 327
#     4   9  18  31  54  87 112 133 173 226 280 328
#     4   9  18  37  61  87 111 139 181 231 283 334
#     4  12  25  37  52  80 115 154 190 223 268 326
#
# _framework density 19.219989999999999
#
# number of rings (size 3 to 8) (size 9 to 14) (size 15 to 20)
#    0.000    2.333    1.667    2.500    2.333    1.000 
#    0.000    6.667    0.000    1.000    0.000    0.000 
#    0.000    0.000    0.000    0.000    0.000    0.000 
#
# Total GULP energy -297591.529145 kJ/mol
# GULP energy per Si atom -12399.647048 kJ/mol
# Density = 1.917624 g / cm^3
# Si number density = 19.219990 Si / 1000 Ang^3
#
#
#
# Elastic Constant Matrix: (Units=GPa)
#
#
# Indices 1 2 3 4 5 6 
#
# 1 99.1295 15.7431 55.7791 0.0000 11.7886 0.0000
# 2 15.7431 23.3754 9.2282 0.0000 -0.1021 0.0000
# 3 55.7791 9.2282 140.1454 0.0000 9.4590 0.0000
# 4 0.0000 0.0000 0.0000 0.8551 0.0000 -1.9197
# 5 11.7886 -0.1021 9.4590 0.0000 35.0786 0.0000
# 6 0.0000 0.0000 0.0000 -1.9197 0.0000 5.9124
#
#
#
# Elastic Compliance Matrix: (Units=1/GPa)
#
#
# Indices 1 2 3 4 5 6 
#
# 1 0.014604 -0.007856 -0.005054 0.000000 -0.003568 0.000000
# 2 -0.007856 0.048177 -0.000238 0.000000 0.002844 0.000000
# 3 -0.005054 -0.000238 0.009216 0.000000 -0.000787 0.000000
# 4 0.000000 0.000000 0.000000 4.314956 0.000000 1.401035
# 5 -0.003568 0.002844 -0.000787 0.000000 0.029927 0.000000
# 6 0.000000 0.000000 0.000000 1.401035 0.000000 0.624041
#
#
# Mechanical properties :
#
#
# Convention : Reuss Voigt Hill
#
# Bulk Modulus (GPa) = 21.88126 47.12788 34.50457
# Shear Modulus (GPa) = 0.98378 20.49588 10.73983
#
# Velocity S-wave (km/s) = 0.71621 3.26910 2.36643
# Velocity P-wave (km/s) = 3.47754 6.23079 5.04560
#
# Compressibility (1/GPa) = 0.04570121
#
# Stress axis : x y z
#
# Youngs Moduli (GPa) = 68.47578 20.75684 108.50817
#
# Poissons Ratio (x) = 0.16306 0.54844
# Poissons Ratio (y) = 0.53792 0.02579
# Poissons Ratio (z) = 0.34610 0.00493
#
# Static dielectric constant tensor:
#      x y z
#    x 3.987040 0.000000 0.192800 
#    y 0.000000 2.997590 0.000000 
#    z 0.192800 0.000000 3.717870 
# 
# 
# High freq. dielectric constant tensor:
#      x y z
#    x 1.757870 0.000000 0.003240 
#    y 0.000000 1.695740 0.000000 
#    z 0.003240 0.000000 1.761650 
# 
# From -- ./inp_files/66679.got.cif
#   From: 2010.06.25/outbox.cif.g09.slc.cpg/sg10_34_cif.got.tgz:66679.got - 2010.06.27 22:07:45.
