data_PCOD8062168
_publ_section_title
;
Structure prediction by ZEFSAII (Michael W. Deem and Ramdas Pophale) SiO2 
 PCOD8062168
Probable space group: P 2/M
;
_chemical_formula_sum "Si O2"
_cell_formula_units_Z 32
_cell_length_a 23.711679
_cell_length_b 8.564563
_cell_length_c 15.501731
_cell_angle_alpha 90.000000
_cell_angle_beta 31.529248
_cell_angle_gamma 90.000000
_cell_volume 1646.244668
_symmetry_space_group_name_H-M "P 2/M"
_symmetry_group_IT_number 10
_symmetry_cell_setting 'monoclinic'
loop_
_space_group_symop_operation_xyz
x,y,z
-x,y,-z
-x,-y,-z
x,-y,z
loop_
_atom_site_type_symbol
_atom_site_label
_atom_site_fract_x
_atom_site_fract_y
_atom_site_fract_z
Si Si1 0.884075 0.172559 0.690600
Si Si2 0.144535 0.316299 0.754226
Si Si3 0.371423 0.181767 0.404323
Si Si4 0.699174 0.678420 0.850985
Si Si5 0.207402 0.180906 0.010478
Si Si6 0.588766 0.314434 0.166496
Si Si7 0.931731 0.815481 0.968714
Si Si8 0.606775 0.675424 0.804652
O O1 0.822023 0.302926 0.717842
O O2 0.000000 0.178717 0.500000
O O3 0.833316 0.000000 0.742050
O O4 0.876658 0.211354 0.801739
O O5 0.136252 0.500000 0.781750
O O6 0.261874 0.274387 0.565722
O O7 0.127339 0.224347 0.865388
O O8 0.049998 0.265476 0.810554
O O9 0.469795 0.241579 0.337400
O O10 0.402172 0.211359 0.264793
O O11 0.352945 0.000000 0.445669
O O12 0.664549 0.500000 0.887395
O O13 0.689303 0.750117 0.767530
O O14 0.626214 0.750218 0.023390
O O15 0.323136 0.263917 0.876461
O O16 0.146088 0.247893 0.006272
O O17 0.233865 0.000000 0.962767
O O18 0.579787 0.500000 0.179854
O O19 0.949082 0.000000 0.937402
O O20 0.637666 0.500000 0.732150
O O21 0.500000 0.669581 0.000000
#
# Coordination Sequence:
#
# PCOD8062168 Si02
#       8
#     4   4   4   4   4   4   4   4
#     4   9  18  32  49  73 108 146 183 225 269 316
#     4  11  23  40  62  87 115 148 189 236 291 346
#     4  12  24  37  56  84 117 150 193 239 291 346
#     4   9  18  32  51  73 102 143 184 224 271 322
#     4   9  19  35  57  84 113 149 188 231 283 337
#     4  10  19  35  56  80 112 151 190 230 279 334
#     4  10  20  39  64  88 118 149 187 235 291 346
#     4  10  19  35  54  76 111 148 185 227 277 331
#
# _framework density 19.438179999999999
#
# number of rings (size 3 to 8) (size 9 to 14) (size 15 to 20)
#    0.000    2.000    1.250    3.750    0.000    3.500 
#    0.000    1.875    0.000    3.750    0.000    0.000 
#    0.000    0.000    0.000    0.000    0.000    0.000 
#
# Total GULP energy -396542.128877 kJ/mol
# GULP energy per Si atom -12391.941527 kJ/mol
# Density = 1.939394 g / cm^3
# Si number density = 19.438180 Si / 1000 Ang^3
#
#
#
# Elastic Constant Matrix: (Units=GPa)
#
#
# Indices 1 2 3 4 5 6 
#
# 1 146.3265 25.7256 44.5638 0.0000 -17.2652 0.0000
# 2 25.7256 56.1154 17.1555 0.0000 -8.5541 0.0000
# 3 44.5638 17.1555 81.1484 0.0000 -19.4340 0.0000
# 4 0.0000 0.0000 0.0000 48.9606 0.0000 -0.5160
# 5 -17.2652 -8.5541 -19.4340 0.0000 22.7424 0.0000
# 6 0.0000 0.0000 0.0000 -0.5160 0.0000 29.7484
#
#
#
# Elastic Compliance Matrix: (Units=1/GPa)
#
#
# Indices 1 2 3 4 5 6 
#
# 1 0.008676 -0.002479 -0.003629 0.000000 0.002553 0.000000
# 2 -0.002479 0.020165 -0.001931 0.000000 0.004053 0.000000
# 3 -0.003629 -0.001931 0.017465 0.000000 0.011443 0.000000
# 4 0.000000 0.000000 0.000000 0.020428 0.000000 0.000354
# 5 0.002553 0.004053 0.011443 0.000000 0.057211 0.000000
# 6 0.000000 0.000000 0.000000 0.000354 0.000000 0.033621
#
#
# Mechanical properties :
#
#
# Convention : Reuss Voigt Hill
#
# Bulk Modulus (GPa) = 33.08250 50.94222 42.01236
# Shear Modulus (GPa) = 27.21509 33.36665 30.29087
#
# Velocity S-wave (km/s) = 3.74583 4.14762 3.95184
# Velocity P-wave (km/s) = 5.98035 7.01436 6.51789
#
# Compressibility (1/GPa) = 0.03022746
#
# Stress axis : x y z
#
# Youngs Moduli (GPa) = 115.25548 49.59083 57.25801
#
# Poissons Ratio (x) = 0.12293 0.20780
# Poissons Ratio (y) = 0.28570 0.11058
# Poissons Ratio (z) = 0.41829 0.09577
#
# Static dielectric constant tensor:
#      x y z
#    x 4.320920 0.000000 -0.097670 
#    y 0.000000 3.579720 0.000000 
#    z -0.097670 0.000000 3.407410 
# 
# 
# High freq. dielectric constant tensor:
#      x y z
#    x 1.764220 0.000000 -0.013840 
#    y 0.000000 1.751000 0.000000 
#    z -0.013840 0.000000 1.740390 
# 
# From -- ./inp_files/71409.got.cif
#   From: 2010.06.25/outbox.cif.g09.slc.cpg/sg10_36_cif.got.tgz:71409.got - 2010.06.27 22:07:45.
