data_PCOD8062756
_publ_section_title
;
Structure prediction by ZEFSAII (Michael W. Deem and Ramdas Pophale) SiO2 
 PCOD8062756
Probable space group: P 2/M
;
_chemical_formula_sum "Si O2"
_cell_formula_units_Z 28
_cell_length_a 20.232362
_cell_length_b 8.996642
_cell_length_c 23.221126
_cell_angle_alpha 90.000000
_cell_angle_beta 160.549858
_cell_angle_gamma 90.000000
_cell_volume 1407.462636
_symmetry_space_group_name_H-M "P 2/M"
_symmetry_group_IT_number 10
_symmetry_cell_setting 'monoclinic'
loop_
_space_group_symop_operation_xyz
x,y,z
-x,y,-z
-x,-y,-z
x,-y,z
loop_
_atom_site_type_symbol
_atom_site_label
_atom_site_fract_x
_atom_site_fract_y
_atom_site_fract_z
Si Si1 0.213159 0.842218 0.695577
Si Si2 0.106806 0.676686 0.245529
Si Si3 0.322714 0.176095 0.106154
Si Si4 0.817676 0.828838 0.809760
Si Si5 0.509400 0.327398 0.864147
Si Si6 0.454624 0.828602 0.594751
Si Si7 0.712083 0.340113 0.143262
O O1 0.310366 0.721889 0.733264
O O2 0.172127 0.785445 0.727119
O O3 0.000000 0.881896 0.500000
O O4 0.334174 0.000000 0.796209
O O5 0.093682 0.500000 0.238983
O O6 0.191035 0.725120 0.252981
O O7 0.256275 0.734554 0.418207
O O8 0.887955 0.743436 0.073341
O O9 0.459702 0.225010 0.165751
O O10 0.438658 0.226568 0.259066
O O11 0.287344 0.000000 0.077435
O O12 0.610380 0.806815 0.671340
O O13 0.848726 0.000000 0.815990
O O14 0.000000 0.779309 0.000000
O O15 0.490824 0.500000 0.831174
O O16 0.690643 0.302236 0.058007
O O17 0.391307 0.000000 0.548566
O O18 0.819356 0.500000 0.237461
O O19 0.500000 0.347629 0.000000
#
# Coordination Sequence:
#
# PCOD8062756 Si02
#       7
#     4   4   4   4   4   4   4
#     4  10  20  34  55  86 118 149 193 241 284 339
#     4  12  25  39  60  92 127 159 199 252 312 369
#     4  11  23  43  66  87 118 163 210 253 301 361
#     4  10  19  38  65  90 118 159 208 254 305 360
#     4  10  21  38  59  85 116 152 191 237 300 359
#     4  10  22  41  65  89 118 160 209 256 302 361
#     4   8  16  32  54  78 106 140 179 225 280 339
#
# _framework density 19.893957
#
# number of rings (size 3 to 8) (size 9 to 14) (size 15 to 20)
#    0.000    1.857    1.429    3.857    0.000    8.000 
#    2.571    0.000    0.000    0.000    0.000    0.000 
#    0.000    0.000    0.000    0.000    0.000    0.000 
#
# Total GULP energy -347039.014850 kJ/mol
# GULP energy per Si atom -12394.250530 kJ/mol
# Density = 1.984868 g / cm^3
# Si number density = 19.893957 Si / 1000 Ang^3
#
#
#
# Elastic Constant Matrix: (Units=GPa)
#
#
# Indices 1 2 3 4 5 6 
#
# 1 86.8016 39.2435 28.7099 0.0000 -12.8263 0.0000
# 2 39.2435 116.9515 57.7961 0.0000 -15.4681 0.0000
# 3 28.7099 57.7961 112.3057 0.0000 -17.9010 0.0000
# 4 0.0000 0.0000 0.0000 21.4676 0.0000 -1.0932
# 5 -12.8263 -15.4681 -17.9010 0.0000 19.3803 0.0000
# 6 0.0000 0.0000 0.0000 -1.0932 0.0000 30.6468
#
#
#
# Elastic Compliance Matrix: (Units=1/GPa)
#
#
# Indices 1 2 3 4 5 6 
#
# 1 0.014291 -0.003596 -0.000883 0.000000 0.005773 0.000000
# 2 -0.003596 0.012692 -0.005133 0.000000 0.003009 0.000000
# 3 -0.000883 -0.005133 0.012929 0.000000 0.007261 0.000000
# 4 0.000000 0.000000 0.000000 0.046667 0.000000 0.001665
# 5 0.005773 0.003009 0.007261 0.000000 0.064528 0.000000
# 6 0.000000 0.000000 0.000000 0.001665 0.000000 0.032689
#
#
# Mechanical properties :
#
#
# Convention : Reuss Voigt Hill
#
# Bulk Modulus (GPa) = 48.33409 63.06198 55.69803
# Shear Modulus (GPa) = 23.81925 26.98620 25.40273
#
# Velocity S-wave (km/s) = 3.46397 3.68707 3.57726
# Velocity P-wave (km/s) = 6.35196 7.06356 6.71719
#
# Compressibility (1/GPa) = 0.02068933
#
# Stress axis : x y z
#
# Youngs Moduli (GPa) = 69.97318 78.79242 77.34685
#
# Poissons Ratio (x) = 0.28331 0.06828
# Poissons Ratio (y) = 0.25160 0.39700
# Poissons Ratio (z) = 0.06177 0.40442
#
# Static dielectric constant tensor:
#      x y z
#    x 3.715690 0.000000 -0.357550 
#    y 0.000000 3.739640 0.000000 
#    z -0.357550 0.000000 3.635870 
# 
# 
# High freq. dielectric constant tensor:
#      x y z
#    x 1.768220 0.000000 -0.018360 
#    y 0.000000 1.781110 0.000000 
#    z -0.018360 0.000000 1.768400 
# 
# From -- ./inp_files/90393.got.cif
#   From: 2010.06.25/outbox.cif.g09.slc.cpg/sg10_46_cif.got.tgz:90393.got - 2010.06.27 22:07:45.
