data_PCOD8062366
_publ_section_title
;
Structure prediction by ZEFSAII (Michael W. Deem and Ramdas Pophale) SiO2 
 PCOD8062366
Probable space group: P 2/M
;
_chemical_formula_sum "Si O2"
_cell_formula_units_Z 28
_cell_length_a 15.632903
_cell_length_b 7.977224
_cell_length_c 12.179626
_cell_angle_alpha 90.000000
_cell_angle_beta 114.358388
_cell_angle_gamma 90.000000
_cell_volume 1383.680618
_symmetry_space_group_name_H-M "P 2/M"
_symmetry_group_IT_number 10
_symmetry_cell_setting 'monoclinic'
loop_
_space_group_symop_operation_xyz
x,y,z
-x,y,-z
-x,-y,-z
x,-y,z
loop_
_atom_site_type_symbol
_atom_site_label
_atom_site_fract_x
_atom_site_fract_y
_atom_site_fract_z
Si Si1 0.657519 0.500000 0.052531
Si Si2 0.165871 0.199338 0.353080
Si Si3 0.515502 0.190391 0.331008
Si Si4 0.103813 0.804949 0.552557
Si Si5 0.516717 0.500000 0.178408
Si Si6 0.365732 0.305946 0.409637
Si Si7 0.835203 0.316109 0.185779
Si Si8 0.993245 0.805144 0.118156
O O1 0.586171 0.500000 0.114176
O O2 0.725306 0.334892 0.092491
O O3 0.594254 0.500000 0.910100
O O4 0.159701 0.264852 0.476067
O O5 0.254545 0.284558 0.342205
O O6 0.074364 0.266983 0.240054
O O7 0.175461 0.000000 0.351311
O O8 0.539765 0.327862 0.252783
O O9 0.412639 0.229780 0.325409
O O10 0.595036 0.203922 0.466032
O O11 0.517525 0.000000 0.284410
O O12 0.160072 0.776359 0.694748
O O13 0.000000 0.722194 0.500000
O O14 0.090880 0.000000 0.525465
O O15 0.394260 0.500000 0.435313
O O16 0.880818 0.500000 0.225266
O O17 0.891587 0.222266 0.119638
O O18 0.010894 0.000000 0.114322
O O19 0.000000 0.721635 0.000000
#
# Coordination Sequence:
#
# PCOD8062366 Si02
#       8
#     2   4   4   4   2   4   4   4
#     4   9  26  44  64  88 126 162 199 281 313 374
#     4  10  21  35  56  91 129 166 212 263 313 374
#     4  11  22  40  68  95 127 169 209 264 324 387
#     4  10  19  35  59  85 123 163 202 258 313 366
#     4  11  22  49  68  88 132 163 212 264 322 391
#     4  11  21  38  58  96 136 166 206 265 326 378
#     4  10  22  39  58  88 118 157 209 253 312 371
#     4  10  21  40  62  86 124 170 215 261 302 363
#
# _framework density 20.235883999999999
#
# number of rings (size 3 to 8) (size 9 to 14) (size 15 to 20)
#    0.429    1.286    2.857    2.571    2.000    2.857 
#    0.000    5.000    0.000    0.000    0.000    0.000 
#    0.000    0.000    0.000    0.000    0.000    0.000 
#
# Total GULP energy -347090.341447 kJ/mol
# GULP energy per Si atom -12396.083623 kJ/mol
# Density = 2.018983 g / cm^3
# Si number density = 20.235884 Si / 1000 Ang^3
#
#
#
# Elastic Constant Matrix: (Units=GPa)
#
#
# Indices 1 2 3 4 5 6 
#
# 1 101.2263 10.6365 33.1825 0.0000 9.7720 0.0000
# 2 10.6365 79.9884 11.5622 0.0000 -3.5308 0.0000
# 3 33.1825 11.5622 84.4385 0.0000 -12.1493 0.0000
# 4 0.0000 0.0000 0.0000 11.6976 0.0000 1.5681
# 5 9.7720 -3.5308 -12.1493 0.0000 32.2279 0.0000
# 6 0.0000 0.0000 0.0000 1.5681 0.0000 29.7102
#
#
#
# Elastic Compliance Matrix: (Units=1/GPa)
#
#
# Indices 1 2 3 4 5 6 
#
# 1 0.012404 -0.001106 -0.005584 0.000000 -0.005987 0.000000
# 2 -0.001106 0.012872 -0.001138 0.000000 0.001317 0.000000
# 3 -0.005584 -0.001138 0.015246 0.000000 0.007316 0.000000
# 4 0.000000 0.000000 0.000000 0.086097 0.000000 -0.004544
# 5 -0.005987 0.001317 0.007316 0.000000 0.035747 0.000000
# 6 0.000000 0.000000 0.000000 -0.004544 0.000000 0.033898
#
#
# Mechanical properties :
#
#
# Convention : Reuss Voigt Hill
#
# Bulk Modulus (GPa) = 40.22024 41.82394 41.02209
# Shear Modulus (GPa) = 22.70572 28.74528 25.72550
#
# Velocity S-wave (km/s) = 3.35334 3.77305 3.56937
# Velocity P-wave (km/s) = 5.90864 6.30034 6.10763
#
# Compressibility (1/GPa) = 0.02486310
#
# Stress axis : x y z
#
# Youngs Moduli (GPa) = 80.62107 77.69042 65.59105
#
# Poissons Ratio (x) = 0.08596 0.36628
# Poissons Ratio (y) = 0.08921 0.07466
# Poissons Ratio (z) = 0.45022 0.08843
#
# Static dielectric constant tensor:
#      x y z
#    x 3.681650 0.000000 -0.032760 
#    y 0.000000 3.479440 0.000000 
#    z -0.032760 0.000000 3.675520 
# 
# 
# High freq. dielectric constant tensor:
#      x y z
#    x 1.795990 0.000000 -0.005100 
#    y 0.000000 1.776750 0.000000 
#    z -0.005100 0.000000 1.777300 
# 
# From -- ./inp_files/49444.got.cif
#   From: 2010.06.25/outbox.cif.g09.slc.cpg/sg10_25_cif.got.tgz:49444.got - 2010.06.27 22:07:45.
