data_PCOD8062545
_publ_section_title
;
Structure prediction by ZEFSAII (Michael W. Deem and Ramdas Pophale) SiO2 
 PCOD8062545
Probable space group: P 2/M
;
_chemical_formula_sum "Si O2"
_cell_formula_units_Z 32
_cell_length_a 14.238577
_cell_length_b 8.807690
_cell_length_c 19.471255
_cell_angle_alpha 90.000000
_cell_angle_beta 134.167402
_cell_angle_gamma 90.000000
_cell_volume 1751.570838
_symmetry_space_group_name_H-M "P 2/M"
_symmetry_group_IT_number 10
_symmetry_cell_setting 'monoclinic'
loop_
_space_group_symop_operation_xyz
x,y,z
-x,y,-z
-x,-y,-z
x,-y,z
loop_
_atom_site_type_symbol
_atom_site_label
_atom_site_fract_x
_atom_site_fract_y
_atom_site_fract_z
Si Si1 0.737662 0.827721 0.041718
Si Si2 0.351891 0.325113 0.718825
Si Si3 0.874390 0.179312 0.896103
Si Si4 0.125816 0.177688 0.518992
Si Si5 0.975580 0.678114 0.662404
Si Si6 0.043607 0.174662 0.208600
Si Si7 0.649031 0.327132 0.864716
Si Si8 0.743232 0.177994 0.198897
O O1 0.692990 0.787711 0.096350
O O2 0.892117 0.804195 0.112652
O O3 0.699345 0.000000 0.004023
O O4 0.663742 0.718867 0.951683
O O5 0.307260 0.500000 0.692113
O O6 0.256990 0.221222 0.625723
O O7 0.498833 0.304071 0.765800
O O8 0.348464 0.269997 0.796024
O O9 0.875414 0.229909 0.816778
O O10 0.738795 0.228944 0.860502
O O11 0.883938 0.000000 0.905499
O O12 0.000000 0.249804 0.000000
O O13 0.125588 0.272645 0.448207
O O14 0.000000 0.223244 0.500000
O O15 0.127270 0.000000 0.503013
O O16 0.003600 0.500000 0.673719
O O17 0.915481 0.721900 0.705942
O O18 0.107547 0.770863 0.715976
O O19 0.072757 0.000000 0.242443
O O20 0.692797 0.500000 0.879347
O O21 0.737350 0.000000 0.212727
#
# Coordination Sequence:
#
# PCOD8062545 Si02
#       8
#     4   4   4   4   4   4   4   4
#     4   9  18  34  54  76 108 148 189 227 268 320
#     4  11  24  39  54  78 113 150 185 226 281 334
#     4  10  19  36  60  83 108 146 191 232 273 320
#     4  11  22  37  60  85 108 141 188 232 272 323
#     4  11  21  33  55  85 116 145 175 221 282 334
#     4   9  18  34  56  82 112 143 184 231 270 320
#     4  11  24  37  52  80 116 149 184 229 280 334
#     4  10  20  35  54  78 108 146 191 231 266 317
#
# _framework density 18.269316
#
# number of rings (size 3 to 8) (size 9 to 14) (size 15 to 20)
#    0.000    1.750    2.500    3.375    0.000    6.250 
#    0.000    2.500    0.000    0.750    0.000    5.250 
#    0.000    0.000    0.000    0.000    0.000    0.000 
#
# Total GULP energy -396881.664845 kJ/mol
# GULP energy per Si atom -12402.552026 kJ/mol
# Density = 1.822773 g / cm^3
# Si number density = 18.269316 Si / 1000 Ang^3
#
#
#
# Elastic Constant Matrix: (Units=GPa)
#
#
# Indices 1 2 3 4 5 6 
#
# 1 97.1185 26.5410 39.2170 0.0000 -9.9957 0.0000
# 2 26.5410 43.8699 21.4238 0.0000 -10.0507 0.0000
# 3 39.2170 21.4238 70.3225 0.0000 -11.7550 0.0000
# 4 0.0000 0.0000 0.0000 25.5222 0.0000 1.1055
# 5 -9.9957 -10.0507 -11.7550 0.0000 21.9987 0.0000
# 6 0.0000 0.0000 0.0000 1.1055 0.0000 23.3247
#
#
#
# Elastic Compliance Matrix: (Units=1/GPa)
#
#
# Indices 1 2 3 4 5 6 
#
# 1 0.014388 -0.005503 -0.006232 0.000000 0.000694 0.000000
# 2 -0.005503 0.030470 -0.004727 0.000000 0.008895 0.000000
# 3 -0.006232 -0.004727 0.020096 0.000000 0.005747 0.000000
# 4 0.000000 0.000000 0.000000 0.039262 0.000000 -0.001861
# 5 0.000694 0.008895 0.005747 0.000000 0.052907 0.000000
# 6 0.000000 0.000000 0.000000 -0.001861 0.000000 0.042961
#
#
# Mechanical properties :
#
#
# Convention : Reuss Voigt Hill
#
# Bulk Modulus (GPa) = 31.21911 42.85273 37.03592
# Shear Modulus (GPa) = 20.51826 22.44440 21.48133
#
# Velocity S-wave (km/s) = 3.35490 3.50884 3.43274
# Velocity P-wave (km/s) = 5.66856 6.31846 6.00231
#
# Compressibility (1/GPa) = 0.03203167
#
# Stress axis : x y z
#
# Youngs Moduli (GPa) = 69.50111 32.81900 49.76054
#
# Poissons Ratio (x) = 0.18059 0.31009
# Poissons Ratio (y) = 0.38244 0.23523
# Poissons Ratio (z) = 0.43310 0.15514
#
# Static dielectric constant tensor:
#      x y z
#    x 3.412350 0.000000 -0.245030 
#    y 0.000000 3.335720 0.000000 
#    z -0.245030 0.000000 3.247460 
# 
# 
# High freq. dielectric constant tensor:
#      x y z
#    x 1.699410 0.000000 -0.018180 
#    y 0.000000 1.711210 0.000000 
#    z -0.018180 0.000000 1.692670 
# 
# From -- ./inp_files/84743.got.cif
#   From: 2010.06.25/outbox.cif.g09.slc.cpg/sg10_43_cif.got.tgz:84743.got - 2010.06.27 22:07:45.
