data_PCOD8062760
_publ_section_title
;
Structure prediction by ZEFSAII (Michael W. Deem and Ramdas Pophale) SiO2 
 PCOD8062760
Probable space group: P 2/M
;
_chemical_formula_sum "Si O2"
_cell_formula_units_Z 28
_cell_length_a 22.136314
_cell_length_b 8.903817
_cell_length_c 20.747223
_cell_angle_alpha 90.000000
_cell_angle_beta 160.147946
_cell_angle_gamma 90.000000
_cell_volume 1388.672079
_symmetry_space_group_name_H-M "P 2/M"
_symmetry_group_IT_number 10
_symmetry_cell_setting 'monoclinic'
loop_
_space_group_symop_operation_xyz
x,y,z
-x,y,-z
-x,-y,-z
x,-y,z
loop_
_atom_site_type_symbol
_atom_site_label
_atom_site_fract_x
_atom_site_fract_y
_atom_site_fract_z
Si Si1 0.294333 0.324902 0.291944
Si Si2 0.148951 0.674002 0.006874
Si Si3 0.492246 0.175969 0.145100
Si Si4 0.503124 0.675773 0.290986
Si Si5 0.796864 0.823389 0.671925
Si Si6 0.776477 0.673159 0.342882
Si Si7 0.819282 0.327082 0.236851
O O1 0.500000 0.281361 0.500000
O O2 0.264943 0.500000 0.277313
O O3 0.189799 0.230582 0.240766
O O4 0.219702 0.278724 0.147896
O O5 0.095322 0.500000 0.951831
O O6 0.976585 0.772000 0.815902
O O7 0.298810 0.708999 0.104171
O O8 0.546594 0.256841 0.265320
O O9 0.636093 0.219374 0.235819
O O10 0.495406 0.000000 0.159912
O O11 0.295543 0.223961 0.925538
O O12 0.543422 0.500000 0.330941
O O13 0.626672 0.749099 0.468588
O O14 0.777044 0.000000 0.647825
O O15 0.726218 0.500000 0.305569
O O16 0.767549 0.707991 0.258307
O O17 0.973462 0.708114 0.567240
O O18 0.777924 0.500000 0.179182
#
# Coordination Sequence:
#
# PCOD8062760 Si02
#       7
#     4   4   4   4   4   4   4
#     4  10  19  38  65  91 118 154 202 248 288 342
#     4  10  22  41  66  89 113 154 206 250 289 346
#     4  12  25  38  57  89 126 160 193 240 305 361
#     4  11  24  45  66  83 110 158 212 252 287 342
#     4  12  25  39  60  92 127 156 187 240 310 367
#     4   9  19  38  64  91 119 156 203 248 286 340
#     4   9  19  38  64  91 118 155 204 249 288 338
#
# _framework density 20.163146999999999
#
# number of rings (size 3 to 8) (size 9 to 14) (size 15 to 20)
#    0.000    1.571    1.429    4.714    0.000    7.714 
#    0.000    2.857    0.000    0.000    0.000    0.000 
#    0.000    0.000    0.000    0.000    0.000    0.000 
#
# Total GULP energy -347357.593784 kJ/mol
# GULP energy per Si atom -12405.628349 kJ/mol
# Density = 2.011726 g / cm^3
# Si number density = 20.163147 Si / 1000 Ang^3
#
#
#
# Elastic Constant Matrix: (Units=GPa)
#
#
# Indices 1 2 3 4 5 6 
#
# 1 48.8539 30.2875 16.3856 0.0000 -0.2176 0.0000
# 2 30.2875 107.7284 34.7503 0.0000 5.1234 0.0000
# 3 16.3856 34.7503 62.7726 0.0000 8.9683 0.0000
# 4 0.0000 0.0000 0.0000 13.2315 0.0000 1.0400
# 5 -0.2176 5.1234 8.9683 0.0000 27.6707 0.0000
# 6 0.0000 0.0000 0.0000 1.0400 0.0000 7.0335
#
#
#
# Elastic Compliance Matrix: (Units=1/GPa)
#
#
# Indices 1 2 3 4 5 6 
#
# 1 0.025488 -0.006115 -0.003626 0.000000 0.002508 0.000000
# 2 -0.006115 0.012768 -0.005376 0.000000 -0.000670 0.000000
# 3 -0.003626 -0.005376 0.020672 0.000000 -0.005733 0.000000
# 4 0.000000 0.000000 0.000000 0.076466 0.000000 -0.011307
# 5 0.002508 -0.000670 -0.005733 0.000000 0.038141 0.000000
# 6 0.000000 0.000000 0.000000 -0.011307 0.000000 0.143848
#
#
# Mechanical properties :
#
#
# Convention : Reuss Voigt Hill
#
# Bulk Modulus (GPa) = 34.85190 42.46687 38.65938
# Shear Modulus (GPa) = 13.99841 18.78259 16.39050
#
# Velocity S-wave (km/s) = 2.63773 3.05541 2.85422
# Velocity P-wave (km/s) = 5.15745 5.79264 5.48425
#
# Compressibility (1/GPa) = 0.02869284
#
# Stress axis : x y z
#
# Youngs Moduli (GPa) = 39.23435 78.32060 48.37381
#
# Poissons Ratio (x) = 0.47897 0.17540
# Poissons Ratio (y) = 0.23994 0.26007
# Poissons Ratio (z) = 0.14226 0.42107
#
# Static dielectric constant tensor:
#      x y z
#    x 3.655120 0.000000 0.080550 
#    y 0.000000 3.484660 0.000000 
#    z 0.080550 0.000000 3.733950 
# 
# 
# High freq. dielectric constant tensor:
#      x y z
#    x 1.787330 0.000000 0.007800 
#    y 0.000000 1.774470 0.000000 
#    z 0.007800 0.000000 1.798120 
# 
# From -- ./inp_files/86540.got.cif
#   From: 2010.06.25/outbox.cif.g09.slc.cpg/sg10_44_cif.got.tgz:86540.got - 2010.06.27 22:07:45.
