data_PCOD8062977
_publ_section_title
;
Structure prediction by ZEFSAII (Michael W. Deem and Ramdas Pophale) SiO2 
 PCOD8062977
Probable space group: P 2/M
;
_chemical_formula_sum "Si O2"
_cell_formula_units_Z 32
_cell_length_a 18.421441
_cell_length_b 8.851602
_cell_length_c 26.562453
_cell_angle_alpha 90.000000
_cell_angle_beta 155.340335
_cell_angle_gamma 90.000000
_cell_volume 1807.117860
_symmetry_space_group_name_H-M "P 2/M"
_symmetry_group_IT_number 10
_symmetry_cell_setting 'monoclinic'
loop_
_space_group_symop_operation_xyz
x,y,z
-x,y,-z
-x,-y,-z
x,-y,z
loop_
_atom_site_type_symbol
_atom_site_label
_atom_site_fract_x
_atom_site_fract_y
_atom_site_fract_z
Si Si1 0.333433 0.825456 0.831918
Si Si2 0.204614 0.179526 0.482548
Si Si3 0.092998 0.336123 0.111411
Si Si4 0.244636 0.680612 0.055191
Si Si5 0.095314 0.673111 0.761446
Si Si6 0.333090 0.326016 0.000299
Si Si7 0.426664 0.319290 0.270917
Si Si8 0.018176 0.174789 0.565883
O O1 0.256020 0.732403 0.829445
O O2 0.214583 0.800687 0.707879
O O3 0.337738 0.000000 0.850855
O O4 0.524603 0.771274 0.939005
O O5 0.395379 0.247072 0.598220
O O6 0.117106 0.242890 0.478870
O O7 0.082408 0.233859 0.359481
O O8 0.212570 0.000000 0.486176
O O9 0.134872 0.500000 0.161754
O O10 0.278496 0.255742 0.216571
O O11 0.000000 0.361635 0.000000
O O12 0.951182 0.251272 0.057763
O O13 0.228924 0.500000 0.045812
O O14 0.379407 0.732367 0.183887
O O15 0.308617 0.739316 0.041299
O O16 0.059932 0.500000 0.724811
O O17 0.152052 0.689472 0.855583
O O18 0.394368 0.500000 0.040739
O O19 0.437405 0.500000 0.280337
O O20 0.000000 0.255713 0.500000
O O21 0.970579 0.000000 0.530381
#
# Coordination Sequence:
#
# PCOD8062977 Si02
#       8
#     4   4   4   4   4   4   4   4
#     4  10  20  32  49  70  93 126 163 197 235 282
#     4  10  20  32  49  70  94 125 160 197 237 283
#     4   7  11  23  45  71  97 126 154 185 228 278
#     4   8  15  28  47  74 103 125 153 192 236 283
#     4  10  20  35  51  66  91 126 165 204 240 274
#     4  10  20  32  49  72  97 125 157 201 243 276
#     4   9  16  28  50  76 100 125 155 190 231 286
#     4   8  16  30  44  60  88 123 153 184 224 271
#
# _framework density 17.707754000000001
#
# number of rings (size 3 to 8) (size 9 to 14) (size 15 to 20)
#    0.000    3.000    0.000    3.750    1.750    2.500 
#    0.000    0.000    0.000    7.125    0.000    5.250 
#    0.000    0.000    0.000    0.000    0.000    0.000 
#
# Total GULP energy -396486.200068 kJ/mol
# GULP energy per Si atom -12390.193752 kJ/mol
# Density = 1.766745 g / cm^3
# Si number density = 17.707754 Si / 1000 Ang^3
#
#
#
# Elastic Constant Matrix: (Units=GPa)
#
#
# Indices 1 2 3 4 5 6 
#
# 1 50.6246 13.1665 41.3985 0.0000 6.8563 0.0000
# 2 13.1665 39.8896 24.6939 0.0000 3.2072 0.0000
# 3 41.3985 24.6939 112.4207 0.0000 18.0599 0.0000
# 4 0.0000 0.0000 0.0000 17.1141 0.0000 -2.3069
# 5 6.8563 3.2072 18.0599 0.0000 27.2119 0.0000
# 6 0.0000 0.0000 0.0000 -2.3069 0.0000 8.1577
#
#
#
# Elastic Compliance Matrix: (Units=1/GPa)
#
#
# Indices 1 2 3 4 5 6 
#
# 1 0.028658 -0.003394 -0.009751 0.000000 -0.000349 0.000000
# 2 -0.003394 0.029437 -0.005368 0.000000 0.000949 0.000000
# 3 -0.009751 -0.005368 0.014741 0.000000 -0.006693 0.000000
# 4 0.000000 0.000000 0.000000 0.060747 0.000000 0.017179
# 5 -0.000349 0.000949 -0.006693 0.000000 0.041167 0.000000
# 6 0.000000 0.000000 0.000000 0.017179 0.000000 0.127442
#
#
# Mechanical properties :
#
#
# Convention : Reuss Voigt Hill
#
# Bulk Modulus (GPa) = 27.92801 40.16142 34.04472
# Shear Modulus (GPa) = 14.23876 18.74180 16.49028
#
# Velocity S-wave (km/s) = 2.83874 3.25683 3.05494
# Velocity P-wave (km/s) = 5.15271 6.07223 5.63127
#
# Compressibility (1/GPa) = 0.03580634
#
# Stress axis : x y z
#
# Youngs Moduli (GPa) = 34.89481 33.97123 67.84024
#
# Poissons Ratio (x) = 0.11531 0.66154
# Poissons Ratio (y) = 0.11845 0.36419
# Poissons Ratio (z) = 0.34027 0.18237
#
# Static dielectric constant tensor:
#      x y z
#    x 3.529610 0.000000 0.099760 
#    y 0.000000 2.943490 0.000000 
#    z 0.099760 0.000000 3.361060 
# 
# 
# High freq. dielectric constant tensor:
#      x y z
#    x 1.670110 0.000000 0.006040 
#    y 0.000000 1.650610 0.000000 
#    z 0.006040 0.000000 1.684460 
# 
# From -- ./inp_files/95667.got.cif
#   From: 2010.06.25/outbox.cif.g09.slc.cpg/sg10_48_cif.got.tgz:95667.got - 2010.06.27 22:07:45.
