data_PCOD8062944
_publ_section_title
;
Structure prediction by ZEFSAII (Michael W. Deem and Ramdas Pophale) SiO2 
 PCOD8062944
Probable space group: P 2/M
;
_chemical_formula_sum "Si O2"
_cell_formula_units_Z 32
_cell_length_a 18.747343
_cell_length_b 14.745307
_cell_length_c 14.284180
_cell_angle_alpha 90.000000
_cell_angle_beta 149.717966
_cell_angle_gamma 90.000000
_cell_volume 1991.134880
_symmetry_space_group_name_H-M "P 2/M"
_symmetry_group_IT_number 10
_symmetry_cell_setting 'monoclinic'
loop_
_space_group_symop_operation_xyz
x,y,z
-x,y,-z
-x,-y,-z
x,-y,z
loop_
_atom_site_type_symbol
_atom_site_label
_atom_site_fract_x
_atom_site_fract_y
_atom_site_fract_z
Si Si1 0.379287 0.264068 0.997705
Si Si2 0.190690 0.899296 0.805536
Si Si3 0.140115 0.600861 0.217706
Si Si4 0.088907 0.392298 0.363972
Si Si5 0.231736 0.607351 0.971544
Si Si6 0.879214 0.899327 0.491252
Si Si7 0.305860 0.735329 0.697451
Si Si8 0.655404 0.391888 0.701249
O O1 0.314156 0.172402 0.969470
O O2 0.318190 0.349627 0.984128
O O3 0.334811 0.270741 0.839903
O O4 0.549376 0.264220 0.198059
O O5 0.157868 0.898765 0.659287
O O6 0.044716 0.874119 0.693834
O O7 0.242188 0.000000 0.894027
O O8 0.196720 0.500000 0.304249
O O9 0.113468 0.648614 0.287292
O O10 0.252684 0.651870 0.278972
O O11 0.000000 0.594832 0.000000
O O12 0.102190 0.500000 0.380715
O O13 0.209717 0.351709 0.566784
O O14 0.932823 0.364266 0.222286
O O15 0.251101 0.500000 0.985521
O O16 0.295028 0.644340 0.141480
O O17 0.780060 0.825829 0.429751
O O18 0.848714 0.000000 0.497779
O O19 0.500000 0.359215 0.500000
O O20 0.673493 0.500000 0.721972
#
# Coordination Sequence:
#
# PCOD8062944 Si02
#       8
#     4   4   4   4   4   4   4   4
#     4  10  21  33  44  63  95 126 155 192 227 268
#     4   8  14  27  48  69  87 112 145 184 231 274
#     4   9  15  28  47  66  87 109 141 189 237 277
#     4  10  20  32  48  66  87 122 162 194 227 268
#     4  10  20  33  47  65  89 122 161 194 226 269
#     4   8  14  27  48  69  87 111 146 186 228 273
#     4  10  21  33  44  64  93 126 158 190 228 265
#     4   9  17  28  45  68  89 111 141 184 239 282
#
# _framework density 16.071237
#
# number of rings (size 3 to 8) (size 9 to 14) (size 15 to 20)
#    0.000    2.750    1.250    1.500    1.750    3.000 
#    0.000    5.000    0.000    0.000    0.000    0.000 
#    0.000    2.000    0.000    0.125    0.000    0.000 
#
# Total GULP energy -396572.978384 kJ/mol
# GULP energy per Si atom -12392.905574 kJ/mol
# Density = 1.603466 g / cm^3
# Si number density = 16.071237 Si / 1000 Ang^3
#
#
#
# Elastic Constant Matrix: (Units=GPa)
#
#
# Indices 1 2 3 4 5 6 
#
# 1 85.6684 36.2166 38.5446 0.0000 28.9897 0.0000
# 2 36.2166 56.5887 39.4330 0.0000 14.0210 0.0000
# 3 38.5446 39.4330 95.5455 0.0000 27.3625 0.0000
# 4 0.0000 0.0000 0.0000 16.7742 0.0000 10.9251
# 5 28.9897 14.0210 27.3625 0.0000 27.0798 0.0000
# 6 0.0000 0.0000 0.0000 10.9251 0.0000 9.6437
#
#
#
# Elastic Compliance Matrix: (Units=1/GPa)
#
#
# Indices 1 2 3 4 5 6 
#
# 1 0.021992 -0.009785 0.000644 0.000000 -0.019128 0.000000
# 2 -0.009785 0.029399 -0.009606 0.000000 0.004960 0.000000
# 3 0.000644 -0.009606 0.018215 0.000000 -0.014121 0.000000
# 4 0.000000 0.000000 0.000000 0.227411 0.000000 -0.257630
# 5 -0.019128 0.004960 -0.014121 0.000000 0.069106 0.000000
# 6 0.000000 0.000000 0.000000 -0.257630 0.000000 0.395559
#
#
# Mechanical properties :
#
#
# Convention : Reuss Voigt Hill
#
# Bulk Modulus (GPa) = 31.14048 51.79898 41.46973
# Shear Modulus (GPa) = 6.17376 18.94008 12.55692
#
# Velocity S-wave (km/s) = 1.96210 3.43666 2.79826
# Velocity P-wave (km/s) = 4.95497 6.93169 6.02495
#
# Compressibility (1/GPa) = 0.03211254
#
# Stress axis : x y z
#
# Youngs Moduli (GPa) = 45.47012 34.01514 54.89973
#
# Poissons Ratio (x) = 0.33282 -0.03536
# Poissons Ratio (y) = 0.44490 0.52739
# Poissons Ratio (z) = -0.02929 0.32676
#
# Static dielectric constant tensor:
#      x y z
#    x 3.010020 0.000000 0.190770 
#    y 0.000000 2.930160 0.000000 
#    z 0.190770 0.000000 3.036600 
# 
# 
# High freq. dielectric constant tensor:
#      x y z
#    x 1.608230 0.000000 0.023570 
#    y 0.000000 1.583570 0.000000 
#    z 0.023570 0.000000 1.613420 
# 
# From -- ./inp_files/61540.got.cif
#   From: 2010.06.25/outbox.cif.g09.slc.cpg/sg10_31_cif.got.tgz:61540.got - 2010.06.27 22:07:45.
