data_PCOD8062029
_publ_section_title
;
Structure prediction by ZEFSAII (Michael W. Deem and Ramdas Pophale) SiO2 
 PCOD8062029
Probable space group: P 2/M
;
_chemical_formula_sum "Si O2"
_cell_formula_units_Z 32
_cell_length_a 27.289399
_cell_length_b 8.958803
_cell_length_c 16.595354
_cell_angle_alpha 90.000000
_cell_angle_beta 24.009524
_cell_angle_gamma 90.000000
_cell_volume 1650.843429
_symmetry_space_group_name_H-M "P 2/M"
_symmetry_group_IT_number 10
_symmetry_cell_setting 'monoclinic'
loop_
_space_group_symop_operation_xyz
x,y,z
-x,y,-z
-x,-y,-z
x,-y,z
loop_
_atom_site_type_symbol
_atom_site_label
_atom_site_fract_x
_atom_site_fract_y
_atom_site_fract_z
Si Si1 0.637453 0.324842 0.802277
Si Si2 0.966045 0.176917 0.907096
Si Si3 0.964430 0.822600 0.726320
Si Si4 0.262617 0.822440 0.030345
Si Si5 0.267144 0.672408 0.671891
Si Si6 0.784168 0.822707 0.719928
Si Si7 0.207468 0.328201 0.583358
Si Si8 0.508354 0.824018 0.580783
O O1 0.650416 0.500000 0.797302
O O2 0.686564 0.240181 0.805736
O O3 0.708480 0.273273 0.615854
O O4 0.500000 0.275864 0.000000
O O5 0.966190 0.235249 0.815049
O O6 0.088157 0.228353 0.766698
O O7 0.955869 0.000000 0.927273
O O8 0.854524 0.247248 0.120108
O O9 0.846867 0.757046 0.858498
O O10 0.083194 0.763196 0.502515
O O11 0.961708 0.000000 0.728409
O O12 0.248525 0.762969 0.142287
O O13 0.257977 0.000000 0.035048
O O14 0.388011 0.765147 0.805276
O O15 0.258916 0.500000 0.708512
O O16 0.282791 0.692942 0.552368
O O17 0.379215 0.743994 0.548402
O O18 0.780120 0.000000 0.722296
O O19 0.168596 0.500000 0.630456
O O20 0.500000 0.780021 0.500000
O O21 0.525774 0.000000 0.565357
#
# Coordination Sequence:
#
# PCOD8062029 Si02
#       8
#     4   4   4   4   4   4   4   4
#     4  10  22  39  59  80 112 157 192 224 279 339
#     4  11  21  36  60  88 115 147 189 236 288 340
#     4   9  17  32  55  84 115 146 181 226 282 339
#     4   9  18  32  55  84 114 148 184 229 284 337
#     4  11  24  39  58  83 114 151 192 236 284 338
#     4  10  19  34  57  87 114 142 186 237 281 328
#     4  10  22  40  58  81 114 152 192 235 283 338
#     4  10  21  39  60  84 116 152 191 235 284 335
#
# _framework density 19.384031
#
# number of rings (size 3 to 8) (size 9 to 14) (size 15 to 20)
#    0.000    2.000    1.250    2.250    1.750    6.500 
#    0.000    0.000    0.000    3.750    0.000    0.000 
#    0.000    0.000    0.000    0.000    0.000    0.000 
#
# Total GULP energy -396904.943366 kJ/mol
# GULP energy per Si atom -12403.279480 kJ/mol
# Density = 1.933991 g / cm^3
# Si number density = 19.384031 Si / 1000 Ang^3
#
#
#
# Elastic Constant Matrix: (Units=GPa)
#
#
# Indices 1 2 3 4 5 6 
#
# 1 142.9520 35.5419 55.1491 0.0000 -5.4803 0.0000
# 2 35.5419 26.5449 17.0092 0.0000 -4.0852 0.0000
# 3 55.1491 17.0092 118.1847 0.0000 -8.5583 0.0000
# 4 0.0000 0.0000 0.0000 21.5271 0.0000 -1.8705
# 5 -5.4803 -4.0852 -8.5583 0.0000 38.8975 0.0000
# 6 0.0000 0.0000 0.0000 -1.8705 0.0000 0.0201
#
#
#
# Elastic Compliance Matrix: (Units=1/GPa)
#
#
# Indices 1 2 3 4 5 6 
#
# 1 0.011694 -0.013462 -0.003559 0.000000 -0.000549 0.000000
# 2 -0.013462 0.057365 -0.001702 0.000000 0.003754 0.000000
# 3 -0.003559 -0.001702 0.010485 0.000000 0.001627 0.000000
# 4 0.000000 0.000000 0.000000 -0.006565 0.000000 -0.610172
# 5 -0.000549 0.003754 0.001627 0.000000 0.026383 0.000000
# 6 0.000000 0.000000 0.000000 -0.610172 0.000000 -7.022304
#
#
# Mechanical properties :
#
#
# Convention : Reuss Voigt Hill
#
# Bulk Modulus (GPa) = 23.75447 55.89798 39.82623
# Shear Modulus (GPa) = -0.72765 24.08771 11.68003
#
# Velocity S-wave (km/s) = -0.61335 3.52896 2.45737
# Velocity P-wave (km/s) = 3.43215 6.74570 5.35183
#
# Compressibility (1/GPa) = 0.04209734
#
# Stress axis : x y z
#
# Youngs Moduli (GPa) = 85.51048 17.43216 95.37379
#
# Poissons Ratio (x) = 0.23467 0.33947
# Poissons Ratio (y) = 1.15114 0.16236
# Poissons Ratio (z) = 0.30436 0.02968
#
# Static dielectric constant tensor:
#      x y z
#    x 3.703200 0.000000 0.068520 
#    y 0.000000 3.234750 0.000000 
#    z 0.068520 0.000000 3.828530 
# 
# 
# High freq. dielectric constant tensor:
#      x y z
#    x 1.770650 0.000000 0.002770 
#    y 0.000000 1.722900 0.000000 
#    z 0.002770 0.000000 1.768790 
# 
# From -- ./inp_files/49823.got.cif
#   From: 2010.06.25/outbox.cif.g09.slc.cpg/sg10_25_cif.got.tgz:49823.got - 2010.06.27 22:07:45.
