data_PCOD8062727
_publ_section_title
;
Structure prediction by ZEFSAII (Michael W. Deem and Ramdas Pophale) SiO2 
 PCOD8062727
Probable space group: P 2/M
;
_chemical_formula_sum "Si O2"
_cell_formula_units_Z 26
_cell_length_a 19.265152
_cell_length_b 14.650950
_cell_length_c 8.745778
_cell_angle_alpha 90.000000
_cell_angle_beta 147.213446
_cell_angle_gamma 90.000000
_cell_volume 1336.730647
_symmetry_space_group_name_H-M "P 2/M"
_symmetry_group_IT_number 10
_symmetry_cell_setting 'monoclinic'
loop_
_space_group_symop_operation_xyz
x,y,z
-x,y,-z
-x,-y,-z
x,-y,z
loop_
_atom_site_type_symbol
_atom_site_label
_atom_site_fract_x
_atom_site_fract_y
_atom_site_fract_z
Si Si1 0.132502 0.891913 0.663630
Si Si2 0.692020 0.603269 0.116200
Si Si3 0.136303 0.394720 0.301387
Si Si4 0.649790 0.766754 0.803925
Si Si5 0.500000 0.674522 0.000000
Si Si6 0.138877 0.898643 0.326914
Si Si7 0.293362 0.750041 0.433054
O O1 0.125672 0.861791 0.474557
O O2 0.000000 0.857939 0.500000
O O3 0.145270 0.000000 0.710154
O O4 0.265244 0.848030 0.968907
O O5 0.685677 0.500000 0.037349
O O6 0.830258 0.621214 0.455686
O O7 0.592441 0.610334 0.071892
O O8 0.663929 0.674575 0.929618
O O9 0.142775 0.500000 0.270037
O O10 0.234920 0.345604 0.374348
O O11 0.000000 0.352642 0.000000
O O12 0.500000 0.793667 0.500000
O O13 0.715028 0.751354 0.762826
O O14 0.562637 0.744997 0.236941
O O15 0.227558 0.836693 0.387293
O O16 0.199203 0.000000 0.437664
O O17 0.000000 0.900253 0.000000
#
# Coordination Sequence:
#
# PCOD8062727 Si02
#       7
#     4   4   4   4   2   4   4
#     4  10  22  42  68  94 123 160 203 251 308 373
#     4  10  21  38  60  85 119 160 205 251 299 360
#     4   9  19  37  61  88 116 152 203 257 308 361
#     4  12  25  40  57  91 130 164 204 256 312 363
#     4  10  19  38  57  82 110 154 209 248 289 352
#     4  10  21  39  64  92 117 151 201 248 296 364
#     4  11  22  36  60  82 119 160 199 247 298 359
#
# _framework density 19.450438999999999
#
# number of rings (size 3 to 8) (size 9 to 14) (size 15 to 20)
#    0.000    1.692    1.538    3.462    0.000    4.923 
#    0.000    0.385    0.000    3.231    0.000    0.000 
#    0.000    0.000    0.000    0.000    0.000    0.000 
#
# Total GULP energy -322204.334743 kJ/mol
# GULP energy per Si atom -12392.474413 kJ/mol
# Density = 1.940617 g / cm^3
# Si number density = 19.450439 Si / 1000 Ang^3
#
#
#
# Elastic Constant Matrix: (Units=GPa)
#
#
# Indices 1 2 3 4 5 6 
#
# 1 111.8480 45.5066 48.6780 0.0000 -22.6153 0.0000
# 2 45.5066 77.8722 42.4806 0.0000 -2.1572 0.0000
# 3 48.6780 42.4806 137.4596 0.0000 -7.2152 0.0000
# 4 0.0000 0.0000 0.0000 34.0108 0.0000 -7.1810
# 5 -22.6153 -2.1572 -7.2152 0.0000 33.0530 0.0000
# 6 0.0000 0.0000 0.0000 -7.1810 0.0000 40.7272
#
#
#
# Elastic Compliance Matrix: (Units=1/GPa)
#
#
# Indices 1 2 3 4 5 6 
#
# 1 0.014724 -0.006938 -0.002595 0.000000 0.009055 0.000000
# 2 -0.006938 0.018715 -0.003552 0.000000 -0.004301 0.000000
# 3 -0.002595 -0.003552 0.009293 0.000000 0.000021 0.000000
# 4 0.000000 0.000000 0.000000 0.030539 0.000000 0.005385
# 5 0.009055 -0.004301 0.000021 0.000000 0.036174 0.000000
# 6 0.000000 0.000000 0.000000 0.005385 0.000000 0.025503
#
#
# Mechanical properties :
#
#
# Convention : Reuss Voigt Hill
#
# Bulk Modulus (GPa) = 60.38290 66.72335 63.55313
# Shear Modulus (GPa) = 30.00530 34.25917 32.13223
#
# Velocity S-wave (km/s) = 3.93192 4.20141 4.06890
# Velocity P-wave (km/s) = 7.19203 7.61016 7.40405
#
# Compressibility (1/GPa) = 0.01656098
#
# Stress axis : x y z
#
# Youngs Moduli (GPa) = 67.91850 53.43408 107.61160
#
# Poissons Ratio (x) = 0.37072 0.27921
# Poissons Ratio (y) = 0.47121 0.38229
# Poissons Ratio (z) = 0.17622 0.18982
#
# Static dielectric constant tensor:
#      x y z
#    x 3.461200 0.000000 -0.040590 
#    y 0.000000 3.572520 0.000000 
#    z -0.040590 0.000000 4.100770 
# 
# 
# High freq. dielectric constant tensor:
#      x y z
#    x 1.746700 0.000000 -0.007660 
#    y 0.000000 1.756320 0.000000 
#    z -0.007660 0.000000 1.778310 
# 
# From -- ./inp_files/35180.got.cif
#   From: 2010.06.25/outbox.cif.g09.slc.cpg/sg10_18_cif.got.tgz:35180.got - 2010.06.27 22:07:45.
