data_PCOD8062644
_publ_section_title
;
Structure prediction by ZEFSAII (Michael W. Deem and Ramdas Pophale) SiO2 
 PCOD8062644
Probable space group: P 2/M
;
_chemical_formula_sum "Si O2"
_cell_formula_units_Z 32
_cell_length_a 10.481472
_cell_length_b 13.933464
_cell_length_c 9.703391
_cell_angle_alpha 90.000000
_cell_angle_beta 95.031516
_cell_angle_gamma 90.000000
_cell_volume 1411.653697
_symmetry_space_group_name_H-M "P 2/M"
_symmetry_group_IT_number 10
_symmetry_cell_setting 'monoclinic'
loop_
_space_group_symop_operation_xyz
x,y,z
-x,y,-z
-x,-y,-z
x,-y,z
loop_
_atom_site_type_symbol
_atom_site_label
_atom_site_fract_x
_atom_site_fract_y
_atom_site_fract_z
Si Si1 0.734265 0.606232 0.804340
Si Si2 0.865865 0.731522 0.040366
Si Si3 0.206193 0.893856 0.789886
Si Si4 0.196781 0.387350 0.728569
Si Si5 0.783053 0.711359 0.545691
Si Si6 0.937773 0.896245 0.638431
Si Si7 0.475812 0.312644 0.838005
Si Si8 0.415305 0.173815 0.609137
O O1 0.779741 0.500000 0.851759
O O2 0.780411 0.625172 0.653321
O O3 0.580770 0.610807 0.798346
O O4 0.791554 0.686744 0.906892
O O5 0.766979 0.812596 0.092238
O O6 0.896626 0.650044 0.158887
O O7 0.000000 0.775156 0.000000
O O8 0.293491 0.884804 0.659652
O O9 0.056323 0.874128 0.749976
O O10 0.229385 0.000000 0.852689
O O11 0.181578 0.500000 0.702587
O O12 0.150366 0.329389 0.587457
O O13 0.338719 0.360935 0.795589
O O14 0.843746 0.805847 0.622783
O O15 0.638915 0.737883 0.487079
O O16 0.000000 0.914874 0.500000
O O17 0.872012 0.000000 0.674799
O O18 0.493092 0.214861 0.748344
O O19 0.500000 0.287342 0.000000
O O20 0.500000 0.116088 0.500000
#
# Coordination Sequence:
#
# PCOD8062644 Si02
#       8
#     4   4   4   4   4   4   4   4
#     4  12  25  40  65  97 131 175 227 272 318 388
#     4  12  25  44  66  94 131 173 220 279 330 389
#     4  11  23  44  72  98 129 171 219 274 336 396
#     4  11  23  40  64  92 129 176 223 269 329 394
#     4  11  22  40  62  97 135 171 213 273 336 379
#     4  10  19  36  66  95 120 161 218 265 312 382
#     4  11  21  39  65  92 125 172 226 273 317 380
#     4  11  21  39  65 100 135 171 206 267 334 395
#
# _framework density 22.66845
#
# number of rings (size 3 to 8) (size 9 to 14) (size 15 to 20)
#    0.000    0.875    6.250    1.875    0.000    2.000 
#    0.000    2.500    0.000    6.375    0.000    0.000 
#    0.000    0.000    0.000    0.000    0.000    0.000 
#
# Total GULP energy -396465.486365 kJ/mol
# GULP energy per Si atom -12389.546449 kJ/mol
# Density = 2.261686 g / cm^3
# Si number density = 22.668450 Si / 1000 Ang^3
#
#
#
# Elastic Constant Matrix: (Units=GPa)
#
#
# Indices 1 2 3 4 5 6 
#
# 1 64.1819 35.2955 32.4387 0.0000 -16.7762 0.0000
# 2 35.2955 133.3619 45.7148 0.0000 4.0318 0.0000
# 3 32.4387 45.7148 125.0976 0.0000 -11.2919 0.0000
# 4 0.0000 0.0000 0.0000 28.6319 0.0000 -2.3430
# 5 -16.7762 4.0318 -11.2919 0.0000 32.6283 0.0000
# 6 0.0000 0.0000 0.0000 -2.3430 0.0000 26.8021
#
#
#
# Elastic Compliance Matrix: (Units=1/GPa)
#
#
# Indices 1 2 3 4 5 6 
#
# 1 0.023078 -0.005443 -0.002956 0.000000 0.011515 0.000000
# 2 -0.005443 0.010013 -0.002696 0.000000 -0.004969 0.000000
# 3 -0.002956 -0.002696 0.009949 0.000000 0.002257 0.000000
# 4 0.000000 0.000000 0.000000 0.035178 0.000000 0.003075
# 5 0.011515 -0.004969 0.002257 0.000000 0.037964 0.000000
# 6 0.000000 0.000000 0.000000 0.003075 0.000000 0.037579
#
#
# Mechanical properties :
#
#
# Convention : Reuss Voigt Hill
#
# Bulk Modulus (GPa) = 47.96055 61.05995 54.51025
# Shear Modulus (GPa) = 27.33716 31.55861 29.44788
#
# Velocity S-wave (km/s) = 3.47646 3.73524 3.60817
# Velocity P-wave (km/s) = 6.10882 6.75258 6.43875
#
# Compressibility (1/GPa) = 0.02085047
#
# Stress axis : x y z
#
# Youngs Moduli (GPa) = 43.33205 99.86674 100.50964
#
# Poissons Ratio (x) = 0.54353 0.29709
# Poissons Ratio (y) = 0.23584 0.27102
# Poissons Ratio (z) = 0.12808 0.26928
#
# Static dielectric constant tensor:
#      x y z
#    x 38.654760 0.000000 22.302900 
#    y 0.000000 4.124480 0.000000 
#    z 22.302900 0.000000 18.830520 
# 
# 
# High freq. dielectric constant tensor:
#      x y z
#    x 1.879840 0.000000 -0.003700 
#    y 0.000000 1.880510 0.000000 
#    z -0.003700 0.000000 1.901360 
# 
# From -- ./inp_files/25305.got.cif
#   From: 2010.06.25/outbox.cif.g09.slc.cpg/sg10_13_cif.got.tgz:25305.got - 2010.06.27 22:07:45.
