data_PCOD8062813
_publ_section_title
;
Structure prediction by ZEFSAII (Michael W. Deem and Ramdas Pophale) SiO2 
 PCOD8062813
Probable space group: P 2/M
;
_chemical_formula_sum "Si O2"
_cell_formula_units_Z 28
_cell_length_a 21.262105
_cell_length_b 15.192490
_cell_length_c 17.515634
_cell_angle_alpha 90.000000
_cell_angle_beta 18.484160
_cell_angle_gamma 90.000000
_cell_volume 1793.818601
_symmetry_space_group_name_H-M "P 2/M"
_symmetry_group_IT_number 10
_symmetry_cell_setting 'monoclinic'
loop_
_space_group_symop_operation_xyz
x,y,z
-x,y,-z
-x,-y,-z
x,-y,z
loop_
_atom_site_type_symbol
_atom_site_label
_atom_site_fract_x
_atom_site_fract_y
_atom_site_fract_z
Si Si1 0.391980 0.500000 0.512466
Si Si2 0.779441 0.168712 0.329219
Si Si3 0.292013 0.104767 0.210147
Si Si4 0.899138 0.637609 0.197700
Si Si5 0.811693 0.099940 0.129618
Si Si6 0.640153 0.895430 0.167318
Si Si7 0.115590 0.104581 0.255961
Si Si8 0.192785 0.500000 0.906797
O O1 0.310345 0.586342 0.563279
O O2 0.303564 0.500000 0.698790
O O3 0.632020 0.500000 0.231951
O O4 0.850941 0.263266 0.277839
O O5 0.751158 0.163872 0.269367
O O6 0.575406 0.143041 0.604780
O O7 0.950564 0.099885 0.155907
O O8 0.248496 0.137898 0.174234
O O9 0.112049 0.136909 0.472352
O O10 0.303178 0.000000 0.198614
O O11 0.500000 0.145633 0.000000
O O12 0.000000 0.637737 0.000000
O O13 0.053884 0.587149 0.075804
O O14 0.706933 0.136578 0.174229
O O15 0.743174 0.000000 0.226548
O O16 0.632104 0.000000 0.174030
O O17 0.793050 0.858362 0.927995
O O18 0.119088 0.000000 0.251247
#
# Coordination Sequence:
#
# PCOD8062813 Si02
#       8
#     2   4   4   4   4   4   4   2
#     4   8  15  27  44  61  75  94 113 149 210 261
#     4  11  19  30  43  57  75 104 141 182 213 237
#     4   8  13  23  41  60  74  92 116 149 198 251
#     4   9  16  28  41  59  78  93 123 166 207 247
#     4  10  20  32  42  52  70 104 148 186 215 238
#     4  10  20  31  41  55  77 106 140 178 214 243
#     4   8  15  26  38  56  78  94 120 162 202 244
#     4   8  15  27  42  59  79  92 111 153 204 256
#
# _framework density 15.609159999999999
#
# number of rings (size 3 to 8) (size 9 to 14) (size 15 to 20)
#    0.000    2.857    1.429    3.857    0.000    3.429 
#    5.143    4.286    0.000    0.000    0.000    0.000 
#    0.000    0.000    0.000    0.000    0.000   11.429 
#
# Total GULP energy -346961.531638 kJ/mol
# GULP energy per Si atom -12391.483273 kJ/mol
# Density = 1.557363 g / cm^3
# Si number density = 15.609160 Si / 1000 Ang^3
#
#
#
# Elastic Constant Matrix: (Units=GPa)
#
#
# Indices 1 2 3 4 5 6 
#
# 1 36.7645 13.7729 38.8709 0.0000 -11.6621 0.0000
# 2 13.7729 42.0526 16.5666 0.0000 -0.1013 0.0000
# 3 38.8709 16.5666 110.9456 0.0000 -16.6292 0.0000
# 4 0.0000 0.0000 0.0000 12.5200 0.0000 -3.7014
# 5 -11.6621 -0.1013 -16.6292 0.0000 25.3599 0.0000
# 6 0.0000 0.0000 0.0000 -3.7014 0.0000 2.9691
#
#
#
# Elastic Compliance Matrix: (Units=1/GPa)
#
#
# Indices 1 2 3 4 5 6 
#
# 1 0.050540 -0.011021 -0.013956 0.000000 0.014046 0.000000
# 2 -0.011021 0.027829 -0.001150 0.000000 -0.005711 0.000000
# 3 -0.013956 -0.001150 0.014541 0.000000 0.003113 0.000000
# 4 0.000000 0.000000 0.000000 0.126491 0.000000 0.157689
# 5 0.014046 -0.005711 0.003113 0.000000 0.047910 0.000000
# 6 0.000000 0.000000 0.000000 0.157689 0.000000 0.533388
#
#
# Mechanical properties :
#
#
# Convention : Reuss Voigt Hill
#
# Bulk Modulus (GPa) = 24.59679 36.46484 30.53081
# Shear Modulus (GPa) = 5.77030 16.20660 10.98845
#
# Velocity S-wave (km/s) = 1.92478 3.22572 2.65613
# Velocity P-wave (km/s) = 4.55322 6.10619 5.38597
#
# Compressibility (1/GPa) = 0.04065572
#
# Stress axis : x y z
#
# Youngs Moduli (GPa) = 19.78617 35.93424 68.76885
#
# Poissons Ratio (x) = 0.39602 0.95976
# Poissons Ratio (y) = 0.21806 0.07910
# Poissons Ratio (z) = 0.27614 0.04133
#
# Static dielectric constant tensor:
#      x y z
#    x 2.942850 0.000000 -0.239470 
#    y 0.000000 2.794390 0.000000 
#    z -0.239470 0.000000 3.234240 
# 
# 
# High freq. dielectric constant tensor:
#      x y z
#    x 1.567740 0.000000 -0.029850 
#    y 0.000000 1.548150 0.000000 
#    z -0.029850 0.000000 1.603110 
# 
# From -- ./inp_files/79652.got.cif
#   From: 2010.06.25/outbox.cif.g09.slc.cpg/sg10_40_cif.got.tgz:79652.got - 2010.06.27 22:07:45.
