data_PCOD8062224
_publ_section_title
;
Structure prediction by ZEFSAII (Michael W. Deem and Ramdas Pophale) SiO2 
 PCOD8062224
Probable space group: P 2/M
;
_chemical_formula_sum "Si O2"
_cell_formula_units_Z 32
_cell_length_a 15.240624
_cell_length_b 17.610314
_cell_length_c 20.617901
_cell_angle_alpha 90.000000
_cell_angle_beta 161.604502
_cell_angle_gamma 90.000000
_cell_volume 1746.289213
_symmetry_space_group_name_H-M "P 2/M"
_symmetry_group_IT_number 10
_symmetry_cell_setting 'monoclinic'
loop_
_space_group_symop_operation_xyz
x,y,z
-x,y,-z
-x,-y,-z
x,-y,z
loop_
_atom_site_type_symbol
_atom_site_label
_atom_site_fract_x
_atom_site_fract_y
_atom_site_fract_z
Si Si1 0.226474 0.842200 0.952692
Si Si2 0.764732 0.916495 0.284942
Si Si3 0.975351 0.309952 0.143068
Si Si4 0.794091 0.915735 0.739004
Si Si5 0.818263 0.210838 0.218117
Si Si6 0.237506 0.769591 0.214451
Si Si7 0.748520 0.588059 0.874291
Si Si8 0.257339 0.686889 0.475463
O O1 0.241999 0.759347 0.997923
O O2 0.113478 0.829980 0.801296
O O3 0.025969 0.900077 0.848112
O O4 0.522978 0.881078 0.158754
O O5 0.867723 0.855102 0.304920
O O6 0.000000 0.933072 0.500000
O O7 0.684192 0.000000 0.197726
O O8 0.222693 0.275793 0.272154
O O9 0.101110 0.340384 0.299600
O O10 0.819187 0.376330 0.994289
O O11 0.500000 0.902983 0.500000
O O12 0.819281 0.858731 0.816930
O O13 0.830776 0.000000 0.792595
O O14 0.031090 0.283119 0.370431
O O15 0.500000 0.241161 0.000000
O O16 0.542808 0.758298 0.399517
O O17 0.000000 0.736235 0.000000
O O18 0.699100 0.500000 0.852004
O O19 0.454699 0.620208 0.641049
O O20 0.000000 0.601482 0.000000
#
# Coordination Sequence:
#
# PCOD8062224 Si02
#       8
#     4   4   4   4   4   4   4   4
#     4   9  19  34  54  74  99 144 187 221 276 322
#     4  10  21  34  50  78 111 141 181 238 290 323
#     4  10  19  35  56  81 113 145 185 219 262 327
#     4  10  20  32  47  71 103 141 186 228 269 325
#     4   9  20  35  53  80 101 140 196 231 269 325
#     4  11  19  32  52  77 106 142 187 222 267 329
#     4  11  23  37  56  91 121 144 177 214 273 342
#     4  11  20  36  60  79 110 151 183 221 274 322
#
# _framework density 18.324570999999999
#
# number of rings (size 3 to 8) (size 9 to 14) (size 15 to 20)
#    0.000    1.875    2.500    3.000    1.750    3.500 
#    0.000    1.875    0.000    0.375    0.000   10.500 
#    0.000    0.000    0.000    0.000    0.000    0.000 
#
# Total GULP energy -396556.365326 kJ/mol
# GULP energy per Si atom -12392.386416 kJ/mol
# Density = 1.828286 g / cm^3
# Si number density = 18.324571 Si / 1000 Ang^3
#
#
#
# Elastic Constant Matrix: (Units=GPa)
#
#
# Indices 1 2 3 4 5 6 
#
# 1 79.6979 52.1110 38.6326 0.0000 3.4663 0.0000
# 2 52.1110 131.6785 58.5316 0.0000 -0.4972 0.0000
# 3 38.6326 58.5316 93.8610 0.0000 -1.5559 0.0000
# 4 0.0000 0.0000 0.0000 25.8949 0.0000 3.3113
# 5 3.4663 -0.4972 -1.5559 0.0000 26.7733 0.0000
# 6 0.0000 0.0000 0.0000 3.3113 0.0000 21.1574
#
#
#
# Elastic Compliance Matrix: (Units=1/GPa)
#
#
# Indices 1 2 3 4 5 6 
#
# 1 0.018195 -0.005343 -0.004202 0.000000 -0.002699 0.000000
# 2 -0.005343 0.012077 -0.005322 0.000000 0.000607 0.000000
# 3 -0.004202 -0.005322 0.015725 0.000000 0.001359 0.000000
# 4 0.000000 0.000000 0.000000 0.039406 0.000000 -0.006167
# 5 -0.002699 0.000607 0.001359 0.000000 0.037790 0.000000
# 6 0.000000 0.000000 0.000000 -0.006167 0.000000 0.048230
#
#
# Mechanical properties :
#
#
# Convention : Reuss Voigt Hill
#
# Bulk Modulus (GPa) = 61.48867 67.08753 64.28810
# Shear Modulus (GPa) = 24.20401 25.16260 24.68330
#
# Velocity S-wave (km/s) = 3.63829 3.70964 3.67414
# Velocity P-wave (km/s) = 7.16085 7.41881 7.29097
#
# Compressibility (1/GPa) = 0.01626316
#
# Stress axis : x y z
#
# Youngs Moduli (GPa) = 54.95969 82.80508 63.59458
#
# Poissons Ratio (x) = 0.44244 0.26721
# Poissons Ratio (y) = 0.29365 0.33843
# Poissons Ratio (z) = 0.23093 0.44066
#
# Static dielectric constant tensor:
#      x y z
#    x 3.960530 0.000000 0.323380 
#    y 0.000000 3.447470 0.000000 
#    z 0.323380 0.000000 3.533750 
# 
# 
# High freq. dielectric constant tensor:
#      x y z
#    x 1.701580 0.000000 0.000110 
#    y 0.000000 1.698890 0.000000 
#    z 0.000110 0.000000 1.709170 
# 
# From -- ./inp_files/85510.got.cif
#   From: 2010.06.25/outbox.cif.g09.slc.cpg/sg10_43_cif.got.tgz:85510.got - 2010.06.27 22:07:45.
