data_PCOD8062455
_publ_section_title
;
Structure prediction by ZEFSAII (Michael W. Deem and Ramdas Pophale) SiO2 
 PCOD8062455
Probable space group: P 2/M
;
_chemical_formula_sum "Si O2"
_cell_formula_units_Z 32
_cell_length_a 12.099113
_cell_length_b 8.963184
_cell_length_c 31.495308
_cell_angle_alpha 90.000000
_cell_angle_beta 149.997807
_cell_angle_gamma 90.000000
_cell_volume 1707.892372
_symmetry_space_group_name_H-M "P 2/M"
_symmetry_group_IT_number 10
_symmetry_cell_setting 'monoclinic'
loop_
_space_group_symop_operation_xyz
x,y,z
-x,y,-z
-x,-y,-z
x,-y,z
loop_
_atom_site_type_symbol
_atom_site_label
_atom_site_fract_x
_atom_site_fract_y
_atom_site_fract_z
Si Si1 0.184340 0.323216 0.245730
Si Si2 0.376927 0.323241 0.396775
Si Si3 0.467013 0.825444 0.876486
Si Si4 0.357191 0.324817 0.214059
Si Si5 0.971086 0.831812 0.040211
Si Si6 0.834341 0.323505 0.587004
Si Si7 0.693238 0.676692 0.094684
Si Si8 0.291495 0.176539 0.727073
O O1 0.185121 0.500000 0.249870
O O2 0.291348 0.253054 0.324032
O O3 0.329170 0.272826 0.253615
O O4 0.930398 0.269776 0.155585
O O5 0.368411 0.500000 0.392631
O O6 0.629306 0.274394 0.489088
O O7 0.217924 0.270586 0.382246
O O8 0.325186 0.738951 0.864003
O O9 0.394965 0.768344 0.806014
O O10 0.420264 0.000000 0.865168
O O11 0.722580 0.787302 0.969490
O O12 0.399892 0.500000 0.224463
O O13 0.563974 0.238627 0.263491
O O14 0.130753 0.286712 0.114852
O O15 0.027986 0.000000 0.074516
O O16 0.000000 0.822331 0.000000
O O17 0.876413 0.500000 0.598799
O O18 0.045481 0.237361 0.639783
O O19 0.675626 0.500000 0.091500
O O20 0.500000 0.741545 0.000000
O O21 0.292089 0.000000 0.724268
#
# Coordination Sequence:
#
# PCOD8062455 Si02
#       8
#     4   4   4   4   4   4   4   4
#     4   9  18  33  52  76 109 144 173 212 270 321
#     4   8  15  31  56  83 110 137 169 215 269 320
#     4  10  21  35  53  75 102 139 180 213 256 320
#     4  11  22  35  54  79 104 137 185 226 257 309
#     4  10  19  36  54  70 102 144 177 214 266 313
#     4   9  17  32  58  87 106 130 174 221 264 316
#     4  10  20  34  53  79 111 139 169 217 269 308
#     4  11  22  37  53  75 109 143 172 215 274 318
#
# _framework density 18.736543000000001
#
# number of rings (size 3 to 8) (size 9 to 14) (size 15 to 20)
#    0.000    2.250    1.250    3.000    0.000    4.000 
#    0.000    3.125    0.000    7.500    0.000    0.000 
#    0.000    0.000    0.000    0.000    0.000    0.000 
#
# Total GULP energy -396806.436275 kJ/mol
# GULP energy per Si atom -12400.201134 kJ/mol
# Density = 1.869390 g / cm^3
# Si number density = 18.736543 Si / 1000 Ang^3
#
#
#
# Elastic Constant Matrix: (Units=GPa)
#
#
# Indices 1 2 3 4 5 6 
#
# 1 148.1039 35.9569 74.9554 0.0000 9.3414 0.0000
# 2 35.9569 38.1143 27.8677 0.0000 7.0404 0.0000
# 3 74.9554 27.8677 127.3325 0.0000 3.3831 0.0000
# 4 0.0000 0.0000 0.0000 9.9901 0.0000 -5.1827
# 5 9.3414 7.0404 3.3831 0.0000 24.2407 0.0000
# 6 0.0000 0.0000 0.0000 -5.1827 0.0000 16.1935
#
#
#
# Elastic Compliance Matrix: (Units=1/GPa)
#
#
# Indices 1 2 3 4 5 6 
#
# 1 0.010928 -0.006345 -0.005000 0.000000 -0.001671 0.000000
# 2 -0.006345 0.036610 -0.004075 0.000000 -0.007619 0.000000
# 3 -0.005000 -0.004075 0.011649 0.000000 0.001484 0.000000
# 4 0.000000 0.000000 0.000000 0.120028 0.000000 0.038414
# 5 -0.001671 -0.007619 0.001484 0.000000 0.043902 0.000000
# 6 0.000000 0.000000 0.000000 0.038414 0.000000 0.074047
#
#
# Mechanical properties :
#
#
# Convention : Reuss Voigt Hill
#
# Bulk Modulus (GPa) = 35.27689 65.67897 50.47793
# Shear Modulus (GPa) = 14.81681 21.73622 18.27652
#
# Velocity S-wave (km/s) = 2.81516 3.40972 3.12660
# Velocity P-wave (km/s) = 5.42546 7.11559 6.32721
#
# Compressibility (1/GPa) = 0.02834717
#
# Stress axis : x y z
#
# Youngs Moduli (GPa) = 91.50427 27.31511 85.84384
#
# Poissons Ratio (x) = 0.17333 0.42922
# Poissons Ratio (y) = 0.58064 0.34978
# Poissons Ratio (z) = 0.45752 0.11130
#
# Static dielectric constant tensor:
#      x y z
#    x 3.414170 0.000000 0.131900 
#    y 0.000000 3.130670 0.000000 
#    z 0.131900 0.000000 3.405970 
# 
# 
# High freq. dielectric constant tensor:
#      x y z
#    x 1.734720 0.000000 0.004980 
#    y 0.000000 1.697820 0.000000 
#    z 0.004980 0.000000 1.727280 
# 
# From -- ./inp_files/95051.got.cif
#   From: 2010.06.25/outbox.cif.g09.slc.cpg/sg10_48_cif.got.tgz:95051.got - 2010.06.27 22:07:45.
