data_PCOD8062952
_publ_section_title
;
Structure prediction by ZEFSAII (Michael W. Deem and Ramdas Pophale) SiO2 
 PCOD8062952
Probable space group: P 2/M
;
_chemical_formula_sum "Si O2"
_cell_formula_units_Z 26
_cell_length_a 19.494453
_cell_length_b 9.640402
_cell_length_c 11.259831
_cell_angle_alpha 90.000000
_cell_angle_beta 137.285325
_cell_angle_gamma 90.000000
_cell_volume 1435.458170
_symmetry_space_group_name_H-M "P 2/M"
_symmetry_group_IT_number 10
_symmetry_cell_setting 'monoclinic'
loop_
_space_group_symop_operation_xyz
x,y,z
-x,y,-z
-x,-y,-z
x,-y,z
loop_
_atom_site_type_symbol
_atom_site_label
_atom_site_fract_x
_atom_site_fract_y
_atom_site_fract_z
Si Si1 0.000000 0.284519 0.500000
Si Si2 0.773536 0.834418 0.630490
Si Si3 0.419471 0.836653 0.742620
Si Si4 0.793944 0.345646 0.131644
Si Si5 0.938485 0.842619 0.664079
Si Si6 0.839290 0.838708 0.971811
Si Si7 0.637686 0.835618 0.067514
O O1 0.091008 0.369586 0.675906
O O2 0.052635 0.198390 0.461931
O O3 0.659235 0.781866 0.456943
O O4 0.849048 0.769036 0.626449
O O5 0.803831 0.781829 0.799287
O O6 0.781239 0.000000 0.640163
O O7 0.381656 0.787515 0.822860
O O8 0.416789 0.000000 0.742940
O O9 0.535696 0.793548 0.863968
O O10 0.748588 0.500000 0.055105
O O11 0.730809 0.257184 0.145185
O O12 0.786329 0.258874 0.000807
O O13 0.906271 0.000000 0.617869
O O14 0.040777 0.819682 0.867588
O O15 0.809009 0.000000 0.955673
O O16 0.662634 0.000000 0.087142
#
# Coordination Sequence:
#
# PCOD8062952 Si02
#       7
#     2   4   4   4   4   4   4
#     4  10  20  32  48  70  99 130 159 188 235 298
#     4   9  15  26  47  74 101 127 159 199 239 279
#     4   8  15  28  50  78 102 124 154 197 242 285
#     4  11  22  35  50  68  96 130 161 198 242 285
#     4   9  16  26  46  77 105 126 154 197 241 281
#     4   9  18  31  48  71  98 129 164 199 236 281
#     4   9  17  32  53  76 100 125 157 196 241 288
#
# _framework density 18.112684000000002
#
# number of rings (size 3 to 8) (size 9 to 14) (size 15 to 20)
#    0.000    2.769    0.000    3.231    0.000    4.923 
#    0.000    2.308    0.000   16.615    0.000    0.000 
#    0.000    0.000    0.000    0.000    0.000    0.000 
#
# Total GULP energy -322094.141341 kJ/mol
# GULP energy per Si atom -12388.236205 kJ/mol
# Density = 1.807146 g / cm^3
# Si number density = 18.112684 Si / 1000 Ang^3
#
#
#
# Elastic Constant Matrix: (Units=GPa)
#
#
# Indices 1 2 3 4 5 6 
#
# 1 79.3027 27.5296 37.8589 0.0000 -1.3384 0.0000
# 2 27.5296 52.0845 22.3948 0.0000 4.7935 0.0000
# 3 37.8589 22.3948 103.8370 0.0000 -15.3982 0.0000
# 4 0.0000 0.0000 0.0000 6.5899 0.0000 4.2492
# 5 -1.3384 4.7935 -15.3982 0.0000 25.0193 0.0000
# 6 0.0000 0.0000 0.0000 4.2492 0.0000 -0.3964
#
#
#
# Elastic Compliance Matrix: (Units=1/GPa)
#
#
# Indices 1 2 3 4 5 6 
#
# 1 0.017385 -0.006991 -0.004945 0.000000 -0.000774 0.000000
# 2 -0.006991 0.025355 -0.004066 0.000000 -0.007735 0.000000
# 3 -0.004945 -0.004066 0.013631 0.000000 0.008904 0.000000
# 4 0.000000 0.000000 0.000000 0.019177 0.000000 0.205596
# 5 -0.000774 -0.007735 0.008904 0.000000 0.046889 0.000000
# 6 0.000000 0.000000 0.000000 0.205596 0.000000 -0.318846
#
#
# Mechanical properties :
#
#
# Convention : Reuss Voigt Hill
#
# Bulk Modulus (GPa) = 41.04295 45.64342 43.34318
# Shear Modulus (GPa) = -31.99357 16.07196 -7.96081
#
# Velocity S-wave (km/s) = -4.20737 2.98204 -2.09874
# Velocity P-wave (km/s) = 0.94534 6.09189 4.25544
#
# Compressibility (1/GPa) = 0.02436472
#
# Stress axis : x y z
#
# Youngs Moduli (GPa) = 57.52162 39.43983 73.36231
#
# Poissons Ratio (x) = 0.27573 0.36281
# Poissons Ratio (y) = 0.40214 0.29832
# Poissons Ratio (z) = 0.28447 0.16038
#
# Static dielectric constant tensor:
#      x y z
#    x 3.379670 0.000000 0.036030 
#    y 0.000000 2.839190 0.000000 
#    z 0.036030 0.000000 3.799870 
# 
# 
# High freq. dielectric constant tensor:
#      x y z
#    x 1.698510 0.000000 0.003940 
#    y 0.000000 1.645790 0.000000 
#    z 0.003940 0.000000 1.710060 
# 
# From -- ./inp_files/50797.got.cif
#   From: 2010.06.25/outbox.cif.g09.slc.cpg/sg10_26_cif.got.tgz:50797.got - 2010.06.27 22:07:45.
