data_PCOD8062993
_publ_section_title
;
Structure prediction by ZEFSAII (Michael W. Deem and Ramdas Pophale) SiO2 
 PCOD8062993
Probable space group: P 2/M
;
_chemical_formula_sum "Si O2"
_cell_formula_units_Z 24
_cell_length_a 19.137797
_cell_length_b 15.133868
_cell_length_c 10.602775
_cell_angle_alpha 90.000000
_cell_angle_beta 25.512622
_cell_angle_gamma 90.000000
_cell_volume 1322.654174
_symmetry_space_group_name_H-M "P 2/M"
_symmetry_group_IT_number 10
_symmetry_cell_setting 'monoclinic'
loop_
_space_group_symop_operation_xyz
x,y,z
-x,y,-z
-x,-y,-z
x,-y,z
loop_
_atom_site_type_symbol
_atom_site_label
_atom_site_fract_x
_atom_site_fract_y
_atom_site_fract_z
Si Si1 0.918539 0.597262 0.828951
Si Si2 0.247489 0.597262 0.171050
Si Si3 0.415496 0.766764 0.834637
Si Si4 0.249867 0.766764 0.834637
Si Si5 0.349983 0.102841 0.159068
Si Si6 0.990949 0.897159 0.159068
O O1 0.894236 0.500000 0.930972
O O2 0.833719 0.597730 0.832563
O O3 0.109756 0.617162 0.500000
O O4 0.838539 0.672686 0.046045
O O5 0.325208 0.500000 0.069028
O O6 0.384584 0.672686 0.953955
O O7 0.316161 0.773074 0.867678
O O8 0.606762 0.776066 0.500000
O O9 0.352293 0.845766 0.024022
O O10 0.123684 0.845766 0.024022
O O11 0.186462 0.124869 0.500000
O O12 0.364175 0.000000 0.102520
O O13 0.500000 0.134203 0.000000
O O14 0.033305 0.000000 0.102520
O O15 0.000000 0.865796 0.000000
#
# Coordination Sequence:
#
# PCOD8062993 Si02
#       6
#     4   4   4   4   4   4
#     4   8  14  26  45  69  98 132 168 205 245 290
#     4   8  14  26  45  69  98 132 168 205 245 290
#     4  10  20  32  49  76 107 136 167 206 249 292
#     4  10  20  32  49  76 107 136 167 206 249 292
#     4  10  21  37  56  75  97 129 168 208 251 302
#     4  10  21  37  56  75  97 129 168 208 251 302
#
# _framework density 18.145333999999998
#
# number of rings (size 3 to 8) (size 9 to 14) (size 15 to 20)
#    0.000    2.667    0.000    3.000    0.000    5.333 
#    0.000    6.667    0.000    1.000    0.000    0.000 
#    0.000    0.000    0.000    0.000    0.000    0.000 
#
# Total GULP energy -297562.377138 kJ/mol
# GULP energy per Si atom -12398.432381 kJ/mol
# Density = 1.810403 g / cm^3
# Si number density = 18.145334 Si / 1000 Ang^3
#
#
#
# Elastic Constant Matrix: (Units=GPa)
#
#
# Indices 1 2 3 4 5 6 
#
# 1 34.2839 37.4373 37.6578 0.0000 5.0322 0.0000
# 2 37.4373 105.6670 73.2100 0.0000 3.0689 0.0000
# 3 37.6578 73.2100 133.5726 0.0000 3.4857 0.0000
# 4 0.0000 0.0000 0.0000 33.9009 0.0000 2.4338
# 5 5.0322 3.0689 3.4857 0.0000 27.5095 0.0000
# 6 0.0000 0.0000 0.0000 2.4338 0.0000 5.5308
#
#
#
# Elastic Compliance Matrix: (Units=1/GPa)
#
#
# Indices 1 2 3 4 5 6 
#
# 1 0.053055 -0.013469 -0.007386 0.000000 -0.007267 0.000000
# 2 -0.013469 0.018688 -0.006477 0.000000 0.001200 0.000000
# 3 -0.007386 -0.006477 0.013108 0.000000 0.000413 0.000000
# 4 0.000000 0.000000 0.000000 0.030460 0.000000 -0.013404
# 5 -0.007267 0.001200 0.000413 0.000000 0.037494 0.000000
# 6 0.000000 0.000000 0.000000 -0.013404 0.000000 0.186704
#
#
# Mechanical properties :
#
#
# Convention : Reuss Voigt Hill
#
# Bulk Modulus (GPa) = 33.12563 63.34819 48.23691
# Shear Modulus (GPa) = 12.36901 21.73613 17.05257
#
# Velocity S-wave (km/s) = 2.61370 3.46481 3.06890
# Velocity P-wave (km/s) = 5.23488 7.14100 6.26090
#
# Compressibility (1/GPa) = 0.03018810
#
# Stress axis : x y z
#
# Youngs Moduli (GPa) = 18.84823 53.50944 76.28908
#
# Poissons Ratio (x) = 0.72072 0.56346
# Poissons Ratio (y) = 0.25387 0.49412
# Poissons Ratio (z) = 0.13921 0.34658
#
# Static dielectric constant tensor:
#      x y z
#    x 2.927130 0.000000 0.051930 
#    y 0.000000 3.625510 0.000000 
#    z 0.051930 0.000000 3.532420 
# 
# 
# High freq. dielectric constant tensor:
#      x y z
#    x 1.658520 0.000000 0.004680 
#    y 0.000000 1.714230 0.000000 
#    z 0.004680 0.000000 1.713100 
# 
# From -- ./inp_files/56015.got.cif
#   From: 2010.06.25/outbox.cif.g09.slc.cpg/sg10_29_cif.got.tgz:56015.got - 2010.06.27 22:07:45.
