data_PCOD8062477
_publ_section_title
;
Structure prediction by ZEFSAII (Michael W. Deem and Ramdas Pophale) SiO2 
 PCOD8062477
Probable space group: P 2/M
;
_chemical_formula_sum "Si O2"
_cell_formula_units_Z 32
_cell_length_a 10.081027
_cell_length_b 13.510298
_cell_length_c 15.359819
_cell_angle_alpha 90.000000
_cell_angle_beta 121.089790
_cell_angle_gamma 90.000000
_cell_volume 1791.479033
_symmetry_space_group_name_H-M "P 2/M"
_symmetry_group_IT_number 10
_symmetry_cell_setting 'monoclinic'
loop_
_space_group_symop_operation_xyz
x,y,z
-x,y,-z
-x,-y,-z
x,-y,z
loop_
_atom_site_type_symbol
_atom_site_label
_atom_site_fract_x
_atom_site_fract_y
_atom_site_fract_z
Si Si1 0.828797 0.382612 0.931523
Si Si2 0.624637 0.111408 0.468903
Si Si3 0.318697 0.385180 0.939157
Si Si4 0.347456 0.297585 0.620507
Si Si5 0.979659 0.887670 0.594369
Si Si6 0.156474 0.294234 0.723707
Si Si7 0.327723 0.615090 0.293255
Si Si8 0.161121 0.386111 0.407729
O O1 0.833660 0.500000 0.923751
O O2 0.751038 0.335777 0.818689
O O3 0.732142 0.351335 0.982626
O O4 0.000000 0.338419 0.000000
O O5 0.500000 0.141021 0.500000
O O6 0.600561 0.184069 0.378541
O O7 0.800789 0.121252 0.563871
O O8 0.593850 0.000000 0.425271
O O9 0.275219 0.500000 0.904326
O O10 0.234290 0.311739 0.843448
O O11 0.500000 0.368576 0.000000
O O12 0.291362 0.313004 0.699356
O O13 0.489034 0.369923 0.647741
O O14 0.208166 0.323033 0.507682
O O15 0.084466 0.815876 0.689655
O O16 0.000000 0.856569 0.500000
O O17 0.039577 0.000000 0.627824
O O18 0.022178 0.375355 0.666781
O O19 0.289848 0.500000 0.280978
O O20 0.252867 0.659463 0.355767
O O21 0.203712 0.500000 0.437634
#
# Coordination Sequence:
#
# PCOD8062477 Si02
#       8
#     4   4   4   4   4   4   4   4
#     4   9  17  33  53  71  92 126 176 229 269 300
#     4  10  20  35  55  77 104 138 176 217 256 302
#     4  10  21  36  53  74 103 138 180 231 272 306
#     4  12  22  33  49  75 111 145 172 207 257 319
#     4  10  19  36  57  79 109 141 175 215 262 317
#     4  12  22  34  52  79 105 140 182 218 262 316
#     4  10  21  35  52  73 102 142 181 217 264 318
#     4  11  22  34  48  73 109 145 177 213 256 313
#
# _framework density 17.862335999999999
#
# number of rings (size 3 to 8) (size 9 to 14) (size 15 to 20)
#    0.000    1.500    2.500    3.750    0.000    6.500 
#    0.000    0.000    0.000    0.375    0.000    0.875 
#    0.000    2.000    0.000    0.000    0.000    0.000 
#
# Total GULP energy -396829.892606 kJ/mol
# GULP energy per Si atom -12400.934144 kJ/mol
# Density = 1.782168 g / cm^3
# Si number density = 17.862336 Si / 1000 Ang^3
#
#
#
# Elastic Constant Matrix: (Units=GPa)
#
#
# Indices 1 2 3 4 5 6 
#
# 1 103.5179 15.0245 3.1584 0.0000 0.7922 0.0000
# 2 15.0245 59.6162 23.9384 0.0000 -4.5561 0.0000
# 3 3.1584 23.9384 68.6156 0.0000 2.1589 0.0000
# 4 0.0000 0.0000 0.0000 26.3592 0.0000 -12.2944
# 5 0.7922 -4.5561 2.1589 0.0000 23.2401 0.0000
# 6 0.0000 0.0000 0.0000 -12.2944 0.0000 56.8810
#
#
#
# Elastic Compliance Matrix: (Units=1/GPa)
#
#
# Indices 1 2 3 4 5 6 
#
# 1 0.010061 -0.002831 0.000554 0.000000 -0.000949 0.000000
# 2 -0.002831 0.020777 -0.007271 0.000000 0.004845 0.000000
# 3 0.000554 -0.007271 0.017181 0.000000 -0.003040 0.000000
# 4 0.000000 0.000000 0.000000 0.042191 0.000000 0.009119
# 5 -0.000949 0.004845 -0.003040 0.000000 0.044294 0.000000
# 6 0.000000 0.000000 0.000000 0.009119 0.000000 0.019552
#
#
# Mechanical properties :
#
#
# Convention : Reuss Voigt Hill
#
# Bulk Modulus (GPa) = 34.57253 35.11025 34.84139
# Shear Modulus (GPa) = 27.35355 33.93795 30.64575
#
# Velocity S-wave (km/s) = 3.91750 4.36360 4.14655
# Velocity P-wave (km/s) = 6.31343 6.71466 6.51713
#
# Compressibility (1/GPa) = 0.02892470
#
# Stress axis : x y z
#
# Youngs Moduli (GPa) = 99.38992 48.12960 58.20480
#
# Poissons Ratio (x) = 0.13625 -0.03227
# Poissons Ratio (y) = 0.28136 0.42320
# Poissons Ratio (z) = -0.05510 0.34994
#
# Static dielectric constant tensor:
#      x y z
#    x 3.512880 0.000000 -0.052360 
#    y 0.000000 3.182420 0.000000 
#    z -0.052360 0.000000 3.204180 
# 
# 
# High freq. dielectric constant tensor:
#      x y z
#    x 1.716830 0.000000 0.000760 
#    y 0.000000 1.664790 0.000000 
#    z 0.000760 0.000000 1.668510 
# 
# From -- ./inp_files/29550.got.cif
#   From: 2010.06.25/outbox.cif.g09.slc.cpg/sg10_15_cif.got.tgz:29550.got - 2010.06.27 22:07:45.
