data_PCOD8062708
_publ_section_title
;
Structure prediction by ZEFSAII (Michael W. Deem and Ramdas Pophale) SiO2 
 PCOD8062708
Probable space group: P 2/M
;
_chemical_formula_sum "Si O2"
_cell_formula_units_Z 32
_cell_length_a 13.893379
_cell_length_b 8.968975
_cell_length_c 23.446437
_cell_angle_alpha 90.000000
_cell_angle_beta 146.573237
_cell_angle_gamma 90.000000
_cell_volume 1609.448845
_symmetry_space_group_name_H-M "P 2/M"
_symmetry_group_IT_number 10
_symmetry_cell_setting 'monoclinic'
loop_
_space_group_symop_operation_xyz
x,y,z
-x,y,-z
-x,-y,-z
x,-y,z
loop_
_atom_site_type_symbol
_atom_site_label
_atom_site_fract_x
_atom_site_fract_y
_atom_site_fract_z
Si Si1 0.703497 0.672542 0.098401
Si Si2 0.166277 0.175993 0.948280
Si Si3 0.184809 0.676244 0.234283
Si Si4 0.826618 0.175361 0.534810
Si Si5 0.703739 0.173478 0.598634
Si Si6 0.535582 0.327442 0.833442
Si Si7 0.181909 0.673679 0.718644
Si Si8 0.512031 0.672316 0.321843
O O1 0.731909 0.500000 0.095965
O O2 0.794395 0.775199 0.096768
O O3 0.789358 0.712693 0.201070
O O4 0.500000 0.710910 0.000000
O O5 0.983634 0.248188 0.877925
O O6 0.150433 0.000000 0.943154
O O7 0.315270 0.228963 0.064723
O O8 0.162265 0.500000 0.220161
O O9 0.197574 0.728005 0.305944
O O10 0.355225 0.730577 0.284205
O O11 0.775526 0.225705 0.573194
O O12 0.686861 0.237191 0.421014
O O13 0.016241 0.237967 0.612631
O O14 0.828707 0.000000 0.529881
O O15 0.500000 0.209465 0.500000
O O16 0.741220 0.000000 0.629356
O O17 0.566847 0.500000 0.865402
O O18 0.349288 0.274057 0.765385
O O19 0.544013 0.300372 0.770551
O O20 0.146806 0.500000 0.692158
O O21 0.551457 0.500000 0.353413
#
# Coordination Sequence:
#
# PCOD8062708 Si02
#       8
#     4   4   4   4   4   4   4   4
#     4  10  19  37  64  92 120 156 198 243 295 350
#     4  12  25  39  60  91 125 160 194 240 300 363
#     4  11  23  39  62  91 120 155 199 250 297 351
#     4  11  23  38  60  88 124 159 192 240 297 358
#     4  10  20  37  60  88 122 160 193 234 298 362
#     4  10  22  44  66  85 114 156 204 253 296 346
#     4  10  21  38  63  89 118 155 197 243 292 349
#     4  10  23  42  65  88 113 152 206 255 297 345
#
# _framework density 19.882581999999999
#
# number of rings (size 3 to 8) (size 9 to 14) (size 15 to 20)
#    0.000    1.500    2.500    2.625    0.000    6.500 
#    0.000    5.000    0.000    0.000    0.000    0.000 
#    0.000    0.000    0.000    0.000    0.000    0.000 
#
# Total GULP energy -397014.912117 kJ/mol
# GULP energy per Si atom -12406.716004 kJ/mol
# Density = 1.983733 g / cm^3
# Si number density = 19.882582 Si / 1000 Ang^3
#
#
#
# Elastic Constant Matrix: (Units=GPa)
#
#
# Indices 1 2 3 4 5 6 
#
# 1 52.7816 30.3383 45.9362 0.0000 -0.4757 0.0000
# 2 30.3383 83.3140 53.6677 0.0000 7.1381 0.0000
# 3 45.9362 53.6677 86.1024 0.0000 25.4132 0.0000
# 4 0.0000 0.0000 0.0000 30.4773 0.0000 1.0432
# 5 -0.4757 7.1381 25.4132 0.0000 29.9303 0.0000
# 6 0.0000 0.0000 0.0000 1.0432 0.0000 19.1657
#
#
#
# Elastic Compliance Matrix: (Units=1/GPa)
#
#
# Indices 1 2 3 4 5 6 
#
# 1 0.052102 0.004190 -0.040510 0.000000 0.034225 0.000000
# 2 0.004190 0.021848 -0.019129 0.000000 0.011098 0.000000
# 3 -0.040510 -0.019129 0.058705 0.000000 -0.045927 0.000000
# 4 0.000000 0.000000 0.000000 0.032873 0.000000 -0.001789
# 5 0.034225 0.011098 -0.045927 0.000000 0.070304 0.000000
# 6 0.000000 0.000000 0.000000 -0.001789 0.000000 0.052274
#
#
# Mechanical properties :
#
#
# Convention : Reuss Voigt Hill
#
# Bulk Modulus (GPa) = 45.96160 53.56471 49.76316
# Shear Modulus (GPa) = 12.30751 22.06506 17.18628
#
# Velocity S-wave (km/s) = 2.49069 3.33493 2.94324
# Velocity P-wave (km/s) = 5.60697 6.46746 6.05252
#
# Compressibility (1/GPa) = 0.02175729
#
# Stress axis : x y z
#
# Youngs Moduli (GPa) = 19.19307 45.76986 17.03436
#
# Poissons Ratio (x) = -0.19178 0.69006
# Poissons Ratio (y) = -0.08042 0.32585
# Poissons Ratio (z) = 0.77751 0.87554
#
# Static dielectric constant tensor:
#      x y z
#    x 3.709170 0.000000 0.121140 
#    y 0.000000 3.469540 0.000000 
#    z 0.121140 0.000000 3.653510 
# 
# 
# High freq. dielectric constant tensor:
#      x y z
#    x 1.777350 0.000000 0.009430 
#    y 0.000000 1.767210 0.000000 
#    z 0.009430 0.000000 1.787380 
# 
# From -- ./inp_files/71405.got.cif
#   From: 2010.06.25/outbox.cif.g09.slc.cpg/sg10_36_cif.got.tgz:71405.got - 2010.06.27 22:07:45.
