data_PCOD8062973
_publ_section_title
;
Structure prediction by ZEFSAII (Michael W. Deem and Ramdas Pophale) SiO2 
 PCOD8062973
Probable space group: P 2/M
;
_chemical_formula_sum "Si O2"
_cell_formula_units_Z 32
_cell_length_a 23.143632
_cell_length_b 9.114803
_cell_length_c 20.864029
_cell_angle_alpha 90.000000
_cell_angle_beta 156.459285
_cell_angle_gamma 90.000000
_cell_volume 1757.865881
_symmetry_space_group_name_H-M "P 2/M"
_symmetry_group_IT_number 10
_symmetry_cell_setting 'monoclinic'
loop_
_space_group_symop_operation_xyz
x,y,z
-x,y,-z
-x,-y,-z
x,-y,z
loop_
_atom_site_type_symbol
_atom_site_label
_atom_site_fract_x
_atom_site_fract_y
_atom_site_fract_z
Si Si1 0.332331 0.827414 0.321222
Si Si2 0.263113 0.168566 0.797749
Si Si3 0.107402 0.662519 0.168764
Si Si4 0.050158 0.332354 0.664062
Si Si5 0.165703 0.673539 0.039085
Si Si6 0.475730 0.168840 0.132120
Si Si7 0.718073 0.670598 0.312681
Si Si8 0.253161 0.329191 0.986497
O O1 0.500000 0.785528 0.500000
O O2 0.242211 0.769508 0.291502
O O3 0.274930 0.754482 0.197942
O O4 0.309063 0.000000 0.292877
O O5 0.317692 0.255203 0.791436
O O6 0.111785 0.232750 0.669499
O O7 0.240915 0.000000 0.756323
O O8 0.382565 0.189808 0.973455
O O9 0.170238 0.500000 0.246879
O O10 0.000000 0.656456 0.000000
O O11 0.003656 0.717524 0.121444
O O12 0.081783 0.500000 0.676718
O O13 0.881911 0.300684 0.499920
O O14 0.122112 0.293105 0.805088
O O15 0.184321 0.500000 0.069011
O O16 0.204832 0.722650 0.007378
O O17 0.624514 0.255606 0.273581
O O18 0.508659 0.000000 0.180279
O O19 0.394135 0.237367 0.110048
O O20 0.679854 0.500000 0.268695
O O21 0.293680 0.500000 0.026286
#
# Coordination Sequence:
#
# PCOD8062973 Si02
#       8
#     4   4   4   4   4   4   4   4
#     4  10  20  32  48  75 110 140 164 196 241 288
#     4  10  20  33  50  72  97 127 164 204 250 303
#     4   8  15  29  49  74 101 127 161 202 240 280
#     4   9  19  34  51  72  98 126 159 203 250 297
#     4   9  18  33  55  78  97 126 168 207 242 286
#     4  10  21  35  50  71 100 131 164 204 248 295
#     4  11  21  32  49  73  99 128 163 204 253 302
#     4   9  18  36  57  73  94 127 166 204 244 292
#
# _framework density 18.203893000000001
#
# number of rings (size 3 to 8) (size 9 to 14) (size 15 to 20)
#    0.000    2.500    0.000    3.000    0.000    9.250 
#    0.000    1.250    0.000    3.000    0.000    0.000 
#    0.000    0.000    0.000    0.000    0.000    0.000 
#
# Total GULP energy -396809.596141 kJ/mol
# GULP energy per Si atom -12400.299879 kJ/mol
# Density = 1.816246 g / cm^3
# Si number density = 18.203893 Si / 1000 Ang^3
#
#
#
# Elastic Constant Matrix: (Units=GPa)
#
#
# Indices 1 2 3 4 5 6 
#
# 1 125.8022 51.4147 43.8593 0.0000 31.8707 0.0000
# 2 51.4147 92.8797 48.4323 0.0000 21.8954 0.0000
# 3 43.8593 48.4323 79.8140 0.0000 29.9201 0.0000
# 4 0.0000 0.0000 0.0000 25.0989 0.0000 1.1883
# 5 31.8707 21.8954 29.9201 0.0000 29.2412 0.0000
# 6 0.0000 0.0000 0.0000 1.1883 0.0000 16.1294
#
#
#
# Elastic Compliance Matrix: (Units=1/GPa)
#
#
# Indices 1 2 3 4 5 6 
#
# 1 0.012337 -0.004249 -0.000573 0.000000 -0.009679 0.000000
# 2 -0.004249 0.017409 -0.008238 0.000000 0.000026 0.000000
# 3 -0.000573 -0.008238 0.024815 0.000000 -0.018598 0.000000
# 4 0.000000 0.000000 0.000000 0.039982 0.000000 -0.002946
# 5 -0.009679 0.000026 -0.018598 0.000000 0.063758 0.000000
# 6 0.000000 0.000000 0.000000 -0.002946 0.000000 0.062215
#
#
# Mechanical properties :
#
#
# Convention : Reuss Voigt Hill
#
# Bulk Modulus (GPa) = 35.16139 65.10096 50.13117
# Shear Modulus (GPa) = 19.52231 24.41322 21.96777
#
# Velocity S-wave (km/s) = 3.27834 3.66607 3.47762
# Velocity P-wave (km/s) = 5.80407 7.33211 6.61238
#
# Compressibility (1/GPa) = 0.02844029
#
# Stress axis : x y z
#
# Youngs Moduli (GPa) = 81.05484 57.44263 40.29825
#
# Poissons Ratio (x) = 0.24408 0.02308
# Poissons Ratio (y) = 0.34441 0.33200
# Poissons Ratio (z) = 0.04643 0.47324
#
# Static dielectric constant tensor:
#      x y z
#    x 3.538410 0.000000 0.312040 
#    y 0.000000 3.410310 0.000000 
#    z 0.312040 0.000000 3.283280 
# 
# 
# High freq. dielectric constant tensor:
#      x y z
#    x 1.697360 0.000000 0.023920 
#    y 0.000000 1.708090 0.000000 
#    z 0.023920 0.000000 1.693950 
# 
# From -- ./inp_files/90637.got.cif
#   From: 2010.06.25/outbox.cif.g09.slc.cpg/sg10_46_cif.got.tgz:90637.got - 2010.06.27 22:07:45.
