data_PCOD8062633
_publ_section_title
;
Structure prediction by ZEFSAII (Michael W. Deem and Ramdas Pophale) SiO2 
 PCOD8062633
Probable space group: P 2/M
;
_chemical_formula_sum "Si O2"
_cell_formula_units_Z 32
_cell_length_a 33.501672
_cell_length_b 8.674922
_cell_length_c 12.609347
_cell_angle_alpha 90.000000
_cell_angle_beta 25.409566
_cell_angle_gamma 90.000000
_cell_volume 1572.421408
_symmetry_space_group_name_H-M "P 2/M"
_symmetry_group_IT_number 10
_symmetry_cell_setting 'monoclinic'
loop_
_space_group_symop_operation_xyz
x,y,z
-x,y,-z
-x,-y,-z
x,-y,z
loop_
_atom_site_type_symbol
_atom_site_label
_atom_site_fract_x
_atom_site_fract_y
_atom_site_fract_z
Si Si1 0.603048 0.683057 0.521354
Si Si2 0.397333 0.682007 0.047686
Si Si3 0.963994 0.680511 0.202282
Si Si4 0.732878 0.819266 0.034062
Si Si5 0.894611 0.680076 0.771023
Si Si6 0.753243 0.317735 0.758242
Si Si7 0.118235 0.820001 0.973796
Si Si8 0.697557 0.681924 0.511951
O O1 0.602465 0.500000 0.520459
O O2 0.653187 0.742927 0.296372
O O3 0.656081 0.739440 0.499741
O O4 0.498136 0.750223 0.774950
O O5 0.400883 0.500000 0.028726
O O6 0.317599 0.744813 0.160748
O O7 0.374632 0.728667 0.222915
O O8 0.979201 0.500000 0.186669
O O9 0.856873 0.728909 0.472779
O O10 0.000000 0.728083 0.000000
O O11 0.022229 0.774164 0.148959
O O12 0.720538 0.000000 0.070652
O O13 0.834748 0.771876 0.829256
O O14 0.722111 0.764418 0.940098
O O15 0.877486 0.500000 0.793384
O O16 0.000000 0.729538 0.500000
O O17 0.865241 0.723925 0.959136
O O18 0.746634 0.500000 0.790657
O O19 0.206665 0.771463 0.690628
O O20 0.117154 0.000000 0.001698
O O21 0.717771 0.500000 0.464939
#
# Coordination Sequence:
#
# PCOD8062633 Si02
#       8
#     4   4   4   4   4   4   4   4
#     4  10  20  37  64  93 122 156 200 253 308 360
#     4   9  19  37  64  95 118 151 205 260 305 353
#     4  10  21  39  63  89 119 160 207 254 301 353
#     4  12  25  40  59  85 124 162 201 248 300 361
#     4  11  23  40  62  86 112 149 199 248 298 354
#     4  10  21  39  62  87 120 159 205 254 302 357
#     4  12  24  36  56  88 125 160 194 238 298 361
#     4  10  19  36  63  92 124 157 199 251 303 362
#
# _framework density 20.35078
#
# number of rings (size 3 to 8) (size 9 to 14) (size 15 to 20)
#    0.000    1.500    1.250    4.500    0.000    8.750 
#    0.000    5.625    0.000    1.500    0.000    0.000 
#    0.000    0.000    0.000    0.000    0.000    0.000 
#
# Total GULP energy -396933.650214 kJ/mol
# GULP energy per Si atom -12404.176569 kJ/mol
# Density = 2.030446 g / cm^3
# Si number density = 20.350780 Si / 1000 Ang^3
#
#
#
# Elastic Constant Matrix: (Units=GPa)
#
#
# Indices 1 2 3 4 5 6 
#
# 1 111.2730 19.8419 55.9541 0.0000 -0.5726 0.0000
# 2 19.8419 20.5078 22.3768 0.0000 -5.3630 0.0000
# 3 55.9541 22.3768 153.4748 0.0000 -7.5204 0.0000
# 4 0.0000 0.0000 0.0000 4.5818 0.0000 -1.6140
# 5 -0.5726 -5.3630 -7.5204 0.0000 40.6279 0.0000
# 6 0.0000 0.0000 0.0000 -1.6140 0.0000 -0.9962
#
#
#
# Elastic Compliance Matrix: (Units=1/GPa)
#
#
# Indices 1 2 3 4 5 6 
#
# 1 0.012150 -0.008620 -0.003250 0.000000 -0.001568 0.000000
# 2 -0.008620 0.065664 -0.006067 0.000000 0.007423 0.000000
# 3 -0.003250 -0.006067 0.008622 0.000000 0.000749 0.000000
# 4 0.000000 0.000000 0.000000 0.138951 0.000000 -0.225119
# 5 -0.001568 0.007423 0.000749 0.000000 0.025710 0.000000
# 6 0.000000 0.000000 0.000000 -0.225119 0.000000 -0.639055
#
#
# Mechanical properties :
#
#
# Convention : Reuss Voigt Hill
#
# Bulk Modulus (GPa) = 19.77785 53.51123 36.64454
# Shear Modulus (GPa) = -14.91510 21.31488 3.19989
#
# Velocity S-wave (km/s) = -2.71015 3.23983 1.25530
# Velocity P-wave (km/s) = 0.23162 6.35191 4.48849
#
# Compressibility (1/GPa) = 0.05056161
#
# Stress axis : x y z
#
# Youngs Moduli (GPa) = 82.30425 15.22914 115.98387
#
# Poissons Ratio (x) = 0.13127 0.37692
# Poissons Ratio (y) = 0.70944 0.70373
# Poissons Ratio (z) = 0.26747 0.09240
#
# Static dielectric constant tensor:
#      x y z
#    x 3.810990 0.000000 -0.079120 
#    y 0.000000 3.373340 0.000000 
#    z -0.079120 0.000000 3.964510 
# 
# 
# High freq. dielectric constant tensor:
#      x y z
#    x 1.800840 0.000000 0.000090 
#    y 0.000000 1.766880 0.000000 
#    z 0.000090 0.000000 1.813550 
# 
# From -- ./inp_files/58073.got.cif
#   From: 2010.06.25/outbox.cif.g09.slc.cpg/sg10_30_cif.got.tgz:58073.got - 2010.06.27 22:07:45.
