data_PCOD8062923
_publ_section_title
;
Structure prediction by ZEFSAII (Michael W. Deem and Ramdas Pophale) SiO2 
 PCOD8062923
Probable space group: P 2/M
;
_chemical_formula_sum "Si O2"
_cell_formula_units_Z 28
_cell_length_a 14.775746
_cell_length_b 9.112616
_cell_length_c 18.672756
_cell_angle_alpha 90.000000
_cell_angle_beta 38.264475
_cell_angle_gamma 90.000000
_cell_volume 1557.028670
_symmetry_space_group_name_H-M "P 2/M"
_symmetry_group_IT_number 10
_symmetry_cell_setting 'monoclinic'
loop_
_space_group_symop_operation_xyz
x,y,z
-x,y,-z
-x,-y,-z
x,-y,z
loop_
_atom_site_type_symbol
_atom_site_label
_atom_site_fract_x
_atom_site_fract_y
_atom_site_fract_z
Si Si1 0.402262 0.328215 0.402339
Si Si2 0.195453 0.162208 0.931365
Si Si3 0.162389 0.326983 0.667387
Si Si4 0.473222 0.164997 0.223510
Si Si5 0.723198 0.328313 0.250805
Si Si6 0.125758 0.825196 0.128703
Si Si7 0.576912 0.668812 0.027949
O O1 0.402261 0.500000 0.385180
O O2 0.274370 0.283764 0.535717
O O3 0.373999 0.242441 0.345683
O O4 0.555337 0.281108 0.343377
O O5 0.363099 0.162476 0.849884
O O6 0.171314 0.261318 0.876227
O O7 0.143537 0.000000 0.942308
O O8 0.107538 0.218899 0.055811
O O9 0.131088 0.500000 0.688109
O O10 0.229722 0.271709 0.700594
O O11 0.013455 0.240006 0.743517
O O12 0.468314 0.257539 0.153304
O O13 0.415488 0.000000 0.245289
O O14 0.742069 0.500000 0.233256
O O15 0.137115 0.000000 0.130790
O O16 0.270027 0.753576 0.072366
O O17 0.605194 0.500000 0.032297
O O18 0.500000 0.681237 0.000000
#
# Coordination Sequence:
#
# PCOD8062923 Si02
#       7
#     4   4   4   4   4   4   4
#     4   9  17  31  50  70  97 135 176 214 248 285
#     4   8  16  30  45  64  93 128 164 203 247 293
#     4  10  20  32  47  69  99 135 174 214 252 290
#     4   9  17  30  50  76 103 130 161 198 242 291
#     4   9  17  29  47  70  94 127 174 219 252 284
#     4  10  21  35  50  71 101 134 165 199 247 303
#     4  10  20  35  58  84 104 123 152 193 242 297
#
# _framework density 17.982970999999999
#
# number of rings (size 3 to 8) (size 9 to 14) (size 15 to 20)
#    0.000    2.714    0.000    2.571    0.000    8.571 
#    0.000    2.857    0.000    5.143    0.000    6.000 
#    0.000    0.000    0.000    0.000    0.000    0.000 
#
# Total GULP energy -347160.815314 kJ/mol
# GULP energy per Si atom -12398.600547 kJ/mol
# Density = 1.794204 g / cm^3
# Si number density = 17.982971 Si / 1000 Ang^3
#
#
#
# Elastic Constant Matrix: (Units=GPa)
#
#
# Indices 1 2 3 4 5 6 
#
# 1 64.8062 41.3131 39.3039 0.0000 11.5693 0.0000
# 2 41.3131 82.8646 46.7829 0.0000 6.7335 0.0000
# 3 39.3039 46.7829 99.4165 0.0000 6.2789 0.0000
# 4 0.0000 0.0000 0.0000 26.8974 0.0000 1.4454
# 5 11.5693 6.7335 6.2789 0.0000 21.9899 0.0000
# 6 0.0000 0.0000 0.0000 1.4454 0.0000 8.2104
#
#
#
# Elastic Compliance Matrix: (Units=1/GPa)
#
#
# Indices 1 2 3 4 5 6 
#
# 1 0.026346 -0.009292 -0.005446 0.000000 -0.009461 0.000000
# 2 -0.009292 0.019891 -0.005714 0.000000 0.000429 0.000000
# 3 -0.005446 -0.005714 0.014877 0.000000 0.000367 0.000000
# 4 0.000000 0.000000 0.000000 0.037533 0.000000 -0.006608
# 5 -0.009461 0.000429 0.000367 0.000000 0.050217 0.000000
# 6 0.000000 0.000000 0.000000 -0.006608 0.000000 0.122959
#
#
# Mechanical properties :
#
#
# Convention : Reuss Voigt Hill
#
# Bulk Modulus (GPa) = 49.47669 55.76524 52.62096
# Shear Modulus (GPa) = 15.65121 19.39871 17.52496
#
# Velocity S-wave (km/s) = 2.95334 3.28796 3.12513
# Velocity P-wave (km/s) = 6.26119 6.74475 6.50746
#
# Compressibility (1/GPa) = 0.02021154
#
# Stress axis : x y z
#
# Youngs Moduli (GPa) = 37.95706 50.27273 67.21608
#
# Poissons Ratio (x) = 0.46712 0.36604
# Poissons Ratio (y) = 0.35268 0.38408
# Poissons Ratio (z) = 0.20670 0.28727
#
# Static dielectric constant tensor:
#      x y z
#    x 3.033000 0.000000 0.190240 
#    y 0.000000 3.409210 0.000000 
#    z 0.190240 0.000000 3.455020 
# 
# 
# High freq. dielectric constant tensor:
#      x y z
#    x 1.665580 0.000000 0.012610 
#    y 0.000000 1.698880 0.000000 
#    z 0.012610 0.000000 1.695540 
# 
# From -- ./inp_files/54972.got.cif
#   From: 2010.06.25/outbox.cif.g09.slc.cpg/sg10_28_cif.got.tgz:54972.got - 2010.06.27 22:07:45.
