data_PCOD8062589
_publ_section_title
;
Structure prediction by ZEFSAII (Michael W. Deem and Ramdas Pophale) SiO2 
 PCOD8062589
Probable space group: P 2/M
;
_chemical_formula_sum "Si O2"
_cell_formula_units_Z 28
_cell_length_a 11.493316
_cell_length_b 9.127215
_cell_length_c 14.914146
_cell_angle_alpha 90.000000
_cell_angle_beta 115.524368
_cell_angle_gamma 90.000000
_cell_volume 1411.829066
_symmetry_space_group_name_H-M "P 2/M"
_symmetry_group_IT_number 10
_symmetry_cell_setting 'monoclinic'
loop_
_space_group_symop_operation_xyz
x,y,z
-x,y,-z
-x,-y,-z
x,-y,z
loop_
_atom_site_type_symbol
_atom_site_label
_atom_site_fract_x
_atom_site_fract_y
_atom_site_fract_z
Si Si1 0.618400 0.831416 0.287415
Si Si2 0.857111 0.169581 0.483372
Si Si3 0.791673 0.169532 0.954976
Si Si4 0.823276 0.326905 0.656577
Si Si5 0.969907 0.830598 0.847595
Si Si6 0.427233 0.169252 0.385249
Si Si7 0.528836 0.672920 0.908714
O O1 0.761713 0.793239 0.369614
O O2 0.518515 0.795305 0.332798
O O3 0.587065 0.732899 0.191161
O O4 0.608836 0.000000 0.254993
O O5 0.820644 0.268475 0.555056
O O6 0.000000 0.207792 0.500000
O O7 0.841243 0.000000 0.506457
O O8 0.866334 0.211692 0.889187
O O9 0.664891 0.265902 0.920521
O O10 0.750550 0.000000 0.938965
O O11 0.885767 0.201138 0.070029
O O12 0.826376 0.500000 0.655937
O O13 0.947420 0.267056 0.751796
O O14 0.697695 0.269843 0.667243
O O15 0.955182 0.000000 0.816409
O O16 0.500000 0.212214 0.500000
O O17 0.384079 0.000000 0.372642
O O18 0.532935 0.500000 0.901926
O O19 0.500000 0.724648 0.000000
#
# Coordination Sequence:
#
# PCOD8062589 Si02
#       7
#     4   4   4   4   4   4   4
#     4  10  21  39  64  90 113 148 196 248 297 339
#     4  10  22  42  64  84 111 151 200 246 289 340
#     4   9  19  38  63  88 111 146 196 248 292 338
#     4  12  24  35  54  88 125 157 191 231 288 358
#     4   9  19  37  61  87 117 149 189 241 295 344
#     4  10  19  36  61  86 117 152 192 243 293 342
#     4  11  25  41  57  82 120 161 194 236 294 351
#
# _framework density 19.832429000000001
#
# number of rings (size 3 to 8) (size 9 to 14) (size 15 to 20)
#    0.000    1.857    1.429    3.429    0.000    8.571 
#    0.000    5.714    0.000    0.000    0.000    0.000 
#    0.000    0.000    0.000    0.000    0.000    0.000 
#
# Total GULP energy -347316.945003 kJ/mol
# GULP energy per Si atom -12404.176607 kJ/mol
# Density = 1.978729 g / cm^3
# Si number density = 19.832429 Si / 1000 Ang^3
#
#
#
# Elastic Constant Matrix: (Units=GPa)
#
#
# Indices 1 2 3 4 5 6 
#
# 1 82.6214 35.5004 38.8680 0.0000 16.2491 0.0000
# 2 35.5004 81.5158 51.2788 0.0000 5.2622 0.0000
# 3 38.8680 51.2788 132.3248 0.0000 9.5514 0.0000
# 4 0.0000 0.0000 0.0000 23.5482 0.0000 -9.4081
# 5 16.2491 5.2622 9.5514 0.0000 27.6678 0.0000
# 6 0.0000 0.0000 0.0000 -9.4081 0.0000 5.8089
#
#
#
# Elastic Compliance Matrix: (Units=1/GPa)
#
#
# Indices 1 2 3 4 5 6 
#
# 1 0.017174 -0.005486 -0.002324 0.000000 -0.008241 0.000000
# 2 -0.005486 0.017998 -0.005485 0.000000 0.001692 0.000000
# 3 -0.002324 -0.005485 0.010452 0.000000 -0.001200 0.000000
# 4 0.000000 0.000000 0.000000 0.120326 0.000000 0.194881
# 5 -0.008241 0.001692 -0.001200 0.000000 0.041075 0.000000
# 6 0.000000 0.000000 0.000000 0.194881 0.000000 0.487779
#
#
# Mechanical properties :
#
#
# Convention : Reuss Voigt Hill
#
# Bulk Modulus (GPa) = 52.53639 60.86181 56.69910
# Shear Modulus (GPa) = 6.87059 22.79264 14.83161
#
# Velocity S-wave (km/s) = 1.86329 3.39375 2.73764
# Velocity P-wave (km/s) = 5.58362 6.79054 6.21644
#
# Compressibility (1/GPa) = 0.01903443
#
# Stress axis : x y z
#
# Youngs Moduli (GPa) = 58.22604 55.56163 95.67371
#
# Poissons Ratio (x) = 0.30479 0.22235
# Poissons Ratio (y) = 0.31940 0.52482
# Poissons Ratio (z) = 0.13532 0.30478
#
# Static dielectric constant tensor:
#      x y z
#    x 3.591180 0.000000 0.066080 
#    y 0.000000 3.405350 0.000000 
#    z 0.066080 0.000000 3.922890 
# 
# 
# High freq. dielectric constant tensor:
#      x y z
#    x 1.766420 0.000000 0.009900 
#    y 0.000000 1.755860 0.000000 
#    z 0.009900 0.000000 1.790900 
# 
# From -- ./inp_files/49614.got.cif
#   From: 2010.06.25/outbox.cif.g09.slc.cpg/sg10_25_cif.got.tgz:49614.got - 2010.06.27 22:07:45.
