data_PCOD8062315
_publ_section_title
;
Structure prediction by ZEFSAII (Michael W. Deem and Ramdas Pophale) SiO2 
 PCOD8062315
Probable space group: P 2/M
;
_chemical_formula_sum "Si O2"
_cell_formula_units_Z 32
_cell_length_a 8.923598
_cell_length_b 20.209552
_cell_length_c 15.643548
_cell_angle_alpha 90.000000
_cell_angle_beta 37.955441
_cell_angle_gamma 90.000000
_cell_volume 1735.166973
_symmetry_space_group_name_H-M "P 2/M"
_symmetry_group_IT_number 10
_symmetry_cell_setting 'monoclinic'
loop_
_space_group_symop_operation_xyz
x,y,z
-x,y,-z
-x,-y,-z
x,-y,z
loop_
_atom_site_type_symbol
_atom_site_label
_atom_site_fract_x
_atom_site_fract_y
_atom_site_fract_z
Si Si1 0.736033 0.923899 0.339414
Si Si2 0.281161 0.310118 0.849386
Si Si3 0.106127 0.424133 0.196808
Si Si4 0.546498 0.809968 0.119591
Si Si5 0.254357 0.309368 0.661943
Si Si6 0.724491 0.075725 0.147054
Si Si7 0.101796 0.189333 0.196966
Si Si8 0.451049 0.424261 0.884395
O O1 0.500000 0.904816 0.500000
O O2 0.673949 0.909745 0.268807
O O3 0.961911 0.880037 0.268546
O O4 0.812836 0.000000 0.318707
O O5 0.424587 0.249987 0.827901
O O6 0.318657 0.305725 0.732175
O O7 0.402382 0.378726 0.824882
O O8 0.000000 0.307145 0.000000
O O9 0.019447 0.500000 0.232152
O O10 0.277341 0.412429 0.202065
O O11 0.870016 0.378504 0.308022
O O12 0.256919 0.405173 0.044491
O O13 0.548195 0.878869 0.170099
O O14 0.286801 0.804330 0.191806
O O15 0.763497 0.807489 0.953984
O O16 0.500000 0.301895 0.500000
O O17 0.081150 0.249791 0.713104
O O18 0.668072 0.000000 0.148368
O O19 0.000000 0.094678 0.000000
O O20 0.417418 0.500000 0.870856
#
# Coordination Sequence:
#
# PCOD8062315 Si02
#       8
#     4   4   4   4   4   4   4   4
#     4  10  21  38  59  83 115 152 185 221 274 336
#     4  12  21  36  59  84 111 146 188 236 271 322
#     4   9  18  36  59  84 116 148 180 226 282 330
#     4  11  22  36  60  86 112 140 189 237 281 324
#     4  12  25  39  56  82 116 150 186 228 279 334
#     4  10  19  35  58  85 115 145 183 230 275 324
#     4  11  22  38  58  84 113 148 183 233 281 330
#     4   9  18  34  60  89 112 141 186 233 275 325
#
# _framework density 18.442028000000001
#
# number of rings (size 3 to 8) (size 9 to 14) (size 15 to 20)
#    0.000    1.500    3.750    3.000    0.000    3.500 
#    0.000    5.625    0.000    3.750    0.000    0.000 
#    0.000    0.000    0.000    0.000    0.000    0.000 
#
# Total GULP energy -396947.482401 kJ/mol
# GULP energy per Si atom -12404.608825 kJ/mol
# Density = 1.840005 g / cm^3
# Si number density = 18.442028 Si / 1000 Ang^3
#
#
#
# Elastic Constant Matrix: (Units=GPa)
#
#
# Indices 1 2 3 4 5 6 
#
# 1 124.8690 81.7401 67.8472 0.0000 0.2021 0.0000
# 2 81.7401 128.3653 50.0765 0.0000 -8.5564 0.0000
# 3 67.8472 50.0765 119.0807 0.0000 1.2504 0.0000
# 4 0.0000 0.0000 0.0000 19.1325 0.0000 -4.6414
# 5 0.2021 -8.5564 1.2504 0.0000 23.5799 0.0000
# 6 0.0000 0.0000 0.0000 -4.6414 0.0000 39.4590
#
#
#
# Elastic Compliance Matrix: (Units=1/GPa)
#
#
# Indices 1 2 3 4 5 6 
#
# 1 0.016912 -0.008637 -0.005973 0.000000 -0.002962 0.000000
# 2 -0.008637 0.014044 -0.001040 0.000000 0.005225 0.000000
# 3 -0.005973 -0.001040 0.012248 0.000000 -0.000976 0.000000
# 4 0.000000 0.000000 0.000000 0.053802 0.000000 0.006328
# 5 -0.002962 0.005225 -0.000976 0.000000 0.044382 0.000000
# 6 0.000000 0.000000 0.000000 0.006328 0.000000 0.026087
#
#
# Mechanical properties :
#
#
# Convention : Reuss Voigt Hill
#
# Bulk Modulus (GPa) = 83.99399 85.73805 84.86602
# Shear Modulus (GPa) = 24.66177 27.94435 26.30306
#
# Velocity S-wave (km/s) = 3.66082 3.89685 3.78068
# Velocity P-wave (km/s) = 7.96948 8.17550 8.07314
#
# Compressibility (1/GPa) = 0.01190561
#
# Stress axis : x y z
#
# Youngs Moduli (GPa) = 59.12934 71.20553 81.64447
#
# Poissons Ratio (x) = 0.61498 0.48764
# Poissons Ratio (y) = 0.51068 0.08490
# Poissons Ratio (z) = 0.35316 0.07404
#
# Static dielectric constant tensor:
#      x y z
#    x 3.369590 0.000000 0.025250 
#    y 0.000000 3.571600 0.000000 
#    z 0.025250 0.000000 3.193940 
# 
# 
# High freq. dielectric constant tensor:
#      x y z
#    x 1.718370 0.000000 0.003650 
#    y 0.000000 1.734200 0.000000 
#    z 0.003650 0.000000 1.692140 
# 
# From -- ./inp_files/62489.got.cif
#   From: 2010.06.25/outbox.cif.g09.slc.cpg/sg10_32_cif.got.tgz:62489.got - 2010.06.27 22:07:45.
