data_PCOD8062920
_publ_section_title
;
Structure prediction by ZEFSAII (Michael W. Deem and Ramdas Pophale) SiO2 
 PCOD8062920
Probable space group: P 2/M
;
_chemical_formula_sum "Si O2"
_cell_formula_units_Z 24
_cell_length_a 19.268639
_cell_length_b 9.268058
_cell_length_c 25.109636
_cell_angle_alpha 90.000000
_cell_angle_beta 161.989194
_cell_angle_gamma 90.000000
_cell_volume 1386.483069
_symmetry_space_group_name_H-M "P 2/M"
_symmetry_group_IT_number 10
_symmetry_cell_setting 'monoclinic'
loop_
_space_group_symop_operation_xyz
x,y,z
-x,y,-z
-x,-y,-z
x,-y,z
loop_
_atom_site_type_symbol
_atom_site_label
_atom_site_fract_x
_atom_site_fract_y
_atom_site_fract_z
Si Si1 0.284997 0.834281 0.373587
Si Si2 0.242582 0.166750 0.661419
Si Si3 0.657181 0.666329 0.986370
Si Si4 0.805920 0.161827 0.996787
Si Si5 0.864459 0.331675 0.631039
Si Si6 0.362381 0.161977 0.626331
O O1 0.500000 0.768671 0.500000
O O2 0.242795 0.749340 0.397099
O O3 0.331366 0.000000 0.423165
O O4 0.070499 0.821738 0.176743
O O5 0.432180 0.244811 0.836158
O O6 0.286250 0.194735 0.631055
O O7 0.000000 0.230856 0.500000
O O8 0.254382 0.000000 0.685255
O O9 0.589956 0.500000 0.936372
O O10 0.745279 0.712665 0.993129
O O11 0.866997 0.696395 0.179090
O O12 0.636014 0.177951 0.822647
O O13 0.764335 0.000000 0.991233
O O14 0.814622 0.500000 0.602093
O O15 0.751224 0.277117 0.494596
O O16 0.289906 0.000000 0.556722
#
# Coordination Sequence:
#
# PCOD8062920 Si02
#       6
#     4   4   4   4   4   4
#     4   9  17  31  52  74  94 120 156 197 239 280
#     4   9  18  33  52  73  95 120 154 195 236 278
#     4   9  17  29  46  68  92 122 158 190 226 275
#     4   8  15  29  48  69  92 120 156 194 231 276
#     4  10  20  32  47  69  97 127 158 192 230 276
#     4   9  17  30  49  70  92 121 156 193 232 275
#
# _framework density 17.309985999999999
#
# number of rings (size 3 to 8) (size 9 to 14) (size 15 to 20)
#    0.000    3.000    0.000    2.000    0.000    5.333 
#    0.000    1.667    0.000   10.000    0.000    0.000 
#    0.000    0.000    0.000    0.000    0.000    0.000 
#
# Total GULP energy -297358.448353 kJ/mol
# GULP energy per Si atom -12389.935348 kJ/mol
# Density = 1.727059 g / cm^3
# Si number density = 17.309986 Si / 1000 Ang^3
#
#
#
# Elastic Constant Matrix: (Units=GPa)
#
#
# Indices 1 2 3 4 5 6 
#
# 1 42.0494 26.7902 47.8459 0.0000 4.2006 0.0000
# 2 26.7902 67.6776 56.3804 0.0000 -3.0222 0.0000
# 3 47.8459 56.3804 157.0230 0.0000 10.1399 0.0000
# 4 0.0000 0.0000 0.0000 28.3295 0.0000 -0.7916
# 5 4.2006 -3.0222 10.1399 0.0000 29.2169 0.0000
# 6 0.0000 0.0000 0.0000 -0.7916 0.0000 13.5944
#
#
#
# Elastic Compliance Matrix: (Units=1/GPa)
#
#
# Indices 1 2 3 4 5 6 
#
# 1 0.039519 -0.008502 -0.008762 0.000000 -0.003520 0.000000
# 2 -0.008502 0.023625 -0.006270 0.000000 0.005842 0.000000
# 3 -0.008762 -0.006270 0.011508 0.000000 -0.003383 0.000000
# 4 0.000000 0.000000 0.000000 0.035356 0.000000 0.002059
# 5 -0.003520 0.005842 -0.003383 0.000000 0.036511 0.000000
# 6 0.000000 0.000000 0.000000 0.002059 0.000000 0.073679
#
#
# Mechanical properties :
#
#
# Convention : Reuss Voigt Hill
#
# Bulk Modulus (GPa) = 36.24993 58.75365 47.50179
# Shear Modulus (GPa) = 18.08572 23.27707 20.68140
#
# Velocity S-wave (km/s) = 3.23587 3.67102 3.46029
# Velocity P-wave (km/s) = 5.91170 7.21001 6.59289
#
# Compressibility (1/GPa) = 0.02758626
#
# Stress axis : x y z
#
# Youngs Moduli (GPa) = 25.30398 42.32769 86.89716
#
# Poissons Ratio (x) = 0.35986 0.76138
# Poissons Ratio (y) = 0.21513 0.54481
# Poissons Ratio (z) = 0.22171 0.26538
#
# Static dielectric constant tensor:
#      x y z
#    x 2.751970 0.000000 0.108570 
#    y 0.000000 3.202350 0.000000 
#    z 0.108570 0.000000 3.766950 
# 
# 
# High freq. dielectric constant tensor:
#      x y z
#    x 1.611560 0.000000 0.005340 
#    y 0.000000 1.669450 0.000000 
#    z 0.005340 0.000000 1.692420 
# 
# From -- ./inp_files/31199.got.cif
#   From: 2010.06.25/outbox.cif.g09.slc.cpg/sg10_16_cif.got.tgz:31199.got - 2010.06.27 22:07:45.
