data_PCOD8062441
_publ_section_title
;
Structure prediction by ZEFSAII (Michael W. Deem and Ramdas Pophale) SiO2 
 PCOD8062441
Probable space group: P 2/M
;
_chemical_formula_sum "Si O2"
_cell_formula_units_Z 32
_cell_length_a 23.674170
_cell_length_b 8.611370
_cell_length_c 13.834561
_cell_angle_alpha 90.000000
_cell_angle_beta 33.410281
_cell_angle_gamma 90.000000
_cell_volume 1553.004395
_symmetry_space_group_name_H-M "P 2/M"
_symmetry_group_IT_number 10
_symmetry_cell_setting 'monoclinic'
loop_
_space_group_symop_operation_xyz
x,y,z
-x,y,-z
-x,-y,-z
x,-y,z
loop_
_atom_site_type_symbol
_atom_site_label
_atom_site_fract_x
_atom_site_fract_y
_atom_site_fract_z
Si Si1 0.253667 0.821480 0.222019
Si Si2 0.051576 0.818726 0.165115
Si Si3 0.676691 0.683038 0.524588
Si Si4 0.601908 0.820382 0.293734
Si Si5 0.897947 0.319399 0.703365
Si Si6 0.832609 0.318043 0.464442
Si Si7 0.234741 0.317613 0.804095
Si Si8 0.540470 0.820258 0.171941
O O1 0.194780 0.781165 0.207247
O O2 0.214494 0.711342 0.362869
O O3 0.232616 0.000000 0.279565
O O4 0.374431 0.792268 0.032067
O O5 0.086934 0.721456 0.207113
O O6 0.936626 0.775944 0.299454
O O7 0.059035 0.000000 0.177309
O O8 0.126690 0.771026 0.970317
O O9 0.677169 0.500000 0.522513
O O10 0.753421 0.744250 0.497413
O O11 0.712686 0.747041 0.368919
O O12 0.562813 0.737016 0.713720
O O13 0.500000 0.794500 0.500000
O O14 0.692653 0.718797 0.208887
O O15 0.581471 0.755156 0.215609
O O16 0.636457 0.000000 0.243637
O O17 0.871617 0.500000 0.730366
O O18 0.000000 0.274445 0.500000
O O19 0.855797 0.500000 0.420993
O O20 0.213565 0.500000 0.827941
O O21 0.514664 0.000000 0.222804
#
# Coordination Sequence:
#
# PCOD8062441 Si02
#       8
#     4   4   4   4   4   4   4   4
#     4  11  23  39  62  94 127 163 203 248 305 364
#     4  12  25  41  64  93 124 160 201 249 305 368
#     4  10  24  43  64  88 118 160 208 256 306 358
#     4  10  19  35  61  92 125 162 198 242 304 368
#     4  11  22  38  64  95 126 162 200 245 303 363
#     4  11  24  44  64  86 119 160 208 259 305 357
#     4  11  23  40  63  92 124 160 202 252 307 367
#     4  10  22  39  61  90 125 160 198 247 302 363
#
# _framework density 20.605222000000001
#
# number of rings (size 3 to 8) (size 9 to 14) (size 15 to 20)
#    0.000    1.250    2.500    3.375    0.000    5.750 
#    0.000    5.000    0.000    0.000    0.000    0.000 
#    0.000    0.000    0.000    0.000    0.000    0.000 
#
# Total GULP energy -397012.966377 kJ/mol
# GULP energy per Si atom -12406.655199 kJ/mol
# Density = 2.055832 g / cm^3
# Si number density = 20.605222 Si / 1000 Ang^3
#
#
#
# Elastic Constant Matrix: (Units=GPa)
#
#
# Indices 1 2 3 4 5 6 
#
# 1 100.9446 15.6158 34.3587 0.0000 -27.2525 0.0000
# 2 15.6158 49.5676 33.0537 0.0000 -4.6787 0.0000
# 3 34.3587 33.0537 118.5994 0.0000 -21.7105 0.0000
# 4 0.0000 0.0000 0.0000 34.0173 0.0000 -6.6575
# 5 -27.2525 -4.6787 -21.7105 0.0000 20.9255 0.0000
# 6 0.0000 0.0000 0.0000 -6.6575 0.0000 20.3453
#
#
#
# Elastic Compliance Matrix: (Units=1/GPa)
#
#
# Indices 1 2 3 4 5 6 
#
# 1 0.015728 -0.003024 -0.000108 0.000000 0.019695 0.000000
# 2 -0.003024 0.025429 -0.007273 0.000000 -0.005798 0.000000
# 3 -0.000108 -0.007273 0.012550 0.000000 0.011254 0.000000
# 4 0.000000 0.000000 0.000000 0.031408 0.000000 0.010278
# 5 0.019695 -0.005798 0.011254 0.000000 0.083818 0.000000
# 6 0.000000 0.000000 0.000000 0.010278 0.000000 0.052514
#
#
# Mechanical properties :
#
#
# Convention : Reuss Voigt Hill
#
# Bulk Modulus (GPa) = 30.39652 48.35201 39.37427
# Shear Modulus (GPa) = 19.74533 27.46318 23.60426
#
# Velocity S-wave (km/s) = 3.09895 3.65475 3.38827
# Velocity P-wave (km/s) = 5.25248 6.42856 5.87005
#
# Compressibility (1/GPa) = 0.03289850
#
# Stress axis : x y z
#
# Youngs Moduli (GPa) = 63.57946 39.32447 79.68091
#
# Poissons Ratio (x) = 0.11891 0.00864
# Poissons Ratio (y) = 0.19224 0.57948
# Poissons Ratio (z) = 0.00690 0.28599
#
# Static dielectric constant tensor:
#      x y z
#    x 3.780240 0.000000 -0.012310 
#    y 0.000000 3.591450 0.000000 
#    z -0.012310 0.000000 3.908170 
# 
# 
# High freq. dielectric constant tensor:
#      x y z
#    x 1.799950 0.000000 -0.003180 
#    y 0.000000 1.801920 0.000000 
#    z -0.003180 0.000000 1.821600 
# 
# From -- ./inp_files/71530.got.cif
#   From: 2010.06.25/outbox.cif.g09.slc.cpg/sg10_36_cif.got.tgz:71530.got - 2010.06.27 22:07:45.
