data_PCOD8062413
_publ_section_title
;
Structure prediction by ZEFSAII (Michael W. Deem and Ramdas Pophale) SiO2 
 PCOD8062413
Probable space group: P 2/M
;
_chemical_formula_sum "Si O2"
_cell_formula_units_Z 32
_cell_length_a 23.894129
_cell_length_b 9.047566
_cell_length_c 19.744173
_cell_angle_alpha 90.000000
_cell_angle_beta 23.061412
_cell_angle_gamma 90.000000
_cell_volume 1671.994826
_symmetry_space_group_name_H-M "P 2/M"
_symmetry_group_IT_number 10
_symmetry_cell_setting 'monoclinic'
loop_
_space_group_symop_operation_xyz
x,y,z
-x,y,-z
-x,-y,-z
x,-y,z
loop_
_atom_site_type_symbol
_atom_site_label
_atom_site_fract_x
_atom_site_fract_y
_atom_site_fract_z
Si Si1 0.408466 0.335896 0.799531
Si Si2 0.138160 0.173923 0.148307
Si Si3 0.100241 0.175362 0.689203
Si Si4 0.634193 0.665116 0.662210
Si Si5 0.568074 0.675837 0.492276
Si Si6 0.869063 0.824864 0.691763
Si Si7 0.426240 0.673166 0.011589
Si Si8 0.879161 0.674951 0.188693
O O1 0.340844 0.500000 0.867503
O O2 0.549289 0.344579 0.687296
O O3 0.459273 0.271375 0.671285
O O4 0.296791 0.226417 0.956519
O O5 0.096870 0.229208 0.269619
O O6 0.032092 0.233449 0.208671
O O7 0.136635 0.000000 0.148915
O O8 0.237331 0.222632 0.493096
O O9 0.088409 0.249881 0.775630
O O10 0.101560 0.000000 0.697163
O O11 0.690299 0.500000 0.618715
O O12 0.533246 0.728772 0.833819
O O13 0.500000 0.743203 0.500000
O O14 0.574786 0.500000 0.481621
O O15 0.728452 0.734654 0.327040
O O16 0.723689 0.755540 0.825879
O O17 0.000000 0.769017 0.500000
O O18 0.851499 0.000000 0.707342
O O19 0.396118 0.500000 0.036408
O O20 0.500000 0.712403 0.000000
O O21 0.876114 0.500000 0.204498
O O22 0.000000 0.719738 0.000000
#
# Coordination Sequence:
#
# PCOD8062413 Si02
#       8
#     4   4   4   4   4   4   4   4
#     4  10  19  35  61  85 109 143 187 238 286 336
#     4  10  23  40  56  82 117 151 192 238 283 339
#     4  11  24  39  58  84 118 156 192 236 289 342
#     4  10  20  38  60  84 114 146 190 241 284 340
#     4   9  18  33  54  83 112 138 178 231 278 326
#     4  10  22  40  60  82 114 155 197 239 282 340
#     4  10  22  39  59  87 119 149 186 239 297 345
#     4  10  21  38  60  85 115 151 192 237 285 340
#
# _framework density 19.138815999999998
#
# number of rings (size 3 to 8) (size 9 to 14) (size 15 to 20)
#    0.000    2.000    2.500    0.375    3.500    2.750 
#    0.000    0.000    0.000    0.750    0.000    0.000 
#    0.000    0.000    0.000    0.000    0.000    0.000 
#
# Total GULP energy -396800.511594 kJ/mol
# GULP energy per Si atom -12400.015987 kJ/mol
# Density = 1.909526 g / cm^3
# Si number density = 19.138816 Si / 1000 Ang^3
#
#
#
# Elastic Constant Matrix: (Units=GPa)
#
#
# Indices 1 2 3 4 5 6 
#
# 1 124.8049 37.6457 52.6639 0.0000 9.0421 0.0000
# 2 37.6457 19.1754 28.3738 0.0000 -2.2975 0.0000
# 3 52.6639 28.3738 116.9323 0.0000 11.5239 0.0000
# 4 0.0000 0.0000 0.0000 25.4011 0.0000 4.1839
# 5 9.0421 -2.2975 11.5239 0.0000 35.8321 0.0000
# 6 0.0000 0.0000 0.0000 4.1839 0.0000 20.3500
#
#
#
# Elastic Compliance Matrix: (Units=1/GPa)
#
#
# Indices 1 2 3 4 5 6 
#
# 1 0.022410 -0.049377 0.002848 0.000000 -0.009737 0.000000
# 2 -0.049377 0.195430 -0.028551 0.000000 0.034173 0.000000
# 3 0.002848 -0.028551 0.014921 0.000000 -0.007348 0.000000
# 4 0.000000 0.000000 0.000000 0.040748 0.000000 -0.008378
# 5 -0.009737 0.034173 -0.007348 0.000000 0.034919 0.000000
# 6 0.000000 0.000000 0.000000 -0.008378 0.000000 0.050862
#
#
# Mechanical properties :
#
#
# Convention : Reuss Voigt Hill
#
# Bulk Modulus (GPa) = 12.10629 55.36439 33.73534
# Shear Modulus (GPa) = 9.31124 25.79857 17.55490
#
# Velocity S-wave (km/s) = 2.20809 3.67546 3.03188
# Velocity P-wave (km/s) = 3.58331 6.85584 5.47004
#
# Compressibility (1/GPa) = 0.08260168
#
# Stress axis : x y z
#
# Youngs Moduli (GPa) = 44.62265 5.11692 67.01803
#
# Poissons Ratio (x) = 0.25266 -0.19087
# Poissons Ratio (y) = 2.20334 1.91342
# Poissons Ratio (z) = -0.12708 0.14609
#
# Static dielectric constant tensor:
#      x y z
#    x 3.840890 0.000000 0.091500 
#    y 0.000000 3.251820 0.000000 
#    z 0.091500 0.000000 3.558250 
# 
# 
# High freq. dielectric constant tensor:
#      x y z
#    x 1.758230 0.000000 0.007530 
#    y 0.000000 1.717800 0.000000 
#    z 0.007530 0.000000 1.754350 
# 
# From -- ./inp_files/86812.got.cif
#   From: 2010.06.25/outbox.cif.g09.slc.cpg/sg10_44_cif.got.tgz:86812.got - 2010.06.27 22:07:45.
