data_PCOD8062979
_publ_section_title
;
Structure prediction by ZEFSAII (Michael W. Deem and Ramdas Pophale) SiO2 
 PCOD8062979
Probable space group: P 2/M
;
_chemical_formula_sum "Si O2"
_cell_formula_units_Z 32
_cell_length_a 19.957370
_cell_length_b 9.365302
_cell_length_c 9.328780
_cell_angle_alpha 90.000000
_cell_angle_beta 84.549296
_cell_angle_gamma 90.000000
_cell_volume 1735.728288
_symmetry_space_group_name_H-M "P 2/M"
_symmetry_group_IT_number 10
_symmetry_cell_setting 'monoclinic'
loop_
_space_group_symop_operation_xyz
x,y,z
-x,y,-z
-x,-y,-z
x,-y,z
loop_
_atom_site_type_symbol
_atom_site_label
_atom_site_fract_x
_atom_site_fract_y
_atom_site_fract_z
Si Si1 0.934941 0.170193 0.599511
Si Si2 0.553378 0.657230 0.110817
Si Si3 0.807564 0.169953 0.126836
Si Si4 0.064435 0.829824 0.074072
Si Si5 0.194262 0.830150 0.547330
Si Si6 0.325179 0.831744 0.349935
Si Si7 0.678569 0.832024 0.979194
Si Si8 0.542138 0.339000 0.632978
O O1 0.936168 0.229088 0.762553
O O2 0.868949 0.228758 0.530903
O O3 0.000000 0.226583 0.500000
O O4 0.934492 0.000000 0.602394
O O5 0.582107 0.500000 0.148923
O O6 0.612609 0.760687 0.054760
O O7 0.510578 0.730664 0.245732
O O8 0.500000 0.635229 0.000000
O O9 0.808884 0.229583 0.289346
O O10 0.741244 0.224695 0.058897
O O11 0.809606 0.000000 0.129352
O O12 0.870813 0.229112 0.024192
O O13 0.064911 0.000000 0.078025
O O14 0.000000 0.772990 0.000000
O O15 0.262616 0.777348 0.457728
O O16 0.191847 0.000000 0.549542
O O17 0.391389 0.755312 0.395601
O O18 0.335890 0.000000 0.364423
O O19 0.310627 0.789530 0.188436
O O20 0.669755 0.000000 0.997861
O O21 0.500000 0.343089 0.500000
O O22 0.562938 0.500000 0.676519
#
# Coordination Sequence:
#
# PCOD8062979 Si02
#       8
#     4   4   4   4   4   4   4   4
#     4   9  15  23  37  57  84 121 161 197 235 282
#     4  10  20  36  55  73  94 124 160 199 243 291
#     4   9  17  28  41  61  90 123 158 197 240 284
#     4   9  15  23  37  57  84 120 161 199 235 280
#     4   9  17  28  41  60  90 124 158 196 240 286
#     4  10  20  33  49  71  98 128 160 198 243 291
#     4  10  20  32  49  72  98 127 160 199 243 289
#     4  10  22  38  54  72  96 125 158 199 246 292
#
# _framework density 18.436067000000001
#
# number of rings (size 3 to 8) (size 9 to 14) (size 15 to 20)
#    0.000    2.500    1.250    1.500    1.750    7.000 
#    0.000    0.000    0.000    0.000    0.000    0.000 
#    0.000    1.000    0.000    2.500    0.000    3.250 
#
# Total GULP energy -396684.166575 kJ/mol
# GULP energy per Si atom -12396.380205 kJ/mol
# Density = 1.839411 g / cm^3
# Si number density = 18.436067 Si / 1000 Ang^3
#
#
#
# Elastic Constant Matrix: (Units=GPa)
#
#
# Indices 1 2 3 4 5 6 
#
# 1 168.0750 29.5164 90.8680 0.0000 -12.2865 0.0000
# 2 29.5164 13.9792 15.2241 0.0000 -1.4810 0.0000
# 3 90.8680 15.2241 151.3160 0.0000 -13.2781 0.0000
# 4 0.0000 0.0000 0.0000 -8.2941 0.0000 31.2427
# 5 -12.2865 -1.4810 -13.2781 0.0000 42.4831 0.0000
# 6 0.0000 0.0000 0.0000 31.2427 0.0000 -47.0699
#
#
#
# Elastic Compliance Matrix: (Units=1/GPa)
#
#
# Indices 1 2 3 4 5 6 
#
# 1 0.012538 -0.020508 -0.005357 0.000000 0.001237 0.000000
# 2 -0.020508 0.113884 0.000705 0.000000 -0.001741 0.000000
# 3 -0.005357 0.000705 0.009893 0.000000 0.001567 0.000000
# 4 0.000000 0.000000 0.000000 0.080365 0.000000 0.053342
# 5 0.001237 -0.001741 0.001567 0.000000 0.024326 0.000000
# 6 0.000000 0.000000 0.000000 0.053342 0.000000 0.014161
#
#
# Mechanical properties :
#
#
# Convention : Reuss Voigt Hill
#
# Bulk Modulus (GPa) = 11.62881 67.17635 39.40258
# Shear Modulus (GPa) = 14.96321 10.60793 12.78557
#
# Velocity S-wave (km/s) = 2.85200 2.40133 2.63631
# Velocity P-wave (km/s) = 4.14325 6.64869 5.53948
#
# Compressibility (1/GPa) = 0.08599333
#
# Stress axis : x y z
#
# Youngs Moduli (GPa) = 79.75705 8.78084 101.08585
#
# Poissons Ratio (x) = 0.18008 0.54157
# Poissons Ratio (y) = 1.63565 -0.07122
# Poissons Ratio (z) = 0.42730 -0.00619
#
# Static dielectric constant tensor:
#      x y z
#    x 3.491050 0.000000 -0.047740 
#    y 0.000000 2.803810 0.000000 
#    z -0.047740 0.000000 3.537170 
# 
# 
# High freq. dielectric constant tensor:
#      x y z
#    x 1.727880 0.000000 -0.003310 
#    y 0.000000 1.642700 0.000000 
#    z -0.003310 0.000000 1.736610 
# 
# From -- ./inp_files/32178.got.cif
#   From: 2010.06.25/outbox.cif.g09.slc.cpg/sg10_17_cif.got.tgz:32178.got - 2010.06.27 22:07:45.
