data_PCOD8062448
_publ_section_title
;
Structure prediction by ZEFSAII (Michael W. Deem and Ramdas Pophale) SiO2 
 PCOD8062448
Probable space group: P 2/M
;
_chemical_formula_sum "Si O2"
_cell_formula_units_Z 30
_cell_length_a 9.541050
_cell_length_b 14.409050
_cell_length_c 12.331937
_cell_angle_alpha 90.000000
_cell_angle_beta 61.228570
_cell_angle_gamma 90.000000
_cell_volume 1486.065400
_symmetry_space_group_name_H-M "P 2/M"
_symmetry_group_IT_number 10
_symmetry_cell_setting 'monoclinic'
loop_
_space_group_symop_operation_xyz
x,y,z
-x,y,-z
-x,-y,-z
x,-y,z
loop_
_atom_site_type_symbol
_atom_site_label
_atom_site_fract_x
_atom_site_fract_y
_atom_site_fract_z
Si Si1 0.466332 0.897069 0.740743
Si Si2 0.218872 0.692194 0.675904
Si Si3 0.500000 0.176075 0.500000
Si Si4 0.656359 0.896059 0.875073
Si Si5 0.164857 0.394245 0.477646
Si Si6 0.141300 0.274451 0.142432
Si Si7 0.365641 0.389870 0.208276
Si Si8 0.318521 0.710129 0.866242
O O1 0.528648 0.886612 0.594924
O O2 0.620917 0.889458 0.760343
O O3 0.340882 0.817551 0.821989
O O4 0.388045 0.000000 0.783940
O O5 0.339311 0.765292 0.577807
O O6 0.201144 0.612718 0.591826
O O7 0.283687 0.653163 0.767398
O O8 0.045048 0.733858 0.763431
O O9 0.797358 0.827120 0.850537
O O10 0.707698 0.000000 0.889935
O O11 0.500000 0.864780 0.000000
O O12 0.145399 0.500000 0.452155
O O13 0.312435 0.358626 0.349514
O O14 0.000000 0.343444 0.500000
O O15 0.228940 0.356038 0.176608
O O16 0.170494 0.295102 0.004072
O O17 0.392569 0.500000 0.182639
O O18 0.530206 0.334575 0.127646
#
# Coordination Sequence:
#
# PCOD8062448 Si02
#       8
#     4   4   2   4   4   4   4   4
#     4  10  19  36  63  88 118 162 204 245 295 360
#     4  11  24  39  63  86 124 160 204 252 304 361
#     4  10  23  40  57  86 122 166 201 242 312 370
#     4  10  19  35  62  92 121 158 204 251 297 354
#     4  10  20  38  61  86 114 153 207 255 299 351
#     4  12  22  39  62  90 125 161 201 254 302 359
#     4  11  23  40  65  92 121 158 202 249 303 365
#     4  11  23  40  58  93 125 162 203 242 304 369
#
# _framework density 20.187536999999999
#
# number of rings (size 3 to 8) (size 9 to 14) (size 15 to 20)
#    0.000    1.333    4.000    2.600    0.000    1.600 
#    0.000    5.000    0.000    8.000    0.000    0.000 
#    0.000    0.000    0.000    0.000    0.000    0.000 
#
# Total GULP energy -371854.425733 kJ/mol
# GULP energy per Si atom -12395.147524 kJ/mol
# Density = 2.014159 g / cm^3
# Si number density = 20.187537 Si / 1000 Ang^3
#
#
#
# Elastic Constant Matrix: (Units=GPa)
#
#
# Indices 1 2 3 4 5 6 
#
# 1 85.4543 21.9935 36.1805 0.0000 -6.7198 0.0000
# 2 21.9935 73.6782 29.2483 0.0000 -6.9110 0.0000
# 3 36.1805 29.2483 134.1836 0.0000 4.8023 0.0000
# 4 0.0000 0.0000 0.0000 21.7266 0.0000 2.9199
# 5 -6.7198 -6.9110 4.8023 0.0000 45.3798 0.0000
# 6 0.0000 0.0000 0.0000 2.9199 0.0000 14.7195
#
#
#
# Elastic Compliance Matrix: (Units=1/GPa)
#
#
# Indices 1 2 3 4 5 6 
#
# 1 0.013921 -0.002682 -0.003241 0.000000 0.001996 0.000000
# 2 -0.002682 0.015691 -0.002779 0.000000 0.002286 0.000000
# 3 -0.003241 -0.002779 0.008998 0.000000 -0.001855 0.000000
# 4 0.000000 0.000000 0.000000 0.047287 0.000000 -0.009380
# 5 0.001996 0.002286 -0.001855 0.000000 0.022876 0.000000
# 6 0.000000 0.000000 0.000000 -0.009380 0.000000 0.069798
#
#
# Mechanical properties :
#
#
# Convention : Reuss Voigt Hill
#
# Bulk Modulus (GPa) = 47.15255 52.01786 49.58521
# Shear Modulus (GPa) = 24.62525 30.09145 27.35835
#
# Velocity S-wave (km/s) = 3.49639 3.86501 3.68531
# Velocity P-wave (km/s) = 6.30140 6.76321 6.53638
#
# Compressibility (1/GPa) = 0.02120776
#
# Stress axis : x y z
#
# Youngs Moduli (GPa) = 71.83193 63.73193 111.13178
#
# Poissons Ratio (x) = 0.17093 0.36012
# Poissons Ratio (y) = 0.19266 0.30881
# Poissons Ratio (z) = 0.23277 0.17710
#
# Static dielectric constant tensor:
#      x y z
#    x 3.629150 0.000000 0.162500 
#    y 0.000000 3.536280 0.000000 
#    z 0.162500 0.000000 4.079910 
# 
# 
# High freq. dielectric constant tensor:
#      x y z
#    x 1.773650 0.000000 0.014980 
#    y 0.000000 1.772060 0.000000 
#    z 0.014980 0.000000 1.809520 
# 
# From -- ./inp_files/42941.got.cif
#   From: 2010.06.25/outbox.cif.g09.slc.cpg/sg10_22_cif.got.tgz:42941.got - 2010.06.27 22:07:45.
