data_PCOD8062581
_publ_section_title
;
Structure prediction by ZEFSAII (Michael W. Deem and Ramdas Pophale) SiO2 
 PCOD8062581
Probable space group: P 2/M
;
_chemical_formula_sum "Si O2"
_cell_formula_units_Z 32
_cell_length_a 16.257178
_cell_length_b 9.015514
_cell_length_c 10.838206
_cell_angle_alpha 90.000000
_cell_angle_beta 92.573603
_cell_angle_gamma 90.000000
_cell_volume 1586.919102
_symmetry_space_group_name_H-M "P 2/M"
_symmetry_group_IT_number 10
_symmetry_cell_setting 'monoclinic'
loop_
_space_group_symop_operation_xyz
x,y,z
-x,y,-z
-x,-y,-z
x,-y,z
loop_
_atom_site_type_symbol
_atom_site_label
_atom_site_fract_x
_atom_site_fract_y
_atom_site_fract_z
Si Si1 0.771957 0.174778 0.372541
Si Si2 0.950612 0.828249 0.870595
Si Si3 0.627226 0.334591 0.973004
Si Si4 0.687991 0.824401 0.615274
Si Si5 0.216689 0.669780 0.165696
Si Si6 0.462682 0.671851 0.288328
Si Si7 0.616836 0.826931 0.216082
Si Si8 0.044259 0.176252 0.628366
O O1 0.730384 0.234116 0.494103
O O2 0.710431 0.218532 0.257289
O O3 0.863013 0.243675 0.360138
O O4 0.782364 0.000000 0.382279
O O5 0.871579 0.726136 0.881996
O O6 0.998861 0.772952 0.751118
O O7 0.925403 0.000000 0.853366
O O8 0.000000 0.804745 0.000000
O O9 0.608287 0.500000 0.022049
O O10 0.723499 0.319005 0.948024
O O11 0.572548 0.301141 0.850379
O O12 0.601778 0.216922 0.073971
O O13 0.749567 0.776094 0.726404
O O14 0.598254 0.749841 0.618992
O O15 0.676275 0.000000 0.617333
O O16 0.213199 0.500000 0.213074
O O17 0.467780 0.500000 0.323269
O O18 0.552953 0.743803 0.301990
O O19 0.601624 0.000000 0.233179
O O20 0.000000 0.235938 0.500000
O O21 0.046776 0.000000 0.624186
#
# Coordination Sequence:
#
# PCOD8062581 Si02
#       8
#     4   4   4   4   4   4   4   4
#     4   9  20  35  54  83 115 145 178 233 295 337
#     4  10  21  34  56  88 115 146 195 247 288 339
#     4   9  20  37  55  76 107 150 189 225 277 341
#     4  10  19  36  61  84 107 140 191 237 275 330
#     4  10  21  37  57  81 114 151 185 227 288 346
#     4  10  21  38  57  79 113 151 186 228 282 338
#     4  11  22  34  54  83 114 146 186 235 282 333
#     4   9  17  33  57  82 112 150 189 233 293 350
#
# _framework density 20.164859
#
# number of rings (size 3 to 8) (size 9 to 14) (size 15 to 20)
#    0.000    2.250    0.000    3.375    1.750    7.250 
#    0.000    5.000    0.000    4.125    0.000    0.000 
#    0.000    0.000    0.000    0.000    0.000    0.000 
#
# Total GULP energy -396773.004536 kJ/mol
# GULP energy per Si atom -12399.156392 kJ/mol
# Density = 2.011896 g / cm^3
# Si number density = 20.164859 Si / 1000 Ang^3
#
#
#
# Elastic Constant Matrix: (Units=GPa)
#
#
# Indices 1 2 3 4 5 6 
#
# 1 137.3320 37.6927 25.0734 0.0000 -11.1482 0.0000
# 2 37.6927 71.2340 17.8085 0.0000 -6.1682 0.0000
# 3 25.0734 17.8085 76.7930 0.0000 -10.8679 0.0000
# 4 0.0000 0.0000 0.0000 1.0920 0.0000 -4.8145
# 5 -11.1482 -6.1682 -10.8679 0.0000 20.0916 0.0000
# 6 0.0000 0.0000 0.0000 -4.8145 0.0000 28.3011
#
#
#
# Elastic Compliance Matrix: (Units=1/GPa)
#
#
# Indices 1 2 3 4 5 6 
#
# 1 0.008919 -0.004082 -0.001562 0.000000 0.002851 0.000000
# 2 -0.004082 0.016931 -0.002359 0.000000 0.001657 0.000000
# 3 -0.001562 -0.002359 0.015002 0.000000 0.006524 0.000000
# 4 0.000000 0.000000 0.000000 3.663422 0.000000 0.623206
# 5 0.002851 0.001657 0.006524 0.000000 0.055391 0.000000
# 6 0.000000 0.000000 0.000000 0.623206 0.000000 0.141351
#
#
# Mechanical properties :
#
#
# Convention : Reuss Voigt Hill
#
# Bulk Modulus (GPa) = 40.24731 49.61204 44.92967
# Shear Modulus (GPa) = 1.27379 23.54923 12.41151
#
# Velocity S-wave (km/s) = 0.79565 3.42107 2.48362
# Velocity P-wave (km/s) = 4.56580 6.34520 5.52757
#
# Compressibility (1/GPa) = 0.02484638
#
# Stress axis : x y z
#
# Youngs Moduli (GPa) = 112.12637 59.06194 66.65598
#
# Poissons Ratio (x) = 0.24108 0.10411
# Poissons Ratio (y) = 0.45768 0.15725
# Poissons Ratio (z) = 0.17514 0.13934
#
# Static dielectric constant tensor:
#      x y z
#    x 3.950040 0.000000 -0.113650 
#    y 0.000000 3.391730 0.000000 
#    z -0.113650 0.000000 3.594430 
# 
# 
# High freq. dielectric constant tensor:
#      x y z
#    x 1.803160 0.000000 -0.005460 
#    y 0.000000 1.761310 0.000000 
#    z -0.005460 0.000000 1.784170 
# 
# From -- ./inp_files/49894.got.cif
#   From: 2010.06.25/outbox.cif.g09.slc.cpg/sg10_25_cif.got.tgz:49894.got - 2010.06.27 22:07:45.
