data_PCOD8062890
_publ_section_title
;
Structure prediction by ZEFSAII (Michael W. Deem and Ramdas Pophale) SiO2 
 PCOD8062890
Probable space group: P 2/M
;
_chemical_formula_sum "Si O2"
_cell_formula_units_Z 32
_cell_length_a 14.377043
_cell_length_b 9.165059
_cell_length_c 20.977666
_cell_angle_alpha 90.000000
_cell_angle_beta 136.849028
_cell_angle_gamma 90.000000
_cell_volume 1890.467698
_symmetry_space_group_name_H-M "P 2/M"
_symmetry_group_IT_number 10
_symmetry_cell_setting 'monoclinic'
loop_
_space_group_symop_operation_xyz
x,y,z
-x,y,-z
-x,-y,-z
x,-y,z
loop_
_atom_site_type_symbol
_atom_site_label
_atom_site_fract_x
_atom_site_fract_y
_atom_site_fract_z
Si Si1 0.604690 0.329613 0.231167
Si Si2 0.572388 0.328469 0.972974
Si Si3 0.845466 0.830400 0.294082
Si Si4 0.849259 0.330880 0.164616
Si Si5 0.845466 0.169600 0.551383
Si Si6 0.395310 0.670387 0.626476
Si Si7 0.572388 0.328469 0.599414
Si Si8 0.150741 0.669120 0.315357
O O1 0.631862 0.500000 0.233406
O O2 0.495609 0.265550 0.125551
O O3 0.747545 0.246720 0.295650
O O4 0.547906 0.300866 0.273953
O O5 0.549955 0.500000 0.961325
O O6 0.500000 0.262587 0.000000
O O7 0.733745 0.289979 0.054830
O O8 0.820416 0.763202 0.212311
O O9 1.000000 0.804051 0.393961
O O10 0.810175 0.000000 0.272755
O O11 0.835856 0.500000 0.177796
O O12 0.000000 0.298025 0.211738
O O13 0.747546 0.246720 0.451895
O O14 0.820415 0.236798 0.608105
O O15 0.810174 0.000000 0.537419
O O16 0.368138 0.500000 0.601544
O O17 0.504391 0.734450 0.629942
O O18 0.500000 0.262587 0.500000
O O19 0.549955 0.500000 0.588630
O O20 0.733744 0.289979 0.678914
O O21 0.164144 0.500000 0.341939
#
# Coordination Sequence:
#
# PCOD8062890 Si02
#       8
#     4   4   4   4   4   4   4   4
#     4  10  20  33  49  68  91 123 160 193 226 271
#     4   9  15  27  48  71  93 117 150 195 235 264
#     4  10  20  32  46  67  97 127 153 187 232 275
#     4   9  16  28  49  72  93 121 157 191 225 272
#     4  10  20  32  46  67  97 127 153 187 232 275
#     4  10  20  33  49  68  91 123 160 193 226 271
#     4   9  15  27  48  71  93 117 150 195 235 264
#     4   9  16  28  49  72  93 121 157 191 225 272
#
# _framework density 16.927029000000001
#
# number of rings (size 3 to 8) (size 9 to 14) (size 15 to 20)
#    0.000    2.500    2.500    0.750    0.000    2.500 
#    0.000    5.000    0.000    0.750    0.000    5.250 
#    0.000    0.000    0.000    8.500    0.000    9.000 
#
# Total GULP energy -396630.514234 kJ/mol
# GULP energy per Si atom -12394.703570 kJ/mol
# Density = 1.688850 g / cm^3
# Si number density = 16.927029 Si / 1000 Ang^3
#
#
#
# Elastic Constant Matrix: (Units=GPa)
#
#
# Indices 1 2 3 4 5 6 
#
# 1 122.8960 29.5692 72.0641 0.0000 3.7394 0.0000
# 2 29.5692 43.2002 29.5635 0.0000 -0.0401 0.0000
# 3 72.0641 29.5635 123.9504 0.0000 3.4730 0.0000
# 4 0.0000 0.0000 0.0000 9.8837 0.0000 4.7436
# 5 3.7394 -0.0401 3.4730 0.0000 23.8676 0.0000
# 6 0.0000 0.0000 0.0000 4.7436 0.0000 9.1901
#
#
#
# Elastic Compliance Matrix: (Units=1/GPa)
#
#
# Indices 1 2 3 4 5 6 
#
# 1 0.013057 -0.004499 -0.006487 0.000000 -0.001109 0.000000
# 2 -0.004499 0.029238 -0.004397 0.000000 0.001394 0.000000
# 3 -0.006487 -0.004397 0.012913 0.000000 -0.000870 0.000000
# 4 0.000000 0.000000 0.000000 0.134495 0.000000 -0.069421
# 5 -0.001109 0.001394 -0.000870 0.000000 0.042200 0.000000
# 6 0.000000 0.000000 0.000000 -0.069421 0.000000 0.144644
#
#
# Mechanical properties :
#
#
# Convention : Reuss Voigt Hill
#
# Bulk Modulus (GPa) = 40.91443 61.38224 51.14833
# Shear Modulus (GPa) = 12.03486 19.17828 15.60657
#
# Velocity S-wave (km/s) = 2.66932 3.36965 3.03972
# Velocity P-wave (km/s) = 5.80723 7.17503 6.52706
#
# Compressibility (1/GPa) = 0.02444126
#
# Stress axis : x y z
#
# Youngs Moduli (GPa) = 76.58638 34.20247 77.44430
#
# Poissons Ratio (x) = 0.15387 0.50240
# Poissons Ratio (y) = 0.34454 0.34052
# Poissons Ratio (z) = 0.49684 0.15039
#
# Static dielectric constant tensor:
#      x y z
#    x 3.274320 0.000000 0.183170 
#    y 0.000000 2.977680 0.000000 
#    z 0.183170 0.000000 3.301090 
# 
# 
# High freq. dielectric constant tensor:
#      x y z
#    x 1.641410 0.000000 0.017630 
#    y 0.000000 1.626520 0.000000 
#    z 0.017630 0.000000 1.643990 
# 
# From -- ./inp_files/66096.got.cif
#   From: 2010.06.25/outbox.cif.g09.slc.cpg/sg10_34_cif.got.tgz:66096.got - 2010.06.27 22:07:45.
