data_PCOD8062542
_publ_section_title
;
Structure prediction by ZEFSAII (Michael W. Deem and Ramdas Pophale) SiO2 
 PCOD8062542
Probable space group: P 2/M
;
_chemical_formula_sum "Si O2"
_cell_formula_units_Z 28
_cell_length_a 9.689540
_cell_length_b 9.213960
_cell_length_c 28.031453
_cell_angle_alpha 90.000000
_cell_angle_beta 36.887776
_cell_angle_gamma 90.000000
_cell_volume 1502.197280
_symmetry_space_group_name_H-M "P 2/M"
_symmetry_group_IT_number 10
_symmetry_cell_setting 'monoclinic'
loop_
_space_group_symop_operation_xyz
x,y,z
-x,y,-z
-x,-y,-z
x,-y,z
loop_
_atom_site_type_symbol
_atom_site_label
_atom_site_fract_x
_atom_site_fract_y
_atom_site_fract_z
Si Si1 0.503994 0.663669 0.287660
Si Si2 0.442723 0.328115 0.871925
Si Si3 0.742470 0.840211 0.457118
Si Si4 0.758749 0.330454 0.547608
Si Si5 0.861159 0.337001 0.690658
Si Si6 0.365458 0.167797 0.989393
Si Si7 0.169387 0.168658 0.868638
O O1 0.602807 0.500000 0.255279
O O2 0.445943 0.702211 0.358265
O O3 0.264886 0.674035 0.325340
O O4 0.690421 0.775157 0.215903
O O5 0.397699 0.500000 0.884535
O O6 0.686136 0.288968 0.780559
O O7 0.238390 0.254204 0.897746
O O8 0.455189 0.266966 0.921645
O O9 0.500000 0.854005 0.500000
O O10 0.697498 0.747546 0.516206
O O11 0.919883 0.767241 0.371024
O O12 0.837242 0.000000 0.444006
O O13 0.780188 0.500000 0.530990
O O14 0.000000 0.269117 0.500000
O O15 0.948534 0.500000 0.675849
O O16 0.095437 0.195437 0.070621
O O17 0.416155 0.000000 0.963255
O O18 0.500000 0.215034 0.000000
O O19 0.223760 0.000000 0.862048
#
# Coordination Sequence:
#
# PCOD8062542 Si02
#       7
#     4   4   4   4   4   4   4
#     4   9  18  34  57  85 112 139 180 233 279 321
#     4  10  21  37  60  87 111 140 183 233 276 321
#     4  11  24  38  52  79 115 149 187 229 272 323
#     4  10  19  36  60  82 108 144 185 229 276 325
#     4   9  18  36  58  80 109 143 183 227 274 327
#     4  10  22  40  58  80 114 152 184 219 272 332
#     4  10  20  35  58  85 113 146 184 224 271 329
#
# _framework density 18.639364
#
# number of rings (size 3 to 8) (size 9 to 14) (size 15 to 20)
#    0.000    2.143    1.429    2.571    0.000    8.000 
#    2.571    0.000    0.000    0.000    0.000    0.000 
#    0.000    0.000    0.000    0.000    0.000    0.000 
#
# Total GULP energy -347241.408846 kJ/mol
# GULP energy per Si atom -12401.478887 kJ/mol
# Density = 1.859694 g / cm^3
# Si number density = 18.639364 Si / 1000 Ang^3
#
#
#
# Elastic Constant Matrix: (Units=GPa)
#
#
# Indices 1 2 3 4 5 6 
#
# 1 96.6410 52.4375 56.5957 0.0000 9.9525 0.0000
# 2 52.4375 97.6016 66.5137 0.0000 7.0222 0.0000
# 3 56.5957 66.5137 106.6497 0.0000 6.1103 0.0000
# 4 0.0000 0.0000 0.0000 -22.5869 0.0000 -5.7201
# 5 9.9525 7.0222 6.1103 0.0000 24.5946 0.0000
# 6 0.0000 0.0000 0.0000 -5.7201 0.0000 10.8758
#
#
#
# Elastic Compliance Matrix: (Units=1/GPa)
#
#
# Indices 1 2 3 4 5 6 
#
# 1 0.016664 -0.004863 -0.005583 0.000000 -0.003968 0.000000
# 2 -0.004863 0.019374 -0.009433 0.000000 -0.001221 0.000000
# 3 -0.005583 -0.009433 0.018197 0.000000 0.000432 0.000000
# 4 0.000000 0.000000 0.000000 -0.039070 0.000000 -0.020549
# 5 -0.003968 -0.001221 0.000432 0.000000 0.042506 0.000000
# 6 0.000000 0.000000 0.000000 -0.020549 0.000000 0.081140
#
#
# Mechanical properties :
#
#
# Convention : Reuss Voigt Hill
#
# Bulk Modulus (GPa) = 69.06608 72.44291 70.75450
# Shear Modulus (GPa) = 27.26339 10.93306 19.09823
#
# Velocity S-wave (km/s) = 3.82865 2.42452 3.20444
# Velocity P-wave (km/s) = 7.52855 6.84015 7.19259
#
# Compressibility (1/GPa) = 0.01447889
#
# Stress axis : x y z
#
# Youngs Moduli (GPa) = 60.00787 51.61483 54.95296
#
# Poissons Ratio (x) = 0.25099 0.30681
# Poissons Ratio (y) = 0.29181 0.51835
# Poissons Ratio (z) = 0.33504 0.48686
#
# Static dielectric constant tensor:
#      x y z
#    x 3.294150 0.000000 0.053840 
#    y 0.000000 3.500990 0.000000 
#    z 0.053840 0.000000 3.455690 
# 
# 
# High freq. dielectric constant tensor:
#      x y z
#    x 1.702220 0.000000 0.006610 
#    y 0.000000 1.727500 0.000000 
#    z 0.006610 0.000000 1.733710 
# 
# From -- ./inp_files/91991.got.cif
#   From: 2010.06.25/outbox.cif.g09.slc.cpg/sg10_46_cif.got.tgz:91991.got - 2010.06.27 22:07:45.
