data_PCOD8062312
_publ_section_title
;
Structure prediction by ZEFSAII (Michael W. Deem and Ramdas Pophale) SiO2 
 PCOD8062312
Probable space group: P 2/M
;
_chemical_formula_sum "Si O2"
_cell_formula_units_Z 32
_cell_length_a 21.997988
_cell_length_b 8.779244
_cell_length_c 28.905618
_cell_angle_alpha 90.000000
_cell_angle_beta 162.942917
_cell_angle_gamma 90.000000
_cell_volume 1637.458874
_symmetry_space_group_name_H-M "P 2/M"
_symmetry_group_IT_number 10
_symmetry_cell_setting 'monoclinic'
loop_
_space_group_symop_operation_xyz
x,y,z
-x,y,-z
-x,-y,-z
x,-y,z
loop_
_atom_site_type_symbol
_atom_site_label
_atom_site_fract_x
_atom_site_fract_y
_atom_site_fract_z
Si Si1 0.057856 0.823546 0.756879
Si Si2 0.521336 0.678248 0.961726
Si Si3 0.195238 0.680068 0.508736
Si Si4 0.414924 0.321660 0.339642
Si Si5 0.949800 0.821916 0.870525
Si Si6 0.923248 0.680934 0.395338
Si Si7 0.193350 0.824534 0.335336
Si Si8 0.404727 0.820775 0.232648
O O1 0.922359 0.724918 0.623419
O O2 0.976743 0.790639 0.749365
O O3 0.035787 0.000000 0.727543
O O4 0.296006 0.774069 0.928399
O O5 0.567065 0.500000 0.988062
O O6 0.312498 0.732088 0.784418
O O7 0.500000 0.717719 0.000000
O O8 0.211580 0.500000 0.522572
O O9 0.424830 0.749422 0.677448
O O10 0.069167 0.745602 0.460852
O O11 0.416341 0.500000 0.331246
O O12 0.198848 0.274576 0.204963
O O13 0.602233 0.277050 0.509886
O O14 0.446096 0.236136 0.314275
O O15 0.910590 0.780695 0.788780
O O16 0.914387 0.000000 0.854964
O O17 0.181331 0.770546 0.051566
O O18 0.936412 0.500000 0.404542
O O19 0.000000 0.748508 0.500000
O O20 0.264422 0.000000 0.387699
O O21 0.432040 0.000000 0.252188
#
# Coordination Sequence:
#
# PCOD8062312 Si02
#       8
#     4   4   4   4   4   4   4   4
#     4  11  22  36  59  88 117 152 196 242 291 347
#     4  10  19  35  58  84 113 150 192 237 286 338
#     4  11  21  37  61  87 117 153 196 244 292 346
#     4  12  24  38  61  91 120 153 198 249 295 347
#     4  10  23  42  62  84 118 160 198 240 298 360
#     4   9  19  36  58  85 118 155 192 232 290 353
#     4  10  22  41  62  85 117 159 199 241 298 359
#     4  11  23  40  62  88 118 158 201 241 294 358
#
# _framework density 19.542473999999999
#
# number of rings (size 3 to 8) (size 9 to 14) (size 15 to 20)
#    0.000    1.500    2.500    3.000    0.000    6.250 
#    0.000    0.000    0.000    2.625    0.000    0.000 
#    0.000    0.000    0.000    0.000    0.000    0.000 
#
# Total GULP energy -396977.587243 kJ/mol
# GULP energy per Si atom -12405.549601 kJ/mol
# Density = 1.949799 g / cm^3
# Si number density = 19.542474 Si / 1000 Ang^3
#
#
#
# Elastic Constant Matrix: (Units=GPa)
#
#
# Indices 1 2 3 4 5 6 
#
# 1 80.2674 22.1263 41.6587 0.0000 12.8330 0.0000
# 2 22.1263 55.1766 28.2854 0.0000 12.2612 0.0000
# 3 41.6587 28.2854 133.4006 0.0000 12.4333 0.0000
# 4 0.0000 0.0000 0.0000 27.9789 0.0000 12.9848
# 5 12.8330 12.2612 12.4333 0.0000 41.7769 0.0000
# 6 0.0000 0.0000 0.0000 12.9848 0.0000 22.7880
#
#
#
# Elastic Compliance Matrix: (Units=1/GPa)
#
#
# Indices 1 2 3 4 5 6 
#
# 1 0.015968 -0.003804 -0.003936 0.000000 -0.002617 0.000000
# 2 -0.003804 0.022229 -0.003113 0.000000 -0.004429 0.000000
# 3 -0.003936 -0.003113 0.009450 0.000000 -0.000690 0.000000
# 4 0.000000 0.000000 0.000000 0.048591 0.000000 -0.027687
# 5 -0.002617 -0.004429 -0.000690 0.000000 0.026246 0.000000
# 6 0.000000 0.000000 0.000000 -0.027687 0.000000 0.059659
#
#
# Mechanical properties :
#
#
# Convention : Reuss Voigt Hill
#
# Bulk Modulus (GPa) = 38.54834 50.33173 44.44004
# Shear Modulus (GPa) = 23.52998 30.29372 26.91185
#
# Velocity S-wave (km/s) = 3.47370 3.94146 3.71495
# Velocity P-wave (km/s) = 5.98807 6.82088 6.41800
#
# Compressibility (1/GPa) = 0.02594145
#
# Stress axis : x y z
#
# Youngs Moduli (GPa) = 62.62436 44.98645 105.82422
#
# Poissons Ratio (x) = 0.17113 0.41653
# Poissons Ratio (y) = 0.23823 0.32938
# Poissons Ratio (z) = 0.24649 0.14002
#
# Static dielectric constant tensor:
#      x y z
#    x 3.784210 0.000000 0.098980 
#    y 0.000000 3.409610 0.000000 
#    z 0.098980 0.000000 3.751120 
# 
# 
# High freq. dielectric constant tensor:
#      x y z
#    x 1.768830 0.000000 0.008050 
#    y 0.000000 1.747650 0.000000 
#    z 0.008050 0.000000 1.772790 
# 
# From -- ./inp_files/93744.got.cif
#   From: 2010.06.25/outbox.cif.g09.slc.cpg/sg10_47_cif.got.tgz:93744.got - 2010.06.27 22:07:45.
