data_PCOD8062045
_publ_section_title
;
Structure prediction by ZEFSAII (Michael W. Deem and Ramdas Pophale) SiO2 
 PCOD8062045
Probable space group: P 2/M
;
_chemical_formula_sum "Si O2"
_cell_formula_units_Z 28
_cell_length_a 13.767943
_cell_length_b 8.864087
_cell_length_c 14.711501
_cell_angle_alpha 90.000000
_cell_angle_beta 52.821740
_cell_angle_gamma 90.000000
_cell_volume 1430.497747
_symmetry_space_group_name_H-M "P 2/M"
_symmetry_group_IT_number 10
_symmetry_cell_setting 'monoclinic'
loop_
_space_group_symop_operation_xyz
x,y,z
-x,y,-z
-x,-y,-z
x,-y,z
loop_
_atom_site_type_symbol
_atom_site_label
_atom_site_fract_x
_atom_site_fract_y
_atom_site_fract_z
Si Si1 0.143314 0.672078 0.670688
Si Si2 0.036557 0.680413 0.078144
Si Si3 0.539128 0.675671 0.756141
Si Si4 0.701782 0.675588 0.002368
Si Si5 0.406412 0.680170 0.477478
Si Si6 0.292452 0.822556 0.188916
Si Si7 0.953705 0.327642 0.622150
O O1 0.166190 0.500000 0.686121
O O2 0.274750 0.748627 0.580217
O O3 0.064950 0.748011 0.795812
O O4 0.070313 0.684448 0.619329
O O5 0.038396 0.500000 0.079780
O O6 0.170101 0.739862 0.031867
O O7 0.000000 0.741625 0.000000
O O8 0.572630 0.500000 0.742812
O O9 0.399439 0.704713 0.863521
O O10 0.556067 0.738025 0.644077
O O11 0.629394 0.761393 0.771943
O O12 0.714293 0.500000 0.971202
O O13 0.660168 0.758491 0.933904
O O14 0.500000 0.741263 0.500000
O O15 0.403959 0.500000 0.477469
O O16 0.152304 0.776891 0.280035
O O17 0.305377 0.000000 0.179119
O O18 0.905783 0.500000 0.642836
O O19 0.000000 0.266271 0.500000
#
# Coordination Sequence:
#
# PCOD8062045 Si02
#       7
#     4   4   4   4   4   4   4
#     4   9  16  28  48  76 110 142 172 216 269 326
#     4   9  17  28  49  80 110 139 178 226 279 331
#     4  10  21  36  56  81 112 148 188 232 279 333
#     4  10  20  36  57  82 111 146 187 232 279 334
#     4   9  18  31  51  83 117 144 176 222 278 332
#     4  12  24  37  55  81 114 148 187 234 284 336
#     4  10  19  34  58  83 111 147 186 226 273 329
#
# _framework density 19.573605000000001
#
# number of rings (size 3 to 8) (size 9 to 14) (size 15 to 20)
#    0.000    2.143    1.429    2.571    2.000    4.857 
#    0.000    0.000    0.000    0.857    0.000    0.000 
#    0.000    0.000    0.000    0.000    0.000    0.000 
#
# Total GULP energy -347194.832546 kJ/mol
# GULP energy per Si atom -12399.815448 kJ/mol
# Density = 1.952905 g / cm^3
# Si number density = 19.573605 Si / 1000 Ang^3
#
#
#
# Elastic Constant Matrix: (Units=GPa)
#
#
# Indices 1 2 3 4 5 6 
#
# 1 133.6461 27.4819 75.8485 0.0000 0.2877 0.0000
# 2 27.4819 41.7714 25.5594 0.0000 -1.2905 0.0000
# 3 75.8485 25.5594 157.3754 0.0000 -1.3263 0.0000
# 4 0.0000 0.0000 0.0000 3.4302 0.0000 -1.3520
# 5 0.2877 -1.2905 -1.3263 0.0000 40.8342 0.0000
# 6 0.0000 0.0000 0.0000 -1.3520 0.0000 2.9579
#
#
#
# Elastic Compliance Matrix: (Units=1/GPa)
#
#
# Indices 1 2 3 4 5 6 
#
# 1 0.010997 -0.004443 -0.004582 0.000000 -0.000367 0.000000
# 2 -0.004443 0.028396 -0.002463 0.000000 0.000849 0.000000
# 3 -0.004582 -0.002463 0.008965 0.000000 0.000246 0.000000
# 4 0.000000 0.000000 0.000000 0.355601 0.000000 0.162545
# 5 -0.000367 0.000849 0.000246 0.000000 0.024527 0.000000
# 6 0.000000 0.000000 0.000000 0.162545 0.000000 0.412381
#
#
# Mechanical properties :
#
#
# Convention : Reuss Voigt Hill
#
# Bulk Modulus (GPa) = 39.39793 65.61917 52.50855
# Shear Modulus (GPa) = 5.73195 23.03797 14.38496
#
# Velocity S-wave (km/s) = 1.71312 3.43445 2.71388
# Velocity P-wave (km/s) = 4.90763 7.02313 6.05843
#
# Compressibility (1/GPa) = 0.02538204
#
# Stress axis : x y z
#
# Youngs Moduli (GPa) = 90.93314 35.21565 111.55041
#
# Poissons Ratio (x) = 0.15646 0.51109
# Poissons Ratio (y) = 0.40401 0.27479
# Poissons Ratio (z) = 0.41662 0.08675
#
# Static dielectric constant tensor:
#      x y z
#    x 3.688430 0.000000 -0.016160 
#    y 0.000000 2.983190 0.000000 
#    z -0.016160 0.000000 3.918010 
# 
# 
# High freq. dielectric constant tensor:
#      x y z
#    x 1.773480 0.000000 -0.001240 
#    y 0.000000 1.693100 0.000000 
#    z -0.001240 0.000000 1.783830 
# 
# From -- ./inp_files/66418.got.cif
#   From: 2010.06.25/outbox.cif.g09.slc.cpg/sg10_34_cif.got.tgz:66418.got - 2010.06.27 22:07:45.
