data_PCOD8062721
_publ_section_title
;
Structure prediction by ZEFSAII (Michael W. Deem and Ramdas Pophale) SiO2 
 PCOD8062721
Probable space group: P 2/M
;
_chemical_formula_sum "Si O2"
_cell_formula_units_Z 32
_cell_length_a 10.974692
_cell_length_b 18.895571
_cell_length_c 14.195331
_cell_angle_alpha 90.000000
_cell_angle_beta 30.539141
_cell_angle_gamma 90.000000
_cell_volume 1495.787967
_symmetry_space_group_name_H-M "P 2/M"
_symmetry_group_IT_number 10
_symmetry_cell_setting 'monoclinic'
loop_
_space_group_symop_operation_xyz
x,y,z
-x,y,-z
-x,-y,-z
x,-y,z
loop_
_atom_site_type_symbol
_atom_site_label
_atom_site_fract_x
_atom_site_fract_y
_atom_site_fract_z
Si Si1 0.075200 0.190273 0.252260
Si Si2 0.431973 0.582515 0.886061
Si Si3 0.592222 0.182739 0.138015
Si Si4 0.336484 0.287724 0.191329
Si Si5 0.446491 0.790093 0.428933
Si Si6 0.245603 0.080521 0.280120
Si Si7 0.891200 0.579616 0.231345
Si Si8 0.514755 0.627272 0.622832
O O1 0.083105 0.262204 0.315247
O O2 0.226074 0.126693 0.198307
O O3 0.798709 0.169626 0.432330
O O4 0.167822 0.198803 0.082155
O O5 0.460879 0.500000 0.893761
O O6 0.611771 0.628030 0.833906
O O7 0.523666 0.598493 0.721412
O O8 0.156290 0.610592 0.079919
O O9 0.402995 0.247204 0.243514
O O10 0.640504 0.185532 0.219549
O O11 0.468411 0.108457 0.194115
O O12 0.500000 0.253483 0.000000
O O13 0.500000 0.813188 0.500000
O O14 0.405250 0.706710 0.449288
O O15 0.000000 0.088133 0.500000
O O16 0.299169 0.000000 0.216203
O O17 0.937126 0.500000 0.166478
O O18 0.712689 0.579526 0.438800
O O19 0.758111 0.619853 0.234516
#
# Coordination Sequence:
#
# PCOD8062721 Si02
#       8
#     4   4   4   4   4   4   4   4
#     4  10  23  41  63  91 129 163 202 257 312 358
#     4  11  22  37  57  81 114 154 199 256 318 382
#     4  10  21  40  61  93 126 160 199 256 303 360
#     4   9  20  36  59  82 113 154 197 245 307 372
#     4  12  24  39  61  91 120 163 211 254 310 372
#     4  10  19  37  70 105 133 166 207 251 299 354
#     4  10  21  37  56  79 111 149 200 265 319 360
#     4  11  21  35  56  81 110 153 205 256 306 368
#
# _framework density 21.393407
#
# number of rings (size 3 to 8) (size 9 to 14) (size 15 to 20)
#    0.000    1.625    3.750    3.000    3.500    2.750 
#    2.250    0.000    0.000    2.250    0.000    1.750 
#    0.000    0.000    0.000    0.000    0.000    0.000 
#
# Total GULP energy -396467.851447 kJ/mol
# GULP energy per Si atom -12389.620358 kJ/mol
# Density = 2.134471 g / cm^3
# Si number density = 21.393407 Si / 1000 Ang^3
#
#
#
# Elastic Constant Matrix: (Units=GPa)
#
#
# Indices 1 2 3 4 5 6 
#
# 1 91.1745 36.3004 29.0215 0.0000 19.9876 0.0000
# 2 36.3004 108.9604 10.1647 0.0000 -0.9701 0.0000
# 3 29.0215 10.1647 60.3737 0.0000 17.2665 0.0000
# 4 0.0000 0.0000 0.0000 22.5022 0.0000 1.0255
# 5 19.9876 -0.9701 17.2665 0.0000 33.3682 0.0000
# 6 0.0000 0.0000 0.0000 1.0255 0.0000 17.1682
#
#
#
# Elastic Compliance Matrix: (Units=1/GPa)
#
#
# Indices 1 2 3 4 5 6 
#
# 1 0.016075 -0.004972 -0.004806 0.000000 -0.007286 0.000000
# 2 -0.004972 0.010908 -0.000457 0.000000 0.003532 0.000000
# 3 -0.004806 -0.000457 0.021280 0.000000 -0.008146 0.000000
# 4 0.000000 0.000000 0.000000 0.044561 0.000000 -0.002662
# 5 -0.007286 0.003532 -0.008146 0.000000 0.038651 0.000000
# 6 0.000000 0.000000 0.000000 -0.002662 0.000000 0.058406
#
#
# Mechanical properties :
#
#
# Convention : Reuss Voigt Hill
#
# Bulk Modulus (GPa) = 35.97890 45.72022 40.84956
# Shear Modulus (GPa) = 22.76705 26.94250 24.85477
#
# Velocity S-wave (km/s) = 3.26576 3.55263 3.41221
# Velocity P-wave (km/s) = 5.57445 6.18432 5.88729
#
# Compressibility (1/GPa) = 0.02779407
#
# Stress axis : x y z
#
# Youngs Moduli (GPa) = 62.20977 91.67537 46.99157
#
# Poissons Ratio (x) = 0.45579 0.22585
# Poissons Ratio (y) = 0.30930 0.02145
# Poissons Ratio (z) = 0.29899 0.04186
#
# Static dielectric constant tensor:
#      x y z
#    x 3.808830 0.000000 0.128050 
#    y 0.000000 3.672150 0.000000 
#    z 0.128050 0.000000 3.870930 
# 
# 
# High freq. dielectric constant tensor:
#      x y z
#    x 1.822120 0.000000 0.019020 
#    y 0.000000 1.812830 0.000000 
#    z 0.019020 0.000000 1.845730 
# 
# From -- ./inp_files/65380.got.cif
#   From: 2010.06.25/outbox.cif.g09.slc.cpg/sg10_33_cif.got.tgz:65380.got - 2010.06.27 22:07:45.
