data_PCOD8062862
_publ_section_title
;
Structure prediction by ZEFSAII (Michael W. Deem and Ramdas Pophale) SiO2 
 PCOD8062862
Probable space group: P 2/M
;
_chemical_formula_sum "Si O2"
_cell_formula_units_Z 32
_cell_length_a 25.853863
_cell_length_b 18.750587
_cell_length_c 8.986242
_cell_angle_alpha 90.000000
_cell_angle_beta 150.829519
_cell_angle_gamma 90.000000
_cell_volume 2123.306715
_symmetry_space_group_name_H-M "P 2/M"
_symmetry_group_IT_number 10
_symmetry_cell_setting 'monoclinic'
loop_
_space_group_symop_operation_xyz
x,y,z
-x,y,-z
-x,-y,-z
x,-y,z
loop_
_atom_site_type_symbol
_atom_site_label
_atom_site_fract_x
_atom_site_fract_y
_atom_site_fract_z
Si Si1 0.113362 0.082760 0.208728
Si Si2 0.618512 0.703223 0.872268
Si Si3 0.307487 0.082897 0.182264
Si Si4 0.605941 0.421645 0.667937
Si Si5 0.896737 0.915313 0.158807
Si Si6 0.699485 0.151744 0.144797
Si Si7 0.487496 0.674060 0.802082
Si Si8 0.488303 0.163719 0.802423
O O1 0.195249 0.134575 0.498016
O O2 0.150500 0.000000 0.312699
O O3 0.107221 0.109044 0.022858
O O4 0.000000 0.092423 0.000000
O O5 0.500000 0.719738 0.500000
O O6 0.676606 0.637081 0.933859
O O7 0.599595 0.679195 0.995863
O O8 0.698673 0.769797 0.065639
O O9 0.409148 0.115945 0.512579
O O10 0.312445 0.000000 0.225202
O O11 0.203369 0.114933 0.000963
O O12 0.308326 0.095095 0.007575
O O13 0.500000 0.429553 0.500000
O O14 0.659440 0.500000 0.784505
O O15 0.586143 0.386389 0.457220
O O16 0.000000 0.883116 0.500000
O O17 0.900939 0.000000 0.176451
O O18 0.600845 0.151583 0.007809
O O19 0.442658 0.755224 0.685997
O O20 0.500000 0.646613 0.000000
O O21 0.500000 0.136152 0.000000
#
# Coordination Sequence:
#
# PCOD8062862 Si02
#       8
#     4   4   4   4   4   4   4   4
#     4  10  20  33  48  65  83 105 138 179 221 261
#     4   8  15  27  40  56  81 112 140 164 197 245
#     4  11  21  30  43  62  81 106 143 182 215 252
#     4   8  13  22  36  54  78 107 136 164 194 233
#     4   9  18  33  48  61  80 105 134 172 219 263
#     4  11  19  30  46  62  83 111 141 174 215 257
#     4   8  14  24  37  53  75 104 137 169 203 240
#     4  10  20  32  43  58  84 115 145 176 214 257
#
# _framework density 15.070831999999999
#
# number of rings (size 3 to 8) (size 9 to 14) (size 15 to 20)
#    0.000    2.875    0.000    4.500    0.000    4.000 
#    0.000    0.000    0.000    0.000    0.000    0.000 
#    0.000    0.500    0.000    0.000    0.000   51.125 
#
# Total GULP energy -396417.804928 kJ/mol
# GULP energy per Si atom -12388.056404 kJ/mol
# Density = 1.503653 g / cm^3
# Si number density = 15.070832 Si / 1000 Ang^3
#
#
#
# Elastic Constant Matrix: (Units=GPa)
#
#
# Indices 1 2 3 4 5 6 
#
# 1 96.0731 24.4624 35.5229 0.0000 -18.7426 0.0000
# 2 24.4624 79.7047 42.3168 0.0000 -6.6729 0.0000
# 3 35.5229 42.3168 83.5741 0.0000 -12.0158 0.0000
# 4 0.0000 0.0000 0.0000 25.2639 0.0000 -31.9513
# 5 -18.7426 -6.6729 -12.0158 0.0000 27.1526 0.0000
# 6 0.0000 0.0000 0.0000 -31.9513 0.0000 61.0045
#
#
#
# Elastic Compliance Matrix: (Units=1/GPa)
#
#
# Indices 1 2 3 4 5 6 
#
# 1 0.013697 -0.001448 -0.004037 0.000000 0.007312 0.000000
# 2 -0.001448 0.017316 -0.008206 0.000000 -0.000376 0.000000
# 3 -0.004037 -0.008206 0.018311 0.000000 0.003300 0.000000
# 4 0.000000 0.000000 0.000000 0.117243 0.000000 0.061406
# 5 0.007312 -0.000376 0.003300 0.000000 0.043244 0.000000
# 6 0.000000 0.000000 0.000000 0.061406 0.000000 0.048554
#
#
# Mechanical properties :
#
#
# Convention : Reuss Voigt Hill
#
# Bulk Modulus (GPa) = 45.57768 51.55067 48.56417
# Shear Modulus (GPa) = 17.06125 33.15420 25.10772
#
# Velocity S-wave (km/s) = 3.36828 4.69539 4.08607
# Velocity P-wave (km/s) = 6.74055 7.97969 7.38615
#
# Compressibility (1/GPa) = 0.02194056
#
# Stress axis : x y z
#
# Youngs Moduli (GPa) = 73.01045 57.74930 54.61181
#
# Poissons Ratio (x) = 0.08363 0.22048
# Poissons Ratio (y) = 0.10572 0.44817
# Poissons Ratio (z) = 0.29476 0.47391
#
# Static dielectric constant tensor:
#      x y z
#    x 2.807160 0.000000 -0.159450 
#    y 0.000000 3.097960 0.000000 
#    z -0.159450 0.000000 2.700820 
# 
# 
# High freq. dielectric constant tensor:
#      x y z
#    x 1.588480 0.000000 -0.027830 
#    y 0.000000 1.559560 0.000000 
#    z -0.027830 0.000000 1.541270 
# 
# From -- ./inp_files/25926.got.cif
#   From: 2010.06.25/outbox.cif.g09.slc.cpg/sg10_13_cif.got.tgz:25926.got - 2010.06.27 22:07:45.
