data_PCOD8062314
_publ_section_title
;
Structure prediction by ZEFSAII (Michael W. Deem and Ramdas Pophale) SiO2 
 PCOD8062314
Probable space group: P 2/M
;
_chemical_formula_sum "Si O2"
_cell_formula_units_Z 26
_cell_length_a 12.304229
_cell_length_b 12.164450
_cell_length_c 12.484764
_cell_angle_alpha 90.000000
_cell_angle_beta 132.410552
_cell_angle_gamma 90.000000
_cell_volume 1379.680125
_symmetry_space_group_name_H-M "P 2/M"
_symmetry_group_IT_number 10
_symmetry_cell_setting 'monoclinic'
loop_
_space_group_symop_operation_xyz
x,y,z
-x,y,-z
-x,-y,-z
x,-y,z
loop_
_atom_site_type_symbol
_atom_site_label
_atom_site_fract_x
_atom_site_fract_y
_atom_site_fract_z
Si Si1 0.745378 0.000000 0.361800
Si Si2 0.682638 0.760804 0.328966
Si Si3 0.120468 0.762389 0.338982
Si Si4 0.227780 0.239178 0.851484
Si Si5 0.388084 0.629027 0.135298
Si Si6 0.148065 0.628294 0.151489
Si Si7 0.897175 0.000000 0.674579
Si Si8 0.783111 0.000000 0.147672
O O1 0.644356 0.891159 0.309084
O O2 0.879654 0.000000 0.534185
O O3 0.824900 0.000000 0.300650
O O4 0.803134 0.729855 0.498708
O O5 0.746967 0.730399 0.255398
O O6 0.538865 0.690899 0.257933
O O7 0.175462 0.679303 0.285711
O O8 0.171481 0.884599 0.330419
O O9 0.945386 0.758385 0.239682
O O10 0.297578 0.117320 0.928291
O O11 0.312122 0.329772 0.976153
O O12 0.417271 0.500000 0.142215
O O13 0.284917 0.656027 0.167200
O O14 0.127668 0.500000 0.156324
O O15 0.000000 0.677843 0.000000
O O16 0.067534 0.000000 0.820602
#
# Coordination Sequence:
#
# PCOD8062314 Si02
#       8
#     2   4   4   4   4   4   2   2
#     4   8  15  31  51  76 115 152 175 206 264 333
#     4  10  21  35  57  87 116 145 179 223 274 327
#     4  10  19  36  60  86 112 143 185 226 268 323
#     4  10  19  35  58  84 116 148 179 221 272 329
#     4  11  24  40  56  77 110 150 186 228 281 326
#     4  10  21  40  62  77  99 144 195 233 269 324
#     4   8  15  28  51  84 116 139 168 221 280 319
#     4   8  15  27  51  83 109 143 186 216 252 319
#
# _framework density 18.844947999999999
#
# number of rings (size 3 to 8) (size 9 to 14) (size 15 to 20)
#    0.000    2.308    1.538    1.154    0.000    6.769 
#    0.000    5.769    0.000    5.538    0.000    0.000 
#    0.000    0.000    0.000    0.000    0.000    0.000 
#
# Total GULP energy -322175.522445 kJ/mol
# GULP energy per Si atom -12391.366248 kJ/mol
# Density = 1.880206 g / cm^3
# Si number density = 18.844948 Si / 1000 Ang^3
#
#
#
# Elastic Constant Matrix: (Units=GPa)
#
#
# Indices 1 2 3 4 5 6 
#
# 1 79.6757 54.3216 30.6255 0.0000 -4.7657 0.0000
# 2 54.3216 80.9700 34.9134 0.0000 1.4188 0.0000
# 3 30.6255 34.9134 74.6074 0.0000 -0.1934 0.0000
# 4 0.0000 0.0000 0.0000 31.9056 0.0000 -2.0398
# 5 -4.7657 1.4188 -0.1934 0.0000 33.0224 0.0000
# 6 0.0000 0.0000 0.0000 -2.0398 0.0000 27.0463
#
#
#
# Elastic Compliance Matrix: (Units=1/GPa)
#
#
# Indices 1 2 3 4 5 6 
#
# 1 0.024153 -0.015040 -0.002865 0.000000 0.004115 0.000000
# 2 -0.015040 0.024855 -0.005466 0.000000 -0.003270 0.000000
# 3 -0.002865 -0.005466 0.017137 0.000000 -0.000078 0.000000
# 4 0.000000 0.000000 0.000000 0.031494 0.000000 0.002375
# 5 0.004115 -0.003270 -0.000078 0.000000 0.031016 0.000000
# 6 0.000000 0.000000 0.000000 0.002375 0.000000 0.037153
#
#
# Mechanical properties :
#
#
# Convention : Reuss Voigt Hill
#
# Bulk Modulus (GPa) = 51.54159 52.77492 52.15826
# Shear Modulus (GPa) = 22.82920 26.08769 24.45845
#
# Velocity S-wave (km/s) = 3.48433 3.72470 3.60652
# Velocity P-wave (km/s) = 6.60281 6.82374 6.71418
#
# Compressibility (1/GPa) = 0.01940181
#
# Stress axis : x y z
#
# Youngs Moduli (GPa) = 41.40342 40.23407 58.35248
#
# Poissons Ratio (x) = 0.60513 0.16721
# Poissons Ratio (y) = 0.62272 0.31893
# Poissons Ratio (z) = 0.11864 0.21990
#
# Static dielectric constant tensor:
#      x y z
#    x 3.249510 0.000000 -0.037900 
#    y 0.000000 3.722920 0.000000 
#    z -0.037900 0.000000 3.347300 
# 
# 
# High freq. dielectric constant tensor:
#      x y z
#    x 1.712290 0.000000 -0.003720 
#    y 0.000000 1.741410 0.000000 
#    z -0.003720 0.000000 1.723490 
# 
# From -- ./inp_files/46565.got.cif
#   From: 2010.06.25/outbox.cif.g09.slc.cpg/sg10_24_cif.got.tgz:46565.got - 2010.06.27 22:07:45.
