data_PCOD8062163
_publ_section_title
;
Structure prediction by ZEFSAII (Michael W. Deem and Ramdas Pophale) SiO2 
 PCOD8062163
Probable space group: P 2/M
;
_chemical_formula_sum "Si O2"
_cell_formula_units_Z 32
_cell_length_a 21.585409
_cell_length_b 9.367257
_cell_length_c 11.915043
_cell_angle_alpha 90.000000
_cell_angle_beta 46.540117
_cell_angle_gamma 90.000000
_cell_volume 1748.714452
_symmetry_space_group_name_H-M "P 2/M"
_symmetry_group_IT_number 10
_symmetry_cell_setting 'monoclinic'
loop_
_space_group_symop_operation_xyz
x,y,z
-x,y,-z
-x,-y,-z
x,-y,z
loop_
_atom_site_type_symbol
_atom_site_label
_atom_site_fract_x
_atom_site_fract_y
_atom_site_fract_z
Si Si1 0.709948 0.334700 0.366136
Si Si2 0.231891 0.168840 0.916955
Si Si3 0.916789 0.168934 0.739161
Si Si4 0.893482 0.830975 0.518608
Si Si5 0.405499 0.333894 0.090867
Si Si6 0.247651 0.661787 0.435965
Si Si7 0.541599 0.162194 0.565227
Si Si8 0.623473 0.837686 0.089325
O O1 0.702209 0.500000 0.341915
O O2 0.763666 0.250794 0.205949
O O3 0.757963 0.315277 0.424034
O O4 0.616185 0.271302 0.497957
O O5 0.313021 0.212440 0.891364
O O6 0.230505 0.000000 0.895311
O O7 0.146148 0.223906 0.085306
O O8 0.884654 0.224391 0.657777
O O9 0.013580 0.218493 0.643468
O O10 0.913903 0.000000 0.736807
O O11 0.820650 0.764308 0.534162
O O12 0.883745 0.000000 0.523531
O O13 0.412568 0.500000 0.052792
O O14 0.343388 0.303345 0.273368
O O15 0.500000 0.272324 0.000000
O O16 0.363647 0.257555 0.036041
O O17 0.224355 0.500000 0.432451
O O18 0.500000 0.206015 0.500000
O O19 0.473190 0.177331 0.749015
O O20 0.577173 0.000000 0.513586
O O21 0.645667 0.000000 0.028643
#
# Coordination Sequence:
#
# PCOD8062163 Si02
#       8
#     4   4   4   4   4   4   4   4
#     4  11  23  37  53  75 105 144 188 223 256 309
#     4  10  19  35  55  78 109 139 168 215 274 316
#     4   8  16  32  58  87 111 132 165 219 271 317
#     4   9  17  34  60  86 106 134 176 215 260 320
#     4  10  21  37  54  73 104 142 177 215 261 311
#     4  10  22  38  53  74 108 146 180 217 264 313
#     4  10  19  35  54  75 105 139 175 218 267 312
#     4  10  20  33  54  81 106 132 170 218 267 315
#
# _framework density 18.299157000000001
#
# number of rings (size 3 to 8) (size 9 to 14) (size 15 to 20)
#    0.000    2.250    1.250    2.625    0.000    5.000 
#    0.000    3.125    0.000    3.750    0.000    0.000 
#    0.000    0.000    0.000    0.000    0.000    0.000 
#
# Total GULP energy -396822.698845 kJ/mol
# GULP energy per Si atom -12400.709339 kJ/mol
# Density = 1.825751 g / cm^3
# Si number density = 18.299157 Si / 1000 Ang^3
#
#
#
# Elastic Constant Matrix: (Units=GPa)
#
#
# Indices 1 2 3 4 5 6 
#
# 1 96.3086 46.0634 51.2059 0.0000 -4.4101 0.0000
# 2 46.0634 60.8241 42.4024 0.0000 1.7994 0.0000
# 3 51.2059 42.4024 123.1182 0.0000 -2.0772 0.0000
# 4 0.0000 0.0000 0.0000 9.7778 0.0000 48.6961
# 5 -4.4101 1.7994 -2.0772 0.0000 30.0130 0.0000
# 6 0.0000 0.0000 0.0000 48.6961 0.0000 -95.4468
#
#
#
# Elastic Compliance Matrix: (Units=1/GPa)
#
#
# Indices 1 2 3 4 5 6 
#
# 1 0.017650 -0.011019 -0.003495 0.000000 0.003012 0.000000
# 2 -0.011019 0.028614 -0.005334 0.000000 -0.003704 0.000000
# 3 -0.003495 -0.005334 0.011423 0.000000 0.000597 0.000000
# 4 0.000000 0.000000 0.000000 0.028883 0.000000 0.014736
# 5 0.003012 -0.003704 0.000597 0.000000 0.034025 0.000000
# 6 0.000000 0.000000 0.000000 0.014736 0.000000 -0.002959
#
#
# Mechanical properties :
#
#
# Convention : Reuss Voigt Hill
#
# Bulk Modulus (GPa) = 55.58572 62.17713 58.88143
# Shear Modulus (GPa) = 30.61287 -1.75924 14.42681
#
# Velocity S-wave (km/s) = 4.09456 -0.98156 2.81087
# Velocity P-wave (km/s) = 7.26608 5.72427 6.54077
#
# Compressibility (1/GPa) = 0.01799023
#
# Stress axis : x y z
#
# Youngs Moduli (GPa) = 56.65796 34.94749 87.54252
#
# Poissons Ratio (x) = 0.38510 0.30594
# Poissons Ratio (y) = 0.62433 0.46698
# Poissons Ratio (z) = 0.19801 0.18642
#
# Static dielectric constant tensor:
#      x y z
#    x 3.260780 0.000000 -0.070540 
#    y 0.000000 3.179120 0.000000 
#    z -0.070540 0.000000 3.675450 
# 
# 
# High freq. dielectric constant tensor:
#      x y z
#    x 1.700750 0.000000 0.000160 
#    y 0.000000 1.690620 0.000000 
#    z 0.000160 0.000000 1.719290 
# 
# From -- ./inp_files/55307.got.cif
#   From: 2010.06.25/outbox.cif.g09.slc.cpg/sg10_28_cif.got.tgz:55307.got - 2010.06.27 22:07:45.
