data_PCOD8062445
_publ_section_title
;
Structure prediction by ZEFSAII (Michael W. Deem and Ramdas Pophale) SiO2 
 PCOD8062445
Probable space group: P 2/M
;
_chemical_formula_sum "Si O2"
_cell_formula_units_Z 32
_cell_length_a 11.926392
_cell_length_b 8.719778
_cell_length_c 15.274680
_cell_angle_alpha 90.000000
_cell_angle_beta 88.590160
_cell_angle_gamma 90.000000
_cell_volume 1588.016968
_symmetry_space_group_name_H-M "P 2/M"
_symmetry_group_IT_number 10
_symmetry_cell_setting 'monoclinic'
loop_
_space_group_symop_operation_xyz
x,y,z
-x,y,-z
-x,-y,-z
x,-y,z
loop_
_atom_site_type_symbol
_atom_site_label
_atom_site_fract_x
_atom_site_fract_y
_atom_site_fract_z
Si Si1 0.893860 0.819892 0.237542
Si Si2 0.733446 0.818645 0.393247
Si Si3 0.134235 0.319084 0.254501
Si Si4 0.495507 0.177151 0.342712
Si Si5 0.706019 0.322846 0.903394
Si Si6 0.740031 0.181284 0.589790
Si Si7 0.748158 0.675177 0.095725
Si Si8 0.516264 0.176393 0.139337
O O1 0.822191 0.754659 0.321121
O O2 0.828279 0.785927 0.149190
O O3 0.011197 0.735441 0.232687
O O4 0.914201 0.000000 0.245721
O O5 0.610074 0.746233 0.377037
O O6 0.773838 0.775275 0.489916
O O7 0.724926 0.000000 0.380317
O O8 0.135509 0.500000 0.257774
O O9 0.218330 0.258962 0.177516
O O10 0.168929 0.255082 0.348235
O O11 0.384399 0.249470 0.389038
O O12 0.485160 0.203427 0.240329
O O13 0.498467 0.000000 0.368728
O O14 0.673531 0.500000 0.888566
O O15 0.592349 0.224429 0.914285
O O16 0.775201 0.303106 0.992257
O O17 0.741942 0.000000 0.605287
O O18 0.768714 0.500000 0.124369
O O19 0.618997 0.715852 0.113364
O O20 0.547271 0.000000 0.119424
#
# Coordination Sequence:
#
# PCOD8062445 Si02
#       8
#     4   4   4   4   4   4   4   4
#     4  11  23  41  62  86 115 149 196 248 291 341
#     4   9  18  34  59  89 119 149 187 234 289 346
#     4  11  24  42  60  81 114 155 197 244 293 344
#     4   9  16  30  56  89 119 146 182 231 284 335
#     4  10  23  41  60  83 117 158 197 234 286 353
#     4  10  19  35  62  90 115 151 193 236 284 343
#     4  11  23  40  61  86 117 156 194 233 289 354
#     4  11  20  34  60  92 122 151 190 240 288 338
#
# _framework density 20.150918000000001
#
# number of rings (size 3 to 8) (size 9 to 14) (size 15 to 20)
#    0.000    1.750    2.500    2.250    0.000    5.500 
#    0.000    6.250    0.000    0.750    0.000    0.000 
#    0.000    0.000    0.000    0.000    0.000    0.000 
#
# Total GULP energy -396867.037897 kJ/mol
# GULP energy per Si atom -12402.094934 kJ/mol
# Density = 2.010505 g / cm^3
# Si number density = 20.150918 Si / 1000 Ang^3
#
#
#
# Elastic Constant Matrix: (Units=GPa)
#
#
# Indices 1 2 3 4 5 6 
#
# 1 104.4489 9.1650 36.3369 0.0000 11.0878 0.0000
# 2 9.1650 35.1823 24.3166 0.0000 -1.2688 0.0000
# 3 36.3369 24.3166 78.9180 0.0000 16.8318 0.0000
# 4 0.0000 0.0000 0.0000 21.6402 0.0000 -0.5612
# 5 11.0878 -1.2688 16.8318 0.0000 19.3323 0.0000
# 6 0.0000 0.0000 0.0000 -0.5612 0.0000 27.7339
#
#
#
# Elastic Compliance Matrix: (Units=1/GPa)
#
#
# Indices 1 2 3 4 5 6 
#
# 1 0.011495 0.000304 -0.004893 0.000000 -0.002313 0.000000
# 2 0.000304 0.039939 -0.015926 0.000000 0.016312 0.000000
# 3 -0.004893 -0.015926 0.023893 0.000000 -0.019041 0.000000
# 4 0.000000 0.000000 0.000000 0.046234 0.000000 0.000936
# 5 -0.002313 0.016312 -0.019041 0.000000 0.070702 0.000000
# 6 0.000000 0.000000 0.000000 0.000936 0.000000 0.036076
#
#
# Mechanical properties :
#
#
# Convention : Reuss Voigt Hill
#
# Bulk Modulus (GPa) = 29.15633 39.79845 34.47739
# Shear Modulus (GPa) = 17.80617 23.65667 20.73142
#
# Velocity S-wave (km/s) = 2.97583 3.43005 3.21098
# Velocity P-wave (km/s) = 5.12912 5.95651 5.55823
#
# Compressibility (1/GPa) = 0.03429787
#
# Stress axis : x y z
#
# Youngs Moduli (GPa) = 86.99273 25.03788 41.85400
#
# Poissons Ratio (x) = -0.00762 0.20481
# Poissons Ratio (y) = -0.02646 0.66655
# Poissons Ratio (z) = 0.42568 0.39874
#
# Static dielectric constant tensor:
#      x y z
#    x 3.668120 0.000000 -0.062530 
#    y 0.000000 3.362620 0.000000 
#    z -0.062530 0.000000 3.828960 
# 
# 
# High freq. dielectric constant tensor:
#      x y z
#    x 1.785560 0.000000 0.002090 
#    y 0.000000 1.757610 0.000000 
#    z 0.002090 0.000000 1.801150 
# 
# From -- ./inp_files/58188.got.cif
#   From: 2010.06.25/outbox.cif.g09.slc.cpg/sg10_30_cif.got.tgz:58188.got - 2010.06.27 22:07:45.
