data_PCOD8062435
_publ_section_title
;
Structure prediction by ZEFSAII (Michael W. Deem and Ramdas Pophale) SiO2 
 PCOD8062435
Probable space group: P 2/M
;
_chemical_formula_sum "Si O2"
_cell_formula_units_Z 32
_cell_length_a 12.600752
_cell_length_b 13.850332
_cell_length_c 19.425055
_cell_angle_alpha 90.000000
_cell_angle_beta 153.015484
_cell_angle_gamma 90.000000
_cell_volume 1538.279484
_symmetry_space_group_name_H-M "P 2/M"
_symmetry_group_IT_number 10
_symmetry_cell_setting 'monoclinic'
loop_
_space_group_symop_operation_xyz
x,y,z
-x,y,-z
-x,-y,-z
x,-y,z
loop_
_atom_site_type_symbol
_atom_site_label
_atom_site_fract_x
_atom_site_fract_y
_atom_site_fract_z
Si Si1 0.050871 0.212717 0.163465
Si Si2 0.614646 0.387907 0.640813
Si Si3 0.574418 0.289764 0.884187
Si Si4 0.364175 0.296840 0.624444
Si Si5 0.884394 0.891703 0.658404
Si Si6 0.748247 0.396724 0.110288
Si Si7 0.884675 0.250513 0.300180
Si Si8 0.442761 0.108558 0.316318
O O1 0.156789 0.321084 0.220387
O O2 0.069208 0.177192 0.251487
O O3 0.183270 0.138602 0.189839
O O4 0.778166 0.212888 0.982402
O O5 0.500000 0.370623 0.500000
O O6 0.683407 0.500000 0.690626
O O7 0.437787 0.356093 0.599361
O O8 0.468729 0.342144 0.755225
O O9 0.363487 0.240765 0.805376
O O10 0.711193 0.366824 0.009855
O O11 0.459454 0.186258 0.681260
O O12 0.082099 0.293869 0.465381
O O13 0.610123 0.887810 0.480379
O O14 0.038513 0.854759 0.682536
O O15 0.964476 0.000000 0.722048
O O16 0.884288 0.500000 0.189500
O O17 0.887624 0.318720 0.234668
O O18 0.500000 0.412568 0.000000
O O19 0.439429 0.000000 0.283006
#
# Coordination Sequence:
#
# PCOD8062435 Si02
#       8
#     4   4   4   4   4   4   4   4
#     4  11  20  35  56  86 121 155 195 246 303 358
#     4  10  22  39  61  89 117 150 198 251 301 355
#     4  11  23  37  58  88 128 157 196 244 303 361
#     4  10  22  40  62  86 119 161 201 247 300 358
#     4  10  19  35  61  90 118 157 206 253 297 350
#     4   9  19  36  59  83 113 153 196 240 288 343
#     4  10  20  40  62  85 119 161 207 246 291 353
#     4   9  19  36  59  83 114 156 204 250 298 358
#
# _framework density 20.802461000000001
#
# number of rings (size 3 to 8) (size 9 to 14) (size 15 to 20)
#    0.000    2.000    1.250    3.375    0.000    4.500 
#    0.000    5.000    0.000    6.750    0.000    0.000 
#    0.000    0.000    0.000    0.000    0.000    0.000 
#
# Total GULP energy -396600.371183 kJ/mol
# GULP energy per Si atom -12393.761599 kJ/mol
# Density = 2.075511 g / cm^3
# Si number density = 20.802461 Si / 1000 Ang^3
#
#
#
# Elastic Constant Matrix: (Units=GPa)
#
#
# Indices 1 2 3 4 5 6 
#
# 1 70.8215 19.0225 34.3936 0.0000 11.5122 0.0000
# 2 19.0225 99.6300 24.0874 0.0000 7.0444 0.0000
# 3 34.3936 24.0874 102.9880 0.0000 8.6612 0.0000
# 4 0.0000 0.0000 0.0000 18.5088 0.0000 5.0372
# 5 11.5122 7.0444 8.6612 0.0000 42.4845 0.0000
# 6 0.0000 0.0000 0.0000 5.0372 0.0000 19.1112
#
#
#
# Elastic Compliance Matrix: (Units=1/GPa)
#
#
# Indices 1 2 3 4 5 6 
#
# 1 0.017700 -0.001884 -0.005182 0.000000 -0.003427 0.000000
# 2 -0.001884 0.010908 -0.001844 0.000000 -0.000922 0.000000
# 3 -0.005182 -0.001844 0.011933 0.000000 -0.000723 0.000000
# 4 0.000000 0.000000 0.000000 0.058203 0.000000 -0.015341
# 5 -0.003427 -0.000922 -0.000723 0.000000 0.024767 0.000000
# 6 0.000000 0.000000 0.000000 -0.015341 0.000000 0.056369
#
#
# Mechanical properties :
#
#
# Convention : Reuss Voigt Hill
#
# Bulk Modulus (GPa) = 44.01606 47.60518 45.81062
# Shear Modulus (GPa) = 24.35770 29.08331 26.72051
#
# Velocity S-wave (km/s) = 3.42556 3.74313 3.58786
# Velocity P-wave (km/s) = 6.07050 6.45101 6.26364
#
# Compressibility (1/GPa) = 0.02271898
#
# Stress axis : x y z
#
# Youngs Moduli (GPa) = 56.49770 91.67570 83.80388
#
# Poissons Ratio (x) = 0.17274 0.43428
# Poissons Ratio (y) = 0.10646 0.15457
# Poissons Ratio (z) = 0.29277 0.16909
#
# Static dielectric constant tensor:
#      x y z
#    x 3.763320 0.000000 0.209240 
#    y 0.000000 3.916710 0.000000 
#    z 0.209240 0.000000 3.878910 
# 
# 
# High freq. dielectric constant tensor:
#      x y z
#    x 1.809300 0.000000 0.008200 
#    y 0.000000 1.800840 0.000000 
#    z 0.008200 0.000000 1.812550 
# 
# From -- ./inp_files/77059.got.cif
#   From: 2010.06.25/outbox.cif.g09.slc.cpg/sg10_39_cif.got.tgz:77059.got - 2010.06.27 22:07:45.
