data_PCOD8062731
_publ_section_title
;
Structure prediction by ZEFSAII (Michael W. Deem and Ramdas Pophale) SiO2 
 PCOD8062731
Probable space group: P 2/M
;
_chemical_formula_sum "Si O2"
_cell_formula_units_Z 28
_cell_length_a 14.305849
_cell_length_b 22.753569
_cell_length_c 9.272914
_cell_angle_alpha 90.000000
_cell_angle_beta 150.917385
_cell_angle_gamma 90.000000
_cell_volume 1467.163189
_symmetry_space_group_name_H-M "P 2/M"
_symmetry_group_IT_number 10
_symmetry_cell_setting 'monoclinic'
loop_
_space_group_symop_operation_xyz
x,y,z
-x,y,-z
-x,-y,-z
x,-y,z
loop_
_atom_site_type_symbol
_atom_site_label
_atom_site_fract_x
_atom_site_fract_y
_atom_site_fract_z
Si Si1 0.323214 0.222583 0.355984
Si Si2 0.970314 0.127220 0.120499
Si Si3 0.628113 0.067158 0.813138
Si Si4 0.793112 0.349641 0.758473
Si Si5 0.604904 0.147800 0.285072
Si Si6 0.546630 0.431474 0.225190
Si Si7 0.298541 0.563243 0.144733
O O1 0.500000 0.198525 0.500000
O O2 0.329799 0.293083 0.363635
O O3 0.363664 0.204706 0.574458
O O4 0.127541 0.192079 0.032993
O O5 0.182194 0.126627 0.475660
O O6 0.000000 0.098781 0.000000
O O7 0.839533 0.090307 0.054492
O O8 0.500000 0.074817 0.500000
O O9 0.524396 0.099752 0.806084
O O10 0.648867 0.000000 0.889663
O O11 0.705607 0.388676 0.510387
O O12 0.830015 0.387734 0.953327
O O13 0.000000 0.324425 0.000000
O O14 0.500000 0.168356 0.000000
O O15 0.615262 0.500000 0.325997
O O16 0.345814 0.423440 0.041434
O O17 0.500000 0.411944 0.000000
O O18 0.500000 0.562589 0.500000
O O19 0.194491 0.500000 0.018689
#
# Coordination Sequence:
#
# PCOD8062731 Si02
#       7
#     4   4   4   4   4   4   4
#     4  11  20  40  61  78 109 149 196 237 284 339
#     4  10  19  38  61  85 114 151 195 236 280 344
#     4  11  21  38  63  91 117 154 199 235 276 341
#     4  11  21  32  54  83 107 139 185 237 279 330
#     4  11  23  39  59  87 121 152 186 238 295 339
#     4   9  18  34  54  76 108 147 182 224 282 342
#     4   8  15  30  50  75 103 138 181 220 269 327
#
# _framework density 19.084447000000001
#
# number of rings (size 3 to 8) (size 9 to 14) (size 15 to 20)
#    0.000    1.857    4.286    3.857    0.000    3.429 
#    0.000    1.429    0.000    2.571    0.000    0.000 
#    0.000    0.000    0.000    0.000    0.000    0.000 
#
# Total GULP energy -346958.467665 kJ/mol
# GULP energy per Si atom -12391.373845 kJ/mol
# Density = 1.904101 g / cm^3
# Si number density = 19.084447 Si / 1000 Ang^3
#
#
#
# Elastic Constant Matrix: (Units=GPa)
#
#
# Indices 1 2 3 4 5 6 
#
# 1 112.2828 41.2928 42.9999 0.0000 8.4913 0.0000
# 2 41.2928 103.6195 19.8825 0.0000 -0.2946 0.0000
# 3 42.9999 19.8825 79.8266 0.0000 4.8271 0.0000
# 4 0.0000 0.0000 0.0000 10.4008 0.0000 1.0284
# 5 8.4913 -0.2946 4.8271 0.0000 36.9121 0.0000
# 6 0.0000 0.0000 0.0000 1.0284 0.0000 24.1071
#
#
#
# Elastic Compliance Matrix: (Units=1/GPa)
#
#
# Indices 1 2 3 4 5 6 
#
# 1 0.012733 -0.003980 -0.005734 0.000000 -0.002211 0.000000
# 2 -0.003980 0.011386 -0.000759 0.000000 0.001106 0.000000
# 3 -0.005734 -0.000759 0.015851 0.000000 -0.000760 0.000000
# 4 0.000000 0.000000 0.000000 0.096554 0.000000 -0.004119
# 5 -0.002211 0.001106 -0.000760 0.000000 0.027708 0.000000
# 6 0.000000 0.000000 0.000000 -0.004119 0.000000 0.041657
#
#
# Mechanical properties :
#
#
# Convention : Reuss Voigt Hill
#
# Bulk Modulus (GPa) = 52.56559 56.00883 54.28721
# Shear Modulus (GPa) = 21.44315 27.05424 24.24870
#
# Velocity S-wave (km/s) = 3.35564 3.76920 3.56841
# Velocity P-wave (km/s) = 6.52819 6.95371 6.74431
#
# Compressibility (1/GPa) = 0.01902385
#
# Stress axis : x y z
#
# Youngs Moduli (GPa) = 78.53726 87.83079 63.08903
#
# Poissons Ratio (x) = 0.34958 0.36173
# Poissons Ratio (y) = 0.31259 0.04786
# Poissons Ratio (z) = 0.45031 0.06664
#
# Static dielectric constant tensor:
#      x y z
#    x 3.960430 0.000000 0.119900 
#    y 0.000000 3.408810 0.000000 
#    z 0.119900 0.000000 3.219600 
# 
# 
# High freq. dielectric constant tensor:
#      x y z
#    x 1.757810 0.000000 0.011010 
#    y 0.000000 1.736540 0.000000 
#    z 0.011010 0.000000 1.706100 
# 
# From -- ./inp_files/30482.got.cif
#   From: 2010.06.25/outbox.cif.g09.slc.cpg/sg10_16_cif.got.tgz:30482.got - 2010.06.27 22:07:45.
