data_PCOD8062530
_publ_section_title
;
Structure prediction by ZEFSAII (Michael W. Deem and Ramdas Pophale) SiO2 
 PCOD8062530
Probable space group: P 2/M
;
_chemical_formula_sum "Si O2"
_cell_formula_units_Z 32
_cell_length_a 23.264117
_cell_length_b 8.756731
_cell_length_c 14.354119
_cell_angle_alpha 90.000000
_cell_angle_beta 147.734231
_cell_angle_gamma 90.000000
_cell_volume 1561.069148
_symmetry_space_group_name_H-M "P 2/M"
_symmetry_group_IT_number 10
_symmetry_cell_setting 'monoclinic'
loop_
_space_group_symop_operation_xyz
x,y,z
-x,y,-z
-x,-y,-z
x,-y,z
loop_
_atom_site_type_symbol
_atom_site_label
_atom_site_fract_x
_atom_site_fract_y
_atom_site_fract_z
Si Si1 0.805440 0.818449 0.449871
Si Si2 0.404712 0.174762 0.942415
Si Si3 0.991533 0.180548 0.383933
Si Si4 0.260070 0.820346 0.439828
Si Si5 0.417283 0.824981 0.302766
Si Si6 0.896587 0.319873 0.914477
Si Si7 0.511448 0.676554 0.255386
Si Si8 0.172293 0.821551 0.993430
O O1 0.702596 0.759428 0.251976
O O2 0.911708 0.752242 0.546311
O O3 0.799249 0.760408 0.547985
O O4 0.803435 0.000000 0.448840
O O5 0.390006 0.000000 0.956105
O O6 0.500000 0.187428 0.000000
O O7 0.425596 0.282854 0.058531
O O8 0.000000 0.251103 0.500000
O O9 0.879617 0.223091 0.178425
O O10 0.005103 0.000000 0.410160
O O11 0.211205 0.736056 0.283995
O O12 0.385565 0.783098 0.618187
O O13 0.246596 0.000000 0.407315
O O14 0.500000 0.807036 0.500000
O O15 0.455637 0.710320 0.276597
O O16 0.415138 0.000000 0.263726
O O17 0.297287 0.773556 0.168261
O O18 0.898924 0.500000 0.919630
O O19 0.895300 0.260841 0.018360
O O20 0.000000 0.254765 0.000000
O O21 0.544711 0.500000 0.295852
O O22 0.158257 0.000000 0.992366
#
# Coordination Sequence:
#
# PCOD8062530 Si02
#       8
#     4   4   4   4   4   4   4   4
#     4   9  18  32  55  84 116 152 192 246 302 348
#     4  10  19  36  59  84 115 155 203 251 299 352
#     4   9  18  32  54  88 120 146 190 250 303 348
#     4  11  21  38  62  88 117 154 203 253 298 356
#     4  10  22  40  62  88 117 155 205 254 300 359
#     4  11  24  40  60  89 125 162 196 239 303 365
#     4  12  25  38  57  88 124 158 194 241 308 378
#     4  10  21  38  62  90 118 156 205 257 304 350
#
# _framework density 20.498773
#
# number of rings (size 3 to 8) (size 9 to 14) (size 15 to 20)
#    0.000    1.750    1.250    3.375    1.750    4.000 
#    0.000    0.000    0.000    1.125    0.000    0.000 
#    0.000    0.000    0.000    0.000    0.000    0.000 
#
# Total GULP energy -396880.512660 kJ/mol
# GULP energy per Si atom -12402.516021 kJ/mol
# Density = 2.045212 g / cm^3
# Si number density = 20.498773 Si / 1000 Ang^3
#
#
#
# Elastic Constant Matrix: (Units=GPa)
#
#
# Indices 1 2 3 4 5 6 
#
# 1 126.8695 30.8730 46.6868 0.0000 -5.5833 0.0000
# 2 30.8730 44.8133 18.7476 0.0000 -5.6968 0.0000
# 3 46.6868 18.7476 126.0737 0.0000 -3.4603 0.0000
# 4 0.0000 0.0000 0.0000 -5.8183 0.0000 9.9257
# 5 -5.5833 -5.6968 -3.4603 0.0000 39.5096 0.0000
# 6 0.0000 0.0000 0.0000 9.9257 0.0000 17.5480
#
#
#
# Elastic Compliance Matrix: (Units=1/GPa)
#
#
# Indices 1 2 3 4 5 6 
#
# 1 0.010427 -0.005892 -0.002975 0.000000 0.000363 0.000000
# 2 -0.005892 0.027517 -0.001828 0.000000 0.002975 0.000000
# 3 -0.002975 -0.001828 0.009309 0.000000 0.000131 0.000000
# 4 0.000000 0.000000 0.000000 -0.087469 0.000000 0.049475
# 5 0.000363 0.002975 0.000131 0.000000 0.025802 0.000000
# 6 0.000000 0.000000 0.000000 0.049475 0.000000 0.029002
#
#
# Mechanical properties :
#
#
# Convention : Reuss Voigt Hill
#
# Bulk Modulus (GPa) = 38.66719 54.48570 46.57645
# Shear Modulus (GPa) = 112.10804 23.67779 67.89291
#
# Velocity S-wave (km/s) = 7.40330 3.40234 5.76128
# Velocity P-wave (km/s) = 9.59076 6.48631 8.18703
#
# Compressibility (1/GPa) = 0.02586172
#
# Stress axis : x y z
#
# Youngs Moduli (GPa) = 95.90702 36.34082 107.42292
#
# Poissons Ratio (x) = 0.21414 0.31958
# Poissons Ratio (y) = 0.56513 0.19639
# Poissons Ratio (z) = 0.28532 0.06644
#
# Static dielectric constant tensor:
#      x y z
#    x 3.846070 0.000000 0.007340 
#    y 0.000000 3.293420 0.000000 
#    z 0.007340 0.000000 3.674280 
# 
# 
# High freq. dielectric constant tensor:
#      x y z
#    x 1.808270 0.000000 -0.003780 
#    y 0.000000 1.761290 0.000000 
#    z -0.003780 0.000000 1.817440 
# 
# From -- ./inp_files/71618.got.cif
#   From: 2010.06.25/outbox.cif.g09.slc.cpg/sg10_36_cif.got.tgz:71618.got - 2010.06.27 22:07:45.
