data_PCOD8062775
_publ_section_title
;
Structure prediction by ZEFSAII (Michael W. Deem and Ramdas Pophale) SiO2 
 PCOD8062775
Probable space group: P 2/M
;
_chemical_formula_sum "Si O2"
_cell_formula_units_Z 32
_cell_length_a 11.754627
_cell_length_b 17.320373
_cell_length_c 14.332508
_cell_angle_alpha 90.000000
_cell_angle_beta 147.878303
_cell_angle_gamma 90.000000
_cell_volume 1551.567726
_symmetry_space_group_name_H-M "P 2/M"
_symmetry_group_IT_number 10
_symmetry_cell_setting 'monoclinic'
loop_
_space_group_symop_operation_xyz
x,y,z
-x,y,-z
-x,-y,-z
x,-y,z
loop_
_atom_site_type_symbol
_atom_site_label
_atom_site_fract_x
_atom_site_fract_y
_atom_site_fract_z
Si Si1 0.703622 0.910299 0.703456
Si Si2 0.438272 0.832019 0.213730
Si Si3 0.100061 0.408612 0.355938
Si Si4 0.700436 0.411073 0.205096
Si Si5 0.088251 0.410596 0.966203
Si Si6 0.540963 0.344509 0.276690
Si Si7 0.887244 0.910299 0.135429
Si Si8 0.892732 0.090077 0.522201
O O1 0.500000 0.889001 0.500000
O O2 0.701518 0.860368 0.795779
O O3 0.913908 0.888708 0.792067
O O4 0.700666 0.000000 0.730076
O O5 0.446277 0.740445 0.218082
O O6 0.676144 0.863925 0.385693
O O7 0.320383 0.861230 0.038088
O O8 0.141044 0.500000 0.382585
O O9 0.316140 0.364265 0.533880
O O10 0.914669 0.387794 0.300284
O O11 0.031219 0.375293 0.207070
O O12 0.708156 0.500000 0.243371
O O13 0.684476 0.356771 0.284356
O O14 0.500000 0.395755 0.000000
O O15 0.030697 0.500000 0.927554
O O16 0.341958 0.402400 0.133738
O O17 0.000000 0.370978 0.000000
O O18 0.944116 0.888834 0.281456
O O19 0.828510 0.000000 0.085771
O O20 0.000000 0.114905 0.500000
O O21 0.834477 0.000000 0.484366
#
# Coordination Sequence:
#
# PCOD8062775 Si02
#       8
#     4   4   4   4   4   4   4   4
#     4  10  19  39  70  94 117 155 211 269 309 350
#     4  12  25  39  58  94 131 166 194 252 321 386
#     4  10  21  40  69  94 116 158 216 269 307 356
#     4  10  19  39  70  94 117 155 211 269 309 350
#     4  10  22  42  63  86 121 165 213 258 299 360
#     4  12  25  39  58  94 131 166 194 252 321 386
#     4  10  21  40  69  94 116 158 216 269 307 356
#     4  10  22  42  63  86 121 165 213 258 299 360
#
# _framework density 20.624300999999999
#
# number of rings (size 3 to 8) (size 9 to 14) (size 15 to 20)
#    0.000    1.500    2.500    3.000    0.000    6.000 
#    4.500    3.750    0.000    0.000    0.000    0.000 
#    0.000    0.000    0.000    0.000    0.000    0.000 
#
# Total GULP energy -396951.411292 kJ/mol
# GULP energy per Si atom -12404.731603 kJ/mol
# Density = 2.057736 g / cm^3
# Si number density = 20.624301 Si / 1000 Ang^3
#
#
#
# Elastic Constant Matrix: (Units=GPa)
#
#
# Indices 1 2 3 4 5 6 
#
# 1 122.8087 36.0818 42.2660 0.0000 -29.1255 0.0000
# 2 36.0818 51.8873 30.5148 0.0000 -8.2439 0.0000
# 3 42.2660 30.5148 143.1969 0.0000 -20.2261 0.0000
# 4 0.0000 0.0000 0.0000 18.3955 0.0000 7.0836
# 5 -29.1255 -8.2439 -20.2261 0.0000 28.0409 0.0000
# 6 0.0000 0.0000 0.0000 7.0836 0.0000 6.1236
#
#
#
# Elastic Compliance Matrix: (Units=1/GPa)
#
#
# Indices 1 2 3 4 5 6 
#
# 1 0.013029 -0.006827 -0.000849 0.000000 0.010913 0.000000
# 2 -0.006827 0.025913 -0.003822 0.000000 -0.002229 0.000000
# 3 -0.000849 -0.003822 0.008646 0.000000 0.004231 0.000000
# 4 0.000000 0.000000 0.000000 0.098025 0.000000 -0.113391
# 5 0.010913 -0.002229 0.004231 0.000000 0.049394 0.000000
# 6 0.000000 0.000000 0.000000 -0.113391 0.000000 0.294468
#
#
# Mechanical properties :
#
#
# Convention : Reuss Voigt Hill
#
# Bulk Modulus (GPa) = 40.66333 59.51311 50.08822
# Shear Modulus (GPa) = 9.60303 24.44735 17.02519
#
# Velocity S-wave (km/s) = 2.16016 3.44665 2.87625
# Velocity P-wave (km/s) = 5.09713 6.69012 5.94720
#
# Compressibility (1/GPa) = 0.02459218
#
# Stress axis : x y z
#
# Youngs Moduli (GPa) = 76.75168 38.59025 115.65906
#
# Poissons Ratio (x) = 0.26345 0.09824
# Poissons Ratio (y) = 0.52397 0.44204
# Poissons Ratio (z) = 0.06519 0.14749
#
# Static dielectric constant tensor:
#      x y z
#    x 3.902740 0.000000 -0.197120 
#    y 0.000000 3.411300 0.000000 
#    z -0.197120 0.000000 3.871450 
# 
# 
# High freq. dielectric constant tensor:
#      x y z
#    x 1.810670 0.000000 -0.007690 
#    y 0.000000 1.776770 0.000000 
#    z -0.007690 0.000000 1.823920 
# 
# From -- ./inp_files/65409.got.cif
#   From: 2010.06.25/outbox.cif.g09.slc.cpg/sg10_33_cif.got.tgz:65409.got - 2010.06.27 22:07:45.
