data_PCOD8062719
_publ_section_title
;
Structure prediction by ZEFSAII (Michael W. Deem and Ramdas Pophale) SiO2 
 PCOD8062719
Probable space group: P 2/M
;
_chemical_formula_sum "Si O2"
_cell_formula_units_Z 32
_cell_length_a 12.710301
_cell_length_b 8.855460
_cell_length_c 32.283432
_cell_angle_alpha 90.000000
_cell_angle_beta 153.039039
_cell_angle_gamma 90.000000
_cell_volume 1647.449751
_symmetry_space_group_name_H-M "P 2/M"
_symmetry_group_IT_number 10
_symmetry_cell_setting 'monoclinic'
loop_
_space_group_symop_operation_xyz
x,y,z
-x,y,-z
-x,-y,-z
x,-y,z
loop_
_atom_site_type_symbol
_atom_site_label
_atom_site_fract_x
_atom_site_fract_y
_atom_site_fract_z
Si Si1 0.802496 0.671978 0.206019
Si Si2 0.117677 0.678433 0.673116
Si Si3 0.737876 0.162694 0.912306
Si Si4 0.464080 0.323787 0.232598
Si Si5 0.706975 0.672496 0.986362
Si Si6 0.598365 0.320853 0.490651
Si Si7 0.870889 0.822532 0.821174
Si Si8 0.213802 0.824021 0.303082
O O1 0.897919 0.500000 0.239849
O O2 0.771504 0.726468 0.243345
O O3 0.989755 0.777366 0.250397
O O4 0.564655 0.679581 0.095498
O O5 0.109708 0.500000 0.668753
O O6 0.276667 0.732673 0.689914
O O7 0.858971 0.744445 0.577135
O O8 0.685330 0.292159 0.860593
O O9 0.603330 0.000000 0.859176
O O10 0.700516 0.227057 0.944046
O O11 0.000000 0.119457 0.000000
O O12 0.456819 0.500000 0.241312
O O13 0.354153 0.231414 0.231951
O O14 0.781416 0.500000 0.003514
O O15 0.887734 0.740665 0.082544
O O16 0.500000 0.262961 0.500000
O O17 0.596227 0.500000 0.488055
O O18 0.444089 0.259168 0.399255
O O19 0.822038 0.778959 0.756969
O O20 0.903649 0.000000 0.839748
O O21 0.253131 0.000000 0.322496
#
# Coordination Sequence:
#
# PCOD8062719 Si02
#       8
#     4   4   4   4   4   4   4   4
#     4  10  20  38  61  88 122 152 190 243 297 349
#     4   9  18  35  59  93 124 146 181 242 304 347
#     4  11  21  32  51  82 120 157 193 237 293 348
#     4  11  21  36  60  87 118 154 202 249 287 341
#     4  11  22  36  59  88 116 153 202 250 288 338
#     4  10  19  37  67  93 117 150 186 237 302 355
#     4  11  25  43  57  78 120 166 203 241 292 349
#     4  11  25  42  60  85 119 157 198 243 291 356
#
# _framework density 19.423960999999998
#
# number of rings (size 3 to 8) (size 9 to 14) (size 15 to 20)
#    0.000    1.500    3.750    1.875    0.000    4.250 
#    0.000    4.375    0.000    3.750    0.000    0.000 
#    0.000    0.000    0.000    0.000    0.000    0.000 
#
# Total GULP energy -396589.749638 kJ/mol
# GULP energy per Si atom -12393.429676 kJ/mol
# Density = 1.937975 g / cm^3
# Si number density = 19.423961 Si / 1000 Ang^3
#
#
#
# Elastic Constant Matrix: (Units=GPa)
#
#
# Indices 1 2 3 4 5 6 
#
# 1 69.5880 10.1513 60.6858 0.0000 2.7948 0.0000
# 2 10.1513 45.4386 32.0256 0.0000 -0.6552 0.0000
# 3 60.6858 32.0256 111.9189 0.0000 15.2567 0.0000
# 4 0.0000 0.0000 0.0000 19.9267 0.0000 -5.8136
# 5 2.7948 -0.6552 15.2567 0.0000 31.2971 0.0000
# 6 0.0000 0.0000 0.0000 -5.8136 0.0000 26.9144
#
#
#
# Elastic Compliance Matrix: (Units=1/GPa)
#
#
# Indices 1 2 3 4 5 6 
#
# 1 0.029606 0.006818 -0.018921 0.000000 0.006722 0.000000
# 2 0.006818 0.029810 -0.013100 0.000000 0.006401 0.000000
# 3 -0.018921 -0.013100 0.024369 0.000000 -0.010464 0.000000
# 4 0.000000 0.000000 0.000000 0.053559 0.000000 0.011569
# 5 0.006722 0.006401 -0.010464 0.000000 0.036587 0.000000
# 6 0.000000 0.000000 0.000000 0.011569 0.000000 0.039654
#
#
# Mechanical properties :
#
#
# Convention : Reuss Voigt Hill
#
# Bulk Modulus (GPa) = 29.95745 48.07454 39.01599
# Shear Modulus (GPa) = 18.17421 23.89984 21.03703
#
# Velocity S-wave (km/s) = 3.06217 3.51156 3.29454
# Velocity P-wave (km/s) = 5.28762 6.42224 5.88235
#
# Compressibility (1/GPa) = 0.03338068
#
# Stress axis : x y z
#
# Youngs Moduli (GPa) = 33.77715 33.54625 41.03522
#
# Poissons Ratio (x) = -0.22873 0.77641
# Poissons Ratio (y) = -0.23030 0.53755
# Poissons Ratio (z) = 0.63908 0.43944
#
# Static dielectric constant tensor:
#      x y z
#    x 3.654070 0.000000 0.259650 
#    y 0.000000 3.548870 0.000000 
#    z 0.259650 0.000000 3.715290 
# 
# 
# High freq. dielectric constant tensor:
#      x y z
#    x 1.749730 0.000000 0.016150 
#    y 0.000000 1.754080 0.000000 
#    z 0.016150 0.000000 1.752480 
# 
# From -- ./inp_files/83551.got.cif
#   From: 2010.06.25/outbox.cif.g09.slc.cpg/sg10_42_cif.got.tgz:83551.got - 2010.06.27 22:07:45.
