data_PCOD8062059
_publ_section_title
;
Structure prediction by ZEFSAII (Michael W. Deem and Ramdas Pophale) SiO2 
 PCOD8062059
Probable space group: P 2/M
;
_chemical_formula_sum "Si O2"
_cell_formula_units_Z 28
_cell_length_a 27.276049
_cell_length_b 8.822232
_cell_length_c 9.363096
_cell_angle_alpha 90.000000
_cell_angle_beta 39.002396
_cell_angle_gamma 90.000000
_cell_volume 1417.991550
_symmetry_space_group_name_H-M "P 2/M"
_symmetry_group_IT_number 10
_symmetry_cell_setting 'monoclinic'
loop_
_space_group_symop_operation_xyz
x,y,z
-x,y,-z
-x,-y,-z
x,-y,z
loop_
_atom_site_type_symbol
_atom_site_label
_atom_site_fract_x
_atom_site_fract_y
_atom_site_fract_z
Si Si1 0.063804 0.172924 0.256209
Si Si2 0.767811 0.179966 0.055070
Si Si3 0.368590 0.321353 0.453629
Si Si4 0.347448 0.824769 0.196269
Si Si5 0.039083 0.173843 0.776576
Si Si6 0.496999 0.825018 0.671202
Si Si7 0.791990 0.180005 0.681573
O O1 0.000000 0.256980 0.500000
O O2 0.031857 0.185068 0.171157
O O3 0.072449 0.000000 0.292267
O O4 0.149440 0.243601 0.074343
O O5 0.704043 0.258187 0.295917
O O6 0.758663 0.000000 0.093353
O O7 0.759862 0.233313 0.908450
O O8 0.364937 0.500000 0.460031
O O9 0.368740 0.266509 0.289708
O O10 0.446608 0.270787 0.356264
O O11 0.265940 0.765618 0.313084
O O12 0.341214 0.000000 0.254683
O O13 0.410870 0.802040 0.928285
O O14 0.121020 0.248789 0.541676
O O15 0.058938 0.000000 0.768671
O O16 0.000000 0.257735 0.000000
O O17 0.500000 0.767650 0.500000
O O18 0.523489 0.000000 0.617282
O O19 0.795951 0.000000 0.677060
#
# Coordination Sequence:
#
# PCOD8062059 Si02
#       7
#     4   4   4   4   4   4   4
#     4   9  15  26  46  79 114 144 179 232 292 339
#     4  10  19  34  58  84 114 149 192 240 288 338
#     4  12  26  40  56  83 118 154 193 232 276 331
#     4  10  21  37  60  87 115 148 185 229 283 336
#     4   9  16  24  40  75 119 148 174 222 285 343
#     4  10  21  41  68  94 117 142 181 229 281 340
#     4   9  17  31  52  83 117 146 182 232 286 340
#
# _framework density 19.746241000000001
#
# number of rings (size 3 to 8) (size 9 to 14) (size 15 to 20)
#    0.000    2.143    1.429    2.571    2.000    4.857 
#    0.000    2.143    0.000    0.429    0.000    1.000 
#    0.000    0.000    0.000    0.000    0.000    0.000 
#
# Total GULP energy -347058.028182 kJ/mol
# GULP energy per Si atom -12394.929578 kJ/mol
# Density = 1.970130 g / cm^3
# Si number density = 19.746241 Si / 1000 Ang^3
#
#
#
# Elastic Constant Matrix: (Units=GPa)
#
#
# Indices 1 2 3 4 5 6 
#
# 1 132.0781 33.6882 46.9371 0.0000 0.6127 0.0000
# 2 33.6882 52.1257 26.9239 0.0000 2.7080 0.0000
# 3 46.9371 26.9239 107.9220 0.0000 12.5518 0.0000
# 4 0.0000 0.0000 0.0000 1.6175 0.0000 0.8339
# 5 0.6127 2.7080 12.5518 0.0000 40.7572 0.0000
# 6 0.0000 0.0000 0.0000 0.8339 0.0000 3.2853
#
#
#
# Elastic Compliance Matrix: (Units=1/GPa)
#
#
# Indices 1 2 3 4 5 6 
#
# 1 0.009952 -0.004806 -0.003266 0.000000 0.001176 0.000000
# 2 -0.004806 0.024345 -0.003945 0.000000 -0.000330 0.000000
# 3 -0.003266 -0.003945 0.012067 0.000000 -0.003405 0.000000
# 4 0.000000 0.000000 0.000000 0.711310 0.000000 -0.180543
# 5 0.001176 -0.000330 -0.003405 0.000000 0.025588 0.000000
# 6 0.000000 0.000000 0.000000 -0.180543 0.000000 0.350211
#
#
# Mechanical properties :
#
#
# Convention : Reuss Voigt Hill
#
# Bulk Modulus (GPa) = 44.78289 56.35824 50.57056
# Shear Modulus (GPa) = 4.29202 21.43711 12.86457
#
# Velocity S-wave (km/s) = 1.47591 3.29846 2.55521
# Velocity P-wave (km/s) = 5.06289 6.56580 5.86270
#
# Compressibility (1/GPa) = 0.02232996
#
# Stress axis : x y z
#
# Youngs Moduli (GPa) = 100.47825 41.07573 82.87331
#
# Poissons Ratio (x) = 0.19742 0.27068
# Poissons Ratio (y) = 0.48291 0.32692
# Poissons Ratio (z) = 0.32818 0.16204
#
# Static dielectric constant tensor:
#      x y z
#    x 3.843250 0.000000 -0.118990 
#    y 0.000000 3.036560 0.000000 
#    z -0.118990 0.000000 3.889220 
# 
# 
# High freq. dielectric constant tensor:
#      x y z
#    x 1.787850 0.000000 -0.001900 
#    y 0.000000 1.697600 0.000000 
#    z -0.001900 0.000000 1.790410 
# 
# From -- ./inp_files/37026.got.cif
#   From: 2010.06.25/outbox.cif.g09.slc.cpg/sg10_19_cif.got.tgz:37026.got - 2010.06.27 22:07:45.
