data_PCOD8062309
_publ_section_title
;
Structure prediction by ZEFSAII (Michael W. Deem and Ramdas Pophale) SiO2 
 PCOD8062309
Probable space group: P 2/M
;
_chemical_formula_sum "Si O2"
_cell_formula_units_Z 28
_cell_length_a 5.051266
_cell_length_b 31.194321
_cell_length_c 9.465134
_cell_angle_alpha 90.000000
_cell_angle_beta 118.068058
_cell_angle_gamma 90.000000
_cell_volume 1316.020890
_symmetry_space_group_name_H-M "P 2/M"
_symmetry_group_IT_number 10
_symmetry_cell_setting 'monoclinic'
loop_
_space_group_symop_operation_xyz
x,y,z
-x,y,-z
-x,-y,-z
x,-y,z
loop_
_atom_site_type_symbol
_atom_site_label
_atom_site_fract_x
_atom_site_fract_y
_atom_site_fract_z
Si Si1 0.146052 0.124349 0.189188
Si Si2 0.242275 0.315079 0.321969
Si Si3 0.385916 0.729100 0.812589
Si Si4 0.192968 0.549389 0.684041
Si Si5 0.849573 0.047449 0.606116
Si Si6 0.651317 0.174272 0.190197
Si Si7 0.820170 0.593389 0.814044
O O1 0.099726 0.078194 0.248080
O O2 0.486395 0.141203 0.256147
O O3 0.991304 0.159059 0.253423
O O4 0.000000 0.121253 0.000000
O O5 0.500000 0.305987 0.500000
O O6 0.346600 0.293754 0.203079
O O7 0.193217 0.365520 0.290101
O O8 0.927741 0.294935 0.291959
O O9 0.351646 0.777799 0.748797
O O10 0.500000 0.727593 0.000000
O O11 0.290136 0.500000 0.698788
O O12 0.487331 0.578361 0.769142
O O13 0.000000 0.563217 0.500000
O O14 0.992714 0.556064 0.773109
O O15 0.500000 0.043675 0.500000
O O16 0.000000 0.065451 0.500000
O O17 0.984285 0.000000 0.673754
O O18 0.500000 0.173388 0.000000
O O19 0.000000 0.605148 0.000000
#
# Coordination Sequence:
#
# PCOD8062309 Si02
#       7
#     4   4   4   4   4   4   4
#     4  10  19  35  58  84 111 145 191 237 285 342
#     4  12  25  42  62  89 125 159 197 250 305 351
#     4  11  22  41  65  88 117 158 203 242 293 360
#     4  11  24  43  66  93 127 164 199 243 304 362
#     4  10  21  37  55  78 112 151 188 231 288 346
#     4   9  19  35  58  85 114 147 186 238 292 344
#     4  12  25  42  65  93 123 160 207 251 295 353
#
# _framework density 21.276259
#
# number of rings (size 3 to 8) (size 9 to 14) (size 15 to 20)
#    0.000    1.286    0.000    6.429    0.000    5.429 
#    0.000    7.143    0.000    5.143    0.000    0.000 
#    0.000    0.000    0.000    0.000    0.000    0.000 
#
# Total GULP energy -347253.707123 kJ/mol
# GULP energy per Si atom -12401.918112 kJ/mol
# Density = 2.122783 g / cm^3
# Si number density = 21.276259 Si / 1000 Ang^3
#
#
#
# Elastic Constant Matrix: (Units=GPa)
#
#
# Indices 1 2 3 4 5 6 
#
# 1 116.8494 30.8431 16.3530 0.0000 -7.6833 0.0000
# 2 30.8431 111.9371 24.9753 0.0000 -3.6608 0.0000
# 3 16.3530 24.9753 60.9060 0.0000 2.0911 0.0000
# 4 0.0000 0.0000 0.0000 20.4393 0.0000 -3.3223
# 5 -7.6833 -3.6608 2.0911 0.0000 33.0147 0.0000
# 6 0.0000 0.0000 0.0000 -3.3223 0.0000 32.3251
#
#
#
# Elastic Compliance Matrix: (Units=1/GPa)
#
#
# Indices 1 2 3 4 5 6 
#
# 1 0.009509 -0.002165 -0.001737 0.000000 0.002083 0.000000
# 2 -0.002165 0.010386 -0.003708 0.000000 0.000883 0.000000
# 3 -0.001737 -0.003708 0.018474 0.000000 -0.001986 0.000000
# 4 0.000000 0.000000 0.000000 0.049757 0.000000 0.005114
# 5 0.002083 0.000883 -0.001986 0.000000 0.030998 0.000000
# 6 0.000000 0.000000 0.000000 0.005114 0.000000 0.031461
#
#
# Mechanical properties :
#
#
# Convention : Reuss Voigt Hill
#
# Bulk Modulus (GPa) = 43.19671 48.22615 45.71143
# Shear Modulus (GPa) = 28.81481 31.65721 30.23601
#
# Velocity S-wave (km/s) = 3.68410 3.86153 3.77386
# Velocity P-wave (km/s) = 6.20029 6.52670 6.36559
#
# Compressibility (1/GPa) = 0.02314991
#
# Stress axis : x y z
#
# Youngs Moduli (GPa) = 105.15857 96.28131 54.13032
#
# Poissons Ratio (x) = 0.20840 0.09403
# Poissons Ratio (y) = 0.22762 0.20072
# Poissons Ratio (z) = 0.18268 0.35703
#
# Static dielectric constant tensor:
#      x y z
#    x 4.206360 0.000000 -0.083070 
#    y 0.000000 4.059990 0.000000 
#    z -0.083070 0.000000 3.620980 
# 
# 
# High freq. dielectric constant tensor:
#      x y z
#    x 1.853850 0.000000 -0.005460 
#    y 0.000000 1.842860 0.000000 
#    z -0.005460 0.000000 1.817990 
# 
# From -- ./inp_files/15912.got.cif
#   From: 2010.06.25/outbox.cif.g09.slc.cpg/sg10_8_cif.got.tgz:15912.got - 2010.06.27 22:07:45.
