data_PCOD8062713
_publ_section_title
;
Structure prediction by ZEFSAII (Michael W. Deem and Ramdas Pophale) SiO2 
 PCOD8062713
Probable space group: P 2/M
;
_chemical_formula_sum "Si O2"
_cell_formula_units_Z 24
_cell_length_a 15.891624
_cell_length_b 15.169920
_cell_length_c 9.802697
_cell_angle_alpha 90.000000
_cell_angle_beta 146.710924
_cell_angle_gamma 90.000000
_cell_volume 1297.064174
_symmetry_space_group_name_H-M "P 2/M"
_symmetry_group_IT_number 10
_symmetry_cell_setting 'monoclinic'
loop_
_space_group_symop_operation_xyz
x,y,z
-x,y,-z
-x,-y,-z
x,-y,z
loop_
_atom_site_type_symbol
_atom_site_label
_atom_site_fract_x
_atom_site_fract_y
_atom_site_fract_z
Si Si1 0.714834 0.685472 0.882080
Si Si2 0.194067 0.500000 0.631092
Si Si3 0.830154 0.802052 0.264801
Si Si4 0.324839 0.681780 0.731672
Si Si5 0.468828 0.100582 0.116520
Si Si6 0.147938 0.500000 0.888912
Si Si7 0.606391 0.260380 0.453482
O O1 0.550838 0.685117 0.736307
O O2 0.704380 0.737939 0.724735
O O3 0.832316 0.738234 0.136100
O O4 0.773074 0.585896 0.937288
O O5 0.297785 0.582161 0.734624
O O6 0.168302 0.500000 0.756028
O O7 0.034652 0.500000 0.330453
O O8 0.791821 0.744358 0.345957
O O9 0.000000 0.843056 0.500000
O O10 0.709468 0.881650 0.090139
O O11 0.295388 0.691642 0.530325
O O12 0.500000 0.710306 0.000000
O O13 0.572217 0.160715 0.356459
O O14 0.508923 0.000000 0.205520
O O15 0.500000 0.121600 0.000000
#
# Coordination Sequence:
#
# PCOD8062713 Si02
#       7
#     4   2   4   4   4   2   4
#     4  10  21  35  57  80 118 154 187 233 286 329
#     4  11  23  31  57  80 113 152 202 241 266 319
#     4  11  20  36  57  84 118 152 188 226 283 345
#     4  12  19  36  57  82 111 151 201 239 270 326
#     4  10  19  37  65  89 110 142 188 240 284 337
#     4  11  20  38  49  81 116 159 191 228 286 331
#     4  10  20  37  56  86 113 143 194 234 288 336
#
# _framework density 18.503326000000001
#
# number of rings (size 3 to 8) (size 9 to 14) (size 15 to 20)
#    0.000    1.333    6.667    1.250    0.000    3.000 
#    0.000   10.833    0.000    0.000    0.000    2.333 
#    0.000    0.000    0.000    0.000    0.000    0.000 
#
# Total GULP energy -297596.725151 kJ/mol
# GULP energy per Si atom -12399.863548 kJ/mol
# Density = 1.846121 g / cm^3
# Si number density = 18.503326 Si / 1000 Ang^3
#
#
#
# Elastic Constant Matrix: (Units=GPa)
#
#
# Indices 1 2 3 4 5 6 
#
# 1 85.1987 26.3359 42.3611 0.0000 -12.4145 0.0000
# 2 26.3359 103.2717 26.8435 0.0000 -5.3458 0.0000
# 3 42.3611 26.8435 72.8840 0.0000 -10.8091 0.0000
# 4 0.0000 0.0000 0.0000 25.0330 0.0000 -4.3798
# 5 -12.4145 -5.3458 -10.8091 0.0000 33.0384 0.0000
# 6 0.0000 0.0000 0.0000 -4.3798 0.0000 26.0502
#
#
#
# Elastic Compliance Matrix: (Units=1/GPa)
#
#
# Indices 1 2 3 4 5 6 
#
# 1 0.017180 -0.001927 -0.008791 0.000000 0.003268 0.000000
# 2 -0.001927 0.010931 -0.002891 0.000000 0.000099 0.000000
# 3 -0.008791 -0.002891 0.020321 0.000000 0.002877 0.000000
# 4 0.000000 0.000000 0.000000 0.041158 0.000000 0.006920
# 5 0.003268 0.000099 0.002877 0.000000 0.032453 0.000000
# 6 0.000000 0.000000 0.000000 0.006920 0.000000 0.039551
#
#
# Mechanical properties :
#
#
# Convention : Reuss Voigt Hill
#
# Bulk Modulus (GPa) = 47.13838 50.27059 48.70448
# Shear Modulus (GPa) = 25.52527 27.87859 26.70193
#
# Velocity S-wave (km/s) = 3.71819 3.88581 3.80292
# Velocity P-wave (km/s) = 6.63055 6.88186 6.75737
#
# Compressibility (1/GPa) = 0.02121413
#
# Stress axis : x y z
#
# Youngs Moduli (GPa) = 58.20753 91.48055 49.20911
#
# Poissons Ratio (x) = 0.17628 0.43259
# Poissons Ratio (y) = 0.11216 0.14228
# Poissons Ratio (z) = 0.51169 0.26451
#
# Static dielectric constant tensor:
#      x y z
#    x 3.555680 0.000000 -0.107820 
#    y 0.000000 3.316260 0.000000 
#    z -0.107820 0.000000 3.350860 
# 
# 
# High freq. dielectric constant tensor:
#      x y z
#    x 1.720700 0.000000 -0.004830 
#    y 0.000000 1.709520 0.000000 
#    z -0.004830 0.000000 1.698990 
# 
# From -- ./inp_files/29742.got.cif
#   From: 2010.06.25/outbox.cif.g09.slc.cpg/sg10_15_cif.got.tgz:29742.got - 2010.06.27 22:07:45.
