data_PCOD8062325
_publ_section_title
;
Structure prediction by ZEFSAII (Michael W. Deem and Ramdas Pophale) SiO2 
 PCOD8062325
Probable space group: P 2/M
;
_chemical_formula_sum "Si O2"
_cell_formula_units_Z 26
_cell_length_a 9.268492
_cell_length_b 9.189439
_cell_length_c 18.529655
_cell_angle_alpha 90.000000
_cell_angle_beta 128.659880
_cell_angle_gamma 90.000000
_cell_volume 1232.375492
_symmetry_space_group_name_H-M "P 2/M"
_symmetry_group_IT_number 10
_symmetry_cell_setting 'monoclinic'
loop_
_space_group_symop_operation_xyz
x,y,z
-x,y,-z
-x,-y,-z
x,-y,z
loop_
_atom_site_type_symbol
_atom_site_label
_atom_site_fract_x
_atom_site_fract_y
_atom_site_fract_z
Si Si1 0.367762 0.826676 0.790994
Si Si2 0.395811 0.836378 0.639724
Si Si3 0.935736 0.667798 0.865014
Si Si4 0.992541 0.337809 0.337918
Si Si5 0.244208 0.827044 0.320446
Si Si6 0.000000 0.738318 0.500000
Si Si7 0.710259 0.333285 0.937373
O O1 0.413060 0.766919 0.724479
O O2 0.531782 0.769625 0.893543
O O3 0.173077 0.753590 0.750505
O O4 0.346176 0.000000 0.789407
O O5 0.546591 0.769308 0.631548
O O6 0.185116 0.832827 0.545846
O O7 0.461115 0.000000 0.669252
O O8 0.903935 0.500000 0.832133
O O9 0.889655 0.777360 0.786184
O O10 0.809526 0.707744 0.893751
O O11 0.149782 0.693213 0.952879
O O12 0.990301 0.500000 0.304739
O O13 0.180187 0.254200 0.373541
O O14 0.978408 0.354412 0.420363
O O15 0.231933 0.000000 0.328735
O O16 0.643844 0.500000 0.915192
#
# Coordination Sequence:
#
# PCOD8062325 Si02
#       7
#     4   4   4   4   4   2   4
#     4  10  19  35  58  87 117 155 199 240 288 343
#     4   9  19  35  59  87 119 151 187 234 291 347
#     4   9  18  33  54  85 122 160 197 236 284 338
#     4  11  24  42  61  84 115 152 193 242 297 351
#     4  11  22  38  58  88 121 156 194 238 292 346
#     4  10  22  42  64  88 111 146 195 240 285 354
#     4   9  17  31  55  86 120 158 200 239 281 336
#
# _framework density 21.097466000000001
#
# number of rings (size 3 to 8) (size 9 to 14) (size 15 to 20)
#    0.000    2.154    1.538    2.769    0.000    3.077 
#    0.000    6.923    0.000    4.615    0.000    0.000 
#    0.000    0.000    0.000    0.000    0.000    0.000 
#
# Total GULP energy -322238.719090 kJ/mol
# GULP energy per Si atom -12393.796888 kJ/mol
# Density = 2.104945 g / cm^3
# Si number density = 21.097466 Si / 1000 Ang^3
#
#
#
# Elastic Constant Matrix: (Units=GPa)
#
#
# Indices 1 2 3 4 5 6 
#
# 1 118.4675 46.3016 36.6433 0.0000 23.3139 0.0000
# 2 46.3016 106.7550 29.1480 0.0000 13.9593 0.0000
# 3 36.6433 29.1480 87.1906 0.0000 22.9618 0.0000
# 4 0.0000 0.0000 0.0000 24.2147 0.0000 1.4925
# 5 23.3139 13.9593 22.9618 0.0000 36.6118 0.0000
# 6 0.0000 0.0000 0.0000 1.4925 0.0000 26.8204
#
#
#
# Elastic Compliance Matrix: (Units=1/GPa)
#
#
# Indices 1 2 3 4 5 6 
#
# 1 0.011526 -0.003762 -0.002433 0.000000 -0.004379 0.000000
# 2 -0.003762 0.011675 -0.002133 0.000000 -0.000718 0.000000
# 3 -0.002433 -0.002133 0.015072 0.000000 -0.007090 0.000000
# 4 0.000000 0.000000 0.000000 0.041439 0.000000 -0.002306
# 5 -0.004379 -0.000718 -0.007090 0.000000 0.034823 0.000000
# 6 0.000000 0.000000 0.000000 -0.002306 0.000000 0.037413
#
#
# Mechanical properties :
#
#
# Convention : Reuss Voigt Hill
#
# Bulk Modulus (GPa) = 46.25967 59.62211 52.94089
# Shear Modulus (GPa) = 28.43981 30.88404 29.66192
#
# Velocity S-wave (km/s) = 3.67552 3.83021 3.75366
# Velocity P-wave (km/s) = 6.32352 6.91971 6.62832
#
# Compressibility (1/GPa) = 0.02161710
#
# Stress axis : x y z
#
# Youngs Moduli (GPa) = 86.76144 85.65185 66.34888
#
# Poissons Ratio (x) = 0.32223 0.16143
# Poissons Ratio (y) = 0.32640 0.14151
# Poissons Ratio (z) = 0.21109 0.18268
#
# Static dielectric constant tensor:
#      x y z
#    x 3.970080 0.000000 0.191630 
#    y 0.000000 3.499210 0.000000 
#    z 0.191630 0.000000 3.677760 
# 
# 
# High freq. dielectric constant tensor:
#      x y z
#    x 1.827040 0.000000 0.014440 
#    y 0.000000 1.809120 0.000000 
#    z 0.014440 0.000000 1.816570 
# 
# From -- ./inp_files/82238.got.cif
#   From: 2010.06.25/outbox.cif.g09.slc.cpg/sg10_42_cif.got.tgz:82238.got - 2010.06.27 22:07:45.
