data_PCOD8062386
_publ_section_title
;
Structure prediction by ZEFSAII (Michael W. Deem and Ramdas Pophale) SiO2 
 PCOD8062386
Probable space group: P 2/M
;
_chemical_formula_sum "Si O2"
_cell_formula_units_Z 24
_cell_length_a 9.574698
_cell_length_b 8.528158
_cell_length_c 14.934276
_cell_angle_alpha 90.000000
_cell_angle_beta 98.582148
_cell_angle_gamma 90.000000
_cell_volume 1205.797108
_symmetry_space_group_name_H-M "P 2/M"
_symmetry_group_IT_number 10
_symmetry_cell_setting 'monoclinic'
loop_
_space_group_symop_operation_xyz
x,y,z
-x,y,-z
-x,-y,-z
x,-y,z
loop_
_atom_site_type_symbol
_atom_site_label
_atom_site_fract_x
_atom_site_fract_y
_atom_site_fract_z
Si Si1 0.387622 0.813766 0.918405
Si Si2 0.454140 0.186473 0.242393
Si Si3 0.875183 0.814960 0.551531
Si Si4 0.403313 0.186030 0.567233
Si Si5 0.148891 0.684634 0.251515
Si Si6 0.067278 0.186408 0.912558
O O1 0.450273 0.756156 0.830431
O O2 0.228720 0.749193 0.920068
O O3 0.381581 0.000000 0.923573
O O4 0.500000 0.746093 0.000000
O O5 0.542009 0.254998 0.334249
O O6 0.296564 0.254330 0.225792
O O7 0.437682 0.000000 0.242224
O O8 0.750695 0.758842 0.474695
O O9 0.873815 0.733077 0.647580
O O10 0.000000 0.760566 0.500000
O O11 0.872407 0.000000 0.570520
O O12 0.500000 0.257658 0.500000
O O13 0.414662 0.000000 0.573174
O O14 0.146713 0.500000 0.244456
O O15 0.021694 0.751438 0.179789
O O16 0.065406 0.000000 0.908253
O O17 0.000000 0.245584 0.000000
#
# Coordination Sequence:
#
# PCOD8062386 Si02
#       6
#     4   4   4   4   4   4
#     4   9  18  33  59  93 117 138 181 244 301 344
#     4  10  19  35  60  84 113 149 196 248 290 342
#     4  10  21  37  61  87 114 150 199 250 295 343
#     4   9  16  30  54  84 109 139 185 241 292 332
#     4  12  25  39  56  83 123 164 197 233 290 356
#     4  10  21  39  65  92 118 150 193 244 296 349
#
# _framework density 19.903845
#
# number of rings (size 3 to 8) (size 9 to 14) (size 15 to 20)
#    0.000    2.000    1.667    2.500    2.333    3.333 
#    0.000    2.500    0.000    2.000    0.000    0.000 
#    0.000    0.000    0.000    0.000    0.000    0.000 
#
# Total GULP energy -297450.742790 kJ/mol
# GULP energy per Si atom -12393.780950 kJ/mol
# Density = 1.985854 g / cm^3
# Si number density = 19.903845 Si / 1000 Ang^3
#
#
#
# Elastic Constant Matrix: (Units=GPa)
#
#
# Indices 1 2 3 4 5 6 
#
# 1 211.0158 22.4119 98.3590 0.0000 -0.7729 0.0000
# 2 22.4119 27.7515 17.6561 0.0000 -0.7131 0.0000
# 3 98.3590 17.6561 163.3398 0.0000 2.2945 0.0000
# 4 0.0000 0.0000 0.0000 6.2168 0.0000 -0.5115
# 5 -0.7729 -0.7131 2.2945 0.0000 38.9044 0.0000
# 6 0.0000 0.0000 0.0000 -0.5115 0.0000 6.3469
#
#
#
# Elastic Compliance Matrix: (Units=1/GPa)
#
#
# Indices 1 2 3 4 5 6 
#
# 1 0.006833 -0.003104 -0.003784 0.000000 0.000302 0.000000
# 2 -0.003104 0.040140 -0.002482 0.000000 0.000820 0.000000
# 3 -0.003784 -0.002482 0.008678 0.000000 -0.000632 0.000000
# 4 0.000000 0.000000 0.000000 0.161928 0.000000 0.013049
# 5 0.000302 0.000820 -0.000632 0.000000 0.025762 0.000000
# 6 0.000000 0.000000 0.000000 0.013049 0.000000 0.158610
#
#
# Mechanical properties :
#
#
# Convention : Reuss Voigt Hill
#
# Bulk Modulus (GPa) = 27.09008 75.44015 51.26511
# Shear Modulus (GPa) = 11.54751 27.87228 19.70989
#
# Velocity S-wave (km/s) = 2.41127 3.74618 3.15025
# Velocity P-wave (km/s) = 4.62519 7.52970 6.24855
#
# Compressibility (1/GPa) = 0.03691388
#
# Stress axis : x y z
#
# Youngs Moduli (GPa) = 146.34122 24.91257 115.23740
#
# Poissons Ratio (x) = 0.07732 0.43602
# Poissons Ratio (y) = 0.45418 0.28597
# Poissons Ratio (z) = 0.55370 0.06182
#
# Static dielectric constant tensor:
#      x y z
#    x 3.915270 0.000000 0.034600 
#    y 0.000000 3.101700 0.000000 
#    z 0.034600 0.000000 3.897530 
# 
# 
# High freq. dielectric constant tensor:
#      x y z
#    x 1.795980 0.000000 0.002740 
#    y 0.000000 1.725070 0.000000 
#    z 0.002740 0.000000 1.795830 
# 
# From -- ./inp_files/60383.got.cif
#   From: 2010.06.25/outbox.cif.g09.slc.cpg/sg10_31_cif.got.tgz:60383.got - 2010.06.27 22:07:45.
