data_PCOD8062773
_publ_section_title
;
Structure prediction by ZEFSAII (Michael W. Deem and Ramdas Pophale) SiO2 
 PCOD8062773
Probable space group: P 2/M
;
_chemical_formula_sum "Si O2"
_cell_formula_units_Z 28
_cell_length_a 32.176994
_cell_length_b 8.781694
_cell_length_c 10.202188
_cell_angle_alpha 90.000000
_cell_angle_beta 29.152738
_cell_angle_gamma 90.000000
_cell_volume 1404.333913
_symmetry_space_group_name_H-M "P 2/M"
_symmetry_group_IT_number 10
_symmetry_cell_setting 'monoclinic'
loop_
_space_group_symop_operation_xyz
x,y,z
-x,y,-z
-x,-y,-z
x,-y,z
loop_
_atom_site_type_symbol
_atom_site_label
_atom_site_fract_x
_atom_site_fract_y
_atom_site_fract_z
Si Si1 0.068303 0.676087 0.203899
Si Si2 0.501237 0.822952 0.342665
Si Si3 0.781715 0.179601 0.761592
Si Si4 0.666036 0.679113 0.301948
Si Si5 0.247658 0.179799 0.694944
Si Si6 0.689384 0.180405 0.757802
Si Si7 0.038950 0.675935 0.754450
O O1 0.092826 0.500000 0.156961
O O2 0.000000 0.728243 0.500000
O O3 0.032257 0.706420 0.158628
O O4 0.151565 0.776850 0.996785
O O5 0.500000 0.791716 0.500000
O O6 0.429957 0.723356 0.469016
O O7 0.483861 0.000000 0.360695
O O8 0.591468 0.766548 0.037087
O O9 0.743046 0.245939 0.732584
O O10 0.880574 0.220129 0.499192
O O11 0.769079 0.000000 0.805513
O O12 0.733042 0.252287 0.016391
O O13 0.676364 0.500000 0.272888
O O14 0.685627 0.742366 0.391765
O O15 0.269300 0.241858 0.489937
O O16 0.259151 0.000000 0.672828
O O17 0.693578 0.000000 0.751752
O O18 0.067653 0.500000 0.676708
O O19 0.000000 0.726732 0.000000
#
# Coordination Sequence:
#
# PCOD8062773 Si02
#       7
#     4   4   4   4   4   4   4
#     4  10  21  38  58  80 115 158 198 242 294 349
#     4  10  19  39  67  90 119 156 198 243 295 352
#     4  11  21  38  63  90 117 154 205 253 300 350
#     4  12  25  40  59  88 124 157 198 245 297 357
#     4  11  23  40  62  89 120 156 201 246 298 355
#     4   9  20  38  62  91 121 154 194 248 302 350
#     4  10  21  36  55  84 122 160 195 238 300 362
#
# _framework density 19.938276999999999
#
# number of rings (size 3 to 8) (size 9 to 14) (size 15 to 20)
#    0.000    1.571    1.429    3.857    0.000    3.143 
#    0.000    6.429    0.000    0.000    0.000    0.000 
#    0.000    0.000    0.000    0.000    0.000    0.000 
#
# Total GULP energy -347362.281731 kJ/mol
# GULP energy per Si atom -12405.795776 kJ/mol
# Density = 1.989290 g / cm^3
# Si number density = 19.938277 Si / 1000 Ang^3
#
#
#
# Elastic Constant Matrix: (Units=GPa)
#
#
# Indices 1 2 3 4 5 6 
#
# 1 83.6108 31.1328 18.1170 0.0000 0.6473 0.0000
# 2 31.1328 73.9492 22.4252 0.0000 -2.9355 0.0000
# 3 18.1170 22.4252 91.8526 0.0000 -3.3204 0.0000
# 4 0.0000 0.0000 0.0000 22.7672 0.0000 -6.1110
# 5 0.6473 -2.9355 -3.3204 0.0000 36.1175 0.0000
# 6 0.0000 0.0000 0.0000 -6.1110 0.0000 24.0077
#
#
#
# Elastic Compliance Matrix: (Units=1/GPa)
#
#
# Indices 1 2 3 4 5 6 
#
# 1 0.014390 -0.005640 -0.001492 0.000000 -0.000853 0.000000
# 2 -0.005640 0.016841 -0.002956 0.000000 0.001198 0.000000
# 3 -0.001492 -0.002956 0.011935 0.000000 0.000884 0.000000
# 4 0.000000 0.000000 0.000000 0.047144 0.000000 0.012000
# 5 -0.000853 0.001198 0.000884 0.000000 0.027881 0.000000
# 6 0.000000 0.000000 0.000000 0.012000 0.000000 0.044708
#
#
# Mechanical properties :
#
#
# Convention : Reuss Voigt Hill
#
# Bulk Modulus (GPa) = 43.49639 43.64026 43.56833
# Shear Modulus (GPa) = 26.21392 28.42765 27.32079
#
# Velocity S-wave (km/s) = 3.62989 3.78005 3.70573
# Velocity P-wave (km/s) = 6.27941 6.40210 6.34105
#
# Compressibility (1/GPa) = 0.02299041
#
# Stress axis : x y z
#
# Youngs Moduli (GPa) = 69.49242 59.37875 83.78734
#
# Poissons Ratio (x) = 0.33487 0.12503
# Poissons Ratio (y) = 0.39191 0.24767
# Poissons Ratio (z) = 0.10370 0.17552
#
# Static dielectric constant tensor:
#      x y z
#    x 3.869810 0.000000 0.119470 
#    y 0.000000 3.428150 0.000000 
#    z 0.119470 0.000000 3.768080 
# 
# 
# High freq. dielectric constant tensor:
#      x y z
#    x 1.793430 0.000000 0.001310 
#    y 0.000000 1.760450 0.000000 
#    z 0.001310 0.000000 1.787710 
# 
# From -- ./inp_files/37018.got.cif
#   From: 2010.06.25/outbox.cif.g09.slc.cpg/sg10_19_cif.got.tgz:37018.got - 2010.06.27 22:07:45.
