data_PCOD8062468
_publ_section_title
;
Structure prediction by ZEFSAII (Michael W. Deem and Ramdas Pophale) SiO2 
 PCOD8062468
Probable space group: P 2/M
;
_chemical_formula_sum "Si O2"
_cell_formula_units_Z 24
_cell_length_a 9.104311
_cell_length_b 16.826715
_cell_length_c 13.662473
_cell_angle_alpha 90.000000
_cell_angle_beta 35.539497
_cell_angle_gamma 90.000000
_cell_volume 1216.603858
_symmetry_space_group_name_H-M "P 2/M"
_symmetry_group_IT_number 10
_symmetry_cell_setting 'monoclinic'
loop_
_space_group_symop_operation_xyz
x,y,z
-x,y,-z
-x,-y,-z
x,-y,z
loop_
_atom_site_type_symbol
_atom_site_label
_atom_site_fract_x
_atom_site_fract_y
_atom_site_fract_z
Si Si1 0.256426 0.183163 0.908272
Si Si2 0.119008 0.653800 0.671155
Si Si3 0.259739 0.092845 0.304701
Si Si4 0.378619 0.656060 0.728205
Si Si5 0.933073 0.500000 0.684660
Si Si6 0.563811 0.500000 0.716999
Si Si7 0.771078 0.207484 0.855626
O O1 0.503035 0.127343 0.761559
O O2 0.333534 0.269336 0.823542
O O3 0.169882 0.182461 0.066847
O O4 0.000000 0.148424 0.000000
O O5 0.154746 0.654176 0.769467
O O6 0.371188 0.657710 0.471963
O O7 0.946637 0.577443 0.744756
O O8 0.978055 0.731029 0.706932
O O9 0.239818 0.130815 0.208185
O O10 0.000000 0.112542 0.500000
O O11 0.302855 0.000000 0.267899
O O12 0.390494 0.577010 0.788544
O O13 0.664196 0.500000 0.774145
O O14 0.180321 0.500000 0.483479
O O15 0.500000 0.251104 0.000000
#
# Coordination Sequence:
#
# PCOD8062468 Si02
#       7
#     4   4   4   4   2   2   4
#     4  11  22  39  61  92 126 159 196 242 303 363
#     4  10  19  36  56  83 112 160 206 252 295 348
#     4  10  23  44  68  92 119 155 198 242 293 359
#     4  10  20  35  59  80 118 158 205 249 299 349
#     4   9  19  31  53  81 117 150 209 260 296 343
#     4   9  19  33  51  85 111 157 207 257 299 342
#     4  10  22  37  60  86 120 156 192 240 298 362
#
# _framework density 19.727045
#
# number of rings (size 3 to 8) (size 9 to 14) (size 15 to 20)
#    0.000    2.000    1.667    1.500    4.667    5.333 
#    0.000    1.667    0.000    2.000    0.000    0.000 
#    0.000    0.000    0.000    0.000    0.000    0.000 
#
# Total GULP energy -297442.650595 kJ/mol
# GULP energy per Si atom -12393.443775 kJ/mol
# Density = 1.968215 g / cm^3
# Si number density = 19.727045 Si / 1000 Ang^3
#
#
#
# Elastic Constant Matrix: (Units=GPa)
#
#
# Indices 1 2 3 4 5 6 
#
# 1 159.2568 76.2675 47.7828 0.0000 -8.5089 0.0000
# 2 76.2675 137.9110 50.5048 0.0000 -9.6798 0.0000
# 3 47.7828 50.5048 61.5651 0.0000 -7.8137 0.0000
# 4 0.0000 0.0000 0.0000 37.4934 0.0000 13.4339
# 5 -8.5089 -9.6798 -7.8137 0.0000 31.0102 0.0000
# 6 0.0000 0.0000 0.0000 13.4339 0.0000 40.2488
#
#
#
# Elastic Compliance Matrix: (Units=1/GPa)
#
#
# Indices 1 2 3 4 5 6 
#
# 1 0.009269 -0.003549 -0.004236 0.000000 0.000368 0.000000
# 2 -0.003549 0.011762 -0.006769 0.000000 0.000992 0.000000
# 3 -0.004236 -0.006769 0.025483 0.000000 0.003146 0.000000
# 4 0.000000 0.000000 0.000000 0.030294 0.000000 -0.010111
# 5 0.000368 0.000992 0.003146 0.000000 0.033451 0.000000
# 6 0.000000 0.000000 0.000000 -0.010111 0.000000 0.028220
#
#
# Mechanical properties :
#
#
# Convention : Reuss Voigt Hill
#
# Bulk Modulus (GPa) = 57.44922 78.64922 68.04922
# Shear Modulus (GPa) = 28.83682 34.02901 31.43292
#
# Velocity S-wave (km/s) = 3.82749 4.15781 3.99606
# Velocity P-wave (km/s) = 6.97984 7.93758 7.47406
#
# Compressibility (1/GPa) = 0.01740668
#
# Stress axis : x y z
#
# Youngs Moduli (GPa) = 107.88114 85.01889 39.24232
#
# Poissons Ratio (x) = 0.30173 0.16624
# Poissons Ratio (y) = 0.38287 0.26561
# Poissons Ratio (z) = 0.45701 0.57546
#
# Static dielectric constant tensor:
#      x y z
#    x 3.969720 0.000000 -0.085580 
#    y 0.000000 3.518380 0.000000 
#    z -0.085580 0.000000 3.611200 
# 
# 
# High freq. dielectric constant tensor:
#      x y z
#    x 1.783580 0.000000 -0.006650 
#    y 0.000000 1.758210 0.000000 
#    z -0.006650 0.000000 1.766190 
# 
# From -- ./inp_files/61691.got.cif
#   From: 2010.06.25/outbox.cif.g09.slc.cpg/sg10_31_cif.got.tgz:61691.got - 2010.06.27 22:07:45.
