data_PCOD8062797
_publ_section_title
;
Structure prediction by ZEFSAII (Michael W. Deem and Ramdas Pophale) SiO2 
 PCOD8062797
Probable space group: P 2/M
;
_chemical_formula_sum "Si O2"
_cell_formula_units_Z 24
_cell_length_a 13.208589
_cell_length_b 19.957402
_cell_length_c 6.400453
_cell_angle_alpha 90.000000
_cell_angle_beta 59.040714
_cell_angle_gamma 90.000000
_cell_volume 1446.845043
_symmetry_space_group_name_H-M "P 2/M"
_symmetry_group_IT_number 10
_symmetry_cell_setting 'monoclinic'
loop_
_space_group_symop_operation_xyz
x,y,z
-x,y,-z
-x,-y,-z
x,-y,z
loop_
_atom_site_type_symbol
_atom_site_label
_atom_site_fract_x
_atom_site_fract_y
_atom_site_fract_z
Si Si1 0.691200 0.664137 0.601825
Si Si2 0.500000 0.870537 0.500000
Si Si3 0.500000 0.617418 0.500000
Si Si4 0.378066 0.927721 0.007255
Si Si5 0.136861 0.577629 0.842584
Si Si6 0.686763 0.573306 0.993443
Si Si7 0.619550 0.195390 0.752140
O O1 0.582646 0.663782 0.555553
O O2 0.806914 0.628184 0.386147
O O3 0.656795 0.627087 0.851009
O O4 0.710649 0.742323 0.638561
O O5 0.416075 0.826160 0.442760
O O6 0.408630 0.915202 0.732155
O O7 0.419301 0.570110 0.727661
O O8 0.312682 0.864565 0.189421
O O9 0.310830 0.000000 0.098307
O O10 0.500000 0.932312 0.000000
O O11 0.158186 0.500000 0.752206
O O12 0.192528 0.590977 0.011692
O O13 0.000000 0.595046 0.000000
O O14 0.697318 0.500000 0.877782
O O15 0.500000 0.217350 0.000000
#
# Coordination Sequence:
#
# PCOD8062797 Si02
#       7
#     4   2   2   4   4   4   4
#     4  11  20  31  47  66  91 123 152 184 229 275
#     4   8  14  24  40  54  80 122 152 176 208 246
#     4  10  20  30  44  66  94 120 152 186 214 264
#     4   8  14  23  36  56  81 112 151 184 208 245
#     4   9  20  37  52  67  86 111 152 200 236 271
#     4  10  20  32  48  67  88 117 149 184 227 272
#     4   9  17  26  38  60  88 116 147 179 213 261
#
# _framework density 16.587816
#
# number of rings (size 3 to 8) (size 9 to 14) (size 15 to 20)
#    0.000    3.000    0.000    3.000    0.000    8.000 
#    0.000    2.500    0.000    0.000    0.000    0.000 
#    0.000    0.667    0.000    4.000    0.000    5.167 
#
# Total GULP energy -297374.755432 kJ/mol
# GULP energy per Si atom -12390.614810 kJ/mol
# Density = 1.655006 g / cm^3
# Si number density = 16.587816 Si / 1000 Ang^3
#
#
#
# Elastic Constant Matrix: (Units=GPa)
#
#
# Indices 1 2 3 4 5 6 
#
# 1 57.4713 29.8726 42.7759 0.0000 -2.1243 0.0000
# 2 29.8726 149.7900 55.9926 0.0000 6.3001 0.0000
# 3 42.7759 55.9926 84.4730 0.0000 14.9401 0.0000
# 4 0.0000 0.0000 0.0000 25.8636 0.0000 5.1290
# 5 -2.1243 6.3001 14.9401 0.0000 25.9302 0.0000
# 6 0.0000 0.0000 0.0000 5.1290 0.0000 11.4967
#
#
#
# Elastic Compliance Matrix: (Units=1/GPa)
#
#
# Indices 1 2 3 4 5 6 
#
# 1 0.031468 -0.000005 -0.018247 0.000000 0.013092 0.000000
# 2 -0.000005 0.008919 -0.006153 0.000000 0.001378 0.000000
# 3 -0.018247 -0.006153 0.028011 0.000000 -0.016139 0.000000
# 4 0.000000 0.000000 0.000000 0.042417 0.000000 -0.018923
# 5 0.013092 0.001378 -0.016139 0.000000 0.048602 0.000000
# 6 0.000000 0.000000 0.000000 -0.018923 0.000000 0.095424
#
#
# Mechanical properties :
#
#
# Convention : Reuss Voigt Hill
#
# Bulk Modulus (GPa) = 51.05314 61.00183 56.02749
# Shear Modulus (GPa) = 16.11968 23.53097 19.82532
#
# Velocity S-wave (km/s) = 3.12072 3.77048 3.46088
# Velocity P-wave (km/s) = 6.62038 7.47062 7.05832
#
# Compressibility (1/GPa) = 0.01958743
#
# Stress axis : x y z
#
# Youngs Moduli (GPa) = 31.77839 112.11804 35.70050
#
# Poissons Ratio (x) = 0.00062 0.65142
# Poissons Ratio (y) = 0.00017 0.21966
# Poissons Ratio (z) = 0.57986 0.68985
#
# Static dielectric constant tensor:
#      x y z
#    x 2.864470 0.000000 0.313870 
#    y 0.000000 3.607930 0.000000 
#    z 0.313870 0.000000 3.151720 
# 
# 
# High freq. dielectric constant tensor:
#      x y z
#    x 1.593250 0.000000 0.038490 
#    y 0.000000 1.642680 0.000000 
#    z 0.038490 0.000000 1.631300 
# 
# From -- ./inp_files/9935.got.cif
#   From: 2010.06.25/outbox.cif.g09.slc.cpg/sg10_5_cif.got.tgz:9935.got - 2010.06.27 22:07:45.
