data_PCOD8062730
_publ_section_title
;
Structure prediction by ZEFSAII (Michael W. Deem and Ramdas Pophale) SiO2 
 PCOD8062730
Probable space group: P 2/M
;
_chemical_formula_sum "Si O2"
_cell_formula_units_Z 28
_cell_length_a 5.408727
_cell_length_b 12.447611
_cell_length_c 20.113051
_cell_angle_alpha 90.000000
_cell_angle_beta 59.561298
_cell_angle_gamma 90.000000
_cell_volume 1167.488917
_symmetry_space_group_name_H-M "P 2/M"
_symmetry_group_IT_number 10
_symmetry_cell_setting 'monoclinic'
loop_
_space_group_symop_operation_xyz
x,y,z
-x,y,-z
-x,-y,-z
x,-y,z
loop_
_atom_site_type_symbol
_atom_site_label
_atom_site_fract_x
_atom_site_fract_y
_atom_site_fract_z
Si Si1 0.113608 0.000000 0.592812
Si Si2 0.521156 0.227933 0.710554
Si Si3 0.668017 0.382381 0.794016
Si Si4 0.176969 0.118501 0.908885
Si Si5 0.569189 0.000000 0.311158
Si Si6 0.738450 0.380146 0.361481
Si Si7 0.323450 0.238096 0.090392
Si Si8 0.908918 0.776107 0.439316
O O1 0.243173 0.893648 0.538087
O O2 0.768774 0.000000 0.626804
O O3 0.222078 0.000000 0.653863
O O4 0.465034 0.292394 0.786924
O O5 0.358314 0.112149 0.738389
O O6 0.851435 0.203371 0.650132
O O7 0.440110 0.304078 0.661352
O O8 0.517828 0.500000 0.816804
O O9 0.944107 0.391344 0.710323
O O10 0.738716 0.347130 0.859818
O O11 0.490830 0.163199 0.885402
O O12 0.986910 0.188053 0.883173
O O13 0.221580 0.000000 0.871872
O O14 0.000000 0.109894 0.000000
O O15 0.603059 0.500000 0.385409
O O16 0.719525 0.321735 0.436087
O O17 0.500000 0.266888 0.000000
O O18 0.000000 0.739353 0.500000
#
# Coordination Sequence:
#
# PCOD8062730 Si02
#       8
#     2   4   4   4   2   4   4   4
#     4  10  19  38  60  94 122 160 191 245 307 373
#     4  10  21  40  60  87 118 159 202 253 304 373
#     4  10  23  41  62  85 117 163 208 253 308 369
#     4   9  18  36  61  89 128 167 199 243 304 372
#     4  10  20  38  65  86 125 155 196 252 304 357
#     4  10  21  39  61  82 115 161 210 254 303 365
#     4  10  21  38  62  94 126 159 208 259 308 365
#     4  10  21  37  59  88 121 157 200 252 310 368
#
# _framework density 23.983098999999999
#
# number of rings (size 3 to 8) (size 9 to 14) (size 15 to 20)
#    0.000    2.143    1.429    1.071    2.000    3.429 
#    2.571    2.143    0.000    2.571    0.000    0.000 
#    0.000    0.000    0.000    0.000    0.000    0.000 
#
# Total GULP energy -346878.104661 kJ/mol
# GULP energy per Si atom -12388.503738 kJ/mol
# Density = 2.392851 g / cm^3
# Si number density = 23.983099 Si / 1000 Ang^3
#
#
#
# Elastic Constant Matrix: (Units=GPa)
#
#
# Indices 1 2 3 4 5 6 
#
# 1 110.9840 31.8154 26.1863 0.0000 26.2707 0.0000
# 2 31.8154 188.2173 63.3344 0.0000 36.9602 0.0000
# 3 26.1863 63.3344 73.7614 0.0000 30.9584 0.0000
# 4 0.0000 0.0000 0.0000 51.1408 0.0000 40.3065
# 5 26.2707 36.9602 30.9584 0.0000 39.1520 0.0000
# 6 0.0000 0.0000 0.0000 40.3065 0.0000 60.9751
#
#
#
# Elastic Compliance Matrix: (Units=1/GPa)
#
#
# Indices 1 2 3 4 5 6 
#
# 1 0.010790 -0.000272 -0.000997 0.000000 -0.006195 0.000000
# 2 -0.000272 0.007716 -0.005310 0.000000 -0.002902 0.000000
# 3 -0.000997 -0.005310 0.024076 0.000000 -0.013356 0.000000
# 4 0.000000 0.000000 0.000000 0.040822 0.000000 -0.026984
# 5 -0.006195 -0.002902 -0.013356 0.000000 0.042999 0.000000
# 6 0.000000 0.000000 0.000000 -0.026984 0.000000 0.034238
#
#
# Mechanical properties :
#
#
# Convention : Reuss Voigt Hill
#
# Bulk Modulus (GPa) = 33.98662 68.40388 51.19525
# Shear Modulus (GPa) = 27.23215 47.02870 37.13043
#
# Velocity S-wave (km/s) = 3.37333 4.43302 3.93897
# Velocity P-wave (km/s) = 5.41981 7.40175 6.48692
#
# Compressibility (1/GPa) = 0.02942334
#
# Stress axis : x y z
#
# Youngs Moduli (GPa) = 92.67953 129.60346 41.53448
#
# Poissons Ratio (x) = 0.03524 0.04141
# Poissons Ratio (y) = 0.02520 0.22057
# Poissons Ratio (z) = 0.09241 0.68825
#
# Static dielectric constant tensor:
#      x y z
#    x 4.262790 0.000000 0.095080 
#    y 0.000000 5.182680 0.000000 
#    z 0.095080 0.000000 4.158240 
# 
# 
# High freq. dielectric constant tensor:
#      x y z
#    x 1.943610 0.000000 0.013260 
#    y 0.000000 1.964780 0.000000 
#    z 0.013260 0.000000 1.942840 
# 
# From -- ./inp_files/81188.got.cif
#   From: 2010.06.25/outbox.cif.g09.slc.cpg/sg10_41_cif.got.tgz:81188.got - 2010.06.27 22:07:45.
