data_PCOD8062888
_publ_section_title
;
Structure prediction by ZEFSAII (Michael W. Deem and Ramdas Pophale) SiO2 
 PCOD8062888
Probable space group: P 2/M
;
_chemical_formula_sum "Si O2"
_cell_formula_units_Z 32
_cell_length_a 13.895463
_cell_length_b 9.044156
_cell_length_c 18.789226
_cell_angle_alpha 90.000000
_cell_angle_beta 131.353949
_cell_angle_gamma 90.000000
_cell_volume 1772.486845
_symmetry_space_group_name_H-M "P 2/M"
_symmetry_group_IT_number 10
_symmetry_cell_setting 'monoclinic'
loop_
_space_group_symop_operation_xyz
x,y,z
-x,y,-z
-x,-y,-z
x,-y,z
loop_
_atom_site_type_symbol
_atom_site_label
_atom_site_fract_x
_atom_site_fract_y
_atom_site_fract_z
Si Si1 0.508910 0.324451 0.834932
Si Si2 0.986068 0.170186 0.828758
Si Si3 0.735556 0.670541 0.542557
Si Si4 0.270805 0.173529 0.975060
Si Si5 0.009234 0.667583 0.697298
Si Si6 0.486117 0.676134 0.663635
Si Si7 0.289531 0.670065 0.833864
Si Si8 0.263539 0.325080 0.295056
O O1 0.525783 0.500000 0.845736
O O2 0.478373 0.267464 0.740689
O O3 0.392775 0.269989 0.828285
O O4 0.639873 0.249416 0.923262
O O5 0.002018 0.210563 0.754333
O O6 0.868064 0.262633 0.804460
O O7 0.125226 0.204841 0.931217
O O8 0.950054 0.000000 0.819070
O O9 0.697557 0.500000 0.527398
O O10 0.883028 0.692661 0.586023
O O11 0.634864 0.745316 0.439006
O O12 0.722869 0.733332 0.616849
O O13 0.299661 0.239548 0.911457
O O14 0.298460 0.000000 0.984153
O O15 0.998996 0.500000 0.724583
O O16 0.147956 0.685978 0.727554
O O17 0.482823 0.500000 0.660808
O O18 0.616338 0.735048 0.691007
O O19 0.317997 0.500000 0.866984
O O20 0.255503 0.500000 0.288290
#
# Coordination Sequence:
#
# PCOD8062888 Si02
#       8
#     4   4   4   4   4   4   4   4
#     4  10  20  32  46  66  95 127 154 187 229 268
#     4   9  17  29  46  69  93 114 143 189 238 275
#     4   8  13  24  46  72  93 117 152 190 223 260
#     4  10  20  33  50  70  90 117 154 192 230 275
#     4   8  14  26  46  70  93 118 149 184 223 268
#     4   9  17  29  45  68  96 124 156 189 222 265
#     4   9  17  30  48  71  96 120 150 188 229 270
#     4   9  16  28  49  72  92 119 154 189 224 267
#
# _framework density 18.053730999999999
#
# number of rings (size 3 to 8) (size 9 to 14) (size 15 to 20)
#    0.000    3.000    0.000    2.250    0.000    5.000 
#    0.000    1.875    0.000   16.500    0.000    0.000 
#    0.000   14.000    0.000    0.000    0.000    0.000 
#
# Total GULP energy -396462.588862 kJ/mol
# GULP energy per Si atom -12389.455902 kJ/mol
# Density = 1.801264 g / cm^3
# Si number density = 18.053731 Si / 1000 Ang^3
#
#
#
# Elastic Constant Matrix: (Units=GPa)
#
#
# Indices 1 2 3 4 5 6 
#
# 1 59.3368 16.2776 64.6820 0.0000 13.0924 0.0000
# 2 16.2776 28.9484 27.2920 0.0000 5.3058 0.0000
# 3 64.6820 27.2920 115.0013 0.0000 20.4132 0.0000
# 4 0.0000 0.0000 0.0000 8.7856 0.0000 6.5702
# 5 13.0924 5.3058 20.4132 0.0000 29.6357 0.0000
# 6 0.0000 0.0000 0.0000 6.5702 0.0000 11.8615
#
#
#
# Elastic Compliance Matrix: (Units=1/GPa)
#
#
# Indices 1 2 3 4 5 6 
#
# 1 0.043819 -0.001753 -0.023754 0.000000 -0.002683 0.000000
# 2 -0.001753 0.044587 -0.009474 0.000000 -0.000682 0.000000
# 3 -0.023754 -0.009474 0.025224 0.000000 -0.005185 0.000000
# 4 0.000000 0.000000 0.000000 0.194312 0.000000 -0.107631
# 5 -0.002683 -0.000682 -0.005185 0.000000 0.038622 0.000000
# 6 0.000000 0.000000 0.000000 -0.107631 0.000000 0.143923
#
#
# Mechanical properties :
#
#
# Convention : Reuss Voigt Hill
#
# Bulk Modulus (GPa) = 22.89966 46.64328 34.77147
# Shear Modulus (GPa) = 8.69554 16.39221 12.54388
#
# Velocity S-wave (km/s) = 2.19703 3.01652 2.63878
# Velocity P-wave (km/s) = 4.37580 6.16639 5.34659
#
# Compressibility (1/GPa) = 0.04366878
#
# Stress axis : x y z
#
# Youngs Moduli (GPa) = 22.82095 22.42794 39.64404
#
# Poissons Ratio (x) = 0.03932 0.94170
# Poissons Ratio (y) = 0.04001 0.37560
# Poissons Ratio (z) = 0.54208 0.21249
#
# Static dielectric constant tensor:
#      x y z
#    x 3.415720 0.000000 0.405540 
#    y 0.000000 3.020450 0.000000 
#    z 0.405540 0.000000 3.605130 
# 
# 
# High freq. dielectric constant tensor:
#      x y z
#    x 1.684900 0.000000 0.036500 
#    y 0.000000 1.665710 0.000000 
#    z 0.036500 0.000000 1.697280 
# 
# From -- ./inp_files/66185.got.cif
#   From: 2010.06.25/outbox.cif.g09.slc.cpg/sg10_34_cif.got.tgz:66185.got - 2010.06.27 22:07:45.
