data_PCOD8062503
_publ_section_title
;
Structure prediction by ZEFSAII (Michael W. Deem and Ramdas Pophale) SiO2 
 PCOD8062503
Probable space group: P 2/M
;
_chemical_formula_sum "Si O2"
_cell_formula_units_Z 24
_cell_length_a 22.758748
_cell_length_b 9.361266
_cell_length_c 10.961384
_cell_angle_alpha 90.000000
_cell_angle_beta 148.228677
_cell_angle_gamma 90.000000
_cell_volume 1229.622371
_symmetry_space_group_name_H-M "P 2/M"
_symmetry_group_IT_number 10
_symmetry_cell_setting 'monoclinic'
loop_
_space_group_symop_operation_xyz
x,y,z
-x,y,-z
-x,-y,-z
x,-y,z
loop_
_atom_site_type_symbol
_atom_site_label
_atom_site_fract_x
_atom_site_fract_y
_atom_site_fract_z
Si Si1 0.707794 0.667133 0.107404
Si Si2 0.036814 0.667365 0.432072
Si Si3 0.294090 0.837733 0.382416
Si Si4 0.627411 0.839468 0.744137
Si Si5 0.520864 0.159330 0.896180
Si Si6 0.075336 0.669106 0.016782
O O1 0.683829 0.500000 0.065705
O O2 0.834414 0.702340 0.366273
O O3 0.684953 0.727119 0.933649
O O4 0.627327 0.741650 0.062507
O O5 0.014114 0.500000 0.399167
O O6 0.000000 0.733783 0.500000
O O7 0.972001 0.727441 0.197623
O O8 0.298375 0.832681 0.244866
O O9 0.411242 0.775464 0.638592
O O10 0.276525 0.000000 0.398818
O O11 0.194352 0.739932 0.253823
O O12 0.500000 0.791579 0.500000
O O13 0.629108 0.000000 0.801786
O O14 0.543320 0.000000 0.882811
O O15 0.500000 0.151615 0.000000
O O16 0.090329 0.500000 0.037610
O O17 0.000000 0.712560 0.000000
#
# Coordination Sequence:
#
# PCOD8062503 Si02
#       6
#     4   4   4   4   4   4
#     4  11  22  35  59  90 117 147 191 241 286 343
#     4   9  19  37  57  80 116 155 188 231 289 344
#     4  10  21  38  60  85 113 149 192 239 285 336
#     4  10  19  36  58  81 117 154 184 228 287 344
#     4  10  22  40  59  81 115 159 194 230 291 350
#     4  10  22  39  60  84 113 153 194 237 294 350
#
# _framework density 19.518187000000001
#
# number of rings (size 3 to 8) (size 9 to 14) (size 15 to 20)
#    0.000    2.000    1.667    1.500    2.333    3.667 
#    0.000    1.667    0.000    4.500    0.000    0.000 
#    0.000    0.000    0.000    0.000    0.000    0.000 
#
# Total GULP energy -297547.986573 kJ/mol
# GULP energy per Si atom -12397.832774 kJ/mol
# Density = 1.947376 g / cm^3
# Si number density = 19.518187 Si / 1000 Ang^3
#
#
#
# Elastic Constant Matrix: (Units=GPa)
#
#
# Indices 1 2 3 4 5 6 
#
# 1 118.5015 31.5815 38.8978 0.0000 4.0577 0.0000
# 2 31.5815 57.5617 37.8390 0.0000 14.1380 0.0000
# 3 38.8978 37.8390 85.5686 0.0000 5.0426 0.0000
# 4 0.0000 0.0000 0.0000 19.5634 0.0000 13.5604
# 5 4.0577 14.1380 5.0426 0.0000 30.3975 0.0000
# 6 0.0000 0.0000 0.0000 13.5604 0.0000 1.9670
#
#
#
# Elastic Compliance Matrix: (Units=1/GPa)
#
#
# Indices 1 2 3 4 5 6 
#
# 1 0.010468 -0.003965 -0.003061 0.000000 0.000955 0.000000
# 2 -0.003965 0.029189 -0.010438 0.000000 -0.011315 0.000000
# 3 -0.003061 -0.010438 0.017555 0.000000 0.002351 0.000000
# 4 0.000000 0.000000 0.000000 -0.013528 0.000000 0.093260
# 5 0.000955 -0.011315 0.002351 0.000000 0.037643 0.000000
# 6 0.000000 0.000000 0.000000 0.093260 0.000000 -0.134546
#
#
# Mechanical properties :
#
#
# Convention : Reuss Voigt Hill
#
# Bulk Modulus (GPa) = 44.87796 53.14093 49.00945
# Shear Modulus (GPa) = -460.34331 20.60646 -219.86843
#
# Velocity S-wave (km/s) = -15.37418 3.25277 -10.62509
# Velocity P-wave (km/s) = 17.09126 6.43372 11.19639
#
# Compressibility (1/GPa) = 0.02228265
#
# Stress axis : x y z
#
# Youngs Moduli (GPa) = 95.53267 34.25931 56.96267
#
# Poissons Ratio (x) = 0.13585 0.17437
# Poissons Ratio (y) = 0.37882 0.59459
# Poissons Ratio (z) = 0.29244 0.35761
#
# Static dielectric constant tensor:
#      x y z
#    x 3.658200 0.000000 -0.048880 
#    y 0.000000 3.363330 0.000000 
#    z -0.048880 0.000000 3.783630 
# 
# 
# High freq. dielectric constant tensor:
#      x y z
#    x 1.773710 0.000000 -0.000350 
#    y 0.000000 1.732970 0.000000 
#    z -0.000350 0.000000 1.765760 
# 
# From -- ./inp_files/45051.got.cif
#   From: 2010.06.25/outbox.cif.g09.slc.cpg/sg10_23_cif.got.tgz:45051.got - 2010.06.27 22:07:45.
