data_PCOD8062016
_publ_section_title
;
Structure prediction by ZEFSAII (Michael W. Deem and Ramdas Pophale) SiO2 
 PCOD8062016
Probable space group: P 2/M
;
_chemical_formula_sum "Si O2"
_cell_formula_units_Z 32
_cell_length_a 15.777182
_cell_length_b 15.002024
_cell_length_c 21.618975
_cell_angle_alpha 90.000000
_cell_angle_beta 162.387823
_cell_angle_gamma 90.000000
_cell_volume 1548.259641
_symmetry_space_group_name_H-M "P 2/M"
_symmetry_group_IT_number 10
_symmetry_cell_setting 'monoclinic'
loop_
_space_group_symop_operation_xyz
x,y,z
-x,y,-z
-x,-y,-z
x,-y,z
loop_
_atom_site_type_symbol
_atom_site_label
_atom_site_fract_x
_atom_site_fract_y
_atom_site_fract_z
Si Si1 0.130476 0.602230 0.412287
Si Si2 0.767749 0.718246 0.086002
Si Si3 0.591021 0.097508 0.371998
Si Si4 0.243354 0.599481 0.120064
Si Si5 0.328801 0.896308 0.319988
Si Si6 0.202704 0.143669 0.784471
Si Si7 0.843715 0.301857 0.327936
Si Si8 0.202491 0.780787 0.026499
O O1 0.045075 0.500000 0.352252
O O2 0.463094 0.616584 0.641894
O O3 0.015159 0.646429 0.268544
O O4 0.999944 0.643842 0.383403
O O5 0.784463 0.779864 0.156517
O O6 0.474337 0.664560 0.882470
O O7 0.803873 0.782532 0.051847
O O8 0.513739 0.124951 0.388262
O O9 0.482414 0.172317 0.248547
O O10 0.926762 0.084660 0.601579
O O11 0.461621 0.000000 0.266193
O O12 0.239622 0.500000 0.086930
O O13 0.193148 0.675796 0.034667
O O14 0.000000 0.608102 0.000000
O O15 0.500000 0.868907 0.500000
O O16 0.240109 0.000000 0.261331
O O17 0.054581 0.835496 0.123652
O O18 0.175173 0.195462 0.699777
O O19 0.500000 0.089460 0.000000
O O20 0.000000 0.318561 0.500000
#
# Coordination Sequence:
#
# PCOD8062016 Si02
#       8
#     4   4   4   4   4   4   4   4
#     4  10  21  38  58  82 116 153 191 242 299 349
#     4  10  21  35  56  84 113 151 193 237 286 346
#     4  11  22  37  59  87 118 151 193 245 294 346
#     4  10  22  39  58  82 113 150 193 240 287 342
#     4  10  22  39  60  90 123 153 193 244 294 347
#     4   9  19  36  56  78 112 154 193 234 286 344
#     4  10  19  34  57  85 114 148 194 242 290 344
#     4  12  22  36  61  86 116 155 195 236 295 353
#
# _framework density 20.668367
#
# number of rings (size 3 to 8) (size 9 to 14) (size 15 to 20)
#    0.000    1.750    0.000    6.375    0.000    4.000 
#    0.000    0.625    0.000   10.500    0.000    0.000 
#    0.000    0.000    0.000    0.000    0.000    0.000 
#
# Total GULP energy -396637.448779 kJ/mol
# GULP energy per Si atom -12394.920274 kJ/mol
# Density = 2.062132 g / cm^3
# Si number density = 20.668367 Si / 1000 Ang^3
#
#
#
# Elastic Constant Matrix: (Units=GPa)
#
#
# Indices 1 2 3 4 5 6 
#
# 1 90.2450 29.3765 45.5429 0.0000 -5.3295 0.0000
# 2 29.3765 89.9613 43.3958 0.0000 -5.5347 0.0000
# 3 45.5429 43.3958 129.1561 0.0000 10.0085 0.0000
# 4 0.0000 0.0000 0.0000 54.6365 0.0000 -32.4862
# 5 -5.3295 -5.5347 10.0085 0.0000 41.9961 0.0000
# 6 0.0000 0.0000 0.0000 -32.4862 0.0000 54.8629
#
#
#
# Elastic Compliance Matrix: (Units=1/GPa)
#
#
# Indices 1 2 3 4 5 6 
#
# 1 0.014231 -0.002356 -0.004424 0.000000 0.002550 0.000000
# 2 -0.002356 0.014003 -0.004069 0.000000 0.002516 0.000000
# 3 -0.004424 -0.004069 0.010957 0.000000 -0.003709 0.000000
# 4 0.000000 0.000000 0.000000 0.028248 0.000000 0.016727
# 5 0.002550 0.002516 -0.003709 0.000000 0.025351 0.000000
# 6 0.000000 0.000000 0.000000 0.016727 0.000000 0.028132
#
#
# Mechanical properties :
#
#
# Convention : Reuss Voigt Hill
#
# Bulk Modulus (GPa) = 57.16692 60.66587 58.91640
# Shear Modulus (GPa) = 33.68095 43.03559 38.35827
#
# Velocity S-wave (km/s) = 4.04120 4.56806 4.31268
# Velocity P-wave (km/s) = 7.03521 7.56562 7.30523
#
# Compressibility (1/GPa) = 0.01749263
#
# Stress axis : x y z
#
# Youngs Moduli (GPa) = 70.26833 71.41357 91.26413
#
# Poissons Ratio (x) = 0.16826 0.40376
# Poissons Ratio (y) = 0.16556 0.37136
# Poissons Ratio (z) = 0.31088 0.29059
#
# Static dielectric constant tensor:
#      x y z
#    x 3.773430 0.000000 0.094960 
#    y 0.000000 3.745890 0.000000 
#    z 0.094960 0.000000 4.201290 
# 
# 
# High freq. dielectric constant tensor:
#      x y z
#    x 1.797450 0.000000 0.005620 
#    y 0.000000 1.798940 0.000000 
#    z 0.005620 0.000000 1.826750 
# 
# From -- ./inp_files/85426.got.cif
#   From: 2010.06.25/outbox.cif.g09.slc.cpg/sg10_43_cif.got.tgz:85426.got - 2010.06.27 22:07:45.
