data_PCOD8062084
_publ_section_title
;
Structure prediction by ZEFSAII (Michael W. Deem and Ramdas Pophale) SiO2 
 PCOD8062084
Probable space group: P 2/M
;
_chemical_formula_sum "Si O2"
_cell_formula_units_Z 32
_cell_length_a 20.203527
_cell_length_b 9.041857
_cell_length_c 26.024802
_cell_angle_alpha 90.000000
_cell_angle_beta 158.953949
_cell_angle_gamma 90.000000
_cell_volume 1707.299313
_symmetry_space_group_name_H-M "P 2/M"
_symmetry_group_IT_number 10
_symmetry_cell_setting 'monoclinic'
loop_
_space_group_symop_operation_xyz
x,y,z
-x,y,-z
-x,-y,-z
x,-y,z
loop_
_atom_site_type_symbol
_atom_site_label
_atom_site_fract_x
_atom_site_fract_y
_atom_site_fract_z
Si Si1 0.111392 0.326159 0.384138
Si Si2 0.214887 0.172375 0.160558
Si Si3 0.491363 0.326424 0.286863
Si Si4 0.306458 0.175893 0.339461
Si Si5 0.202632 0.824964 0.789402
Si Si6 0.586409 0.826480 0.873216
Si Si7 0.994860 0.826347 0.798438
Si Si8 0.477549 0.825495 0.904400
O O1 0.080730 0.500000 0.359863
O O2 0.323069 0.284770 0.548288
O O3 0.989582 0.259142 0.342209
O O4 0.049296 0.256528 0.285810
O O5 0.317753 0.258426 0.190284
O O6 0.278636 0.235597 0.261780
O O7 0.261681 0.000000 0.188259
O O8 0.000000 0.202582 0.000000
O O9 0.463401 0.500000 0.262410
O O10 0.502976 0.261159 0.238263
O O11 0.500000 0.238930 0.500000
O O12 0.143864 0.232921 0.258429
O O13 0.304612 0.000000 0.337394
O O14 0.287746 0.780192 0.795402
O O15 0.168762 0.000000 0.768616
O O16 0.344274 0.766783 0.935624
O O17 0.481296 0.769472 0.848455
O O18 0.556521 0.000000 0.842351
O O19 0.801793 0.788983 0.034578
O O20 0.970760 0.000000 0.770401
O O21 0.497854 0.000000 0.920003
#
# Coordination Sequence:
#
# PCOD8062084 Si02
#       8
#     4   4   4   4   4   4   4   4
#     4  11  23  37  52  78 116 153 189 224 264 323
#     4  10  20  37  60  82 103 135 182 233 279 325
#     4  11  25  40  53  76 115 157 189 221 267 326
#     4   9  17  29  49  79 107 129 164 217 272 323
#     4   9  16  32  58  84 110 141 177 225 281 328
#     4  10  19  35  58  84 108 138 184 234 277 325
#     4  10  19  34  59  84 106 137 179 229 283 330
#     4   8  15  30  56  87 112 134 173 232 283 323
#
# _framework density 18.743053
#
# number of rings (size 3 to 8) (size 9 to 14) (size 15 to 20)
#    0.000    2.250    1.250    3.000    0.000    5.750 
#    0.000    3.125    0.000    6.000    0.000    0.000 
#    0.000    0.000    0.000    0.000    0.000    0.000 
#
# Total GULP energy -396805.183218 kJ/mol
# GULP energy per Si atom -12400.161976 kJ/mol
# Density = 1.870039 g / cm^3
# Si number density = 18.743053 Si / 1000 Ang^3
#
#
#
# Elastic Constant Matrix: (Units=GPa)
#
#
# Indices 1 2 3 4 5 6 
#
# 1 131.7786 31.1203 30.9683 0.0000 3.2621 0.0000
# 2 31.1203 49.4971 34.4128 0.0000 1.0051 0.0000
# 3 30.9683 34.4128 60.2776 0.0000 -7.4946 0.0000
# 4 0.0000 0.0000 0.0000 21.6169 0.0000 -3.0660
# 5 3.2621 1.0051 -7.4946 0.0000 29.0027 0.0000
# 6 0.0000 0.0000 0.0000 -3.0660 0.0000 7.0423
#
#
#
# Elastic Compliance Matrix: (Units=1/GPa)
#
#
# Indices 1 2 3 4 5 6 
#
# 1 0.009175 -0.003848 -0.002716 0.000000 -0.001600 0.000000
# 2 -0.003848 0.036268 -0.019457 0.000000 -0.005852 0.000000
# 3 -0.002716 -0.019457 0.030185 0.000000 0.008780 0.000000
# 4 0.000000 0.000000 0.000000 0.049305 0.000000 0.021466
# 5 -0.001600 -0.005852 0.008780 0.000000 0.037131 0.000000
# 6 0.000000 0.000000 0.000000 0.021466 0.000000 0.151346
#
#
# Mechanical properties :
#
#
# Convention : Reuss Voigt Hill
#
# Bulk Modulus (GPa) = 42.39544 48.28399 45.33971
# Shear Modulus (GPa) = 13.39359 21.20250 17.29804
#
# Velocity S-wave (km/s) = 2.67608 3.36701 3.04123
# Velocity P-wave (km/s) = 5.67600 6.39786 6.04771
#
# Compressibility (1/GPa) = 0.02358744
#
# Stress axis : x y z
#
# Youngs Moduli (GPa) = 108.99100 27.57220 33.12925
#
# Poissons Ratio (x) = 0.10609 0.08998
# Poissons Ratio (y) = 0.41938 0.64458
# Poissons Ratio (z) = 0.29603 0.53646
#
# Static dielectric constant tensor:
#      x y z
#    x 3.866400 0.000000 0.087910 
#    y 0.000000 3.090820 0.000000 
#    z 0.087910 0.000000 3.442190 
# 
# 
# High freq. dielectric constant tensor:
#      x y z
#    x 1.746320 0.000000 0.006950 
#    y 0.000000 1.692430 0.000000 
#    z 0.006950 0.000000 1.722980 
# 
# From -- ./inp_files/93814.got.cif
#   From: 2010.06.25/outbox.cif.g09.slc.cpg/sg10_47_cif.got.tgz:93814.got - 2010.06.27 22:07:45.
