data_PCOD8062788
_publ_section_title
;
Structure prediction by ZEFSAII (Michael W. Deem and Ramdas Pophale) SiO2 
 PCOD8062788
Probable space group: P 2/M
;
_chemical_formula_sum "Si O2"
_cell_formula_units_Z 32
_cell_length_a 27.379387
_cell_length_b 12.548447
_cell_length_c 20.088279
_cell_angle_alpha 90.000000
_cell_angle_beta 16.630146
_cell_angle_gamma 90.000000
_cell_volume 1975.216712
_symmetry_space_group_name_H-M "P 2/M"
_symmetry_group_IT_number 10
_symmetry_cell_setting 'monoclinic'
loop_
_space_group_symop_operation_xyz
x,y,z
-x,y,-z
-x,-y,-z
x,-y,z
loop_
_atom_site_type_symbol
_atom_site_label
_atom_site_fract_x
_atom_site_fract_y
_atom_site_fract_z
Si Si1 0.133336 0.236481 0.377890
Si Si2 0.692855 0.876815 0.731527
Si Si3 0.957758 0.626327 0.162204
Si Si4 0.030780 0.620481 0.303360
Si Si5 0.783865 0.305353 0.517194
Si Si6 0.743197 0.374013 0.315572
Si Si7 0.425409 0.621341 0.934557
Si Si8 0.600775 0.623138 0.185951
O O1 0.193794 0.147435 0.351330
O O2 0.000000 0.182955 0.500000
O O3 0.025802 0.326922 0.554645
O O4 0.293989 0.291832 0.133325
O O5 0.757001 0.812280 0.582993
O O6 0.709298 0.000000 0.691436
O O7 0.500000 0.843633 0.000000
O O8 0.937024 0.500000 0.205496
O O9 0.902054 0.698194 0.297418
O O10 0.844274 0.664533 0.248659
O O11 0.154880 0.655339 0.885338
O O12 0.070821 0.500000 0.270766
O O13 0.884106 0.624664 0.440204
O O14 0.212089 0.673107 0.042703
O O15 0.605504 0.362160 0.735849
O O16 0.735120 0.500000 0.331647
O O17 0.550345 0.325251 0.570777
O O18 0.364298 0.500000 0.028787
O O19 0.451031 0.640940 0.823065
O O20 0.607451 0.500000 0.195891
#
# Coordination Sequence:
#
# PCOD8062788 Si02
#       8
#     4   4   4   4   4   4   4   4
#     4  11  21  33  49  72  95 125 164 196 234 284
#     4  10  22  40  54  67  90 119 157 208 256 287
#     4   9  15  25  43  69  99 125 157 196 224 269
#     4  10  20  29  41  65 102 134 157 192 229 269
#     4  11  20  32  49  70  91 126 165 197 232 284
#     4   8  14  24  41  65  95 132 164 189 222 263
#     4  11  19  28  46  71 102 136 162 185 218 275
#     4   9  16  27  41  62  96 137 164 185 221 263
#
# _framework density 16.200755000000001
#
# number of rings (size 3 to 8) (size 9 to 14) (size 15 to 20)
#    0.000    2.125    3.750    2.250    0.000    0.750 
#    0.000    2.500    0.000    3.000    0.000    1.750 
#    0.000    4.000    0.000    0.000    0.000    0.000 
#
# Total GULP energy -396524.516813 kJ/mol
# GULP energy per Si atom -12391.391150 kJ/mol
# Density = 1.616388 g / cm^3
# Si number density = 16.200755 Si / 1000 Ang^3
#
#
#
# Elastic Constant Matrix: (Units=GPa)
#
#
# Indices 1 2 3 4 5 6 
#
# 1 69.2558 19.5845 34.3274 0.0000 -3.0480 0.0000
# 2 19.5845 42.5071 20.6938 0.0000 7.0611 0.0000
# 3 34.3274 20.6938 125.1190 0.0000 1.8992 0.0000
# 4 0.0000 0.0000 0.0000 10.9070 0.0000 1.6112
# 5 -3.0480 7.0611 1.8992 0.0000 34.9930 0.0000
# 6 0.0000 0.0000 0.0000 1.6112 0.0000 11.9015
#
#
#
# Elastic Compliance Matrix: (Units=1/GPa)
#
#
# Indices 1 2 3 4 5 6 
#
# 1 0.018575 -0.007176 -0.003959 0.000000 0.003281 0.000000
# 2 -0.007176 0.029239 -0.002770 0.000000 -0.006375 0.000000
# 3 -0.003959 -0.002770 0.009541 0.000000 -0.000304 0.000000
# 4 0.000000 0.000000 0.000000 0.093555 0.000000 -0.012665
# 5 0.003281 -0.006375 -0.000304 0.000000 0.030166 0.000000
# 6 0.000000 0.000000 0.000000 -0.012665 0.000000 0.085738
#
#
# Mechanical properties :
#
#
# Convention : Reuss Voigt Hill
#
# Bulk Modulus (GPa) = 33.84661 42.89925 38.37293
# Shear Modulus (GPa) = 16.42176 22.37871 19.40024
#
# Velocity S-wave (km/s) = 3.18723 3.72067 3.46423
# Velocity P-wave (km/s) = 5.87213 6.70784 6.30385
#
# Compressibility (1/GPa) = 0.02954506
#
# Stress axis : x y z
#
# Youngs Moduli (GPa) = 53.83501 34.20045 104.80570
#
# Poissons Ratio (x) = 0.24542 0.41495
# Poissons Ratio (y) = 0.38631 0.29036
# Poissons Ratio (z) = 0.21315 0.09475
#
# Static dielectric constant tensor:
#      x y z
#    x 3.064660 0.000000 -0.058860 
#    y 0.000000 2.543650 0.000000 
#    z -0.058860 0.000000 3.644570 
# 
# 
# High freq. dielectric constant tensor:
#      x y z
#    x 1.619960 0.000000 -0.005240 
#    y 0.000000 1.555010 0.000000 
#    z -0.005240 0.000000 1.647200 
# 
# From -- ./inp_files/32164.got.cif
#   From: 2010.06.25/outbox.cif.g09.slc.cpg/sg10_17_cif.got.tgz:32164.got - 2010.06.27 22:07:45.
