data_PCOD8062527
_publ_section_title
;
Structure prediction by ZEFSAII (Michael W. Deem and Ramdas Pophale) SiO2 
 PCOD8062527
Probable space group: P 2/M
;
_chemical_formula_sum "Si O2"
_cell_formula_units_Z 24
_cell_length_a 9.559985
_cell_length_b 8.822324
_cell_length_c 30.232439
_cell_angle_alpha 90.000000
_cell_angle_beta 151.693206
_cell_angle_gamma 90.000000
_cell_volume 1209.116594
_symmetry_space_group_name_H-M "P 2/M"
_symmetry_group_IT_number 10
_symmetry_cell_setting 'monoclinic'
loop_
_space_group_symop_operation_xyz
x,y,z
-x,y,-z
-x,-y,-z
x,-y,z
loop_
_atom_site_type_symbol
_atom_site_label
_atom_site_fract_x
_atom_site_fract_y
_atom_site_fract_z
Si Si1 0.743874 0.180772 0.959633
Si Si2 0.898901 0.179648 0.247243
Si Si3 0.227153 0.322671 0.259918
Si Si4 0.170858 0.179514 0.414831
Si Si5 0.165189 0.833017 0.918116
Si Si6 0.838891 0.178783 0.409962
O O1 0.423849 0.244258 0.855718
O O2 0.728466 0.000000 0.954068
O O3 0.843764 0.237763 0.035505
O O4 0.000000 0.245916 0.000000
O O5 0.150476 0.246960 0.285512
O O6 0.968800 0.228772 0.317009
O O7 0.912307 0.000000 0.245351
O O8 0.250848 0.500000 0.273905
O O9 0.526564 0.260022 0.322699
O O10 0.974321 0.285316 0.154314
O O11 0.500000 0.247549 0.500000
O O12 0.026610 0.240287 0.420240
O O13 0.193105 0.000000 0.423915
O O14 0.008323 0.000000 0.871935
O O15 0.500000 0.859428 0.000000
O O16 0.000000 0.224080 0.500000
O O17 0.788656 0.000000 0.392461
#
# Coordination Sequence:
#
# PCOD8062527 Si02
#       6
#     4   4   4   4   4   4
#     4   9  18  31  54  86 112 141 185 243 296 336
#     4  10  19  36  59  83 113 150 195 241 288 340
#     4  12  25  38  56  84 121 160 196 234 285 344
#     4   9  18  33  59  92 117 140 180 239 295 341
#     4  10  19  36  60  84 111 148 197 243 287 335
#     4  10  21  39  65  93 117 146 189 240 290 342
#
# _framework density 19.849201000000001
#
# number of rings (size 3 to 8) (size 9 to 14) (size 15 to 20)
#    0.000    2.000    1.667    2.500    2.333    3.333 
#    0.000    0.833    0.000    3.000    0.000    0.000 
#    0.000    0.000    0.000    0.000    0.000    0.000 
#
# Total GULP energy -297579.998367 kJ/mol
# GULP energy per Si atom -12399.166599 kJ/mol
# Density = 1.980402 g / cm^3
# Si number density = 19.849201 Si / 1000 Ang^3
#
#
#
# Elastic Constant Matrix: (Units=GPa)
#
#
# Indices 1 2 3 4 5 6 
#
# 1 188.8892 26.4703 61.0522 0.0000 -6.6763 0.0000
# 2 26.4703 31.2294 24.7397 0.0000 -1.1792 0.0000
# 3 61.0522 24.7397 94.0141 0.0000 -1.4145 0.0000
# 4 0.0000 0.0000 0.0000 5.5171 0.0000 -0.4323
# 5 -6.6763 -1.1792 -1.4145 0.0000 40.8310 0.0000
# 6 0.0000 0.0000 0.0000 -0.4323 0.0000 6.8684
#
#
#
# Elastic Compliance Matrix: (Units=1/GPa)
#
#
# Indices 1 2 3 4 5 6 
#
# 1 0.006938 -0.002890 -0.003731 0.000000 0.000922 0.000000
# 2 -0.002890 0.041684 -0.009086 0.000000 0.000417 0.000000
# 3 -0.003731 -0.009086 0.015445 0.000000 -0.000337 0.000000
# 4 0.000000 0.000000 0.000000 0.182154 0.000000 0.011465
# 5 0.000922 0.000417 -0.000337 0.000000 0.024642 0.000000
# 6 0.000000 0.000000 0.000000 0.011465 0.000000 0.146317
#
#
# Mechanical properties :
#
#
# Convention : Reuss Voigt Hill
#
# Bulk Modulus (GPa) = 30.62471 59.85079 45.23775
# Shear Modulus (GPa) = 10.88190 24.10131 17.49161
#
# Velocity S-wave (km/s) = 2.34397 3.48835 2.97176
# Velocity P-wave (km/s) = 4.77365 6.81491 5.88348
#
# Compressibility (1/GPa) = 0.03265337
#
# Stress axis : x y z
#
# Youngs Moduli (GPa) = 144.14308 23.98978 64.74397
#
# Poissons Ratio (x) = 0.06933 0.24155
# Poissons Ratio (y) = 0.41657 0.58828
# Poissons Ratio (z) = 0.53778 0.21798
#
# Static dielectric constant tensor:
#      x y z
#    x 3.851240 0.000000 0.065260 
#    y 0.000000 3.078800 0.000000 
#    z 0.065260 0.000000 3.641870 
# 
# 
# High freq. dielectric constant tensor:
#      x y z
#    x 1.792850 0.000000 -0.003190 
#    y 0.000000 1.715940 0.000000 
#    z -0.003190 0.000000 1.783080 
# 
# From -- ./inp_files/27070.got.cif
#   From: 2010.06.25/outbox.cif.g09.slc.cpg/sg10_14_cif.got.tgz:27070.got - 2010.06.27 22:07:45.
