data_PCOD8062177
_publ_section_title
;
Structure prediction by ZEFSAII (Michael W. Deem and Ramdas Pophale) SiO2 
 PCOD8062177
Probable space group: P 2/M
;
_chemical_formula_sum "Si O2"
_cell_formula_units_Z 32
_cell_length_a 14.766133
_cell_length_b 8.775376
_cell_length_c 15.063800
_cell_angle_alpha 90.000000
_cell_angle_beta 59.983739
_cell_angle_gamma 90.000000
_cell_volume 1690.154854
_symmetry_space_group_name_H-M "P 2/M"
_symmetry_group_IT_number 10
_symmetry_cell_setting 'monoclinic'
loop_
_space_group_symop_operation_xyz
x,y,z
-x,y,-z
-x,-y,-z
x,-y,z
loop_
_atom_site_type_symbol
_atom_site_label
_atom_site_fract_x
_atom_site_fract_y
_atom_site_fract_z
Si Si1 0.392736 0.319012 0.006310
Si Si2 0.438752 0.179292 0.800500
Si Si3 0.661321 0.680097 0.662211
Si Si4 0.215733 0.679651 0.226073
Si Si5 0.292344 0.320830 0.732498
Si Si6 0.768381 0.680878 0.432017
Si Si7 0.938687 0.680221 0.112566
Si Si8 0.993982 0.681882 0.277055
O O1 0.391089 0.500000 0.998338
O O2 0.296659 0.256566 0.112879
O O3 0.500000 0.264364 0.000000
O O4 0.381055 0.250180 0.914019
O O5 0.557259 0.233907 0.739880
O O6 0.383794 0.231022 0.736624
O O7 0.434660 0.000000 0.810474
O O8 0.638421 0.500000 0.671486
O O9 0.747883 0.722104 0.693088
O O10 0.703335 0.743211 0.547533
O O11 0.211341 0.500000 0.215647
O O12 0.099300 0.749044 0.269867
O O13 0.315305 0.500000 0.727944
O O14 0.288000 0.268020 0.631577
O O15 0.183264 0.276888 0.832948
O O16 0.771989 0.500000 0.433411
O O17 0.888544 0.741271 0.377852
O O18 0.950847 0.500000 0.104687
O O19 0.990244 0.741706 0.177710
O O20 0.000000 0.755649 0.000000
O O21 0.994671 0.500000 0.279141
#
# Coordination Sequence:
#
# PCOD8062177 Si02
#       8
#     4   4   4   4   4   4   4   4
#     4  10  19  35  56  78 106 140 175 213 258 311
#     4  12  25  37  51  76 106 140 179 222 266 308
#     4  10  19  35  55  77 105 139 177 216 263 315
#     4   9  17  28  49  80 110 138 168 207 258 316
#     4   9  18  34  54  77 104 137 176 216 261 313
#     4   8  16  31  53  79 108 136 168 218 268 309
#     4   8  14  24  43  74 105 132 166 210 255 301
#     4   8  14  25  42  76 114 133 160 208 262 313
#
# _framework density 18.933177000000001
#
# number of rings (size 3 to 8) (size 9 to 14) (size 15 to 20)
#    0.000    2.750    1.250    2.625    1.750    1.250 
#    0.000    5.625    0.000    0.375    0.000    3.500 
#    0.000    0.000    0.000    0.000    0.000    0.000 
#
# Total GULP energy -396672.540051 kJ/mol
# GULP energy per Si atom -12396.016877 kJ/mol
# Density = 1.889008 g / cm^3
# Si number density = 18.933177 Si / 1000 Ang^3
#
#
#
# Elastic Constant Matrix: (Units=GPa)
#
#
# Indices 1 2 3 4 5 6 
#
# 1 92.5724 14.7222 11.9882 0.0000 13.0186 0.0000
# 2 14.7222 25.7074 12.2002 0.0000 2.8743 0.0000
# 3 11.9882 12.2002 107.5124 0.0000 16.0957 0.0000
# 4 0.0000 0.0000 0.0000 4.4640 0.0000 0.1942
# 5 13.0186 2.8743 16.0957 0.0000 21.0368 0.0000
# 6 0.0000 0.0000 0.0000 0.1942 0.0000 -0.7539
#
#
#
# Elastic Compliance Matrix: (Units=1/GPa)
#
#
# Indices 1 2 3 4 5 6 
#
# 1 0.012855 -0.006744 0.000435 0.000000 -0.007366 0.000000
# 2 -0.006744 0.044752 -0.004558 0.000000 0.001546 0.000000
# 3 0.000435 -0.004558 0.010974 0.000000 -0.008043 0.000000
# 4 0.000000 0.000000 0.000000 0.221534 0.000000 0.057062
# 5 -0.007366 0.001546 -0.008043 0.000000 0.058037 0.000000
# 6 0.000000 0.000000 0.000000 0.057062 0.000000 -1.311752
#
#
# Mechanical properties :
#
#
# Convention : Reuss Voigt Hill
#
# Bulk Modulus (GPa) = 21.34666 33.73484 27.54075
# Shear Modulus (GPa) = -5.39811 17.40814 6.00502
#
# Velocity S-wave (km/s) = -1.69036 3.03554 1.78286
# Velocity P-wave (km/s) = 2.73669 5.49022 4.33774
#
# Compressibility (1/GPa) = 0.04684573
#
# Stress axis : x y z
#
# Youngs Moduli (GPa) = 77.79346 22.34543 91.12390
#
# Poissons Ratio (x) = 0.15071 -0.03962
# Poissons Ratio (y) = 0.52467 0.41533
# Poissons Ratio (z) = -0.03382 0.10185
#
# Static dielectric constant tensor:
#      x y z
#    x 3.663000 0.000000 -0.001380 
#    y 0.000000 2.833270 0.000000 
#    z -0.001380 0.000000 3.893360 
# 
# 
# High freq. dielectric constant tensor:
#      x y z
#    x 1.744820 0.000000 0.001230 
#    y 0.000000 1.667050 0.000000 
#    z 0.001230 0.000000 1.745300 
# 
# From -- ./inp_files/66483.got.cif
#   From: 2010.06.25/outbox.cif.g09.slc.cpg/sg10_34_cif.got.tgz:66483.got - 2010.06.27 22:07:45.
