data_PCOD8062564
_publ_section_title
;
Structure prediction by ZEFSAII (Michael W. Deem and Ramdas Pophale) SiO2 
 PCOD8062564
Probable space group: P 2/M
;
_chemical_formula_sum "Si O2"
_cell_formula_units_Z 26
_cell_length_a 8.036079
_cell_length_b 20.486923
_cell_length_c 13.805805
_cell_angle_alpha 90.000000
_cell_angle_beta 34.189398
_cell_angle_gamma 90.000000
_cell_volume 1277.218315
_symmetry_space_group_name_H-M "P 2/M"
_symmetry_group_IT_number 10
_symmetry_cell_setting 'monoclinic'
loop_
_space_group_symop_operation_xyz
x,y,z
-x,y,-z
-x,-y,-z
x,-y,z
loop_
_atom_site_type_symbol
_atom_site_label
_atom_site_fract_x
_atom_site_fract_y
_atom_site_fract_z
Si Si1 0.582635 0.779235 0.298104
Si Si2 0.830490 0.332841 0.819207
Si Si3 0.073691 0.201308 0.672252
Si Si4 0.228859 0.359013 0.810460
Si Si5 0.168005 0.571390 0.518113
Si Si6 0.163270 0.928307 0.129915
Si Si7 0.000000 0.877219 0.000000
O O1 0.732675 0.777189 0.330204
O O2 0.240969 0.795455 0.487891
O O3 0.619842 0.709206 0.227485
O O4 0.716390 0.833425 0.163016
O O5 0.814527 0.256168 0.794101
O O6 0.034619 0.344151 0.811804
O O7 0.981593 0.374904 0.663656
O O8 0.500000 0.357487 0.000000
O O9 0.980300 0.126797 0.733887
O O10 0.488049 0.409673 0.662162
O O11 0.000000 0.387123 0.000000
O O12 0.167623 0.500000 0.570309
O O13 0.000000 0.563678 0.500000
O O14 0.107383 0.918258 0.041511
O O15 0.028531 0.000000 0.219157
O O16 0.500000 0.927690 0.000000
#
# Coordination Sequence:
#
# PCOD8062564 Si02
#       7
#     4   4   4   4   4   4   2
#     4   9  17  33  58  87 117 150 194 254 295 358
#     4  11  22  38  63  92 121 157 206 255 303 370
#     4   9  18  35  57  87 119 153 199 246 306 353
#     4  11  21  38  63  90 123 158 200 251 311 360
#     4  11  25  44  62  88 125 161 202 252 307 370
#     4  10  21  38  58  83 121 161 200 249 305 369
#     4  10  19  36  60  86 117 158 204 250 307 362
#
# _framework density 20.356738
#
# number of rings (size 3 to 8) (size 9 to 14) (size 15 to 20)
#    0.000    1.846    2.308    2.077    0.000    1.846 
#    2.769    7.692    0.000    1.846    0.000    0.000 
#    0.000    0.000    0.000    0.000    0.000    0.000 
#
# Total GULP energy -322147.903379 kJ/mol
# GULP energy per Si atom -12390.303976 kJ/mol
# Density = 2.031041 g / cm^3
# Si number density = 20.356738 Si / 1000 Ang^3
#
#
#
# Elastic Constant Matrix: (Units=GPa)
#
#
# Indices 1 2 3 4 5 6 
#
# 1 55.0473 32.8566 21.6601 0.0000 -10.0968 0.0000
# 2 32.8566 144.5459 57.3961 0.0000 -0.5027 0.0000
# 3 21.6601 57.3961 144.9786 0.0000 -4.2375 0.0000
# 4 0.0000 0.0000 0.0000 7.5709 0.0000 6.1025
# 5 -10.0968 -0.5027 -4.2375 0.0000 24.3040 0.0000
# 6 0.0000 0.0000 0.0000 6.1025 0.0000 22.5484
#
#
#
# Elastic Compliance Matrix: (Units=1/GPa)
#
#
# Indices 1 2 3 4 5 6 
#
# 1 0.023213 -0.004716 -0.001329 0.000000 0.009314 0.000000
# 2 -0.004716 0.009171 -0.002993 0.000000 -0.002292 0.000000
# 3 -0.001329 -0.002993 0.008305 0.000000 0.000834 0.000000
# 4 0.000000 0.000000 0.000000 0.168939 0.000000 -0.045722
# 5 0.009314 -0.002292 0.000834 0.000000 0.045113 0.000000
# 6 0.000000 0.000000 0.000000 -0.045722 0.000000 0.056723
#
#
# Mechanical properties :
#
#
# Convention : Reuss Voigt Hill
#
# Bulk Modulus (GPa) = 44.22307 63.15527 53.68917
# Shear Modulus (GPa) = 14.83338 26.39527 20.61432
#
# Velocity S-wave (km/s) = 2.70232 3.60479 3.18567
# Velocity P-wave (km/s) = 5.61319 6.95828 6.32161
#
# Compressibility (1/GPa) = 0.02261263
#
# Stress axis : x y z
#
# Youngs Moduli (GPa) = 43.08022 109.04177 120.40448
#
# Poissons Ratio (x) = 0.51430 0.15996
# Poissons Ratio (y) = 0.20319 0.36037
# Poissons Ratio (z) = 0.05723 0.32636
#
# Static dielectric constant tensor:
#      x y z
#    x 3.532220 0.000000 0.045540 
#    y 0.000000 4.387170 0.000000 
#    z 0.045540 0.000000 3.971460 
# 
# 
# High freq. dielectric constant tensor:
#      x y z
#    x 1.783020 0.000000 -0.000060 
#    y 0.000000 1.799160 0.000000 
#    z -0.000060 0.000000 1.796740 
# 
# From -- ./inp_files/20428.got.cif
#   From: 2010.06.25/outbox.cif.g09.slc.cpg/sg10_11_cif.got.tgz:20428.got - 2010.06.27 22:07:45.
