data_PCOD8062662
_publ_section_title
;
Structure prediction by ZEFSAII (Michael W. Deem and Ramdas Pophale) SiO2 
 PCOD8062662
Probable space group: P 2/M
;
_chemical_formula_sum "Si O2"
_cell_formula_units_Z 20
_cell_length_a 10.033658
_cell_length_b 7.868366
_cell_length_c 23.528870
_cell_angle_alpha 90.000000
_cell_angle_beta 146.917431
_cell_angle_gamma 90.000000
_cell_volume 1013.948523
_symmetry_space_group_name_H-M "P 2/M"
_symmetry_group_IT_number 10
_symmetry_cell_setting 'monoclinic'
loop_
_space_group_symop_operation_xyz
x,y,z
-x,y,-z
-x,-y,-z
x,-y,z
loop_
_atom_site_type_symbol
_atom_site_label
_atom_site_fract_x
_atom_site_fract_y
_atom_site_fract_z
Si Si1 0.926111 0.809217 0.582629
Si Si2 0.051984 0.683973 0.289130
Si Si3 0.404236 0.500000 0.902217
Si Si4 0.540377 0.201952 0.253541
Si Si5 0.542081 0.802605 0.645661
Si Si6 0.287273 0.500000 0.096702
O O1 0.905308 0.811996 0.643664
O O2 0.694098 0.717551 0.469970
O O3 0.182893 0.728788 0.655127
O O4 0.931012 0.000000 0.561379
O O5 0.141593 0.500000 0.343722
O O6 0.205815 0.732628 0.288871
O O7 0.765808 0.668346 0.168655
O O8 0.630996 0.500000 0.939962
O O9 0.500000 0.500000 0.000000
O O10 0.459496 0.237683 0.288686
O O11 0.377986 0.323533 0.156575
O O12 0.511596 0.000000 0.227253
O O13 0.536105 0.000000 0.630335
O O14 0.000000 0.500000 0.000000
#
# Coordination Sequence:
#
# PCOD8062662 Si02
#       6
#     4   4   2   4   4   2
#     4  10  19  37  60  84 125 166 195 239 296 357
#     4  10  21  36  57  85 121 152 202 248 295 356
#     4  10  24  44  61  85 114 156 201 255 319 360
#     4  10  22  42  63  92 127 158 202 251 299 363
#     4  10  21  35  58  91 124 164 198 232 294 362
#     4  12  26  44  71  89 114 158 205 259 321 354
#
# _framework density 19.724865999999999
#
# number of rings (size 3 to 8) (size 9 to 14) (size 15 to 20)
#    0.600    1.200    2.000    1.800    4.200    6.000 
#    0.000    1.000    0.000    3.000    0.000    0.000 
#    0.000    0.000    0.000    0.000    0.000    0.000 
#
# Total GULP energy -247852.711036 kJ/mol
# GULP energy per Si atom -12392.635552 kJ/mol
# Density = 1.967997 g / cm^3
# Si number density = 19.724866 Si / 1000 Ang^3
#
#
#
# Elastic Constant Matrix: (Units=GPa)
#
#
# Indices 1 2 3 4 5 6 
#
# 1 169.8338 28.7181 62.6332 0.0000 14.5477 0.0000
# 2 28.7181 55.8697 33.8069 0.0000 -1.0734 0.0000
# 3 62.6332 33.8069 113.8243 0.0000 3.6877 0.0000
# 4 0.0000 0.0000 0.0000 24.4395 0.0000 0.9214
# 5 14.5477 -1.0734 3.6877 0.0000 36.4287 0.0000
# 6 0.0000 0.0000 0.0000 0.9214 0.0000 29.7686
#
#
#
# Elastic Compliance Matrix: (Units=1/GPa)
#
#
# Indices 1 2 3 4 5 6 
#
# 1 0.007784 -0.001850 -0.003643 0.000000 -0.002794 0.000000
# 2 -0.001850 0.022322 -0.005676 0.000000 0.001971 0.000000
# 3 -0.003643 -0.005676 0.012475 0.000000 0.000025 0.000000
# 4 0.000000 0.000000 0.000000 0.040965 0.000000 -0.001268
# 5 -0.002794 0.001971 0.000025 0.000000 0.028622 0.000000
# 6 0.000000 0.000000 0.000000 -0.001268 0.000000 0.033632
#
#
# Mechanical properties :
#
#
# Convention : Reuss Voigt Hill
#
# Bulk Modulus (GPa) = 49.39975 65.53825 57.46900
# Shear Modulus (GPa) = 28.59010 32.41866 30.50438
#
# Velocity S-wave (km/s) = 3.81129 4.05846 3.93681
# Velocity P-wave (km/s) = 6.66833 7.43369 7.06139
#
# Compressibility (1/GPa) = 0.02024302
#
# Stress axis : x y z
#
# Youngs Moduli (GPa) = 128.47080 44.79873 80.16016
#
# Poissons Ratio (x) = 0.08289 0.29203
# Poissons Ratio (y) = 0.23771 0.45496
# Poissons Ratio (z) = 0.46803 0.25426
#
# Static dielectric constant tensor:
#      x y z
#    x 3.711200 0.000000 0.203310 
#    y 0.000000 3.704700 0.000000 
#    z 0.203310 0.000000 3.483270 
# 
# 
# High freq. dielectric constant tensor:
#      x y z
#    x 1.789100 0.000000 0.005340 
#    y 0.000000 1.753180 0.000000 
#    z 0.005340 0.000000 1.750680 
# 
# From -- ./inp_files/71234.got.cif
#   From: 2010.06.25/outbox.cif.g09.slc.cpg/sg10_36_cif.got.tgz:71234.got - 2010.06.27 22:07:45.
