data_PCOD8062285
_publ_section_title
;
Structure prediction by ZEFSAII (Michael W. Deem and Ramdas Pophale) SiO2 
 PCOD8062285
Probable space group: P 2/M
;
_chemical_formula_sum "Si O2"
_cell_formula_units_Z 32
_cell_length_a 24.058430
_cell_length_b 9.269964
_cell_length_c 19.607580
_cell_angle_alpha 90.000000
_cell_angle_beta 23.401846
_cell_angle_gamma 90.000000
_cell_volume 1736.816432
_symmetry_space_group_name_H-M "P 2/M"
_symmetry_group_IT_number 10
_symmetry_cell_setting 'monoclinic'
loop_
_space_group_symop_operation_xyz
x,y,z
-x,y,-z
-x,-y,-z
x,-y,z
loop_
_atom_site_type_symbol
_atom_site_label
_atom_site_fract_x
_atom_site_fract_y
_atom_site_fract_z
Si Si1 0.005670 0.833649 0.293404
Si Si2 0.520419 0.667352 0.400724
Si Si3 0.710529 0.331822 0.449235
Si Si4 0.023203 0.834854 0.895573
Si Si5 0.213958 0.166151 0.941870
Si Si6 0.692262 0.167973 0.602456
Si Si7 0.063623 0.668303 0.498788
Si Si8 0.626384 0.332074 0.808533
O O1 0.857858 0.806222 0.423184
O O2 0.020183 0.743362 0.345885
O O3 0.021755 0.000000 0.294769
O O4 0.126562 0.782166 0.106082
O O5 0.500000 0.730981 0.500000
O O6 0.558358 0.500000 0.362465
O O7 0.380422 0.696268 0.515740
O O8 0.645828 0.743170 0.220075
O O9 0.719152 0.500000 0.458022
O O10 0.864498 0.272993 0.261799
O O11 0.642329 0.247421 0.589859
O O12 0.074038 0.000000 0.826715
O O13 0.000000 0.798546 0.000000
O O14 0.876226 0.807663 0.024376
O O15 0.255622 0.000000 0.902359
O O16 0.611297 0.238069 0.757304
O O17 0.653038 0.000000 0.642569
O O18 0.034744 0.500000 0.538471
O O19 0.228571 0.704297 0.316284
O O20 0.000000 0.728228 0.500000
O O21 0.619346 0.500000 0.796307
O O22 0.500000 0.287529 0.000000
#
# Coordination Sequence:
#
# PCOD8062285 Si02
#       8
#     4   4   4   4   4   4   4   4
#     4   9  18  34  55  79 109 140 174 223 269 313
#     4  10  23  41  56  76 110 147 183 227 278 330
#     4  11  22  36  56  81 110 144 185 228 275 330
#     4  10  20  35  57  84 111 139 177 226 274 324
#     4  10  20  36  56  81 110 141 182 224 270 327
#     4  10  19  35  58  81 111 144 181 228 271 321
#     4   9  18  33  53  78 106 139 178 215 258 315
#     4   9  18  34  55  79 110 143 177 220 267 318
#
# _framework density 18.424515
#
# number of rings (size 3 to 8) (size 9 to 14) (size 15 to 20)
#    0.000    2.250    1.250    1.500    0.000    3.500 
#    2.250    0.000    0.000    0.000    0.000    0.000 
#    0.000    0.000    0.000    0.000    0.000    0.000 
#
# Total GULP energy -396913.325653 kJ/mol
# GULP energy per Si atom -12403.541427 kJ/mol
# Density = 1.838258 g / cm^3
# Si number density = 18.424515 Si / 1000 Ang^3
#
#
#
# Elastic Constant Matrix: (Units=GPa)
#
#
# Indices 1 2 3 4 5 6 
#
# 1 98.5231 41.0871 21.6787 0.0000 25.4130 0.0000
# 2 41.0871 69.9328 36.8359 0.0000 14.6470 0.0000
# 3 21.6787 36.8359 91.6928 0.0000 19.3099 0.0000
# 4 0.0000 0.0000 0.0000 31.2013 0.0000 8.8509
# 5 25.4130 14.6470 19.3099 0.0000 23.2642 0.0000
# 6 0.0000 0.0000 0.0000 8.8509 0.0000 24.3874
#
#
#
# Elastic Compliance Matrix: (Units=1/GPa)
#
#
# Indices 1 2 3 4 5 6 
#
# 1 0.016953 -0.008014 0.002483 0.000000 -0.015533 0.000000
# 2 -0.008014 0.022778 -0.007367 0.000000 0.000529 0.000000
# 3 0.002483 -0.007367 0.015600 0.000000 -0.011022 0.000000
# 4 0.000000 0.000000 0.000000 0.035728 0.000000 -0.012967
# 5 -0.015533 0.000529 -0.011022 0.000000 0.068768 0.000000
# 6 0.000000 0.000000 0.000000 -0.012967 0.000000 0.045711
#
#
# Mechanical properties :
#
#
# Convention : Reuss Voigt Hill
#
# Bulk Modulus (GPa) = 33.86078 51.03913 42.44995
# Shear Modulus (GPa) = 20.73147 26.47371 23.60259
#
# Velocity S-wave (km/s) = 3.35806 3.79472 3.58305
# Velocity P-wave (km/s) = 5.78389 6.85287 6.34095
#
# Compressibility (1/GPa) = 0.02953269
#
# Stress axis : x y z
#
# Youngs Moduli (GPa) = 58.98831 43.90234 64.10356
#
# Poissons Ratio (x) = 0.35185 -0.15916
# Poissons Ratio (y) = 0.47276 0.47226
# Poissons Ratio (z) = -0.14646 0.32343
#
# Static dielectric constant tensor:
#      x y z
#    x 3.500430 0.000000 0.155370 
#    y 0.000000 3.356220 0.000000 
#    z 0.155370 0.000000 3.309430 
# 
# 
# High freq. dielectric constant tensor:
#      x y z
#    x 1.718110 0.000000 0.013050 
#    y 0.000000 1.712370 0.000000 
#    z 0.013050 0.000000 1.707510 
# 
# From -- ./inp_files/86857.got.cif
#   From: 2010.06.25/outbox.cif.g09.slc.cpg/sg10_44_cif.got.tgz:86857.got - 2010.06.27 22:07:45.
