data_PCOD8062286
_publ_section_title
;
Structure prediction by ZEFSAII (Michael W. Deem and Ramdas Pophale) SiO2 
 PCOD8062286
Probable space group: P 2/M
;
_chemical_formula_sum "Si O2"
_cell_formula_units_Z 28
_cell_length_a 29.479966
_cell_length_b 8.763881
_cell_length_c 9.824157
_cell_angle_alpha 90.000000
_cell_angle_beta 146.023372
_cell_angle_gamma 90.000000
_cell_volume 1418.461768
_symmetry_space_group_name_H-M "P 2/M"
_symmetry_group_IT_number 10
_symmetry_cell_setting 'monoclinic'
loop_
_space_group_symop_operation_xyz
x,y,z
-x,y,-z
-x,-y,-z
x,-y,z
loop_
_atom_site_type_symbol
_atom_site_label
_atom_site_fract_x
_atom_site_fract_y
_atom_site_fract_z
Si Si1 0.354543 0.180678 0.791570
Si Si2 0.188248 0.177453 0.964272
Si Si3 0.642599 0.817881 0.507768
Si Si4 0.889861 0.179006 0.501994
Si Si5 0.502008 0.181798 0.660460
Si Si6 0.922666 0.175112 0.066425
Si Si7 0.816584 0.323441 0.579888
O O1 0.375056 0.241556 0.689980
O O2 0.265749 0.228903 0.616726
O O3 0.358286 0.000000 0.799614
O O4 0.418917 0.243918 0.062365
O O5 0.165884 0.240420 0.760049
O O6 0.111067 0.207527 0.867507
O O7 0.205426 0.000000 0.992827
O O8 0.270769 0.251762 0.228664
O O9 0.575482 0.757987 0.447241
O O10 0.643872 0.000000 0.508865
O O11 0.865815 0.279044 0.569332
O O12 0.982859 0.212505 0.697703
O O13 0.876404 0.000000 0.498102
O O14 0.500000 0.245719 0.500000
O O15 0.502177 0.000000 0.656492
O O16 0.906115 0.000000 0.980534
O O17 0.875483 0.287849 0.850633
O O18 0.794167 0.500000 0.523214
#
# Coordination Sequence:
#
# PCOD8062286 Si02
#       7
#     4   4   4   4   4   4   4
#     4  10  19  35  58  81 111 146 185 229 278 328
#     4   9  17  31  56  88 116 140 179 232 282 332
#     4   9  16  29  52  84 115 141 174 222 276 327
#     4  10  21  35  58  86 113 145 184 233 288 337
#     4   9  18  29  50  88 120 140 171 223 281 335
#     4  10  19  37  60  85 111 142 187 235 284 336
#     4  12  25  38  54  79 114 153 195 232 275 329
#
# _framework density 19.739692999999999
#
# number of rings (size 3 to 8) (size 9 to 14) (size 15 to 20)
#    0.000    2.143    1.429    2.571    2.000    5.714 
#    0.000    0.714    0.000    3.857    0.000    0.000 
#    0.000    0.000    0.000    0.000    0.000    0.000 
#
# Total GULP energy -347150.847253 kJ/mol
# GULP energy per Si atom -12398.244545 kJ/mol
# Density = 1.969476 g / cm^3
# Si number density = 19.739693 Si / 1000 Ang^3
#
#
#
# Elastic Constant Matrix: (Units=GPa)
#
#
# Indices 1 2 3 4 5 6 
#
# 1 122.2109 21.5378 70.3111 0.0000 -45.5761 0.0000
# 2 21.5378 9.8207 21.6572 0.0000 -13.1826 0.0000
# 3 70.3111 21.6572 164.0752 0.0000 -44.5874 0.0000
# 4 0.0000 0.0000 0.0000 1.3692 0.0000 6.7076
# 5 -45.5761 -13.1826 -44.5874 0.0000 83.5172 0.0000
# 6 0.0000 0.0000 0.0000 6.7076 0.0000 -7.1526
#
#
#
# Elastic Compliance Matrix: (Units=1/GPa)
#
#
# Indices 1 2 3 4 5 6 
#
# 1 0.014795 -0.022734 -0.002480 0.000000 0.003161 0.000000
# 2 -0.022734 0.195800 -0.012955 0.000000 0.011583 0.000000
# 3 -0.002480 -0.012955 0.009292 0.000000 0.001563 0.000000
# 4 0.000000 0.000000 0.000000 0.130558 0.000000 0.122435
# 5 0.003161 0.011583 0.001563 0.000000 0.016361 0.000000
# 6 0.000000 0.000000 0.000000 0.122435 0.000000 -0.024992
#
#
# Mechanical properties :
#
#
# Convention : Reuss Voigt Hill
#
# Bulk Modulus (GPa) = 6.96626 58.12434 32.54530
# Shear Modulus (GPa) = 10.72959 27.72014 19.22486
#
# Velocity S-wave (km/s) = 2.33395 3.75144 3.12415
# Velocity P-wave (km/s) = 3.28631 6.94793 5.43478
#
# Compressibility (1/GPa) = 0.14354913
#
# Stress axis : x y z
#
# Youngs Moduli (GPa) = 67.59077 5.10726 107.61683
#
# Poissons Ratio (x) = 0.11611 0.26692
# Poissons Ratio (y) = 1.53658 1.39416
# Poissons Ratio (z) = 0.16764 0.06616
#
# Static dielectric constant tensor:
#      x y z
#    x 3.747830 0.000000 -0.064840 
#    y 0.000000 3.015300 0.000000 
#    z -0.064840 0.000000 3.966450 
# 
# 
# High freq. dielectric constant tensor:
#      x y z
#    x 1.784610 0.000000 -0.001530 
#    y 0.000000 1.701690 0.000000 
#    z -0.001530 0.000000 1.786470 
# 
# From -- ./inp_files/36969.got.cif
#   From: 2010.06.25/outbox.cif.g09.slc.cpg/sg10_19_cif.got.tgz:36969.got - 2010.06.27 22:07:45.
