data_PCOD8062372
_publ_section_title
;
Structure prediction by ZEFSAII (Michael W. Deem and Ramdas Pophale) SiO2 
 PCOD8062372
Probable space group: P 2/M
;
_chemical_formula_sum "Si O2"
_cell_formula_units_Z 32
_cell_length_a 14.938342
_cell_length_b 12.907602
_cell_length_c 14.553855
_cell_angle_alpha 90.000000
_cell_angle_beta 141.954892
_cell_angle_gamma 90.000000
_cell_volume 1729.439045
_symmetry_space_group_name_H-M "P 2/M"
_symmetry_group_IT_number 10
_symmetry_cell_setting 'monoclinic'
loop_
_space_group_symop_operation_xyz
x,y,z
-x,y,-z
-x,-y,-z
x,-y,z
loop_
_atom_site_type_symbol
_atom_site_label
_atom_site_fract_x
_atom_site_fract_y
_atom_site_fract_z
Si Si1 0.547134 0.880711 0.313600
Si Si2 0.657164 0.383698 0.711757
Si Si3 0.806995 0.882153 0.393919
Si Si4 0.222410 0.119089 0.990600
Si Si5 0.087804 0.698092 0.978255
Si Si6 0.942968 0.618713 0.685133
Si Si7 0.915963 0.197429 0.299506
Si Si8 0.645501 0.697159 0.508968
O O1 0.652126 0.856941 0.312820
O O2 0.595868 0.812741 0.440400
O O3 0.559002 0.000000 0.354186
O O4 0.386741 0.851504 0.149845
O O5 0.690456 0.500000 0.704516
O O6 0.491931 0.378774 0.614075
O O7 0.688333 0.304958 0.651789
O O8 0.757167 0.354702 0.878493
O O9 0.833522 0.803275 0.330799
O O10 0.934272 0.867667 0.572358
O O11 0.811999 0.000000 0.361240
O O12 0.109372 0.185507 0.958988
O O13 0.193563 0.144432 0.860819
O O14 0.190026 0.000000 0.985589
O O15 0.003263 0.628024 0.837028
O O16 0.000000 0.702820 0.000000
O O17 0.948770 0.500000 0.657272
O O18 0.776744 0.658998 0.550466
O O19 0.042752 0.685302 0.696308
#
# Coordination Sequence:
#
# PCOD8062372 Si02
#       8
#     4   4   4   4   4   4   4   4
#     4  10  21  37  58  82 112 145 181 227 276 328
#     4  11  22  36  58  79 107 147 191 236 271 314
#     4  10  19  35  59  87 112 139 179 226 276 327
#     4  10  21  38  56  80 112 149 184 222 273 328
#     4  11  22  36  55  82 113 145 183 230 274 324
#     4  11  22  36  57  81 112 146 184 230 274 322
#     4  10  20  35  57  83 111 143 176 225 273 330
#     4  11  20  37  54  81 111 141 188 229 272 316
#
# _framework density 18.50311
#
# number of rings (size 3 to 8) (size 9 to 14) (size 15 to 20)
#    0.000    1.500    3.750    3.375    0.000    1.250 
#    0.000    5.000    0.000    0.000    0.000    1.750 
#    0.000    0.000    0.000    0.000    0.000    0.000 
#
# Total GULP energy -396805.548682 kJ/mol
# GULP energy per Si atom -12400.173396 kJ/mol
# Density = 1.846100 g / cm^3
# Si number density = 18.503110 Si / 1000 Ang^3
#
#
#
# Elastic Constant Matrix: (Units=GPa)
#
#
# Indices 1 2 3 4 5 6 
#
# 1 57.7463 37.2159 13.0137 0.0000 -8.2517 0.0000
# 2 37.2159 108.7827 37.7354 0.0000 -9.0406 0.0000
# 3 13.0137 37.7354 86.3391 0.0000 -7.5994 0.0000
# 4 0.0000 0.0000 0.0000 23.1206 0.0000 1.4347
# 5 -8.2517 -9.0406 -7.5994 0.0000 23.1409 0.0000
# 6 0.0000 0.0000 0.0000 1.4347 0.0000 24.4731
#
#
#
# Elastic Compliance Matrix: (Units=1/GPa)
#
#
# Indices 1 2 3 4 5 6 
#
# 1 0.022824 -0.007468 0.000292 0.000000 0.005317 0.000000
# 2 -0.007468 0.013452 -0.004660 0.000000 0.001062 0.000000
# 3 0.000292 -0.004660 0.013824 0.000000 0.002823 0.000000
# 4 0.000000 0.000000 0.000000 0.043409 0.000000 -0.002545
# 5 0.005317 0.001062 0.002823 0.000000 0.046451 0.000000
# 6 0.000000 0.000000 0.000000 -0.002545 0.000000 0.041010
#
#
# Mechanical properties :
#
#
# Convention : Reuss Voigt Hill
#
# Bulk Modulus (GPa) = 37.84014 47.64423 42.74219
# Shear Modulus (GPa) = 23.42438 25.14047 24.28242
#
# Velocity S-wave (km/s) = 3.56191 3.69007 3.62656
# Velocity P-wave (km/s) = 6.11648 6.63029 6.37856
#
# Compressibility (1/GPa) = 0.02642696
#
# Stress axis : x y z
#
# Youngs Moduli (GPa) = 43.81385 74.33674 72.33990
#
# Poissons Ratio (x) = 0.55512 -0.02109
# Poissons Ratio (y) = 0.32718 0.33713
# Poissons Ratio (z) = -0.01278 0.34644
#
# Static dielectric constant tensor:
#      x y z
#    x 3.251580 0.000000 0.127690 
#    y 0.000000 3.357900 0.000000 
#    z 0.127690 0.000000 3.651950 
# 
# 
# High freq. dielectric constant tensor:
#      x y z
#    x 1.704270 0.000000 0.012590 
#    y 0.000000 1.711410 0.000000 
#    z 0.012590 0.000000 1.728290 
# 
# From -- ./inp_files/67352.got.cif
#   From: 2010.06.25/outbox.cif.g09.slc.cpg/sg10_34_cif.got.tgz:67352.got - 2010.06.27 22:07:45.
