data_PCOD8062597
_publ_section_title
;
Structure prediction by ZEFSAII (Michael W. Deem and Ramdas Pophale) SiO2 
 PCOD8062597
Probable space group: P 2/M
;
_chemical_formula_sum "Si O2"
_cell_formula_units_Z 30
_cell_length_a 13.693632
_cell_length_b 20.067745
_cell_length_c 13.946747
_cell_angle_alpha 90.000000
_cell_angle_beta 158.775540
_cell_angle_gamma 90.000000
_cell_volume 1387.476947
_symmetry_space_group_name_H-M "P 2/M"
_symmetry_group_IT_number 10
_symmetry_cell_setting 'monoclinic'
loop_
_space_group_symop_operation_xyz
x,y,z
-x,y,-z
-x,-y,-z
x,-y,z
loop_
_atom_site_type_symbol
_atom_site_label
_atom_site_fract_x
_atom_site_fract_y
_atom_site_fract_z
Si Si1 0.898778 0.170463 0.507796
Si Si2 0.600752 0.738509 0.992113
Si Si3 0.222320 0.657667 0.021791
Si Si4 0.293028 0.576446 0.514956
Si Si5 0.212184 0.000000 0.280575
Si Si6 0.276688 0.423896 0.726704
Si Si7 0.849409 0.798768 0.960923
Si Si8 0.274527 0.870580 0.461581
O O1 0.636580 0.215195 0.261620
O O2 0.802812 0.114919 0.497514
O O3 0.000000 0.137234 0.500000
O O4 0.134754 0.217297 0.760980
O O5 0.647295 0.678655 0.960670
O O6 0.500000 0.707382 0.000000
O O7 0.419131 0.605386 0.256158
O O8 0.211730 0.720640 0.083894
O O9 0.938716 0.621853 0.743310
O O10 0.252466 0.500000 0.444830
O O11 0.317140 0.581749 0.651158
O O12 0.500000 0.000000 0.500000
O O13 0.187385 0.064685 0.323370
O O14 0.000000 0.000000 0.000000
O O15 0.251476 0.500000 0.737098
O O16 0.000000 0.385513 0.500000
O O17 0.500000 0.390512 0.000000
O O18 0.581456 0.845400 0.724401
O O19 0.000000 0.815132 0.000000
O O20 0.066102 0.812898 0.241800
#
# Coordination Sequence:
#
# PCOD8062597 Si02
#       8
#     4   4   4   4   2   4   4   4
#     4  10  19  36  61  91 129 170 212 259 314 369
#     4  10  20  35  57  88 123 163 209 261 316 374
#     4  12  22  39  62  87 121 155 217 265 326 391
#     4  11  24  38  57  82 118 164 204 260 331 398
#     4  12  26  42  65 102 143 186 224 260 319 386
#     4   9  17  31  49  71 105 148 194 239 288 360
#     4  12  25  42  69  97 125 164 214 275 329 377
#     4  12  22  43  67  98 139 176 212 263 318 379
#
# _framework density 21.621981000000002
#
# number of rings (size 3 to 8) (size 9 to 14) (size 15 to 20)
#    0.000    1.067    2.667    5.200    0.000    3.733 
#    0.000    0.333    0.000    2.800    0.000    5.600 
#    0.000    0.000    0.000    0.000    0.000    0.000 
#
# Total GULP energy -371712.332985 kJ/mol
# GULP energy per Si atom -12390.411100 kJ/mol
# Density = 2.157277 g / cm^3
# Si number density = 21.621981 Si / 1000 Ang^3
#
#
#
# Elastic Constant Matrix: (Units=GPa)
#
#
# Indices 1 2 3 4 5 6 
#
# 1 123.4693 46.9918 36.3623 0.0000 6.0568 0.0000
# 2 46.9918 93.9996 38.9657 0.0000 1.1788 0.0000
# 3 36.3623 38.9657 174.4405 0.0000 17.3218 0.0000
# 4 0.0000 0.0000 0.0000 43.3771 0.0000 -13.7531
# 5 6.0568 1.1788 17.3218 0.0000 27.4148 0.0000
# 6 0.0000 0.0000 0.0000 -13.7531 0.0000 34.0311
#
#
#
# Elastic Compliance Matrix: (Units=1/GPa)
#
#
# Indices 1 2 3 4 5 6 
#
# 1 0.010241 -0.004713 -0.000936 0.000000 -0.001468 0.000000
# 2 -0.004713 0.013932 -0.002319 0.000000 0.001907 0.000000
# 3 -0.000936 -0.002319 0.006845 0.000000 -0.004018 0.000000
# 4 0.000000 0.000000 0.000000 0.026442 0.000000 0.010686
# 5 -0.001468 0.001907 -0.004018 0.000000 0.039258 0.000000
# 6 0.000000 0.000000 0.000000 0.010686 0.000000 0.033703
#
#
# Mechanical properties :
#
#
# Convention : Reuss Voigt Hill
#
# Bulk Modulus (GPa) = 66.30846 70.72766 68.51806
# Shear Modulus (GPa) = 33.02870 38.93725 35.98298
#
# Velocity S-wave (km/s) = 3.91263 4.24821 4.08387
# Velocity P-wave (km/s) = 7.15159 7.53956 7.34814
#
# Compressibility (1/GPa) = 0.01508103
#
# Stress axis : x y z
#
# Youngs Moduli (GPa) = 97.65022 71.77813 146.09714
#
# Poissons Ratio (x) = 0.33829 0.13676
# Poissons Ratio (y) = 0.46022 0.33880
# Poissons Ratio (z) = 0.09141 0.16645
#
# Static dielectric constant tensor:
#      x y z
#    x 4.044780 0.000000 0.083080 
#    y 0.000000 3.630920 0.000000 
#    z 0.083080 0.000000 4.144180 
# 
# 
# High freq. dielectric constant tensor:
#      x y z
#    x 1.839580 0.000000 0.008810 
#    y 0.000000 1.832640 0.000000 
#    z 0.008810 0.000000 1.875080 
# 
# From -- ./inp_files/67887.got.cif
#   From: 2010.06.25/outbox.cif.g09.slc.cpg/sg10_34_cif.got.tgz:67887.got - 2010.06.27 22:07:45.
