data_PCOD8062213
_publ_section_title
;
Structure prediction by ZEFSAII (Michael W. Deem and Ramdas Pophale) SiO2 
 PCOD8062213
Probable space group: P 2/M
;
_chemical_formula_sum "Si O2"
_cell_formula_units_Z 32
_cell_length_a 14.168972
_cell_length_b 9.171284
_cell_length_c 14.479111
_cell_angle_alpha 90.000000
_cell_angle_beta 119.831735
_cell_angle_gamma 90.000000
_cell_volume 1632.205688
_symmetry_space_group_name_H-M "P 2/M"
_symmetry_group_IT_number 10
_symmetry_cell_setting 'monoclinic'
loop_
_space_group_symop_operation_xyz
x,y,z
-x,y,-z
-x,-y,-z
x,-y,z
loop_
_atom_site_type_symbol
_atom_site_label
_atom_site_fract_x
_atom_site_fract_y
_atom_site_fract_z
Si Si1 0.980122 0.836841 0.275721
Si Si2 0.788284 0.836339 0.055388
Si Si3 0.177236 0.327019 0.301943
Si Si4 0.653158 0.668143 0.315750
Si Si5 0.611444 0.170502 0.106875
Si Si6 0.121234 0.826255 0.085896
Si Si7 0.894336 0.335308 0.390272
Si Si8 0.397219 0.673357 0.506626
O O1 0.914635 0.836128 0.148051
O O2 0.891949 0.779327 0.306008
O O3 0.082039 0.728563 0.322995
O O4 0.019580 0.000000 0.319397
O O5 0.705744 0.757500 0.086811
O O6 0.742889 0.000000 0.027708
O O7 0.794846 0.774062 0.954456
O O8 0.169922 0.500000 0.289190
O O9 0.164237 0.253932 0.196699
O O10 0.289793 0.273629 0.401185
O O11 0.621842 0.500000 0.285126
O O12 0.608980 0.754425 0.205800
O O13 0.783329 0.685556 0.393014
O O14 0.600762 0.729078 0.385770
O O15 0.631678 0.000000 0.134804
O O16 0.500000 0.201345 0.000000
O O17 0.125071 0.000000 0.103347
O O18 0.000000 0.775603 0.000000
O O19 0.903086 0.500000 0.356368
O O20 0.000000 0.294560 0.500000
O O21 0.500000 0.736451 0.500000
O O22 0.399344 0.500000 0.509703
#
# Coordination Sequence:
#
# PCOD8062213 Si02
#       8
#     4   4   4   4   4   4   4   4
#     4  11  20  34  56  80 111 151 191 230 279 344
#     4   9  18  34  54  76 107 148 187 225 278 338
#     4  11  22  36  57  87 118 148 191 244 290 338
#     4  10  20  36  60  86 112 147 190 237 284 333
#     4  10  21  38  59  83 114 152 191 233 283 339
#     4  10  19  35  56  78 111 155 194 229 280 346
#     4  10  20  34  53  82 118 151 185 232 291 342
#     4   9  20  40  62  82 112 155 194 231 283 342
#
# _framework density 19.605373
#
# number of rings (size 3 to 8) (size 9 to 14) (size 15 to 20)
#    0.000    2.000    2.500    1.500    0.000    3.750 
#    0.000    3.125    0.000    2.625    0.000    0.000 
#    0.000    0.000    0.000    0.000    0.000    0.000 
#
# Total GULP energy -396648.548362 kJ/mol
# GULP energy per Si atom -12395.267136 kJ/mol
# Density = 1.956075 g / cm^3
# Si number density = 19.605373 Si / 1000 Ang^3
#
#
#
# Elastic Constant Matrix: (Units=GPa)
#
#
# Indices 1 2 3 4 5 6 
#
# 1 134.8093 32.8488 62.2882 0.0000 -16.7275 0.0000
# 2 32.8488 54.1853 41.1388 0.0000 -7.4017 0.0000
# 3 62.2882 41.1388 115.6958 0.0000 -13.4615 0.0000
# 4 0.0000 0.0000 0.0000 16.4609 0.0000 -1.6483
# 5 -16.7275 -7.4017 -13.4615 0.0000 37.0939 0.0000
# 6 0.0000 0.0000 0.0000 -1.6483 0.0000 21.2138
#
#
#
# Elastic Compliance Matrix: (Units=1/GPa)
#
#
# Indices 1 2 3 4 5 6 
#
# 1 0.010395 -0.002641 -0.004357 0.000000 0.002579 0.000000
# 2 -0.002641 0.026075 -0.007708 0.000000 0.001214 0.000000
# 3 -0.004357 -0.007708 0.013910 0.000000 0.001545 0.000000
# 4 0.000000 0.000000 0.000000 0.061226 0.000000 0.004757
# 5 0.002579 0.001214 0.001545 0.000000 0.028925 0.000000
# 6 0.000000 0.000000 0.000000 0.004757 0.000000 0.047509
#
#
# Mechanical properties :
#
#
# Convention : Reuss Voigt Hill
#
# Bulk Modulus (GPa) = 47.69636 64.13800 55.91718
# Shear Modulus (GPa) = 22.27764 26.18138 24.22951
#
# Velocity S-wave (km/s) = 3.37457 3.65830 3.51929
# Velocity P-wave (km/s) = 6.29004 7.11546 6.71544
#
# Compressibility (1/GPa) = 0.02096596
#
# Stress axis : x y z
#
# Youngs Moduli (GPa) = 96.20328 38.35157 71.89238
#
# Poissons Ratio (x) = 0.10130 0.31323
# Poissons Ratio (y) = 0.25410 0.55416
# Poissons Ratio (z) = 0.41916 0.29562
#
# Static dielectric constant tensor:
#      x y z
#    x 3.835970 0.000000 -0.131410 
#    y 0.000000 3.265770 0.000000 
#    z -0.131410 0.000000 3.549650 
# 
# 
# High freq. dielectric constant tensor:
#      x y z
#    x 1.773020 0.000000 -0.012100 
#    y 0.000000 1.730880 0.000000 
#    z -0.012100 0.000000 1.765780 
# 
# From -- ./inp_files/66606.got.cif
#   From: 2010.06.25/outbox.cif.g09.slc.cpg/sg10_34_cif.got.tgz:66606.got - 2010.06.27 22:07:45.
