data_PCOD8062333
_publ_section_title
;
Structure prediction by ZEFSAII (Michael W. Deem and Ramdas Pophale) SiO2 
 PCOD8062333
Probable space group: P 2/M
;
_chemical_formula_sum "Si O2"
_cell_formula_units_Z 28
_cell_length_a 26.336887
_cell_length_b 8.941047
_cell_length_c 9.172940
_cell_angle_alpha 90.000000
_cell_angle_beta 42.339860
_cell_angle_gamma 90.000000
_cell_volume 1454.843637
_symmetry_space_group_name_H-M "P 2/M"
_symmetry_group_IT_number 10
_symmetry_cell_setting 'monoclinic'
loop_
_space_group_symop_operation_xyz
x,y,z
-x,y,-z
-x,-y,-z
x,-y,z
loop_
_atom_site_type_symbol
_atom_site_label
_atom_site_fract_x
_atom_site_fract_y
_atom_site_fract_z
Si Si1 0.906356 0.176138 0.338706
Si Si2 0.517306 0.331662 0.793171
Si Si3 0.925071 0.176786 0.973337
Si Si4 0.796161 0.677078 0.082150
Si Si5 0.629267 0.827868 0.939881
Si Si6 0.227040 0.176401 0.175866
Si Si7 0.665141 0.174593 0.532213
O O1 0.839939 0.241384 0.580190
O O2 0.987118 0.217483 0.236811
O O3 0.897872 0.000000 0.346480
O O4 0.899715 0.235614 0.187113
O O5 0.532272 0.500000 0.707706
O O6 0.445084 0.266469 0.861269
O O7 0.591189 0.232971 0.603585
O O8 0.500000 0.325042 0.000000
O O9 0.911205 0.000000 0.985868
O O10 0.879072 0.264162 0.947750
O O11 0.795197 0.500000 0.083592
O O12 0.738036 0.737966 0.324244
O O13 0.773398 0.736853 0.973387
O O14 0.605682 0.000000 0.998406
O O15 0.693661 0.786638 0.917567
O O16 0.659571 0.790404 0.714921
O O17 0.216968 0.000000 0.170011
O O18 0.674935 0.000000 0.478270
#
# Coordination Sequence:
#
# PCOD8062333 Si02
#       7
#     4   4   4   4   4   4   4
#     4   8  16  33  61  88 105 129 175 226 265 308
#     4   9  17  30  51  81 114 142 169 208 262 320
#     4   9  17  35  61  85 106 133 173 221 268 313
#     4  12  25  37  49  74 111 147 180 215 262 319
#     4   9  18  33  57  84 106 133 176 224 266 311
#     4  10  20  36  55  77 106 141 180 220 262 310
#     4  10  19  35  59  82 104 135 178 226 268 309
#
# _framework density 19.246053
#
# number of rings (size 3 to 8) (size 9 to 14) (size 15 to 20)
#    0.000    2.429    0.000    3.857    0.000    5.714 
#    0.000    7.857    0.000    4.286    0.000    0.000 
#    0.000    0.000    0.000    0.000    0.000    0.000 
#
# Total GULP energy -347219.986612 kJ/mol
# GULP energy per Si atom -12400.713808 kJ/mol
# Density = 1.920225 g / cm^3
# Si number density = 19.246053 Si / 1000 Ang^3
#
#
#
# Elastic Constant Matrix: (Units=GPa)
#
#
# Indices 1 2 3 4 5 6 
#
# 1 123.5840 56.2831 31.3777 0.0000 -8.3611 0.0000
# 2 56.2831 88.3904 21.4209 0.0000 -4.2516 0.0000
# 3 31.3777 21.4209 26.3140 0.0000 -6.9558 0.0000
# 4 0.0000 0.0000 0.0000 19.1772 0.0000 0.6807
# 5 -8.3611 -4.2516 -6.9558 0.0000 23.3996 0.0000
# 6 0.0000 0.0000 0.0000 0.6807 0.0000 12.7332
#
#
#
# Elastic Compliance Matrix: (Units=1/GPa)
#
#
# Indices 1 2 3 4 5 6 
#
# 1 0.013731 -0.005957 -0.011409 0.000000 0.000432 0.000000
# 2 -0.005957 0.016697 -0.006782 0.000000 -0.001111 0.000000
# 3 -0.011409 -0.006782 0.060477 0.000000 0.012668 0.000000
# 4 0.000000 0.000000 0.000000 0.052244 0.000000 -0.002793
# 5 0.000432 -0.001111 0.012668 0.000000 0.046454 0.000000
# 6 0.000000 0.000000 0.000000 -0.002793 0.000000 0.078684
#
#
# Mechanical properties :
#
#
# Convention : Reuss Voigt Hill
#
# Bulk Modulus (GPa) = 23.47001 50.71687 37.09344
# Shear Modulus (GPa) = 15.11543 19.67577 17.39560
#
# Velocity S-wave (km/s) = 2.80550 3.20085 3.00968
# Velocity P-wave (km/s) = 4.76609 6.33006 5.60291
#
# Compressibility (1/GPa) = 0.04260757
#
# Stress axis : x y z
#
# Youngs Moduli (GPa) = 72.82866 59.89092 16.53520
#
# Poissons Ratio (x) = 0.35680 0.18865
# Poissons Ratio (y) = 0.43387 0.11214
# Poissons Ratio (z) = 0.83092 0.40618
#
# Static dielectric constant tensor:
#      x y z
#    x 3.550200 0.000000 -0.209450 
#    y 0.000000 3.349720 0.000000 
#    z -0.209450 0.000000 3.630850 
# 
# 
# High freq. dielectric constant tensor:
#      x y z
#    x 1.753150 0.000000 -0.019290 
#    y 0.000000 1.728060 0.000000 
#    z -0.019290 0.000000 1.740040 
# 
# From -- ./inp_files/36959.got.cif
#   From: 2010.06.25/outbox.cif.g09.slc.cpg/sg10_19_cif.got.tgz:36959.got - 2010.06.27 22:07:45.
