data_PCOD8062992
_publ_section_title
;
Structure prediction by ZEFSAII (Michael W. Deem and Ramdas Pophale) SiO2 
 PCOD8062992
Probable space group: P 2/M
;
_chemical_formula_sum "Si O2"
_cell_formula_units_Z 32
_cell_length_a 26.510335
_cell_length_b 14.391898
_cell_length_c 9.681752
_cell_angle_alpha 90.000000
_cell_angle_beta 28.187901
_cell_angle_gamma 90.000000
_cell_volume 1744.876256
_symmetry_space_group_name_H-M "P 2/M"
_symmetry_group_IT_number 10
_symmetry_cell_setting 'monoclinic'
loop_
_space_group_symop_operation_xyz
x,y,z
-x,y,-z
-x,-y,-z
x,-y,z
loop_
_atom_site_type_symbol
_atom_site_label
_atom_site_fract_x
_atom_site_fract_y
_atom_site_fract_z
Si Si1 0.796425 0.896338 0.704894
Si Si2 0.155439 0.605490 0.040925
Si Si3 0.118306 0.255184 0.674511
Si Si4 0.924528 0.605142 0.469440
Si Si5 0.594836 0.109640 0.365569
Si Si6 0.792274 0.762524 0.262293
Si Si7 0.974324 0.895074 0.712298
Si Si8 0.395793 0.892884 0.343073
O O1 0.803200 0.829005 0.557930
O O2 0.914193 0.894165 0.480387
O O3 0.764976 0.000000 0.730768
O O4 0.709776 0.860756 0.025724
O O5 0.193929 0.500000 0.919546
O O6 0.150582 0.622633 0.216775
O O7 0.043870 0.624622 0.232343
O O8 0.234517 0.682260 0.785601
O O9 0.111734 0.331505 0.570100
O O10 0.178463 0.291710 0.666289
O O11 0.000000 0.220178 0.000000
O O12 0.913346 0.500000 0.443673
O O13 0.500000 0.153102 0.500000
O O14 0.585081 0.144542 0.546925
O O15 0.582675 0.000000 0.395272
O O16 0.691474 0.829215 0.520353
O O17 0.892506 0.826846 0.981699
O O18 0.000000 0.855194 0.500000
O O19 0.926872 0.000000 0.819515
O O20 0.356966 0.000000 0.439867
O O21 0.500000 0.881981 0.000000
#
# Coordination Sequence:
#
# PCOD8062992 Si02
#       8
#     4   4   4   4   4   4   4   4
#     4  10  21  34  49  73 112 149 186 224 265 328
#     4   9  19  35  57  81 106 146 190 231 280 335
#     4  12  23  34  48  83 116 151 186 222 279 328
#     4   9  19  36  55  77 112 151 187 227 276 335
#     4   9  19  37  59  78  99 142 195 238 278 319
#     4  12  23  34  56  81 115 148 185 231 280 338
#     4  10  20  32  49  75 108 149 187 222 272 331
#     4  10  23  41  59  83 113 147 190 238 285 332
#
# _framework density 18.339409
#
# number of rings (size 3 to 8) (size 9 to 14) (size 15 to 20)
#    0.000    1.875    2.500    1.875    7.000    4.000 
#    0.000    0.000    0.000    0.375    0.000    0.000 
#    0.000    3.000    0.000    0.000    0.000    0.000 
#
# Total GULP energy -396630.498550 kJ/mol
# GULP energy per Si atom -12394.703080 kJ/mol
# Density = 1.829767 g / cm^3
# Si number density = 18.339409 Si / 1000 Ang^3
#
#
#
# Elastic Constant Matrix: (Units=GPa)
#
#
# Indices 1 2 3 4 5 6 
#
# 1 94.9009 38.9857 35.2785 0.0000 15.9814 0.0000
# 2 38.9857 88.8764 47.9372 0.0000 11.6592 0.0000
# 3 35.2785 47.9372 90.1433 0.0000 11.7897 0.0000
# 4 0.0000 0.0000 0.0000 19.0168 0.0000 8.8761
# 5 15.9814 11.6592 11.7897 0.0000 26.5135 0.0000
# 6 0.0000 0.0000 0.0000 8.8761 0.0000 21.5119
#
#
#
# Elastic Compliance Matrix: (Units=1/GPa)
#
#
# Indices 1 2 3 4 5 6 
#
# 1 0.014116 -0.004032 -0.002654 0.000000 -0.005555 0.000000
# 2 -0.004032 0.017223 -0.007335 0.000000 -0.001882 0.000000
# 3 -0.002654 -0.007335 0.016353 0.000000 -0.002446 0.000000
# 4 0.000000 0.000000 0.000000 0.065128 0.000000 -0.026873
# 5 -0.005555 -0.001882 -0.002446 0.000000 0.042981 0.000000
# 6 0.000000 0.000000 0.000000 -0.026873 0.000000 0.057574
#
#
# Mechanical properties :
#
#
# Convention : Reuss Voigt Hill
#
# Bulk Modulus (GPa) = 50.88928 57.59149 54.24039
# Shear Modulus (GPa) = 20.16406 23.52304 21.84355
#
# Velocity S-wave (km/s) = 3.31946 3.58530 3.45493
# Velocity P-wave (km/s) = 6.51925 6.97212 6.74948
#
# Compressibility (1/GPa) = 0.01965050
#
# Stress axis : x y z
#
# Youngs Moduli (GPa) = 70.84377 58.06069 61.15193
#
# Poissons Ratio (x) = 0.23408 0.16228
# Poissons Ratio (y) = 0.28562 0.44856
# Poissons Ratio (z) = 0.18800 0.42589
#
# Static dielectric constant tensor:
#      x y z
#    x 3.428160 0.000000 0.223720 
#    y 0.000000 3.455770 0.000000 
#    z 0.223720 0.000000 3.335650 
# 
# 
# High freq. dielectric constant tensor:
#      x y z
#    x 1.710470 0.000000 0.024750 
#    y 0.000000 1.693850 0.000000 
#    z 0.024750 0.000000 1.692260 
# 
# From -- ./inp_files/36329.got.cif
#   From: 2010.06.25/outbox.cif.g09.slc.cpg/sg10_19_cif.got.tgz:36329.got - 2010.06.27 22:07:45.
