data_PCOD8062451
_publ_section_title
;
Structure prediction by ZEFSAII (Michael W. Deem and Ramdas Pophale) SiO2 
 PCOD8062451
Probable space group: P 2/M
;
_chemical_formula_sum "Si O2"
_cell_formula_units_Z 32
_cell_length_a 13.382411
_cell_length_b 17.919361
_cell_length_c 11.463554
_cell_angle_alpha 90.000000
_cell_angle_beta 147.109772
_cell_angle_gamma 90.000000
_cell_volume 1492.797778
_symmetry_space_group_name_H-M "P 2/M"
_symmetry_group_IT_number 10
_symmetry_cell_setting 'monoclinic'
loop_
_space_group_symop_operation_xyz
x,y,z
-x,y,-z
-x,-y,-z
x,-y,z
loop_
_atom_site_type_symbol
_atom_site_label
_atom_site_fract_x
_atom_site_fract_y
_atom_site_fract_z
Si Si1 0.934932 0.652563 0.693396
Si Si2 0.478953 0.171652 0.348439
Si Si3 0.572808 0.341721 0.446233
Si Si4 0.703479 0.840534 0.202054
Si Si5 0.789519 0.321283 0.316952
Si Si6 0.698520 0.585800 0.003381
Si Si7 0.892199 0.182596 0.140885
Si Si8 0.779175 0.087489 0.506410
O O1 0.793106 0.640521 0.661085
O O2 0.796872 0.636695 0.448190
O O3 0.100781 0.593468 0.860508
O O4 0.029304 0.733811 0.778198
O O5 0.500000 0.140799 0.500000
O O6 0.562064 0.253631 0.417271
O O7 0.583994 0.116989 0.362841
O O8 0.263322 0.175573 0.109187
O O9 0.500000 0.368349 0.500000
O O10 0.458046 0.382573 0.233664
O O11 0.679776 0.755609 0.223738
O O12 0.807103 0.841937 0.181098
O O13 0.811027 0.889932 0.402520
O O14 0.500000 0.875708 0.000000
O O15 0.696376 0.371213 0.125195
O O16 0.000000 0.299492 0.500000
O O17 0.657838 0.500000 0.989220
O O18 0.053229 0.126203 0.259755
O O19 0.789945 0.000000 0.534763
#
# Coordination Sequence:
#
# PCOD8062451 Si02
#       8
#     4   4   4   4   4   4   4   4
#     4  11  22  40  71  97 134 177 223 272 337 405
#     4  11  24  46  72  99 131 181 240 286 326 399
#     4  11  24  44  70  98 129 181 239 283 326 396
#     4  12  21  37  70  99 135 178 218 272 342 411
#     4  10  19  35  64  96 128 173 211 265 330 408
#     4  11  25  43  65 102 142 175 221 282 346 403
#     4  12  22  43  70 100 132 181 222 274 339 412
#     4  12  27  44  67 104 142 177 224 283 347 407
#
# _framework density 21.436260000000001
#
# number of rings (size 3 to 8) (size 9 to 14) (size 15 to 20)
#    0.000    0.750    7.500    0.375    1.750    6.000 
#    0.000    1.875    0.000    0.000    0.000    0.000 
#    0.000    0.000    0.000    0.000    0.000    0.000 
#
# Total GULP energy -396761.262883 kJ/mol
# GULP energy per Si atom -12398.789465 kJ/mol
# Density = 2.138747 g / cm^3
# Si number density = 21.436260 Si / 1000 Ang^3
#
#
#
# Elastic Constant Matrix: (Units=GPa)
#
#
# Indices 1 2 3 4 5 6 
#
# 1 88.8417 17.0005 39.4683 0.0000 2.6651 0.0000
# 2 17.0005 72.7445 9.4155 0.0000 -9.0555 0.0000
# 3 39.4683 9.4155 107.7869 0.0000 -4.9645 0.0000
# 4 0.0000 0.0000 0.0000 16.6235 0.0000 3.2530
# 5 2.6651 -9.0555 -4.9645 0.0000 31.4696 0.0000
# 6 0.0000 0.0000 0.0000 3.2530 0.0000 15.8344
#
#
#
# Elastic Compliance Matrix: (Units=1/GPa)
#
#
# Indices 1 2 3 4 5 6 
#
# 1 0.014164 -0.003012 -0.005055 0.000000 -0.002864 0.000000
# 2 -0.003012 0.015020 0.000002 0.000000 0.004578 0.000000
# 3 -0.005055 0.000002 0.011230 0.000000 0.002200 0.000000
# 4 0.000000 0.000000 0.000000 0.062675 0.000000 -0.012876
# 5 -0.002864 0.004578 0.002200 0.000000 0.033683 0.000000
# 6 0.000000 0.000000 0.000000 -0.012876 0.000000 0.065799
#
#
# Mechanical properties :
#
#
# Convention : Reuss Voigt Hill
#
# Bulk Modulus (GPa) = 41.18162 44.57130 42.87646
# Shear Modulus (GPa) = 22.04606 26.35143 24.19875
#
# Velocity S-wave (km/s) = 3.21042 3.50993 3.36351
# Velocity P-wave (km/s) = 5.74415 6.10441 5.92702
#
# Compressibility (1/GPa) = 0.02428268
#
# Stress axis : x y z
#
# Youngs Moduli (GPa) = 70.60085 66.57638 89.04863
#
# Poissons Ratio (x) = 0.20055 0.45016
# Poissons Ratio (y) = 0.21268 -0.00016
# Poissons Ratio (z) = 0.35690 -0.00012
#
# Static dielectric constant tensor:
#      x y z
#    x 4.455070 0.000000 -0.031370 
#    y 0.000000 3.527700 0.000000 
#    z -0.031370 0.000000 4.118430 
# 
# 
# High freq. dielectric constant tensor:
#      x y z
#    x 1.842410 0.000000 0.012770 
#    y 0.000000 1.807610 0.000000 
#    z 0.012770 0.000000 1.855330 
# 
# From -- ./inp_files/51980.got.cif
#   From: 2010.06.25/outbox.cif.g09.slc.cpg/sg10_26_cif.got.tgz:51980.got - 2010.06.27 22:07:45.
