data_PCOD8062100
_publ_section_title
;
Structure prediction by ZEFSAII (Michael W. Deem and Ramdas Pophale) SiO2 
 PCOD8062100
Probable space group: P 2/M
;
_chemical_formula_sum "Si O2"
_cell_formula_units_Z 32
_cell_length_a 22.226966
_cell_length_b 14.521251
_cell_length_c 15.598562
_cell_angle_alpha 90.000000
_cell_angle_beta 18.754672
_cell_angle_gamma 90.000000
_cell_volume 1618.722069
_symmetry_space_group_name_H-M "P 2/M"
_symmetry_group_IT_number 10
_symmetry_cell_setting 'monoclinic'
loop_
_space_group_symop_operation_xyz
x,y,z
-x,y,-z
-x,-y,-z
x,-y,z
loop_
_atom_site_type_symbol
_atom_site_label
_atom_site_fract_x
_atom_site_fract_y
_atom_site_fract_z
Si Si1 0.665092 0.400953 0.844740
Si Si2 0.479148 0.229091 0.669125
Si Si3 0.803919 0.769430 0.099981
Si Si4 0.535189 0.107329 0.149039
Si Si5 0.135430 0.893132 0.605417
Si Si6 0.295567 0.203781 0.234479
Si Si7 0.554708 0.396405 0.686138
Si Si8 0.973394 0.395065 0.135333
O O1 0.776314 0.500000 0.690299
O O2 0.786161 0.308912 0.662721
O O3 0.500000 0.407920 0.000000
O O4 0.587837 0.386604 0.044141
O O5 0.300169 0.229564 0.849821
O O6 0.666138 0.206694 0.363856
O O7 0.445287 0.148871 0.783167
O O8 0.496138 0.328881 0.689314
O O9 0.966594 0.845384 0.883564
O O10 0.890939 0.668055 0.991922
O O11 0.324859 0.125841 0.401544
O O12 0.582754 0.000000 0.087767
O O13 0.686023 0.155477 0.882852
O O14 0.153037 0.853108 0.485459
O O15 0.089635 0.000000 0.659619
O O16 0.500000 0.206584 0.000000
O O17 0.558171 0.500000 0.643225
O O18 0.759090 0.371874 0.448304
O O19 0.025595 0.500000 0.087090
O O20 0.000000 0.373090 0.000000
#
# Coordination Sequence:
#
# PCOD8062100 Si02
#       8
#     4   4   4   4   4   4   4   4
#     4   9  17  28  50  89 121 146 180 226 284 342
#     4  11  23  40  54  83 115 158 200 233 289 353
#     4  11  25  38  58  79 120 160 191 240 292 348
#     4  10  20  36  62  87 110 144 193 246 294 349
#     4  10  22  39  60  88 114 147 194 249 303 345
#     4   9  17  32  58  87 118 146 183 237 295 345
#     4  10  19  34  59  85 117 153 193 239 279 338
#     4  10  20  35  58  88 113 143 190 242 285 329
#
# _framework density 19.768681000000001
#
# number of rings (size 3 to 8) (size 9 to 14) (size 15 to 20)
#    0.000    2.000    2.500    1.125    3.500    3.000 
#    0.000    4.375    0.000    1.500    0.000    1.750 
#    0.000    0.000    0.000    0.000    0.000    0.000 
#
# Total GULP energy -396759.606339 kJ/mol
# GULP energy per Si atom -12398.737698 kJ/mol
# Density = 1.972369 g / cm^3
# Si number density = 19.768681 Si / 1000 Ang^3
#
#
#
# Elastic Constant Matrix: (Units=GPa)
#
#
# Indices 1 2 3 4 5 6 
#
# 1 96.3010 54.8074 16.0935 0.0000 15.1341 0.0000
# 2 54.8074 150.4064 28.0522 0.0000 4.0124 0.0000
# 3 16.0935 28.0522 26.0568 0.0000 4.1023 0.0000
# 4 0.0000 0.0000 0.0000 21.4170 0.0000 10.2769
# 5 15.1341 4.0124 4.1023 0.0000 19.7522 0.0000
# 6 0.0000 0.0000 0.0000 10.2769 0.0000 29.8343
#
#
#
# Elastic Compliance Matrix: (Units=1/GPa)
#
#
# Indices 1 2 3 4 5 6 
#
# 1 0.015107 -0.004744 -0.002638 0.000000 -0.010063 0.000000
# 2 -0.004744 0.009810 -0.008156 0.000000 0.003336 0.000000
# 3 -0.002638 -0.008156 0.049838 0.000000 -0.006673 0.000000
# 4 0.000000 0.000000 0.000000 0.055938 0.000000 -0.019269
# 5 -0.010063 0.003336 -0.006673 0.000000 0.059046 0.000000
# 6 0.000000 0.000000 0.000000 -0.019269 0.000000 0.040156
#
#
# Mechanical properties :
#
#
# Convention : Reuss Voigt Hill
#
# Bulk Modulus (GPa) = 22.89520 52.29670 37.59595
# Shear Modulus (GPa) = 18.14685 25.78811 21.96748
#
# Velocity S-wave (km/s) = 3.03307 3.61570 3.33712
# Velocity P-wave (km/s) = 4.88597 6.62893 5.82304
#
# Compressibility (1/GPa) = 0.04367727
#
# Stress axis : x y z
#
# Youngs Moduli (GPa) = 66.19655 101.94141 20.06493
#
# Poissons Ratio (x) = 0.48363 0.05294
# Poissons Ratio (y) = 0.31405 0.16365
# Poissons Ratio (z) = 0.17466 0.83142
#
# Static dielectric constant tensor:
#      x y z
#    x 3.842430 0.000000 0.278070 
#    y 0.000000 3.923670 0.000000 
#    z 0.278070 0.000000 3.450090 
# 
# 
# High freq. dielectric constant tensor:
#      x y z
#    x 1.758420 0.000000 0.026760 
#    y 0.000000 1.788630 0.000000 
#    z 0.026760 0.000000 1.746820 
# 
# From -- ./inp_files/70740.got.cif
#   From: 2010.06.25/outbox.cif.g09.slc.cpg/sg10_36_cif.got.tgz:70740.got - 2010.06.27 22:07:45.
