data_PCOD8062770
_publ_section_title
;
Structure prediction by ZEFSAII (Michael W. Deem and Ramdas Pophale) SiO2 
 PCOD8062770
Probable space group: P 2/M
;
_chemical_formula_sum "Si O2"
_cell_formula_units_Z 30
_cell_length_a 19.567828
_cell_length_b 13.352286
_cell_length_c 6.427488
_cell_angle_alpha 90.000000
_cell_angle_beta 116.730561
_cell_angle_gamma 90.000000
_cell_volume 1499.874695
_symmetry_space_group_name_H-M "P 2/M"
_symmetry_group_IT_number 10
_symmetry_cell_setting 'monoclinic'
loop_
_space_group_symop_operation_xyz
x,y,z
-x,y,-z
-x,-y,-z
x,-y,z
loop_
_atom_site_type_symbol
_atom_site_label
_atom_site_fract_x
_atom_site_fract_y
_atom_site_fract_z
Si Si1 0.116228 0.112192 0.871808
Si Si2 0.165402 0.238921 0.312704
Si Si3 0.637135 0.735773 0.962755
Si Si4 0.777943 0.381162 0.958362
Si Si5 0.500000 0.308111 0.500000
Si Si6 0.918133 0.700236 0.413398
Si Si7 0.254857 0.889551 0.758068
Si Si8 0.422160 0.393386 0.771748
O O1 0.066542 0.190839 0.671904
O O2 0.198160 0.107450 0.874518
O O3 0.079376 0.000000 0.827979
O O4 0.126137 0.153620 0.118397
O O5 0.204871 0.328078 0.237926
O O6 0.100083 0.287911 0.367728
O O7 0.228038 0.185097 0.541428
O O8 0.698742 0.664903 0.932605
O O9 0.556950 0.752500 0.730751
O O10 0.666881 0.847904 0.037623
O O11 0.627004 0.690543 0.180354
O O12 0.768829 0.500000 0.914611
O O13 0.848717 0.359165 0.209922
O O14 0.440858 0.371663 0.556858
O O15 0.000000 0.642975 0.500000
O O16 0.268016 0.000000 0.682455
O O17 0.377587 0.500000 0.715998
O O18 0.500000 0.406286 0.000000
#
# Coordination Sequence:
#
# PCOD8062770 Si02
#       8
#     4   4   4   4   2   4   4   4
#     4   9  18  34  58  90 119 150 198 249 300 355
#     4  10  19  39  59  88 116 158 202 245 300 348
#     4  11  21  40  58  89 120 152 194 244 295 354
#     4  11  24  40  61  90 120 155 203 248 294 354
#     4  10  23  36  59  84 124 156 193 240 297 346
#     4  10  22  40  58  82 124 162 198 246 296 352
#     4  10  20  37  62  88 118 155 197 246 300 354
#     4   9  19  35  56  82 116 155 190 231 290 348
#
# _framework density 20.001673
#
# number of rings (size 3 to 8) (size 9 to 14) (size 15 to 20)
#    0.000    2.000    4.000    1.000    1.867    5.333 
#    0.000    1.667    0.000    3.600    0.000    0.000 
#    0.000    0.000    0.000    0.000    0.000    0.000 
#
# Total GULP energy -371751.276853 kJ/mol
# GULP energy per Si atom -12391.709228 kJ/mol
# Density = 1.995615 g / cm^3
# Si number density = 20.001673 Si / 1000 Ang^3
#
#
#
# Elastic Constant Matrix: (Units=GPa)
#
#
# Indices 1 2 3 4 5 6 
#
# 1 95.4509 34.0996 46.6992 0.0000 -4.4690 0.0000
# 2 34.0996 91.3408 21.7072 0.0000 -7.3236 0.0000
# 3 46.6992 21.7072 89.3846 0.0000 -19.1076 0.0000
# 4 0.0000 0.0000 0.0000 29.9023 0.0000 1.4075
# 5 -4.4690 -7.3236 -19.1076 0.0000 39.6376 0.0000
# 6 0.0000 0.0000 0.0000 1.4075 0.0000 17.8930
#
#
#
# Elastic Compliance Matrix: (Units=1/GPa)
#
#
# Indices 1 2 3 4 5 6 
#
# 1 0.015639 -0.004221 -0.007732 0.000000 -0.002744 0.000000
# 2 -0.004221 0.012785 -0.000553 0.000000 0.001620 0.000000
# 3 -0.007732 -0.000553 0.016894 0.000000 0.007170 0.000000
# 4 0.000000 0.000000 0.000000 0.033567 0.000000 -0.002640
# 5 -0.002744 0.001620 0.007170 0.000000 0.028675 0.000000
# 6 0.000000 0.000000 0.000000 -0.002640 0.000000 0.056095
#
#
# Mechanical properties :
#
#
# Convention : Reuss Voigt Hill
#
# Bulk Modulus (GPa) = 49.24761 53.46538 51.35649
# Shear Modulus (GPa) = 25.58371 29.06460 27.32416
#
# Velocity S-wave (km/s) = 3.58030 3.81610 3.70008
# Velocity P-wave (km/s) = 6.46271 6.79745 6.63219
#
# Compressibility (1/GPa) = 0.02030555
#
# Stress axis : x y z
#
# Youngs Moduli (GPa) = 63.94287 78.21583 59.19101
#
# Poissons Ratio (x) = 0.33014 0.45767
# Poissons Ratio (y) = 0.26989 0.03276
# Poissons Ratio (z) = 0.49442 0.04329
#
# Static dielectric constant tensor:
#      x y z
#    x 3.608360 0.000000 -0.188450 
#    y 0.000000 3.788230 0.000000 
#    z -0.188450 0.000000 3.796990 
# 
# 
# High freq. dielectric constant tensor:
#      x y z
#    x 1.774450 0.000000 -0.009150 
#    y 0.000000 1.763260 0.000000 
#    z -0.009150 0.000000 1.787270 
# 
# From -- ./inp_files/11454.got.cif
#   From: 2010.06.25/outbox.cif.g09.slc.cpg/sg10_6_cif.got.tgz:11454.got - 2010.06.27 22:07:45.
