data_PCOD8062250
_publ_section_title
;
Structure prediction by ZEFSAII (Michael W. Deem and Ramdas Pophale) SiO2 
 PCOD8062250
Probable space group: P 2/M
;
_chemical_formula_sum "Si O2"
_cell_formula_units_Z 28
_cell_length_a 15.212034
_cell_length_b 9.106981
_cell_length_c 11.043028
_cell_angle_alpha 90.000000
_cell_angle_beta 66.090441
_cell_angle_gamma 90.000000
_cell_volume 1398.571338
_symmetry_space_group_name_H-M "P 2/M"
_symmetry_group_IT_number 10
_symmetry_cell_setting 'monoclinic'
loop_
_space_group_symop_operation_xyz
x,y,z
-x,y,-z
-x,-y,-z
x,-y,z
loop_
_atom_site_type_symbol
_atom_site_label
_atom_site_fract_x
_atom_site_fract_y
_atom_site_fract_z
Si Si1 0.054847 0.171562 0.294763
Si Si2 0.132425 0.665784 0.596171
Si Si3 0.547059 0.675141 0.347413
Si Si4 0.762681 0.326740 0.229660
Si Si5 0.085516 0.338212 0.044886
Si Si6 0.234186 0.665302 0.300575
Si Si7 0.549879 0.674655 0.848037
O O1 0.054587 0.212731 0.154202
O O2 0.154487 0.230354 0.289702
O O3 0.958521 0.243266 0.406215
O O4 0.048521 0.000000 0.320276
O O5 0.095059 0.500000 0.641372
O O6 0.175421 0.739615 0.693552
O O7 0.220027 0.665276 0.452787
O O8 0.500000 0.732296 0.500000
O O9 0.544449 0.500000 0.346786
O O10 0.655535 0.738080 0.284936
O O11 0.496858 0.735230 0.251611
O O12 0.757274 0.500000 0.254798
O O13 0.815733 0.288405 0.074867
O O14 0.101092 0.500000 0.096679
O O15 0.000000 0.353832 0.000000
O O16 0.222458 0.500000 0.255710
O O17 0.339466 0.727372 0.210472
O O18 0.543680 0.500000 0.849177
O O19 0.500000 0.734552 0.000000
#
# Coordination Sequence:
#
# PCOD8062250 Si02
#       7
#     4   4   4   4   4   4   4
#     4  12  25  37  53  79 113 148 187 231 277 328
#     4  10  19  36  57  82 111 144 185 226 273 331
#     4   9  16  27  46  77 113 142 171 218 279 332
#     4   9  17  29  52  81 110 142 175 217 273 333
#     4  10  19  35  57  80 108 143 183 224 271 330
#     4  10  21  36  58  81 109 147 186 228 274 329
#     4   9  18  31  49  80 115 142 177 229 282 329
#
# _framework density 20.020430000000001
#
# number of rings (size 3 to 8) (size 9 to 14) (size 15 to 20)
#    0.000    2.143    1.429    2.571    2.000    6.000 
#    0.000    0.000    0.000    0.429    0.000    0.000 
#    0.000    4.000    0.000    0.000    0.000    0.000 
#
# Total GULP energy -347051.422158 kJ/mol
# GULP energy per Si atom -12394.693648 kJ/mol
# Density = 1.997486 g / cm^3
# Si number density = 20.020430 Si / 1000 Ang^3
#
#
#
# Elastic Constant Matrix: (Units=GPa)
#
#
# Indices 1 2 3 4 5 6 
#
# 1 136.1343 29.6795 54.2192 0.0000 -17.4211 0.0000
# 2 29.6795 55.8740 13.1407 0.0000 -5.4853 0.0000
# 3 54.2192 13.1407 122.2726 0.0000 -20.7198 0.0000
# 4 0.0000 0.0000 0.0000 -4.0375 0.0000 -1.0069
# 5 -17.4211 -5.4853 -20.7198 0.0000 44.3161 0.0000
# 6 0.0000 0.0000 0.0000 -1.0069 0.0000 1.7389
#
#
#
# Elastic Compliance Matrix: (Units=1/GPa)
#
#
# Indices 1 2 3 4 5 6 
#
# 1 0.009950 -0.004258 -0.003672 0.000000 0.001668 0.000000
# 2 -0.004258 0.020272 -0.000162 0.000000 0.000760 0.000000
# 3 -0.003672 -0.000162 0.010400 0.000000 0.003399 0.000000
# 4 0.000000 0.000000 0.000000 -0.216423 0.000000 -0.125319
# 5 0.001668 0.000760 0.003399 0.000000 0.024904 0.000000
# 6 0.000000 0.000000 0.000000 -0.125319 0.000000 0.502501
#
#
# Mechanical properties :
#
#
# Convention : Reuss Voigt Hill
#
# Bulk Modulus (GPa) = 40.91908 56.48440 48.70174
# Shear Modulus (GPa) = 13.30025 22.88627 18.09326
#
# Velocity S-wave (km/s) = 2.58026 3.38471 3.00949
# Velocity P-wave (km/s) = 5.41849 6.59922 6.03779
#
# Compressibility (1/GPa) = 0.02443848
#
# Stress axis : x y z
#
# Youngs Moduli (GPa) = 100.50453 49.32958 96.15370
#
# Poissons Ratio (x) = 0.21004 0.35306
# Poissons Ratio (y) = 0.42794 0.01556
# Poissons Ratio (z) = 0.36904 0.00798
#
# Static dielectric constant tensor:
#      x y z
#    x 3.769880 0.000000 -0.072390 
#    y 0.000000 3.011000 0.000000 
#    z -0.072390 0.000000 4.056690 
# 
# 
# High freq. dielectric constant tensor:
#      x y z
#    x 1.791180 0.000000 -0.004330 
#    y 0.000000 1.701860 0.000000 
#    z -0.004330 0.000000 1.800620 
# 
# From -- ./inp_files/49319.got.cif
#   From: 2010.06.25/outbox.cif.g09.slc.cpg/sg10_25_cif.got.tgz:49319.got - 2010.06.27 22:07:45.
