data_PCOD8062025
_publ_section_title
;
Structure prediction by ZEFSAII (Michael W. Deem and Ramdas Pophale) SiO2 
 PCOD8062025
Probable space group: P 2/M
;
_chemical_formula_sum "Si O2"
_cell_formula_units_Z 32
_cell_length_a 16.718775
_cell_length_b 9.111887
_cell_length_c 25.611335
_cell_angle_alpha 90.000000
_cell_angle_beta 155.326157
_cell_angle_gamma 90.000000
_cell_volume 1628.740236
_symmetry_space_group_name_H-M "P 2/M"
_symmetry_group_IT_number 10
_symmetry_cell_setting 'monoclinic'
loop_
_space_group_symop_operation_xyz
x,y,z
-x,y,-z
-x,-y,-z
x,-y,z
loop_
_atom_site_type_symbol
_atom_site_label
_atom_site_fract_x
_atom_site_fract_y
_atom_site_fract_z
Si Si1 0.089270 0.829958 0.676055
Si Si2 0.874713 0.667612 0.748392
Si Si3 0.639796 0.671779 0.231101
Si Si4 0.762769 0.833198 0.402272
Si Si5 0.656041 0.168342 0.802151
Si Si6 0.173748 0.172478 0.386792
Si Si7 0.769399 0.671457 0.969291
Si Si8 0.560359 0.330512 0.646017
O O1 0.283388 0.740895 0.777702
O O2 0.927089 0.782045 0.538813
O O3 0.011861 0.791462 0.687810
O O4 0.139093 0.000000 0.701131
O O5 0.901099 0.500000 0.744777
O O6 0.875206 0.775927 0.700072
O O7 0.674868 0.684755 0.659946
O O8 0.048068 0.715145 0.888460
O O9 0.665663 0.500000 0.243186
O O10 0.769739 0.732490 0.355366
O O11 0.419040 0.716851 0.109497
O O12 0.565928 0.815211 0.316162
O O13 0.792183 0.000000 0.400899
O O14 0.783107 0.239984 0.923260
O O15 0.686836 0.254316 0.766259
O O16 0.719339 0.000000 0.832900
O O17 0.356558 0.254466 0.518436
O O18 0.219977 0.000000 0.414993
O O19 0.765489 0.500000 0.952979
O O20 0.529075 0.500000 0.642379
#
# Coordination Sequence:
#
# PCOD8062025 Si02
#       8
#     4   4   4   4   4   4   4   4
#     4  10  20  35  53  77 111 149 181 219 280 340
#     4  10  23  42  61  81 109 152 195 232 281 339
#     4  10  20  32  52  83 110 141 186 231 272 320
#     4   9  17  32  51  74 111 152 180 214 275 339
#     4  10  19  34  57  86 118 150 187 231 280 332
#     4  11  23  40  60  85 115 146 186 236 285 334
#     4   9  20  40  59  79 115 154 191 232 277 332
#     4  11  22  37  60  87 115 147 186 230 285 344
#
# _framework density 19.647088
#
# number of rings (size 3 to 8) (size 9 to 14) (size 15 to 20)
#    0.000    2.000    1.250    2.250    0.000    7.500 
#    0.000    3.125    0.000    3.750    0.000    0.000 
#    0.000    0.000    0.000    0.000    0.000    0.000 
#
# Total GULP energy -396886.317733 kJ/mol
# GULP energy per Si atom -12402.697429 kJ/mol
# Density = 1.960237 g / cm^3
# Si number density = 19.647088 Si / 1000 Ang^3
#
#
#
# Elastic Constant Matrix: (Units=GPa)
#
#
# Indices 1 2 3 4 5 6 
#
# 1 98.4953 53.9513 20.8936 0.0000 -13.7055 0.0000
# 2 53.9513 100.0809 32.4254 0.0000 -12.9337 0.0000
# 3 20.8936 32.4254 54.9872 0.0000 -15.9080 0.0000
# 4 0.0000 0.0000 0.0000 22.4205 0.0000 -3.6147
# 5 -13.7055 -12.9337 -15.9080 0.0000 17.4124 0.0000
# 6 0.0000 0.0000 0.0000 -3.6147 0.0000 37.9508
#
#
#
# Elastic Compliance Matrix: (Units=1/GPa)
#
#
# Indices 1 2 3 4 5 6 
#
# 1 0.015047 -0.007433 0.000673 0.000000 0.006937 0.000000
# 2 -0.007433 0.016176 -0.006702 0.000000 0.000041 0.000000
# 3 0.000673 -0.006702 0.027995 0.000000 0.021127 0.000000
# 4 0.000000 0.000000 0.000000 0.045298 0.000000 0.004314
# 5 0.006937 0.000041 0.021127 0.000000 0.082223 0.000000
# 6 0.000000 0.000000 0.000000 0.004314 0.000000 0.026761
#
#
# Mechanical properties :
#
#
# Convention : Reuss Voigt Hill
#
# Bulk Modulus (GPa) = 30.96729 52.01157 41.48943
# Shear Modulus (GPa) = 19.90540 25.30961 22.60750
#
# Velocity S-wave (km/s) = 3.18645 3.59306 3.39585
# Velocity P-wave (km/s) = 5.41608 6.61391 6.04474
#
# Compressibility (1/GPa) = 0.03229214
#
# Stress axis : x y z
#
# Youngs Moduli (GPa) = 66.45984 61.82156 35.72064
#
# Poissons Ratio (x) = 0.45950 -0.02403
# Poissons Ratio (y) = 0.49398 0.23941
# Poissons Ratio (z) = -0.04470 0.41435
#
# Static dielectric constant tensor:
#      x y z
#    x 3.720860 0.000000 0.076330 
#    y 0.000000 3.597570 0.000000 
#    z 0.076330 0.000000 3.428700 
# 
# 
# High freq. dielectric constant tensor:
#      x y z
#    x 1.772780 0.000000 0.008000 
#    y 0.000000 1.766840 0.000000 
#    z 0.008000 0.000000 1.748960 
# 
# From -- ./inp_files/71445.got.cif
#   From: 2010.06.25/outbox.cif.g09.slc.cpg/sg10_36_cif.got.tgz:71445.got - 2010.06.27 22:07:45.
