data_PCOD8062728
_publ_section_title
;
Structure prediction by ZEFSAII (Michael W. Deem and Ramdas Pophale) SiO2 
 PCOD8062728
Probable space group: P 2/M
;
_chemical_formula_sum "Si O2"
_cell_formula_units_Z 20
_cell_length_a 8.355064
_cell_length_b 17.142787
_cell_length_c 9.081341
_cell_angle_alpha 90.000000
_cell_angle_beta 128.012673
_cell_angle_gamma 90.000000
_cell_volume 1024.798003
_symmetry_space_group_name_H-M "P 2/M"
_symmetry_group_IT_number 10
_symmetry_cell_setting 'monoclinic'
loop_
_space_group_symop_operation_xyz
x,y,z
-x,y,-z
-x,-y,-z
x,-y,z
loop_
_atom_site_type_symbol
_atom_site_label
_atom_site_fract_x
_atom_site_fract_y
_atom_site_fract_z
Si Si1 0.423170 0.412398 0.791978
Si Si2 0.175132 0.225842 0.366247
Si Si3 0.913907 0.086814 0.288790
Si Si4 0.000000 0.659139 0.500000
Si Si5 0.500000 0.833975 0.000000
Si Si6 0.426357 0.259240 0.242680
O O1 0.468873 0.500000 0.762276
O O2 0.536069 0.351816 0.749240
O O3 0.183965 0.396545 0.647456
O O4 0.500000 0.400535 0.000000
O O5 0.224737 0.252841 0.227829
O O6 0.384519 0.215266 0.574052
O O7 0.054690 0.145071 0.275307
O O8 0.036882 0.287055 0.377322
O O9 0.679260 0.112267 0.163053
O O10 0.000000 0.087783 0.500000
O O11 0.928430 0.000000 0.228044
O O12 0.600655 0.779478 0.932041
#
# Coordination Sequence:
#
# PCOD8062728 Si02
#       6
#     4   4   4   2   2   4
#     4  10  20  36  58  87 118 151 191 243 292 334
#     4  10  20  40  60  88 117 157 199 235 288 351
#     4  11  22  39  61  88 119 152 190 246 297 338
#     4  10  19  38  59  82 116 158 200 226 287 352
#     4  12  21  40  61  88 114 156 202 232 289 356
#     4  10  21  37  63  87 117 158 199 235 285 352
#
# _framework density 19.516041000000001
#
# number of rings (size 3 to 8) (size 9 to 14) (size 15 to 20)
#    0.000    1.600    4.000    1.800    0.000    0.800 
#    0.000   14.000    0.000    2.400    0.000    0.000 
#    0.000    0.000    0.000    0.000    0.000    0.000 
#
# Total GULP energy -247972.581702 kJ/mol
# GULP energy per Si atom -12398.629085 kJ/mol
# Density = 1.947162 g / cm^3
# Si number density = 19.516041 Si / 1000 Ang^3
#
#
#
# Elastic Constant Matrix: (Units=GPa)
#
#
# Indices 1 2 3 4 5 6 
#
# 1 127.9708 75.0579 38.9572 0.0000 -16.4585 0.0000
# 2 75.0579 154.1475 50.9361 0.0000 6.5476 0.0000
# 3 38.9572 50.9361 82.0033 0.0000 1.7943 0.0000
# 4 0.0000 0.0000 0.0000 13.5400 0.0000 -7.7205
# 5 -16.4585 6.5476 1.7943 0.0000 31.4844 0.0000
# 6 0.0000 0.0000 0.0000 -7.7205 0.0000 10.3040
#
#
#
# Elastic Compliance Matrix: (Units=1/GPa)
#
#
# Indices 1 2 3 4 5 6 
#
# 1 0.013144 -0.005822 -0.002808 0.000000 0.008242 0.000000
# 2 -0.005822 0.010805 -0.003834 0.000000 -0.005072 0.000000
# 3 -0.002808 -0.003834 0.015945 0.000000 -0.001579 0.000000
# 4 0.000000 0.000000 0.000000 0.128944 0.000000 0.096614
# 5 0.008242 -0.005072 -0.001579 0.000000 0.037215 0.000000
# 6 0.000000 0.000000 0.000000 0.096614 0.000000 0.169439
#
#
# Mechanical properties :
#
#
# Convention : Reuss Voigt Hill
#
# Bulk Modulus (GPa) = 66.82656 77.11378 71.97017
# Shear Modulus (GPa) = 12.33319 24.34370 18.33845
#
# Velocity S-wave (km/s) = 2.51659 3.53564 3.06871
# Velocity P-wave (km/s) = 6.53915 7.50110 7.03658
#
# Compressibility (1/GPa) = 0.01496411
#
# Stress axis : x y z
#
# Youngs Moduli (GPa) = 76.07971 92.55164 62.71575
#
# Poissons Ratio (x) = 0.53887 0.17612
# Poissons Ratio (y) = 0.44296 0.24047
# Poissons Ratio (z) = 0.21365 0.35488
#
# Static dielectric constant tensor:
#      x y z
#    x 3.568380 0.000000 0.058390 
#    y 0.000000 3.789480 0.000000 
#    z 0.058390 0.000000 3.559560 
# 
# 
# High freq. dielectric constant tensor:
#      x y z
#    x 1.750030 0.000000 0.010010 
#    y 0.000000 1.758490 0.000000 
#    z 0.010010 0.000000 1.765050 
# 
# From -- ./inp_files/19745.got.cif
#   From: 2010.06.25/outbox.cif.g09.slc.cpg/sg10_10_cif.got.tgz:19745.got - 2010.06.27 22:07:45.
