data_PCOD8062552
_publ_section_title
;
Structure prediction by ZEFSAII (Michael W. Deem and Ramdas Pophale) SiO2 
 PCOD8062552
Probable space group: P 2/M
;
_chemical_formula_sum "Si O2"
_cell_formula_units_Z 32
_cell_length_a 15.325793
_cell_length_b 8.852748
_cell_length_c 12.175781
_cell_angle_alpha 90.000000
_cell_angle_beta 89.288925
_cell_angle_gamma 90.000000
_cell_volume 1651.826537
_symmetry_space_group_name_H-M "P 2/M"
_symmetry_group_IT_number 10
_symmetry_cell_setting 'monoclinic'
loop_
_space_group_symop_operation_xyz
x,y,z
-x,y,-z
-x,-y,-z
x,-y,z
loop_
_atom_site_type_symbol
_atom_site_label
_atom_site_fract_x
_atom_site_fract_y
_atom_site_fract_z
Si Si1 0.250445 0.678499 0.389055
Si Si2 0.347768 0.167194 0.757709
Si Si3 0.096772 0.322709 0.984824
Si Si4 0.854971 0.167260 0.232574
Si Si5 0.598815 0.821333 0.473598
Si Si6 0.600816 0.178565 0.010650
Si Si7 0.252348 0.678941 0.135702
Si Si8 0.903020 0.177395 0.470231
O O1 0.255166 0.500000 0.399255
O O2 0.338483 0.746464 0.438126
O O3 0.243909 0.729673 0.262158
O O4 0.164983 0.734996 0.453069
O O5 0.246058 0.156630 0.742480
O O6 0.384713 0.248555 0.648267
O O7 0.370987 0.249408 0.871788
O O8 0.390102 0.000000 0.763581
O O9 0.091618 0.500000 0.001954
O O10 0.167192 0.257201 0.071265
O O11 0.127009 0.286861 0.862019
O O12 0.000000 0.251081 0.000000
O O13 0.897157 0.227555 0.343792
O O14 0.890747 0.000000 0.200016
O O15 0.500000 0.779774 0.500000
O O16 0.617364 0.000000 0.474784
O O17 0.617967 0.000000 0.004807
O O18 0.500000 0.220833 0.000000
O O19 0.658583 0.253067 0.914640
O O20 0.257935 0.500000 0.123703
O O21 0.000000 0.224387 0.500000
O O22 0.884341 0.000000 0.484227
#
# Coordination Sequence:
#
# PCOD8062552 Si02
#       8
#     4   4   4   4   4   4   4   4
#     4  11  24  40  58  83 120 157 192 239 288 343
#     4   9  17  34  56  83 114 140 179 238 286 325
#     4  10  22  39  59  82 112 152 194 233 280 341
#     4  10  19  36  60  84 113 143 183 241 289 332
#     4  10  21  38  63  88 115 154 194 236 289 343
#     4  10  21  36  59  87 112 143 188 236 281 336
#     4  10  23  41  56  79 118 156 190 233 284 338
#     4  10  22  40  61  86 116 151 192 240 291 345
#
# _framework density 19.372492000000001
#
# number of rings (size 3 to 8) (size 9 to 14) (size 15 to 20)
#    0.000    2.000    2.500    0.375    3.500    2.500 
#    0.000    0.625    0.000    0.000    0.000    0.000 
#    0.000    0.000    0.000    0.000    0.000    0.000 
#
# Total GULP energy -396736.551696 kJ/mol
# GULP energy per Si atom -12398.017240 kJ/mol
# Density = 1.932840 g / cm^3
# Si number density = 19.372492 Si / 1000 Ang^3
#
#
#
# Elastic Constant Matrix: (Units=GPa)
#
#
# Indices 1 2 3 4 5 6 
#
# 1 131.2688 30.4783 57.4102 0.0000 6.5004 0.0000
# 2 30.4783 30.7729 28.7236 0.0000 0.2298 0.0000
# 3 57.4102 28.7236 135.8018 0.0000 10.6380 0.0000
# 4 0.0000 0.0000 0.0000 39.1776 0.0000 -13.5489
# 5 6.5004 0.2298 10.6380 0.0000 36.2714 0.0000
# 6 0.0000 0.0000 0.0000 -13.5489 0.0000 34.2609
#
#
#
# Elastic Compliance Matrix: (Units=1/GPa)
#
#
# Indices 1 2 3 4 5 6 
#
# 1 0.010748 -0.008067 -0.002754 0.000000 -0.001067 0.000000
# 2 -0.008067 0.046734 -0.006719 0.000000 0.003120 0.000000
# 3 -0.002754 -0.006719 0.010140 0.000000 -0.002438 0.000000
# 4 0.000000 0.000000 0.000000 0.029569 0.000000 0.011693
# 5 -0.001067 0.003120 -0.002438 0.000000 0.028456 0.000000
# 6 0.000000 0.000000 0.000000 0.011693 0.000000 0.033812
#
#
# Mechanical properties :
#
#
# Convention : Reuss Voigt Hill
#
# Bulk Modulus (GPa) = 30.72881 59.00750 44.86815
# Shear Modulus (GPa) = 24.34438 34.02408 29.18423
#
# Velocity S-wave (km/s) = 3.54877 4.19538 3.88555
# Velocity P-wave (km/s) = 5.71736 7.34805 6.58339
#
# Compressibility (1/GPa) = 0.03254275
#
# Stress axis : x y z
#
# Youngs Moduli (GPa) = 93.03861 21.39775 98.61920
#
# Poissons Ratio (x) = 0.17261 0.27160
# Poissons Ratio (y) = 0.75052 0.66262
# Poissons Ratio (z) = 0.25623 0.14377
#
# Static dielectric constant tensor:
#      x y z
#    x 3.625050 0.000000 0.165110 
#    y 0.000000 3.284370 0.000000 
#    z 0.165110 0.000000 3.714520 
# 
# 
# High freq. dielectric constant tensor:
#      x y z
#    x 1.764600 0.000000 0.004740 
#    y 0.000000 1.723100 0.000000 
#    z 0.004740 0.000000 1.771740 
# 
# From -- ./inp_files/49276.got.cif
#   From: 2010.06.25/outbox.cif.g09.slc.cpg/sg10_25_cif.got.tgz:49276.got - 2010.06.27 22:07:45.
