data_PCOD8062547
_publ_section_title
;
Structure prediction by ZEFSAII (Michael W. Deem and Ramdas Pophale) SiO2 
 PCOD8062547
Probable space group: P 2/M
;
_chemical_formula_sum "Si O2"
_cell_formula_units_Z 24
_cell_length_a 13.665518
_cell_length_b 9.021078
_cell_length_c 16.964864
_cell_angle_alpha 90.000000
_cell_angle_beta 143.766873
_cell_angle_gamma 90.000000
_cell_volume 1236.162041
_symmetry_space_group_name_H-M "P 2/M"
_symmetry_group_IT_number 10
_symmetry_cell_setting 'monoclinic'
loop_
_space_group_symop_operation_xyz
x,y,z
-x,y,-z
-x,-y,-z
x,-y,z
loop_
_atom_site_type_symbol
_atom_site_label
_atom_site_fract_x
_atom_site_fract_y
_atom_site_fract_z
Si Si1 0.811741 0.175488 0.887709
Si Si2 0.894615 0.174582 0.250585
Si Si3 0.537961 0.674311 0.613089
Si Si4 0.298766 0.174228 0.716754
Si Si5 0.219564 0.324850 0.505921
Si Si6 0.326905 0.175812 0.036672
O O1 0.705016 0.245785 0.748583
O O2 0.747475 0.235898 0.929897
O O3 0.794479 0.000000 0.870725
O O4 0.000000 0.227435 0.000000
O O5 0.803774 0.214187 0.272595
O O6 0.068339 0.258579 0.357785
O O7 0.926308 0.000000 0.263350
O O8 0.781887 0.236572 0.106276
O O9 0.500000 0.726987 0.500000
O O10 0.567999 0.500000 0.636212
O O11 0.388033 0.723541 0.572202
O O12 0.214036 0.258291 0.589605
O O13 0.485462 0.232652 0.850451
O O14 0.295068 0.000000 0.695780
O O15 0.201111 0.500000 0.498115
O O16 0.324217 0.000000 0.032631
#
# Coordination Sequence:
#
# PCOD8062547 Si02
#       6
#     4   4   4   4   4   4
#     4  10  21  37  60  90 115 138 178 234 289 333
#     4  10  21  35  57  86 113 148 190 227 272 333
#     4  10  23  42  60  80 110 150 191 228 273 334
#     4  10  19  36  60  83 110 149 191 228 275 332
#     4  11  23  38  56  81 114 149 187 232 280 326
#     4   9  18  35  57  83 115 144 179 229 277 329
#
# _framework density 19.414929999999998
#
# number of rings (size 3 to 8) (size 9 to 14) (size 15 to 20)
#    0.000    2.000    1.667    1.500    2.333    6.000 
#    0.000    1.667    0.000    2.000    0.000    0.000 
#    0.000    0.000    0.000    0.000    0.000    0.000 
#
# Total GULP energy -297711.608167 kJ/mol
# GULP energy per Si atom -12404.650340 kJ/mol
# Density = 1.937074 g / cm^3
# Si number density = 19.414930 Si / 1000 Ang^3
#
#
#
# Elastic Constant Matrix: (Units=GPa)
#
#
# Indices 1 2 3 4 5 6 
#
# 1 93.3134 30.2502 48.8565 0.0000 -0.9918 0.0000
# 2 30.2502 33.5091 35.5504 0.0000 2.0278 0.0000
# 3 48.8565 35.5504 154.9089 0.0000 1.2663 0.0000
# 4 0.0000 0.0000 0.0000 12.7242 0.0000 2.5942
# 5 -0.9918 2.0278 1.2663 0.0000 41.5302 0.0000
# 6 0.0000 0.0000 0.0000 2.5942 0.0000 19.0474
#
#
#
# Elastic Compliance Matrix: (Units=1/GPa)
#
#
# Indices 1 2 3 4 5 6 
#
# 1 0.015765 -0.011910 -0.002247 0.000000 0.001027 0.000000
# 2 -0.011910 0.048557 -0.007367 0.000000 -0.002431 0.000000
# 3 -0.002247 -0.007367 0.008855 0.000000 0.000036 0.000000
# 4 0.000000 0.000000 0.000000 0.080835 0.000000 -0.011010
# 5 0.001027 -0.002431 0.000036 0.000000 0.024221 0.000000
# 6 0.000000 0.000000 0.000000 -0.011010 0.000000 0.054000
#
#
# Mechanical properties :
#
#
# Convention : Reuss Voigt Hill
#
# Bulk Modulus (GPa) = 33.19161 56.78285 44.98723
# Shear Modulus (GPa) = 17.52386 25.79863 21.66125
#
# Velocity S-wave (km/s) = 3.00758 3.64923 3.34383
# Velocity P-wave (km/s) = 5.40313 6.86049 6.17495
#
# Compressibility (1/GPa) = 0.03012809
#
# Stress axis : x y z
#
# Youngs Moduli (GPa) = 63.43168 20.59417 112.93470
#
# Poissons Ratio (x) = 0.24527 0.25380
# Poissons Ratio (y) = 0.75545 0.83205
# Poissons Ratio (z) = 0.14255 0.15173
#
# Static dielectric constant tensor:
#      x y z
#    x 3.675560 0.000000 0.019660 
#    y 0.000000 3.198890 0.000000 
#    z 0.019660 0.000000 3.729810 
# 
# 
# High freq. dielectric constant tensor:
#      x y z
#    x 1.765570 0.000000 0.001410 
#    y 0.000000 1.725110 0.000000 
#    z 0.001410 0.000000 1.773840 
# 
# From -- ./inp_files/27068.got.cif
#   From: 2010.06.25/outbox.cif.g09.slc.cpg/sg10_14_cif.got.tgz:27068.got - 2010.06.27 22:07:45.
