data_PCOD8062574
_publ_section_title
;
Structure prediction by ZEFSAII (Michael W. Deem and Ramdas Pophale) SiO2 
 PCOD8062574
Probable space group: P 2/M
;
_chemical_formula_sum "Si O2"
_cell_formula_units_Z 28
_cell_length_a 12.406837
_cell_length_b 12.906379
_cell_length_c 21.283668
_cell_angle_alpha 90.000000
_cell_angle_beta 23.369628
_cell_angle_gamma 90.000000
_cell_volume 1351.860387
_symmetry_space_group_name_H-M "P 2/M"
_symmetry_group_IT_number 10
_symmetry_cell_setting 'monoclinic'
loop_
_space_group_symop_operation_xyz
x,y,z
-x,y,-z
-x,-y,-z
x,-y,z
loop_
_atom_site_type_symbol
_atom_site_label
_atom_site_fract_x
_atom_site_fract_y
_atom_site_fract_z
Si Si1 0.180392 0.616997 0.180348
Si Si2 0.743135 0.384042 0.181775
Si Si3 0.397551 0.198564 0.334965
Si Si4 0.423406 0.880916 0.893158
Si Si5 0.941208 0.792102 0.667390
Si Si6 0.534803 0.882200 0.571497
Si Si7 0.070565 0.740682 0.800066
O O1 0.067302 0.500000 0.244350
O O2 0.112138 0.674354 0.282196
O O3 0.037467 0.678118 0.201013
O O4 0.500000 0.616707 0.000000
O O5 0.627139 0.500000 0.251371
O O6 0.514383 0.314767 0.270696
O O7 0.822031 0.342934 0.208002
O O8 0.000000 0.383034 0.000000
O O9 0.449162 0.138775 0.243347
O O10 0.547329 0.133801 0.310801
O O11 0.076362 0.207725 0.525133
O O12 0.658902 0.854862 0.817668
O O13 0.336981 0.000000 0.946396
O O14 0.163385 0.810380 0.043686
O O15 0.150314 0.845942 0.605008
O O16 0.322856 0.814355 0.643795
O O17 0.503563 0.000000 0.566758
#
# Coordination Sequence:
#
# PCOD8062574 Si02
#       7
#     4   4   4   4   4   4   4
#     4  11  24  46  69  87 118 162 209 265 317 363
#     4  10  19  36  60  89 125 163 199 255 317 363
#     4   9  21  36  60  92 129 158 204 253 295 377
#     4  12  22  37  65  94 129 169 206 248 303 369
#     4  10  23  41  61  91 125 158 213 253 302 371
#     4   9  20  39  61  90 129 164 196 248 309 356
#     4  11  22  40  63  96 122 158 216 259 296 373
#
# _framework density 20.712197
#
# number of rings (size 3 to 8) (size 9 to 14) (size 15 to 20)
#    0.857    0.857    2.857    2.143    0.000    1.714 
#    0.000    7.857    0.000    1.714    0.000    0.000 
#    0.000    0.000    0.000    0.000    0.000    0.000 
#
# Total GULP energy -347082.597350 kJ/mol
# GULP energy per Si atom -12395.807048 kJ/mol
# Density = 2.066506 g / cm^3
# Si number density = 20.712197 Si / 1000 Ang^3
#
#
#
# Elastic Constant Matrix: (Units=GPa)
#
#
# Indices 1 2 3 4 5 6 
#
# 1 58.8012 20.6756 -2.1938 0.0000 -11.2055 0.0000
# 2 20.6756 147.4537 15.3991 0.0000 -6.1458 0.0000
# 3 -2.1938 15.3991 46.7065 0.0000 -10.8332 0.0000
# 4 0.0000 0.0000 0.0000 25.1422 0.0000 -2.2724
# 5 -11.2055 -6.1458 -10.8332 0.0000 30.0066 0.0000
# 6 0.0000 0.0000 0.0000 -2.2724 0.0000 30.5943
#
#
#
# Elastic Compliance Matrix: (Units=1/GPa)
#
#
# Indices 1 2 3 4 5 6 
#
# 1 0.019682 -0.002811 0.003735 0.000000 0.008123 0.000000
# 2 -0.002811 0.007437 -0.002700 0.000000 -0.000502 0.000000
# 3 0.003735 -0.002700 0.024743 0.000000 0.009775 0.000000
# 4 0.000000 0.000000 0.000000 0.040043 0.000000 0.002974
# 5 0.008123 -0.000502 0.009775 0.000000 0.039786 0.000000
# 6 0.000000 0.000000 0.000000 0.002974 0.000000 0.032907
#
#
# Mechanical properties :
#
#
# Convention : Reuss Voigt Hill
#
# Bulk Modulus (GPa) = 20.69969 35.63592 28.16780
# Shear Modulus (GPa) = 27.13653 31.75399 29.44526
#
# Velocity S-wave (km/s) = 3.62356 3.91974 3.77455
# Velocity P-wave (km/s) = 5.24619 6.14235 5.71187
#
# Compressibility (1/GPa) = 0.04830990
#
# Stress axis : x y z
#
# Youngs Moduli (GPa) = 50.80721 134.46113 40.41507
#
# Poissons Ratio (x) = 0.37802 -0.15097
# Poissons Ratio (y) = 0.14284 0.10914
# Poissons Ratio (z) = -0.18978 0.36310
#
# Static dielectric constant tensor:
#      x y z
#    x 3.611410 0.000000 -0.123000 
#    y 0.000000 3.837490 0.000000 
#    z -0.123000 0.000000 3.725240 
# 
# 
# High freq. dielectric constant tensor:
#      x y z
#    x 1.806830 0.000000 -0.007130 
#    y 0.000000 1.812010 0.000000 
#    z -0.007130 0.000000 1.808740 
# 
# From -- ./inp_files/83933.got.cif
#   From: 2010.06.25/outbox.cif.g09.slc.cpg/sg10_42_cif.got.tgz:83933.got - 2010.06.27 22:07:45.
