data_PCOD8062569
_publ_section_title
;
Structure prediction by ZEFSAII (Michael W. Deem and Ramdas Pophale) SiO2 
 PCOD8062569
Probable space group: P 2/M
;
_chemical_formula_sum "Si O2"
_cell_formula_units_Z 28
_cell_length_a 22.518646
_cell_length_b 8.670243
_cell_length_c 16.408702
_cell_angle_alpha 90.000000
_cell_angle_beta 25.755176
_cell_angle_gamma 90.000000
_cell_volume 1392.079896
_symmetry_space_group_name_H-M "P 2/M"
_symmetry_group_IT_number 10
_symmetry_cell_setting 'monoclinic'
loop_
_space_group_symop_operation_xyz
x,y,z
-x,y,-z
-x,-y,-z
x,-y,z
loop_
_atom_site_type_symbol
_atom_site_label
_atom_site_fract_x
_atom_site_fract_y
_atom_site_fract_z
Si Si1 0.844638 0.178393 0.189319
Si Si2 0.346868 0.817785 0.272230
Si Si3 0.350209 0.818391 0.085092
Si Si4 0.346746 0.681129 0.707624
Si Si5 0.894457 0.680798 0.700187
Si Si6 0.866843 0.821718 0.342467
Si Si7 0.140258 0.818397 0.081086
O O1 0.748276 0.278638 0.251611
O O2 0.797490 0.201744 0.340503
O O3 0.838771 0.000000 0.167438
O O4 0.000000 0.237713 0.000000
O O5 0.303549 0.777851 0.234229
O O6 0.233725 0.738116 0.469436
O O7 0.356591 0.000000 0.270200
O O8 0.495479 0.756072 0.114735
O O9 0.258867 0.720110 0.137011
O O10 0.334902 0.000000 0.084909
O O11 0.500000 0.745787 0.500000
O O12 0.352896 0.500000 0.711862
O O13 0.283330 0.750257 0.869861
O O14 0.915038 0.500000 0.685735
O O15 0.912027 0.758511 0.766784
O O16 0.000000 0.744256 0.500000
O O17 0.023902 0.765723 0.158868
O O18 0.871820 0.000000 0.359913
O O19 0.160250 0.000000 0.062606
#
# Coordination Sequence:
#
# PCOD8062569 Si02
#       7
#     4   4   4   4   4   4   4
#     4  10  19  36  60  87 117 148 195 252 297 349
#     4   8  15  29  52  82 111 140 181 237 293 341
#     4   9  17  32  54  79 109 145 191 240 285 341
#     4  11  25  43  61  87 127 168 204 247 307 374
#     4  11  24  39  55  81 121 161 195 238 295 358
#     4   9  17  31  55  85 113 140 182 243 298 344
#     4  11  22  39  64  89 114 151 202 255 302 353
#
# _framework density 20.113789000000001
#
# number of rings (size 3 to 8) (size 9 to 14) (size 15 to 20)
#    0.000    2.143    1.429    3.000    0.000    4.857 
#    0.000    2.857    0.000    2.571    0.000    0.000 
#    0.000    0.000    0.000    0.000    0.000    0.000 
#
# Total GULP energy -347017.369029 kJ/mol
# GULP energy per Si atom -12393.477465 kJ/mol
# Density = 2.006801 g / cm^3
# Si number density = 20.113789 Si / 1000 Ang^3
#
#
#
# Elastic Constant Matrix: (Units=GPa)
#
#
# Indices 1 2 3 4 5 6 
#
# 1 88.9721 23.3028 34.1987 0.0000 -1.5538 0.0000
# 2 23.3028 52.1960 31.7940 0.0000 3.3759 0.0000
# 3 34.1987 31.7940 135.7706 0.0000 12.7942 0.0000
# 4 0.0000 0.0000 0.0000 19.7708 0.0000 7.8193
# 5 -1.5538 3.3759 12.7942 0.0000 27.4121 0.0000
# 6 0.0000 0.0000 0.0000 7.8193 0.0000 16.7011
#
#
#
# Elastic Compliance Matrix: (Units=1/GPa)
#
#
# Indices 1 2 3 4 5 6 
#
# 1 0.013475 -0.004627 -0.002548 0.000000 0.002523 0.000000
# 2 -0.004627 0.023937 -0.004328 0.000000 -0.001190 0.000000
# 3 -0.002548 -0.004328 0.009397 0.000000 -0.003998 0.000000
# 4 0.000000 0.000000 0.000000 0.062074 0.000000 -0.029063
# 5 0.002523 -0.001190 -0.003998 0.000000 0.038636 0.000000
# 6 0.000000 0.000000 0.000000 -0.029063 0.000000 0.073483
#
#
# Mechanical properties :
#
#
# Convention : Reuss Voigt Hill
#
# Bulk Modulus (GPa) = 42.01050 50.61441 46.31246
# Shear Modulus (GPa) = 19.84574 25.28635 22.56604
#
# Velocity S-wave (km/s) = 3.14454 3.54950 3.35314
# Velocity P-wave (km/s) = 5.84089 6.48207 6.16981
#
# Compressibility (1/GPa) = 0.02380357
#
# Stress axis : x y z
#
# Youngs Moduli (GPa) = 74.21216 41.77564 106.41140
#
# Poissons Ratio (x) = 0.19328 0.27118
# Poissons Ratio (y) = 0.34336 0.46055
# Poissons Ratio (z) = 0.18912 0.18080
#
# Static dielectric constant tensor:
#      x y z
#    x 3.650100 0.000000 0.044730 
#    y 0.000000 3.227470 0.000000 
#    z 0.044730 0.000000 4.257850 
# 
# 
# High freq. dielectric constant tensor:
#      x y z
#    x 1.788380 0.000000 0.004960 
#    y 0.000000 1.745190 0.000000 
#    z 0.004960 0.000000 1.799140 
# 
# From -- ./inp_files/70196.got.cif
#   From: 2010.06.25/outbox.cif.g09.slc.cpg/sg10_36_cif.got.tgz:70196.got - 2010.06.27 22:07:45.
