data_PCOD8062190
_publ_section_title
;
Structure prediction by ZEFSAII (Michael W. Deem and Ramdas Pophale) SiO2 
 PCOD8062190
Probable space group: P 2/M
;
_chemical_formula_sum "Si O2"
_cell_formula_units_Z 28
_cell_length_a 14.829282
_cell_length_b 8.930443
_cell_length_c 11.859703
_cell_angle_alpha 90.000000
_cell_angle_beta 119.767435
_cell_angle_gamma 90.000000
_cell_volume 1363.360066
_symmetry_space_group_name_H-M "P 2/M"
_symmetry_group_IT_number 10
_symmetry_cell_setting 'monoclinic'
loop_
_space_group_symop_operation_xyz
x,y,z
-x,y,-z
-x,-y,-z
x,-y,z
loop_
_atom_site_type_symbol
_atom_site_label
_atom_site_fract_x
_atom_site_fract_y
_atom_site_fract_z
Si Si1 0.230945 0.330748 0.486064
Si Si2 0.179657 0.828049 0.878868
Si Si3 0.520637 0.168165 0.887984
Si Si4 0.998970 0.327691 0.370183
Si Si5 0.289788 0.835867 0.726000
Si Si6 0.619839 0.823498 0.589430
Si Si7 0.692164 0.324433 0.860511
O O1 0.269028 0.500000 0.489243
O O2 0.110726 0.311363 0.377670
O O3 0.231763 0.292548 0.620049
O O4 0.309783 0.217973 0.474035
O O5 0.276465 0.805842 0.852034
O O6 0.077357 0.766510 0.755411
O O7 0.160748 0.000000 0.898708
O O8 0.207499 0.741540 0.011738
O O9 0.408816 0.163095 0.759713
O O10 0.588971 0.288170 0.866024
O O11 0.571238 0.000000 0.917152
O O12 0.500000 0.226256 0.000000
O O13 0.962747 0.500000 0.349263
O O14 0.000000 0.266489 0.500000
O O15 0.240854 0.000000 0.669482
O O16 0.500000 0.768158 0.500000
O O17 0.678406 0.746142 0.729411
O O18 0.620309 0.000000 0.609582
O O19 0.707555 0.500000 0.856462
#
# Coordination Sequence:
#
# PCOD8062190 Si02
#       7
#     4   4   4   4   4   4   4
#     4  11  23  39  63  92 126 163 206 259 313 370
#     4  11  22  38  61  90 124 165 210 255 306 368
#     4  10  19  35  55  81 120 161 201 248 303 367
#     4  10  21  39  61  92 132 169 203 254 320 375
#     4  10  20  34  56  86 122 162 204 251 304 364
#     4  11  25  46  69  91 122 166 213 260 311 371
#     4  12  25  40  61  90 126 164 207 261 319 376
#
# _framework density 20.537495
#
# number of rings (size 3 to 8) (size 9 to 14) (size 15 to 20)
#    0.000    1.286    2.857    3.429    0.000    7.429 
#    0.000    0.714    0.000    4.286    0.000    0.000 
#    0.000    0.000    0.000    0.000    0.000    0.000 
#
# Total GULP energy -347170.207950 kJ/mol
# GULP energy per Si atom -12398.935998 kJ/mol
# Density = 2.049075 g / cm^3
# Si number density = 20.537495 Si / 1000 Ang^3
#
#
#
# Elastic Constant Matrix: (Units=GPa)
#
#
# Indices 1 2 3 4 5 6 
#
# 1 64.0014 29.8144 18.7347 0.0000 7.1346 0.0000
# 2 29.8144 108.9548 56.7788 0.0000 7.0250 0.0000
# 3 18.7347 56.7788 124.7300 0.0000 4.7941 0.0000
# 4 0.0000 0.0000 0.0000 34.7823 0.0000 3.7823
# 5 7.1346 7.0250 4.7941 0.0000 28.8017 0.0000
# 6 0.0000 0.0000 0.0000 3.7823 0.0000 27.8044
#
#
#
# Elastic Compliance Matrix: (Units=1/GPa)
#
#
# Indices 1 2 3 4 5 6 
#
# 1 0.018251 -0.004480 -0.000574 0.000000 -0.003333 0.000000
# 2 -0.004480 0.013252 -0.005312 0.000000 -0.001238 0.000000
# 3 -0.000574 -0.005312 0.010534 0.000000 -0.000316 0.000000
# 4 0.000000 0.000000 0.000000 0.029182 0.000000 -0.003970
# 5 -0.003333 -0.001238 -0.000316 0.000000 0.035900 0.000000
# 6 0.000000 0.000000 0.000000 -0.003970 0.000000 0.036506
#
#
# Mechanical properties :
#
#
# Convention : Reuss Voigt Hill
#
# Bulk Modulus (GPa) = 46.93764 56.48246 51.71005
# Shear Modulus (GPa) = 29.16151 31.10157 30.13154
#
# Velocity S-wave (km/s) = 3.77226 3.89573 3.83449
# Velocity P-wave (km/s) = 6.47128 6.91357 6.69608
#
# Compressibility (1/GPa) = 0.02130486
#
# Stress axis : x y z
#
# Youngs Moduli (GPa) = 54.79072 75.45921 94.93310
#
# Poissons Ratio (x) = 0.33809 0.05447
# Poissons Ratio (y) = 0.24548 0.50429
# Poissons Ratio (z) = 0.03144 0.40084
#
# Static dielectric constant tensor:
#      x y z
#    x 3.654900 0.000000 0.054700 
#    y 0.000000 3.615470 0.000000 
#    z 0.054700 0.000000 3.775320 
# 
# 
# High freq. dielectric constant tensor:
#      x y z
#    x 1.789810 0.000000 0.010020 
#    y 0.000000 1.799350 0.000000 
#    z 0.010020 0.000000 1.808080 
# 
# From -- ./inp_files/50028.got.cif
#   From: 2010.06.25/outbox.cif.g09.slc.cpg/sg10_26_cif.got.tgz:50028.got - 2010.06.27 22:07:45.
