data_PCOD8062303
_publ_section_title
;
Structure prediction by ZEFSAII (Michael W. Deem and Ramdas Pophale) SiO2 
 PCOD8062303
Probable space group: P 2/M
;
_chemical_formula_sum "Si O2"
_cell_formula_units_Z 32
_cell_length_a 11.300000
_cell_length_b 13.558607
_cell_length_c 10.397133
_cell_angle_alpha 90.000000
_cell_angle_beta 86.198641
_cell_angle_gamma 90.000000
_cell_volume 1589.463539
_symmetry_space_group_name_H-M "P 2/M"
_symmetry_group_IT_number 10
_symmetry_cell_setting 'monoclinic'
loop_
_space_group_symop_operation_xyz
x,y,z
-x,y,-z
-x,-y,-z
x,-y,z
loop_
_atom_site_type_symbol
_atom_site_label
_atom_site_fract_x
_atom_site_fract_y
_atom_site_fract_z
Si Si1 0.177883 0.889245 0.717836
Si Si2 0.604296 0.784164 0.192617
Si Si3 0.742902 0.724002 0.960341
Si Si4 0.830015 0.112507 0.578494
Si Si5 0.453354 0.609044 0.146654
Si Si6 0.564906 0.884712 0.620313
Si Si7 0.959626 0.781668 0.781998
Si Si8 0.089982 0.391804 0.877437
O O1 0.283162 0.810275 0.726682
O O2 0.137395 0.885262 0.573187
O O3 0.064190 0.859025 0.813294
O O4 0.220160 0.000000 0.751943
O O5 0.547264 0.675030 0.220935
O O6 0.499987 0.859362 0.240592
O O7 0.646224 0.795271 0.039414
O O8 0.676806 0.661163 0.853641
O O9 0.852045 0.785747 0.892644
O O10 0.789145 0.654884 0.074517
O O11 0.698682 0.153622 0.615422
O O12 0.914463 0.189236 0.644800
O O13 0.846368 0.000000 0.629446
O O14 0.441046 0.500000 0.210919
O O15 0.500000 0.598063 0.000000
O O16 0.500000 0.836750 0.500000
O O17 0.567926 0.000000 0.599331
O O18 0.024363 0.674779 0.774143
O O19 0.118435 0.500000 0.816807
O O20 0.000000 0.402640 0.000000
#
# Coordination Sequence:
#
# PCOD8062303 Si02
#       8
#     4   4   4   4   4   4   4   4
#     4  11  22  38  59  84 115 156 201 242 282 333
#     4  11  20  35  58  90 116 149 187 238 291 344
#     4  10  20  36  58  86 121 149 185 231 290 351
#     4  10  21  38  61  84 109 148 199 247 284 331
#     4   9  19  35  59  88 117 150 191 237 287 345
#     4  10  19  35  58  83 108 142 194 241 283 334
#     4  11  21  36  56  87 117 152 194 237 281 342
#     4   9  18  33  56  83 111 147 191 232 277 337
#
# _framework density 20.132580000000001
#
# number of rings (size 3 to 8) (size 9 to 14) (size 15 to 20)
#    0.000    1.875    2.500    2.250    0.000    2.000 
#    0.000    3.125    0.000   17.625    0.000    0.000 
#    0.000    0.000    0.000    0.000    0.000    0.000 
#
# Total GULP energy -396449.886666 kJ/mol
# GULP energy per Si atom -12389.058958 kJ/mol
# Density = 2.008676 g / cm^3
# Si number density = 20.132580 Si / 1000 Ang^3
#
#
#
# Elastic Constant Matrix: (Units=GPa)
#
#
# Indices 1 2 3 4 5 6 
#
# 1 131.3726 61.7113 34.0682 0.0000 -5.1808 0.0000
# 2 61.7113 88.7049 44.1279 0.0000 25.7061 0.0000
# 3 34.0682 44.1279 43.7644 0.0000 3.9718 0.0000
# 4 0.0000 0.0000 0.0000 22.6529 0.0000 9.6208
# 5 -5.1808 25.7061 3.9718 0.0000 39.1584 0.0000
# 6 0.0000 0.0000 0.0000 9.6208 0.0000 25.7122
#
#
#
# Elastic Compliance Matrix: (Units=1/GPa)
#
#
# Indices 1 2 3 4 5 6 
#
# 1 0.014048 -0.014011 0.002209 0.000000 0.010832 0.000000
# 2 -0.014011 0.045154 -0.032059 0.000000 -0.028244 0.000000
# 3 0.002209 -0.032059 0.051997 0.000000 0.016064 0.000000
# 4 0.000000 0.000000 0.000000 0.052485 0.000000 -0.019638
# 5 0.010832 -0.028244 0.016064 0.000000 0.043882 0.000000
# 6 0.000000 0.000000 0.000000 -0.019638 0.000000 0.046240
#
#
# Mechanical properties :
#
#
# Convention : Reuss Voigt Hill
#
# Bulk Modulus (GPa) = 42.59472 60.40629 51.50050
# Shear Modulus (GPa) = 14.31215 25.76701 20.03958
#
# Velocity S-wave (km/s) = 2.66915 3.58140 3.15839
# Velocity P-wave (km/s) = 5.54096 6.86814 6.23993
#
# Compressibility (1/GPa) = 0.02347709
#
# Stress axis : x y z
#
# Youngs Moduli (GPa) = 71.18548 22.14664 19.23172
#
# Poissons Ratio (x) = 0.31029 -0.04247
# Poissons Ratio (y) = 0.99736 0.61654
# Poissons Ratio (z) = -0.15722 0.70999
#
# Static dielectric constant tensor:
#      x y z
#    x 4.122500 0.000000 0.006700 
#    y 0.000000 3.956610 0.000000 
#    z 0.006700 0.000000 3.323740 
# 
# 
# High freq. dielectric constant tensor:
#      x y z
#    x 1.816560 0.000000 -0.001370 
#    y 0.000000 1.764340 0.000000 
#    z -0.001370 0.000000 1.738660 
# 
# From -- ./inp_files/46691.got.cif
#   From: 2010.06.25/outbox.cif.g09.slc.cpg/sg10_24_cif.got.tgz:46691.got - 2010.06.27 22:07:45.
