data_PCOD8062958
_publ_section_title
;
Structure prediction by ZEFSAII (Michael W. Deem and Ramdas Pophale) SiO2 
 PCOD8062958
Probable space group: P 2/M
;
_chemical_formula_sum "Si O2"
_cell_formula_units_Z 24
_cell_length_a 9.282025
_cell_length_b 8.737373
_cell_length_c 21.057436
_cell_angle_alpha 90.000000
_cell_angle_beta 131.694712
_cell_angle_gamma 90.000000
_cell_volume 1275.190309
_symmetry_space_group_name_H-M "P 2/M"
_symmetry_group_IT_number 10
_symmetry_cell_setting 'monoclinic'
loop_
_space_group_symop_operation_xyz
x,y,z
-x,y,-z
-x,-y,-z
x,-y,z
loop_
_atom_site_type_symbol
_atom_site_label
_atom_site_fract_x
_atom_site_fract_y
_atom_site_fract_z
Si Si1 0.731133 0.324573 0.415424
Si Si2 0.430749 0.675897 0.228144
Si Si3 0.244983 0.820038 0.763318
Si Si4 0.951737 0.175951 0.576647
Si Si5 0.290501 0.181886 0.919795
Si Si6 0.032285 0.818894 0.080072
O O1 0.795159 0.500000 0.424654
O O2 0.515606 0.301538 0.324772
O O3 0.762710 0.274997 0.498974
O O4 0.869916 0.212206 0.417321
O O5 0.379746 0.500000 0.200202
O O6 0.586044 0.727901 0.221730
O O7 0.239670 0.775173 0.167860
O O8 0.236169 0.764151 0.833173
O O9 0.033324 0.784006 0.670883
O O10 0.293483 0.000000 0.771707
O O11 0.892577 0.000000 0.554802
O O12 0.132931 0.249485 0.922429
O O13 0.292022 0.000000 0.924225
O O14 0.500000 0.247635 0.000000
O O15 0.017330 0.000000 0.073969
O O16 0.000000 0.751338 0.000000
#
# Coordination Sequence:
#
# PCOD8062958 Si02
#       6
#     4   4   4   4   4   4
#     4   9  16  26  41  63  93 127 160 193 232 278
#     4  10  20  32  48  72 101 131 162 198 239 283
#     4   9  17  30  49  73 100 128 161 201 242 286
#     4   9  15  23  40  67  95 122 155 197 240 277
#     4   9  17  31  52  75  97 122 156 198 241 287
#     4  10  20  34  54  76  96 124 161 198 240 289
#
# _framework density 18.820720999999999
#
# number of rings (size 3 to 8) (size 9 to 14) (size 15 to 20)
#    0.000    2.667    0.000    3.500    0.000    5.667 
#    0.000    0.833    0.000    3.000    0.000    7.000 
#    0.000    0.000    0.000    0.000    0.000    0.000 
#
# Total GULP energy -297395.593969 kJ/mol
# GULP energy per Si atom -12391.483082 kJ/mol
# Density = 1.877788 g / cm^3
# Si number density = 18.820721 Si / 1000 Ang^3
#
#
#
# Elastic Constant Matrix: (Units=GPa)
#
#
# Indices 1 2 3 4 5 6 
#
# 1 85.7656 10.7664 62.4483 0.0000 -2.4739 0.0000
# 2 10.7664 20.4978 24.4371 0.0000 -3.5286 0.0000
# 3 62.4483 24.4371 184.2720 0.0000 -6.8381 0.0000
# 4 0.0000 0.0000 0.0000 20.4336 0.0000 1.3037
# 5 -2.4739 -3.5286 -6.8381 0.0000 24.6387 0.0000
# 6 0.0000 0.0000 0.0000 1.3037 0.0000 5.2691
#
#
#
# Elastic Compliance Matrix: (Units=1/GPa)
#
#
# Indices 1 2 3 4 5 6 
#
# 1 0.015566 -0.002263 -0.004980 0.000000 -0.000143 0.000000
# 2 -0.002263 0.059239 -0.006853 0.000000 0.006355 0.000000
# 3 -0.004980 -0.006853 0.008051 0.000000 0.000753 0.000000
# 4 0.000000 0.000000 0.000000 0.049724 0.000000 -0.012303
# 5 -0.000143 0.006355 0.000753 0.000000 0.041691 0.000000
# 6 0.000000 0.000000 0.000000 -0.012303 0.000000 0.192829
#
#
# Mechanical properties :
#
#
# Convention : Reuss Voigt Hill
#
# Bulk Modulus (GPa) = 18.29404 53.98212 36.13808
# Shear Modulus (GPa) = 12.09147 22.92720 17.50933
#
# Velocity S-wave (km/s) = 2.53742 3.49404 3.05343
# Velocity P-wave (km/s) = 4.28088 6.70987 5.62798
#
# Compressibility (1/GPa) = 0.05466262
#
# Stress axis : x y z
#
# Youngs Moduli (GPa) = 64.24256 16.88089 124.20296
#
# Poissons Ratio (x) = 0.03820 0.61858
# Poissons Ratio (y) = 0.14539 0.85118
# Poissons Ratio (z) = 0.31995 0.11569
#
# Static dielectric constant tensor:
#      x y z
#    x 3.115190 0.000000 -0.159080 
#    y 0.000000 3.220220 0.000000 
#    z -0.159080 0.000000 4.253260 
# 
# 
# High freq. dielectric constant tensor:
#      x y z
#    x 1.673950 0.000000 -0.001690 
#    y 0.000000 1.712770 0.000000 
#    z -0.001690 0.000000 1.764170 
# 
# From -- ./inp_files/35648.got.cif
#   From: 2010.06.25/outbox.cif.g09.slc.cpg/sg10_18_cif.got.tgz:35648.got - 2010.06.27 22:07:45.
