data_PCOD8062271
_publ_section_title
;
Structure prediction by ZEFSAII (Michael W. Deem and Ramdas Pophale) SiO2 
 PCOD8062271
Probable space group: P 2/M
;
_chemical_formula_sum "Si O2"
_cell_formula_units_Z 32
_cell_length_a 8.724640
_cell_length_b 21.871561
_cell_length_c 15.355793
_cell_angle_alpha 90.000000
_cell_angle_beta 149.736188
_cell_angle_gamma 90.000000
_cell_volume 1476.776408
_symmetry_space_group_name_H-M "P 2/M"
_symmetry_group_IT_number 10
_symmetry_cell_setting 'monoclinic'
loop_
_space_group_symop_operation_xyz
x,y,z
-x,y,-z
-x,-y,-z
x,-y,z
loop_
_atom_site_type_symbol
_atom_site_label
_atom_site_fract_x
_atom_site_fract_y
_atom_site_fract_z
Si Si1 0.656159 0.158407 0.913567
Si Si2 0.530975 0.223059 0.693105
Si Si3 0.843592 0.068504 0.134619
Si Si4 0.360859 0.430528 0.338859
Si Si5 0.706292 0.383744 0.024142
Si Si6 0.645665 0.647784 0.325847
Si Si7 0.993610 0.163180 0.344693
Si Si8 0.053581 0.747915 0.823873
O O1 0.752041 0.183439 0.865485
O O2 0.292820 0.146462 0.735688
O O3 0.842276 0.098221 0.036570
O O4 0.700621 0.210840 0.007054
O O5 0.392550 0.279370 0.680183
O O6 0.287217 0.171641 0.547900
O O7 0.722897 0.247805 0.706608
O O8 0.048792 0.109496 0.300062
O O9 0.976755 0.000000 0.195150
O O10 0.500000 0.069214 0.000000
O O11 0.500000 0.409466 0.500000
O O12 0.461031 0.500000 0.368686
O O13 0.492868 0.386424 0.330860
O O14 0.994126 0.427969 0.153363
O O15 0.517016 0.374835 0.842383
O O16 0.500000 0.412101 0.000000
O O17 0.836774 0.320669 0.124563
O O18 0.000000 0.630786 0.500000
O O19 0.965233 0.229353 0.284230
#
# Coordination Sequence:
#
# PCOD8062271 Si02
#       8
#     4   4   4   4   4   4   4   4
#     4  10  19  35  57  84 121 155 207 256 318 385
#     4  12  23  35  56  91 131 159 202 269 339 390
#     4   8  16  34  59  83 115 163 217 264 314 388
#     4  11  27  50  74 102 136 176 226 278 333 399
#     4  12  25  43  70 100 136 179 225 274 333 404
#     4  12  26  43  67 101 139 181 224 278 336 401
#     4  10  21  35  55  88 117 161 206 261 323 385
#     4  11  22  36  57  86 124 163 203 253 319 398
#
# _framework density 21.66882
#
# number of rings (size 3 to 8) (size 9 to 14) (size 15 to 20)
#    0.000    1.250    2.500    4.875    3.500    1.500 
#    0.000    0.625    0.000   15.000    0.000    0.000 
#    0.000    0.000    0.000    0.000    0.000    0.125 
#
# Total GULP energy -396735.937128 kJ/mol
# GULP energy per Si atom -12397.998035 kJ/mol
# Density = 2.161950 g / cm^3
# Si number density = 21.668820 Si / 1000 Ang^3
#
#
#
# Elastic Constant Matrix: (Units=GPa)
#
#
# Indices 1 2 3 4 5 6 
#
# 1 61.6335 14.1905 36.4892 0.0000 -8.3916 0.0000
# 2 14.1905 92.8950 30.2386 0.0000 -15.5719 0.0000
# 3 36.4892 30.2386 127.6953 0.0000 -6.2408 0.0000
# 4 0.0000 0.0000 0.0000 23.7584 0.0000 -2.5362
# 5 -8.3916 -15.5719 -6.2408 0.0000 41.9870 0.0000
# 6 0.0000 0.0000 0.0000 -2.5362 0.0000 30.2313
#
#
#
# Elastic Compliance Matrix: (Units=1/GPa)
#
#
# Indices 1 2 3 4 5 6 
#
# 1 0.019991 -0.000819 -0.005377 0.000000 0.002893 0.000000
# 2 -0.000819 0.012384 -0.002500 0.000000 0.004058 0.000000
# 3 -0.005377 -0.002500 0.009934 0.000000 -0.000525 0.000000
# 4 0.000000 0.000000 0.000000 0.042471 0.000000 0.003563
# 5 0.002893 0.004058 -0.000525 0.000000 0.025822 0.000000
# 6 0.000000 0.000000 0.000000 0.003563 0.000000 0.033377
#
#
# Mechanical properties :
#
#
# Convention : Reuss Voigt Hill
#
# Bulk Modulus (GPa) = 40.13382 49.34005 44.73693
# Shear Modulus (GPa) = 29.46788 32.61571 31.04180
#
# Velocity S-wave (km/s) = 3.69171 3.88389 3.78902
# Velocity P-wave (km/s) = 6.06080 6.55227 6.31132
#
# Compressibility (1/GPa) = 0.02491664
#
# Stress axis : x y z
#
# Youngs Moduli (GPa) = 50.02322 80.74961 100.66340
#
# Poissons Ratio (x) = 0.06609 0.54129
# Poissons Ratio (y) = 0.04094 0.25169
# Poissons Ratio (z) = 0.26898 0.20190
#
# Static dielectric constant tensor:
#      x y z
#    x 3.965760 0.000000 -0.005030 
#    y 0.000000 3.874610 0.000000 
#    z -0.005030 0.000000 4.056240 
# 
# 
# High freq. dielectric constant tensor:
#      x y z
#    x 1.850920 0.000000 -0.003520 
#    y 0.000000 1.829920 0.000000 
#    z -0.003520 0.000000 1.860460 
# 
# From -- ./inp_files/30607.got.cif
#   From: 2010.06.25/outbox.cif.g09.slc.cpg/sg10_16_cif.got.tgz:30607.got - 2010.06.27 22:07:45.
