data_PCOD8062459
_publ_section_title
;
Structure prediction by ZEFSAII (Michael W. Deem and Ramdas Pophale) SiO2 
 PCOD8062459
Probable space group: P 2/M
;
_chemical_formula_sum "Si O2"
_cell_formula_units_Z 18
_cell_length_a 5.076992
_cell_length_b 13.132086
_cell_length_c 14.750359
_cell_angle_alpha 90.000000
_cell_angle_beta 89.200788
_cell_angle_gamma 90.000000
_cell_volume 983.332823
_symmetry_space_group_name_H-M "P 2/M"
_symmetry_group_IT_number 10
_symmetry_cell_setting 'monoclinic'
loop_
_space_group_symop_operation_xyz
x,y,z
-x,y,-z
-x,-y,-z
x,-y,z
loop_
_atom_site_type_symbol
_atom_site_label
_atom_site_fract_x
_atom_site_fract_y
_atom_site_fract_z
Si Si1 0.123328 0.612015 0.901240
Si Si2 0.500000 0.744540 0.000000
Si Si3 0.831630 0.794823 0.844713
Si Si4 0.330775 0.118294 0.755418
Si Si5 0.247083 0.121126 0.552663
O O1 0.178560 0.500000 0.858216
O O2 0.391484 0.675415 0.917110
O O3 0.930224 0.676841 0.836381
O O4 0.000000 0.597659 0.000000
O O5 0.725159 0.812800 0.949294
O O6 0.595358 0.819584 0.777284
O O7 0.088296 0.864803 0.825854
O O8 0.240262 0.156776 0.656945
O O9 0.408663 0.000000 0.755492
O O10 0.500000 0.165162 0.500000
O O11 0.000000 0.167210 0.500000
O O12 0.243266 0.000000 0.548725
#
# Coordination Sequence:
#
# PCOD8062459 Si02
#       5
#     4   2   4   4   4
#     4   9  18  33  57  78 100 132 171 223 282 314
#     4  10  19  36  55  72 110 138 177 222 265 304
#     4  11  21  36  52  77 107 140 181 218 255 304
#     4  11  22  36  53  75 109 147 175 211 257 300
#     4   9  17  31  52  76  99 128 168 213 263 313
#
# _framework density 18.305092999999999
#
# number of rings (size 3 to 8) (size 9 to 14) (size 15 to 20)
#    0.000    2.000    2.222    2.333    0.000    4.444 
#    0.000    3.333    0.000    0.000    0.000    0.000 
#    0.000   17.778    0.000    0.000    0.000    0.000 
#
# Total GULP energy -223019.394486 kJ/mol
# GULP energy per Si atom -12389.966360 kJ/mol
# Density = 1.826343 g / cm^3
# Si number density = 18.305093 Si / 1000 Ang^3
#
#
#
# Elastic Constant Matrix: (Units=GPa)
#
#
# Indices 1 2 3 4 5 6 
#
# 1 136.1904 36.7087 48.7297 0.0000 17.5866 0.0000
# 2 36.7087 66.3799 52.8656 0.0000 14.0983 0.0000
# 3 48.7297 52.8656 78.2091 0.0000 13.9195 0.0000
# 4 0.0000 0.0000 0.0000 3.5497 0.0000 7.8960
# 5 17.5866 14.0983 13.9195 0.0000 39.8755 0.0000
# 6 0.0000 0.0000 0.0000 7.8960 0.0000 20.3714
#
#
#
# Elastic Compliance Matrix: (Units=1/GPa)
#
#
# Indices 1 2 3 4 5 6 
#
# 1 0.009665 -0.000853 -0.005054 0.000000 -0.002197 0.000000
# 2 -0.000853 0.033345 -0.021300 0.000000 -0.003978 0.000000
# 3 -0.005054 -0.021300 0.030491 0.000000 -0.000883 0.000000
# 4 0.000000 0.000000 0.000000 2.044125 0.000000 -0.792307
# 5 -0.002197 -0.003978 -0.000883 0.000000 0.027762 0.000000
# 6 0.000000 0.000000 0.000000 -0.792307 0.000000 0.356188
#
#
# Mechanical properties :
#
#
# Convention : Reuss Voigt Hill
#
# Bulk Modulus (GPa) = 52.39595 61.93194 57.16395
# Shear Modulus (GPa) = 1.95133 22.25767 12.10450
#
# Velocity S-wave (km/s) = 1.03360 3.49080 2.57430
# Velocity P-wave (km/s) = 5.48728 7.08196 6.33500
#
# Compressibility (1/GPa) = 0.01908544
#
# Stress axis : x y z
#
# Youngs Moduli (GPa) = 103.46982 29.98951 32.79690
#
# Poissons Ratio (x) = 0.02557 0.16577
# Poissons Ratio (y) = 0.08823 0.69858
# Poissons Ratio (z) = 0.52298 0.63879
#
# Static dielectric constant tensor:
#      x y z
#    x 3.717100 0.000000 0.049470 
#    y 0.000000 3.335170 0.000000 
#    z 0.049470 0.000000 3.300210 
# 
# 
# High freq. dielectric constant tensor:
#      x y z
#    x 1.736870 0.000000 0.006400 
#    y 0.000000 1.662720 0.000000 
#    z 0.006400 0.000000 1.680520 
# 
# From -- ./inp_files/58789.got.cif
#   From: 2010.06.25/outbox.cif.g09.slc.cpg/sg10_30_cif.got.tgz:58789.got - 2010.06.27 22:07:45.
