data_PCOD8062287
_publ_section_title
;
Structure prediction by ZEFSAII (Michael W. Deem and Ramdas Pophale) SiO2 
 PCOD8062287
Probable space group: P 2/M
;
_chemical_formula_sum "Si O2"
_cell_formula_units_Z 28
_cell_length_a 9.627493
_cell_length_b 8.728872
_cell_length_c 25.140686
_cell_angle_alpha 90.000000
_cell_angle_beta 138.908757
_cell_angle_gamma 90.000000
_cell_volume 1388.627321
_symmetry_space_group_name_H-M "P 2/M"
_symmetry_group_IT_number 10
_symmetry_cell_setting 'monoclinic'
loop_
_space_group_symop_operation_xyz
x,y,z
-x,y,-z
-x,-y,-z
x,-y,z
loop_
_atom_site_type_symbol
_atom_site_label
_atom_site_fract_x
_atom_site_fract_y
_atom_site_fract_z
Si Si1 0.353888 0.681377 0.343932
Si Si2 0.856379 0.821521 0.820199
Si Si3 0.789484 0.681772 0.910897
Si Si4 0.934779 0.317062 0.642201
Si Si5 0.726258 0.674909 0.083730
Si Si6 0.656112 0.674526 0.184772
Si Si7 0.834273 0.681936 0.495962
O O1 0.330644 0.500000 0.330326
O O2 0.241685 0.760829 0.262337
O O3 0.245245 0.736058 0.367782
O O4 0.597624 0.733994 0.413386
O O5 0.755913 0.734743 0.840934
O O6 0.105239 0.786150 0.894238
O O7 0.814204 0.000000 0.813572
O O8 0.804601 0.500000 0.917866
O O9 0.578508 0.747430 0.879371
O O10 0.000000 0.751480 0.000000
O O11 0.938793 0.500000 0.643135
O O12 0.887102 0.251636 0.569760
O O13 0.165126 0.250278 0.725705
O O14 0.762594 0.500000 0.074318
O O15 0.749930 0.686591 0.153351
O O16 0.500000 0.734890 0.000000
O O17 0.628403 0.500000 0.194707
O O18 0.849431 0.500000 0.501894
O O19 0.000000 0.747130 0.500000
#
# Coordination Sequence:
#
# PCOD8062287 Si02
#       7
#     4   4   4   4   4   4   4
#     4  10  19  35  58  81 112 149 187 235 289 342
#     4  12  25  38  55  83 121 159 195 233 281 343
#     4  10  21  38  60  85 112 148 195 242 291 342
#     4   9  16  29  51  83 114 138 177 234 297 345
#     4  10  19  36  62  88 112 143 190 242 289 339
#     4   9  17  30  54  85 112 139 179 238 292 341
#     4   9  18  29  50  87 117 140 178 236 296 347
#
# _framework density 20.163796999999999
#
# number of rings (size 3 to 8) (size 9 to 14) (size 15 to 20)
#    0.000    2.143    1.429    2.571    2.000    4.571 
#    0.000    0.714    0.000    2.143    0.000    0.000 
#    0.000    0.000    0.000    0.000    0.000    0.000 
#
# Total GULP energy -347108.595785 kJ/mol
# GULP energy per Si atom -12396.735564 kJ/mol
# Density = 2.011790 g / cm^3
# Si number density = 20.163797 Si / 1000 Ang^3
#
#
#
# Elastic Constant Matrix: (Units=GPa)
#
#
# Indices 1 2 3 4 5 6 
#
# 1 110.3894 9.9329 33.4936 0.0000 12.3224 0.0000
# 2 9.9329 9.0282 13.8818 0.0000 5.1552 0.0000
# 3 33.4936 13.8818 110.2091 0.0000 10.3075 0.0000
# 4 0.0000 0.0000 0.0000 7.2640 0.0000 1.2338
# 5 12.3224 5.1552 10.3075 0.0000 41.7540 0.0000
# 6 0.0000 0.0000 0.0000 1.2338 0.0000 3.5261
#
#
#
# Elastic Compliance Matrix: (Units=1/GPa)
#
#
# Indices 1 2 3 4 5 6 
#
# 1 0.010555 -0.007395 -0.002119 0.000000 -0.001679 0.000000
# 2 -0.007395 0.149794 -0.015451 0.000000 -0.012498 0.000000
# 3 -0.002119 -0.015451 0.011697 0.000000 -0.000354 0.000000
# 4 0.000000 0.000000 0.000000 0.146364 0.000000 -0.051214
# 5 -0.001679 -0.012498 -0.000354 0.000000 0.026076 0.000000
# 6 0.000000 0.000000 0.000000 -0.051214 0.000000 0.301519
#
#
# Mechanical properties :
#
#
# Convention : Reuss Voigt Hill
#
# Bulk Modulus (GPa) = 8.18906 38.24926 23.21916
# Shear Modulus (GPa) = 6.78755 21.99672 14.39214
#
# Velocity S-wave (km/s) = 1.83671 3.30646 2.67453
# Velocity P-wave (km/s) = 2.92713 5.79546 4.59105
#
# Compressibility (1/GPa) = 0.12211413
#
# Stress axis : x y z
#
# Youngs Moduli (GPa) = 94.74505 6.67582 85.49142
#
# Poissons Ratio (x) = 0.04937 0.18117
# Poissons Ratio (y) = 0.70068 1.32097
# Poissons Ratio (z) = 0.20078 0.10315
#
# Static dielectric constant tensor:
#      x y z
#    x 3.879200 0.000000 0.110970 
#    y 0.000000 3.014860 0.000000 
#    z 0.110970 0.000000 3.955480 
# 
# 
# High freq. dielectric constant tensor:
#      x y z
#    x 1.800380 0.000000 0.003630 
#    y 0.000000 1.713400 0.000000 
#    z 0.003630 0.000000 1.806530 
# 
# From -- ./inp_files/92096.got.cif
#   From: 2010.06.25/outbox.cif.g09.slc.cpg/sg10_47_cif.got.tgz:92096.got - 2010.06.27 22:07:45.
