data_PCOD8062306
_publ_section_title
;
Structure prediction by ZEFSAII (Michael W. Deem and Ramdas Pophale) SiO2 
 PCOD8062306
Probable space group: P 2/M
;
_chemical_formula_sum "Si O2"
_cell_formula_units_Z 32
_cell_length_a 21.200331
_cell_length_b 8.918523
_cell_length_c 20.414638
_cell_angle_alpha 90.000000
_cell_angle_beta 25.942071
_cell_angle_gamma 90.000000
_cell_volume 1688.565026
_symmetry_space_group_name_H-M "P 2/M"
_symmetry_group_IT_number 10
_symmetry_cell_setting 'monoclinic'
loop_
_space_group_symop_operation_xyz
x,y,z
-x,y,-z
-x,-y,-z
x,-y,z
loop_
_atom_site_type_symbol
_atom_site_label
_atom_site_fract_x
_atom_site_fract_y
_atom_site_fract_z
Si Si1 0.396028 0.675944 0.792019
Si Si2 0.366777 0.823176 0.356224
Si Si3 0.189780 0.174226 0.642392
Si Si4 0.126564 0.174994 0.244279
Si Si5 0.178371 0.176406 0.409865
Si Si6 0.459687 0.824267 0.466199
Si Si7 0.334764 0.677678 0.144374
Si Si8 0.119367 0.824427 0.097530
O O1 0.415546 0.500000 0.772114
O O2 0.479869 0.743399 0.776732
O O3 0.446968 0.741651 0.675331
O O4 0.232138 0.721239 0.955304
O O5 0.265077 0.755643 0.508095
O O6 0.298455 0.780093 0.351060
O O7 0.390815 0.000000 0.340744
O O8 0.288668 0.206481 0.613806
O O9 0.027560 0.232876 0.800565
O O10 0.176911 0.000000 0.638843
O O11 0.267717 0.262206 0.138927
O O12 0.109365 0.210914 0.183897
O O13 0.980141 0.227107 0.418092
O O14 0.152301 0.000000 0.232217
O O15 0.224811 0.263176 0.301902
O O16 0.178481 0.000000 0.395353
O O17 0.500000 0.761221 0.500000
O O18 0.494660 0.000000 0.428031
O O19 0.333584 0.500000 0.145459
O O20 0.500000 0.736164 0.000000
O O21 0.152172 0.000000 0.054890
#
# Coordination Sequence:
#
# PCOD8062306 Si02
#       8
#     4   4   4   4   4   4   4   4
#     4  11  23  35  51  81 120 154 183 221 270 325
#     4   9  17  34  58  83 107 138 181 231 278 325
#     4   8  14  30  57  85 111 136 175 228 273 316
#     4  10  21  38  61  85 105 137 186 236 283 330
#     4  10  20  37  62  86 106 134 183 238 284 332
#     4   9  18  36  63  89 112 145 189 231 270 318
#     4  11  26  42  53  74 113 152 184 225 279 341
#     4  10  19  35  58  83 111 144 182 230 280 324
#
# _framework density 18.951001999999999
#
# number of rings (size 3 to 8) (size 9 to 14) (size 15 to 20)
#    0.000    2.250    1.250    2.625    1.750    4.250 
#    0.000    3.125    0.000    3.750    0.000    0.000 
#    0.000    0.000    0.000    0.000    0.000    0.000 
#
# Total GULP energy -396702.318307 kJ/mol
# GULP energy per Si atom -12396.947447 kJ/mol
# Density = 1.890787 g / cm^3
# Si number density = 18.951002 Si / 1000 Ang^3
#
#
#
# Elastic Constant Matrix: (Units=GPa)
#
#
# Indices 1 2 3 4 5 6 
#
# 1 111.7719 36.3330 45.1083 0.0000 -18.7084 0.0000
# 2 36.3330 50.5956 30.9995 0.0000 -4.9951 0.0000
# 3 45.1083 30.9995 111.7491 0.0000 -19.8653 0.0000
# 4 0.0000 0.0000 0.0000 8.8185 0.0000 -0.7562
# 5 -18.7084 -4.9951 -19.8653 0.0000 26.7466 0.0000
# 6 0.0000 0.0000 0.0000 -0.7562 0.0000 9.8824
#
#
#
# Elastic Compliance Matrix: (Units=1/GPa)
#
#
# Indices 1 2 3 4 5 6 
#
# 1 0.013359 -0.007655 -0.002145 0.000000 0.006321 0.000000
# 2 -0.007655 0.028204 -0.005472 0.000000 -0.004151 0.000000
# 3 -0.002145 -0.005472 0.012540 0.000000 0.006791 0.000000
# 4 0.000000 0.000000 0.000000 0.114148 0.000000 0.008734
# 5 0.006321 -0.004151 0.006791 0.000000 0.046078 0.000000
# 6 0.000000 0.000000 0.000000 0.008734 0.000000 0.101859
#
#
# Mechanical properties :
#
#
# Convention : Reuss Voigt Hill
#
# Bulk Modulus (GPa) = 42.44655 55.44425 48.94540
# Shear Modulus (GPa) = 14.10104 19.86787 16.98445
#
# Velocity S-wave (km/s) = 2.73074 3.24138 2.99696
# Velocity P-wave (km/s) = 5.69116 6.58247 6.15297
#
# Compressibility (1/GPa) = 0.02355904
#
# Stress axis : x y z
#
# Youngs Moduli (GPa) = 74.85677 35.45574 79.74642
#
# Poissons Ratio (x) = 0.27140 0.17108
# Poissons Ratio (y) = 0.57300 0.43637
# Poissons Ratio (z) = 0.16059 0.19401
#
# Static dielectric constant tensor:
#      x y z
#    x 3.595980 0.000000 -0.270350 
#    y 0.000000 3.175270 0.000000 
#    z -0.270350 0.000000 3.621170 
# 
# 
# High freq. dielectric constant tensor:
#      x y z
#    x 1.736870 0.000000 -0.016400 
#    y 0.000000 1.707590 0.000000 
#    z -0.016400 0.000000 1.739530 
# 
# From -- ./inp_files/90593.got.cif
#   From: 2010.06.25/outbox.cif.g09.slc.cpg/sg10_46_cif.got.tgz:90593.got - 2010.06.27 22:07:45.
