data_PCOD8062947
_publ_section_title
;
Structure prediction by ZEFSAII (Michael W. Deem and Ramdas Pophale) SiO2 
 PCOD8062947
Probable space group: P 2/M
;
_chemical_formula_sum "Si O2"
_cell_formula_units_Z 32
_cell_length_a 9.169956
_cell_length_b 14.388489
_cell_length_c 22.591808
_cell_angle_alpha 90.000000
_cell_angle_beta 141.572664
_cell_angle_gamma 90.000000
_cell_volume 1852.634146
_symmetry_space_group_name_H-M "P 2/M"
_symmetry_group_IT_number 10
_symmetry_cell_setting 'monoclinic'
loop_
_space_group_symop_operation_xyz
x,y,z
-x,y,-z
-x,-y,-z
x,-y,z
loop_
_atom_site_type_symbol
_atom_site_label
_atom_site_fract_x
_atom_site_fract_y
_atom_site_fract_z
Si Si1 0.055068 0.610116 0.112964
Si Si2 0.248589 0.394389 0.599475
Si Si3 0.919039 0.893852 0.567690
Si Si4 0.241928 0.742276 0.396179
Si Si5 0.376280 0.106657 0.642797
Si Si6 0.167019 0.605384 0.709331
Si Si7 0.323783 0.729489 0.288233
Si Si8 0.645179 0.390701 0.903080
O O1 0.087003 0.500000 0.137672
O O2 0.118811 0.673374 0.189441
O O3 0.217817 0.645525 0.111103
O O4 0.785410 0.632806 0.008130
O O5 0.270796 0.500000 0.583636
O O6 0.274150 0.388359 0.677805
O O7 0.449843 0.335810 0.631895
O O8 0.000000 0.351835 0.500000
O O9 0.847306 0.836521 0.602252
O O10 0.727000 0.879396 0.455622
O O11 0.176919 0.864602 0.626675
O O12 0.924251 0.000000 0.589584
O O13 0.500000 0.715258 0.500000
O O14 0.226603 0.756906 0.321282
O O15 0.072873 0.659567 0.361495
O O16 0.598171 0.175643 0.720860
O O17 0.456082 0.000000 0.677876
O O18 0.105627 0.500000 0.706812
O O19 0.375769 0.646194 0.818149
O O20 0.635968 0.500000 0.891741
#
# Coordination Sequence:
#
# PCOD8062947 Si02
#       8
#     4   4   4   4   4   4   4   4
#     4   9  17  31  54  83 104 128 172 227 274 303
#     4  10  20  32  48  69  97 140 184 212 243 297
#     4   9  19  37  56  73  98 135 178 221 259 300
#     4  12  24  34  46  75 113 148 174 205 255 315
#     4   9  19  35  57  78  97 130 178 224 259 302
#     4  10  20  35  51  70 102 145 184 215 250 301
#     4  12  21  30  51  77 109 137 167 214 265 314
#     4   8  15  32  56  77  98 129 179 231 268 300
#
# _framework density 17.272703
#
# number of rings (size 3 to 8) (size 9 to 14) (size 15 to 20)
#    0.000    2.125    2.500    3.375    1.750    2.000 
#    0.000    0.625    0.000    2.250    0.000    2.625 
#    0.000    2.000    0.000    0.000    0.000    0.000 
#
# Total GULP energy -396696.530129 kJ/mol
# GULP energy per Si atom -12396.766567 kJ/mol
# Density = 1.723339 g / cm^3
# Si number density = 17.272703 Si / 1000 Ang^3
#
#
#
# Elastic Constant Matrix: (Units=GPa)
#
#
# Indices 1 2 3 4 5 6 
#
# 1 78.5550 40.6708 33.8101 0.0000 -5.4482 0.0000
# 2 40.6708 77.6069 40.4119 0.0000 2.5145 0.0000
# 3 33.8101 40.4119 106.6447 0.0000 -0.7656 0.0000
# 4 0.0000 0.0000 0.0000 16.3249 0.0000 -2.5396
# 5 -5.4482 2.5145 -0.7656 0.0000 17.0916 0.0000
# 6 0.0000 0.0000 0.0000 -2.5396 0.0000 11.3603
#
#
#
# Elastic Compliance Matrix: (Units=1/GPa)
#
#
# Indices 1 2 3 4 5 6 
#
# 1 0.018898 -0.008776 -0.002614 0.000000 0.007198 0.000000
# 2 -0.008776 0.020248 -0.004934 0.000000 -0.005997 0.000000
# 3 -0.002614 -0.004934 0.012078 0.000000 0.000434 0.000000
# 4 0.000000 0.000000 0.000000 0.063463 0.000000 0.014187
# 5 0.007198 -0.005997 0.000434 0.000000 0.061704 0.000000
# 6 0.000000 0.000000 0.000000 0.014187 0.000000 0.091197
#
#
# Mechanical properties :
#
#
# Convention : Reuss Voigt Hill
#
# Bulk Modulus (GPa) = 53.82926 54.73247 54.28087
# Shear Modulus (GPa) = 16.31707 18.81628 17.56667
#
# Velocity S-wave (km/s) = 3.07689 3.30413 3.19253
# Velocity P-wave (km/s) = 6.62231 6.80533 6.71444
#
# Compressibility (1/GPa) = 0.01857726
#
# Stress axis : x y z
#
# Youngs Moduli (GPa) = 52.91654 49.38822 82.79273
#
# Poissons Ratio (x) = 0.43341 0.21643
# Poissons Ratio (y) = 0.46437 0.40847
# Poissons Ratio (z) = 0.13833 0.24366
#
# Static dielectric constant tensor:
#      x y z
#    x 3.130530 0.000000 0.142470 
#    y 0.000000 3.133610 0.000000 
#    z 0.142470 0.000000 3.348790 
# 
# 
# High freq. dielectric constant tensor:
#      x y z
#    x 1.653840 0.000000 0.006080 
#    y 0.000000 1.650110 0.000000 
#    z 0.006080 0.000000 1.652120 
# 
# From -- ./inp_files/29105.got.cif
#   From: 2010.06.25/outbox.cif.g09.slc.cpg/sg10_15_cif.got.tgz:29105.got - 2010.06.27 22:07:45.
