data_PCOD8062235
_publ_section_title
;
Structure prediction by ZEFSAII (Michael W. Deem and Ramdas Pophale) SiO2 
 PCOD8062235
Probable space group: P 2/M
;
_chemical_formula_sum "Si O2"
_cell_formula_units_Z 28
_cell_length_a 14.478058
_cell_length_b 9.227845
_cell_length_c 21.543414
_cell_angle_alpha 90.000000
_cell_angle_beta 149.505088
_cell_angle_gamma 90.000000
_cell_volume 1460.590682
_symmetry_space_group_name_H-M "P 2/M"
_symmetry_group_IT_number 10
_symmetry_cell_setting 'monoclinic'
loop_
_space_group_symop_operation_xyz
x,y,z
-x,y,-z
-x,-y,-z
x,-y,z
loop_
_atom_site_type_symbol
_atom_site_label
_atom_site_fract_x
_atom_site_fract_y
_atom_site_fract_z
Si Si1 0.767882 0.670383 0.616694
Si Si2 0.991357 0.834304 0.331246
Si Si3 0.509373 0.671057 0.817891
Si Si4 0.203356 0.671170 0.116574
Si Si5 0.178429 0.166766 0.566340
Si Si6 0.581660 0.170073 0.113400
Si Si7 0.388960 0.671471 0.346239
O O1 0.788105 0.500000 0.619324
O O2 0.590026 0.731724 0.477672
O O3 0.750500 0.711905 0.679100
O O4 0.947902 0.744239 0.693571
O O5 0.792730 0.783050 0.238725
O O6 0.138412 0.811242 0.470621
O O7 0.977903 0.000000 0.302551
O O8 0.483672 0.500000 0.810680
O O9 0.695585 0.709066 0.889160
O O10 0.342916 0.730994 0.680972
O O11 0.523285 0.744194 0.893333
O O12 0.192462 0.500000 0.119983
O O13 0.315126 0.738953 0.239306
O O14 0.000000 0.737565 0.000000
O O15 0.000000 0.214980 0.500000
O O16 0.227286 0.000000 0.610610
O O17 0.555731 0.000000 0.110578
O O18 0.500000 0.216448 0.000000
O O19 0.405868 0.500000 0.351923
#
# Coordination Sequence:
#
# PCOD8062235 Si02
#       7
#     4   4   4   4   4   4   4
#     4   9  17  30  52  77 102 135 171 216 267 315
#     4  10  20  34  53  79 106 138 180 222 265 320
#     4  11  22  35  57  88 114 137 178 237 282 315
#     4   9  18  32  50  74 107 144 176 212 268 331
#     4  10  19  35  57  78 108 148 184 217 266 336
#     4  10  22  41  59  73 103 152 190 215 262 334
#     4   8  15  30  49  71 101 137 176 210 256 324
#
# _framework density 19.170325999999999
#
# number of rings (size 3 to 8) (size 9 to 14) (size 15 to 20)
#    0.000    2.429    1.429    2.143    0.000    4.000 
#    0.000    2.857    0.000    3.429    0.000    0.000 
#    0.000    0.000    0.000    0.000    0.000    0.000 
#
# Total GULP energy -347175.264574 kJ/mol
# GULP energy per Si atom -12399.116592 kJ/mol
# Density = 1.912669 g / cm^3
# Si number density = 19.170326 Si / 1000 Ang^3
#
#
#
# Elastic Constant Matrix: (Units=GPa)
#
#
# Indices 1 2 3 4 5 6 
#
# 1 148.7277 52.0586 51.8335 0.0000 1.1861 0.0000
# 2 52.0586 50.2798 29.9750 0.0000 2.4380 0.0000
# 3 51.8335 29.9750 94.5119 0.0000 -7.9944 0.0000
# 4 0.0000 0.0000 0.0000 19.3083 0.0000 -1.8369
# 5 1.1861 2.4380 -7.9944 0.0000 30.9295 0.0000
# 6 0.0000 0.0000 0.0000 -1.8369 0.0000 14.3235
#
#
#
# Elastic Compliance Matrix: (Units=1/GPa)
#
#
# Indices 1 2 3 4 5 6 
#
# 1 0.011219 -0.009745 -0.003102 0.000000 -0.000464 0.000000
# 2 -0.009745 0.033492 -0.005592 0.000000 -0.003712 0.000000
# 3 -0.003102 -0.005592 0.014418 0.000000 0.004286 0.000000
# 4 0.000000 0.000000 0.000000 0.052431 0.000000 0.006724
# 5 -0.000464 -0.003712 0.004286 0.000000 0.033750 0.000000
# 6 0.000000 0.000000 0.000000 0.006724 0.000000 0.070678
#
#
# Mechanical properties :
#
#
# Convention : Reuss Voigt Hill
#
# Bulk Modulus (GPa) = 44.93867 62.36155 53.65011
# Shear Modulus (GPa) = 19.21005 23.55575 21.38290
#
# Velocity S-wave (km/s) = 3.16899 3.50917 3.34341
# Velocity P-wave (km/s) = 6.07311 7.00142 6.55372
#
# Compressibility (1/GPa) = 0.02225255
#
# Stress axis : x y z
#
# Youngs Moduli (GPa) = 89.13283 29.85830 69.35880
#
# Poissons Ratio (x) = 0.29095 0.21513
# Poissons Ratio (y) = 0.86856 0.38784
# Poissons Ratio (z) = 0.27646 0.16696
#
# Static dielectric constant tensor:
#      x y z
#    x 3.627100 0.000000 -0.041620 
#    y 0.000000 3.111630 0.000000 
#    z -0.041620 0.000000 3.651010 
# 
# 
# High freq. dielectric constant tensor:
#      x y z
#    x 1.760110 0.000000 -0.003880 
#    y 0.000000 1.705720 0.000000 
#    z -0.003880 0.000000 1.740120 
# 
# From -- ./inp_files/63384.got.cif
#   From: 2010.06.25/outbox.cif.g09.slc.cpg/sg10_32_cif.got.tgz:63384.got - 2010.06.27 22:07:45.
