data_PCOD8062595
_publ_section_title
;
Structure prediction by ZEFSAII (Michael W. Deem and Ramdas Pophale) SiO2 
 PCOD8062595
Probable space group: P 2/M
;
_chemical_formula_sum "Si O2"
_cell_formula_units_Z 28
_cell_length_a 14.127114
_cell_length_b 13.168739
_cell_length_c 7.632690
_cell_angle_alpha 90.000000
_cell_angle_beta 114.433238
_cell_angle_gamma 90.000000
_cell_volume 1292.791344
_symmetry_space_group_name_H-M "P 2/M"
_symmetry_group_IT_number 10
_symmetry_cell_setting 'monoclinic'
loop_
_space_group_symop_operation_xyz
x,y,z
-x,y,-z
-x,-y,-z
x,-y,z
loop_
_atom_site_type_symbol
_atom_site_label
_atom_site_fract_x
_atom_site_fract_y
_atom_site_fract_z
Si Si1 0.479758 0.818645 0.291829
Si Si2 0.454592 0.612173 0.773759
Si Si3 0.739449 0.884357 0.825038
Si Si4 0.862120 0.698059 0.025152
Si Si5 0.770092 0.684090 0.313868
Si Si6 0.305236 0.885762 0.617630
Si Si7 0.920527 0.383733 0.722471
O O1 0.500000 0.862153 0.500000
O O2 0.486971 0.695777 0.298952
O O3 0.365230 0.854794 0.145001
O O4 0.572372 0.865369 0.243963
O O5 0.474847 0.500000 0.710325
O O6 0.331583 0.630944 0.687406
O O7 0.500000 0.622333 0.000000
O O8 0.718014 0.865119 0.604068
O O9 0.769773 0.000000 0.887630
O O10 0.834379 0.815180 0.962814
O O11 0.788488 0.655455 0.124480
O O12 0.981154 0.690887 0.179995
O O13 0.845026 0.633271 0.833559
O O14 0.763557 0.806775 0.324265
O O15 0.866028 0.642653 0.499404
O O16 0.275201 0.000000 0.650267
O O17 0.958577 0.500000 0.748796
#
# Coordination Sequence:
#
# PCOD8062595 Si02
#       7
#     4   4   4   4   4   4   4
#     4   9  18  33  56  85 120 158 204 246 289 351
#     4  10  21  36  53  83 125 162 198 244 298 356
#     4  10  19  36  61  90 124 161 202 248 304 362
#     4  11  23  40  64  92 122 153 202 260 308 356
#     4  11  22  40  65  90 125 162 203 252 302 363
#     4   9  18  35  60  90 125 163 201 247 298 356
#     4  11  25  45  65  90 119 155 208 257 307 364
#
# _framework density 21.658560000000001
#
# number of rings (size 3 to 8) (size 9 to 14) (size 15 to 20)
#    0.000    1.857    1.429    3.000    0.000    5.429 
#    0.000    3.571    0.000    6.429    0.000    0.000 
#    0.000    0.000    0.000    0.000    0.000    0.000 
#
# Total GULP energy -347151.075902 kJ/mol
# GULP energy per Si atom -12398.252711 kJ/mol
# Density = 2.160926 g / cm^3
# Si number density = 21.658560 Si / 1000 Ang^3
#
#
#
# Elastic Constant Matrix: (Units=GPa)
#
#
# Indices 1 2 3 4 5 6 
#
# 1 66.9718 40.4046 19.8999 0.0000 3.6170 0.0000
# 2 40.4046 132.6546 34.7310 0.0000 18.5780 0.0000
# 3 19.8999 34.7310 59.5667 0.0000 13.5662 0.0000
# 4 0.0000 0.0000 0.0000 -185.5162 0.0000 116.2112
# 5 3.6170 18.5780 13.5662 0.0000 38.4173 0.0000
# 6 0.0000 0.0000 0.0000 116.2112 0.0000 -34.1027
#
#
#
# Elastic Compliance Matrix: (Units=1/GPa)
#
#
# Indices 1 2 3 4 5 6 
#
# 1 0.019027 -0.005067 -0.003863 0.000000 0.002023 0.000000
# 2 -0.005067 0.010509 -0.003682 0.000000 -0.003305 0.000000
# 3 -0.003863 -0.003682 0.021463 0.000000 -0.005435 0.000000
# 4 0.000000 0.000000 0.000000 0.004751 0.000000 0.016189
# 5 0.002023 -0.003305 -0.005435 0.000000 0.029357 0.000000
# 6 0.000000 0.000000 0.000000 0.016189 0.000000 0.025844
#
#
# Mechanical properties :
#
#
# Convention : Reuss Voigt Hill
#
# Bulk Modulus (GPa) = 38.79710 49.91822 44.35766
# Shear Modulus (GPa) = 34.53872 -25.29648 4.62112
#
# Velocity S-wave (km/s) = 3.99769 -3.42126 1.46228
# Velocity P-wave (km/s) = 6.26583 2.73699 4.83486
#
# Compressibility (1/GPa) = 0.02577512
#
# Stress axis : x y z
#
# Youngs Moduli (GPa) = 52.55577 95.16068 46.59231
#
# Poissons Ratio (x) = 0.48222 0.17997
# Poissons Ratio (y) = 0.26632 0.17153
# Poissons Ratio (z) = 0.20301 0.35034
#
# Static dielectric constant tensor:
#      x y z
#    x 3.890510 0.000000 -0.038010 
#    y 0.000000 3.981650 0.000000 
#    z -0.038010 0.000000 3.818920 
# 
# 
# High freq. dielectric constant tensor:
#      x y z
#    x 1.832940 0.000000 -0.002340 
#    y 0.000000 1.849630 0.000000 
#    z -0.002340 0.000000 1.847840 
# 
# From -- ./inp_files/28672.got.cif
#   From: 2010.06.25/outbox.cif.g09.slc.cpg/sg10_15_cif.got.tgz:28672.got - 2010.06.27 22:07:45.
