data_PCOD8062988
_publ_section_title
;
Structure prediction by ZEFSAII (Michael W. Deem and Ramdas Pophale) SiO2 
 PCOD8062988
Probable space group: P 2/M
;
_chemical_formula_sum "Si O2"
_cell_formula_units_Z 32
_cell_length_a 22.539563
_cell_length_b 9.086791
_cell_length_c 16.834864
_cell_angle_alpha 90.000000
_cell_angle_beta 31.455939
_cell_angle_gamma 90.000000
_cell_volume 1799.307018
_symmetry_space_group_name_H-M "P 2/M"
_symmetry_group_IT_number 10
_symmetry_cell_setting 'monoclinic'
loop_
_space_group_symop_operation_xyz
x,y,z
-x,y,-z
-x,-y,-z
x,-y,z
loop_
_atom_site_type_symbol
_atom_site_label
_atom_site_fract_x
_atom_site_fract_y
_atom_site_fract_z
Si Si1 0.881870 0.174641 0.464292
Si Si2 0.433809 0.331532 0.422953
Si Si3 0.134342 0.161288 0.342621
Si Si4 0.105482 0.166559 0.829645
Si Si5 0.328130 0.834796 0.680086
Si Si6 0.312945 0.330985 0.860251
Si Si7 0.777920 0.673607 0.438049
Si Si8 0.122628 0.326157 0.201796
O O1 0.827538 0.212348 0.612765
O O2 0.793148 0.242950 0.503639
O O3 0.006015 0.246369 0.311411
O O4 0.894353 0.000000 0.438221
O O5 0.406685 0.500000 0.474825
O O6 0.424473 0.244098 0.516879
O O7 0.561610 0.309525 0.244427
O O8 0.344916 0.278495 0.457155
O O9 0.169118 0.277897 0.235516
O O10 0.000000 0.147011 0.500000
O O11 0.185814 0.000000 0.263058
O O12 0.213088 0.170907 0.762768
O O13 0.122760 0.272659 0.734633
O O14 0.081461 0.000000 0.826997
O O15 0.000000 0.228845 0.000000
O O16 0.302469 0.759161 0.792184
O O17 0.369450 0.000000 0.648754
O O18 0.291994 0.500000 0.862258
O O19 0.218723 0.276144 0.029840
O O20 0.788322 0.500000 0.439513
O O21 0.102431 0.500000 0.225186
#
# Coordination Sequence:
#
# PCOD8062988 Si02
#       8
#     4   4   4   4   4   4   4   4
#     4  10  20  34  53  75 104 136 163 196 246 306
#     4   9  19  37  54  68  96 136 170 206 253 296
#     4   8  16  32  51  72 100 135 164 192 243 304
#     4   9  19  34  48  66  98 137 166 197 248 299
#     4  10  20  32  49  74  98 127 173 214 244 287
#     4  10  21  35  51  72 101 134 166 204 253 300
#     4  10  20  33  52  76  96 125 171 212 244 286
#     4  10  20  32  50  79 106 129 163 206 247 292
#
# _framework density 17.784624000000001
#
# number of rings (size 3 to 8) (size 9 to 14) (size 15 to 20)
#    0.000    2.500    0.000    2.625    1.750    7.000 
#    0.000    0.000    0.000    0.750    0.000    5.250 
#    0.000    0.000    0.000    0.000    0.000    0.000 
#
# Total GULP energy -396743.223356 kJ/mol
# GULP energy per Si atom -12398.225730 kJ/mol
# Density = 1.774415 g / cm^3
# Si number density = 17.784624 Si / 1000 Ang^3
#
#
#
# Elastic Constant Matrix: (Units=GPa)
#
#
# Indices 1 2 3 4 5 6 
#
# 1 103.2688 51.3461 32.8999 0.0000 27.2016 0.0000
# 2 51.3461 87.3700 37.7726 0.0000 13.5783 0.0000
# 3 32.8999 37.7726 68.5097 0.0000 12.9582 0.0000
# 4 0.0000 0.0000 0.0000 16.6720 0.0000 6.7754
# 5 27.2016 13.5783 12.9582 0.0000 18.4392 0.0000
# 6 0.0000 0.0000 0.0000 6.7754 0.0000 30.4927
#
#
#
# Elastic Compliance Matrix: (Units=1/GPa)
#
#
# Indices 1 2 3 4 5 6 
#
# 1 0.019860 -0.007690 -0.000954 0.000000 -0.022964 0.000000
# 2 -0.007690 0.018614 -0.007061 0.000000 0.002600 0.000000
# 3 -0.000954 -0.007061 0.020411 0.000000 -0.007737 0.000000
# 4 0.000000 0.000000 0.000000 0.065935 0.000000 -0.014650
# 5 -0.022964 0.002600 -0.007737 0.000000 0.091632 0.000000
# 6 0.000000 0.000000 0.000000 -0.014650 0.000000 0.036050
#
#
# Mechanical properties :
#
#
# Convention : Reuss Voigt Hill
#
# Bulk Modulus (GPa) = 36.39757 55.90951 46.15354
# Shear Modulus (GPa) = 17.06076 22.26277 19.66177
#
# Velocity S-wave (km/s) = 3.10061 3.54192 3.32859
# Velocity P-wave (km/s) = 5.77309 6.94494 6.38595
#
# Compressibility (1/GPa) = 0.02747436
#
# Stress axis : x y z
#
# Youngs Moduli (GPa) = 50.35290 53.72389 48.99269
#
# Poissons Ratio (x) = 0.41314 0.04672
# Poissons Ratio (y) = 0.38722 0.34596
# Poissons Ratio (z) = 0.04802 0.37937
#
# Static dielectric constant tensor:
#      x y z
#    x 3.513120 0.000000 0.137140 
#    y 0.000000 3.428580 0.000000 
#    z 0.137140 0.000000 3.266380 
# 
# 
# High freq. dielectric constant tensor:
#      x y z
#    x 1.687950 0.000000 0.004750 
#    y 0.000000 1.694970 0.000000 
#    z 0.004750 0.000000 1.666580 
# 
# From -- ./inp_files/79922.got.cif
#   From: 2010.06.25/outbox.cif.g09.slc.cpg/sg10_40_cif.got.tgz:79922.got - 2010.06.27 22:07:45.
