data_PCOD8062352
_publ_section_title
;
Structure prediction by ZEFSAII (Michael W. Deem and Ramdas Pophale) SiO2 
 PCOD8062352
Probable space group: P 2/M
;
_chemical_formula_sum "Si O2"
_cell_formula_units_Z 28
_cell_length_a 20.176224
_cell_length_b 15.582961
_cell_length_c 9.167629
_cell_angle_alpha 90.000000
_cell_angle_beta 28.479509
_cell_angle_gamma 90.000000
_cell_volume 1374.433151
_symmetry_space_group_name_H-M "P 2/M"
_symmetry_group_IT_number 10
_symmetry_cell_setting 'monoclinic'
loop_
_space_group_symop_operation_xyz
x,y,z
-x,y,-z
-x,-y,-z
x,-y,z
loop_
_atom_site_type_symbol
_atom_site_label
_atom_site_fract_x
_atom_site_fract_y
_atom_site_fract_z
Si Si1 0.195387 0.905450 0.276948
Si Si2 0.762916 0.595736 0.825450
Si Si3 0.496674 0.344952 0.841703
Si Si4 0.358257 0.144522 0.700549
Si Si5 0.522334 0.856603 0.118557
Si Si6 0.739825 0.676598 0.172496
Si Si7 0.028875 0.738792 0.613911
O O1 0.086437 0.833494 0.543708
O O2 0.130785 0.000000 0.428802
O O3 0.227958 0.897389 0.038643
O O4 0.339211 0.898405 0.085281
O O5 0.819692 0.500000 0.685148
O O6 0.860712 0.665529 0.556570
O O7 0.610493 0.603468 0.051396
O O8 0.764075 0.606975 0.998930
O O9 0.455597 0.245231 0.921792
O O10 0.649211 0.362034 0.478944
O O11 0.500000 0.381211 0.000000
O O12 0.500000 0.114793 0.500000
O O13 0.382482 0.118989 0.483244
O O14 0.342458 0.246588 0.748169
O O15 0.500000 0.892670 0.000000
O O16 0.881077 0.715469 0.973813
O O17 0.000000 0.735079 0.500000
#
# Coordination Sequence:
#
# PCOD8062352 Si02
#       7
#     4   4   4   4   4   4   4
#     4  11  20  33  56  83 114 152 189 236 292 341
#     4  11  21  36  61  89 118 150 187 237 290 339
#     4  10  20  37  61  85 112 149 196 238 286 339
#     4   9  16  31  53  79 111 141 186 240 286 332
#     4   9  18  33  56  80 110 148 192 239 285 337
#     4  10  19  35  59  83 114 151 190 237 279 338
#     4  10  20  37  56  83 120 150 191 233 281 342
#
# _framework density 20.372033999999999
#
# number of rings (size 3 to 8) (size 9 to 14) (size 15 to 20)
#    0.000    2.000    4.286    2.143    0.000    7.143 
#    0.000    0.714    0.000    0.857    0.000    9.000 
#    0.000    0.000    0.000    0.000    0.000    0.000 
#
# Total GULP energy -346969.486059 kJ/mol
# GULP energy per Si atom -12391.767359 kJ/mol
# Density = 2.032567 g / cm^3
# Si number density = 20.372034 Si / 1000 Ang^3
#
#
#
# Elastic Constant Matrix: (Units=GPa)
#
#
# Indices 1 2 3 4 5 6 
#
# 1 74.5218 27.9552 49.1132 0.0000 5.1813 0.0000
# 2 27.9552 118.6292 33.4079 0.0000 -7.1776 0.0000
# 3 49.1132 33.4079 96.9173 0.0000 -8.9031 0.0000
# 4 0.0000 0.0000 0.0000 7.9960 0.0000 0.8131
# 5 5.1813 -7.1776 -8.9031 0.0000 31.0415 0.0000
# 6 0.0000 0.0000 0.0000 0.8131 0.0000 8.8492
#
#
#
# Elastic Compliance Matrix: (Units=1/GPa)
#
#
# Indices 1 2 3 4 5 6 
#
# 1 0.022175 -0.002569 -0.011037 0.000000 -0.007461 0.000000
# 2 -0.002569 0.009682 -0.001839 0.000000 0.002140 0.000000
# 3 -0.011037 -0.001839 0.017127 0.000000 0.006329 0.000000
# 4 0.000000 0.000000 0.000000 0.126241 0.000000 -0.011599
# 5 -0.007461 0.002140 0.006329 0.000000 0.035770 0.000000
# 6 0.000000 0.000000 0.000000 -0.011599 0.000000 0.114070
#
#
# Mechanical properties :
#
#
# Convention : Reuss Voigt Hill
#
# Bulk Modulus (GPa) = 55.26788 56.78013 56.02400
# Shear Modulus (GPa) = 13.81261 21.55016 17.68139
#
# Velocity S-wave (km/s) = 2.60670 3.25596 2.94925
# Velocity P-wave (km/s) = 6.02064 6.48592 6.25760
#
# Compressibility (1/GPa) = 0.01809369
#
# Stress axis : x y z
#
# Youngs Moduli (GPa) = 45.09508 103.28006 58.38829
#
# Poissons Ratio (x) = 0.26531 0.64445
# Poissons Ratio (y) = 0.11584 0.10739
# Poissons Ratio (z) = 0.49773 0.18996
#
# Static dielectric constant tensor:
#      x y z
#    x 3.585020 0.000000 -0.082010 
#    y 0.000000 3.553470 0.000000 
#    z -0.082010 0.000000 4.144970 
# 
# 
# High freq. dielectric constant tensor:
#      x y z
#    x 1.767170 0.000000 -0.010580 
#    y 0.000000 1.782810 0.000000 
#    z -0.010580 0.000000 1.783490 
# 
# From -- ./inp_files/35222.got.cif
#   From: 2010.06.25/outbox.cif.g09.slc.cpg/sg10_18_cif.got.tgz:35222.got - 2010.06.27 22:07:45.
