data_PCOD8062081
_publ_section_title
;
Structure prediction by ZEFSAII (Michael W. Deem and Ramdas Pophale) SiO2 
 PCOD8062081
Probable space group: P 2/M
;
_chemical_formula_sum "Si O2"
_cell_formula_units_Z 24
_cell_length_a 19.350301
_cell_length_b 8.765003
_cell_length_c 14.903690
_cell_angle_alpha 90.000000
_cell_angle_beta 148.659494
_cell_angle_gamma 90.000000
_cell_volume 1314.739483
_symmetry_space_group_name_H-M "P 2/M"
_symmetry_group_IT_number 10
_symmetry_cell_setting 'monoclinic'
loop_
_space_group_symop_operation_xyz
x,y,z
-x,y,-z
-x,-y,-z
x,-y,z
loop_
_atom_site_type_symbol
_atom_site_label
_atom_site_fract_x
_atom_site_fract_y
_atom_site_fract_z
Si Si1 0.368936 0.820463 0.909899
Si Si2 0.328911 0.174799 0.060172
Si Si3 0.095254 0.679167 0.024622
Si Si4 0.373286 0.182181 0.304014
Si Si5 0.893795 0.320306 0.455507
Si Si6 0.970999 0.176025 0.232110
O O1 0.252486 0.725423 0.736098
O O2 0.332722 0.000000 0.869723
O O3 0.500000 0.784648 0.000000
O O4 0.390569 0.759039 0.036288
O O5 0.384968 0.248778 0.214729
O O6 0.368807 0.000000 0.109904
O O7 0.171345 0.199067 0.879256
O O8 0.118428 0.500000 0.045712
O O9 0.023037 0.734139 0.854413
O O10 0.238051 0.757696 0.198534
O O11 0.000000 0.727310 0.000000
O O12 0.500000 0.241824 0.500000
O O13 0.365020 0.000000 0.294521
O O14 0.904716 0.500000 0.480299
O O15 0.000000 0.261519 0.500000
O O16 0.919130 0.241379 0.579099
O O17 0.000880 0.000000 0.245152
#
# Coordination Sequence:
#
# PCOD8062081 Si02
#       6
#     4   4   4   4   4   4
#     4  10  20  35  54  77 109 145 183 225 273 321
#     4   8  15  30  52  76 103 136 175 224 271 310
#     4  10  21  37  56  80 116 148 174 220 279 331
#     4   9  18  34  56  80 106 140 185 231 268 316
#     4  11  22  35  55  82 112 145 183 223 270 328
#     4  10  19  34  59  83 106 141 186 231 270 314
#
# _framework density 18.254567000000002
#
# number of rings (size 3 to 8) (size 9 to 14) (size 15 to 20)
#    0.000    2.333    1.667    2.500    0.000    2.667 
#    3.000    0.000    0.000    0.000    0.000    0.000 
#    0.000    0.000    0.000    0.000    0.000    0.000 
#
# Total GULP energy -297548.015951 kJ/mol
# GULP energy per Si atom -12397.833998 kJ/mol
# Density = 1.821302 g / cm^3
# Si number density = 18.254567 Si / 1000 Ang^3
#
#
#
# Elastic Constant Matrix: (Units=GPa)
#
#
# Indices 1 2 3 4 5 6 
#
# 1 140.5606 27.1790 66.2901 0.0000 -7.1834 0.0000
# 2 27.1790 24.2092 19.5974 0.0000 0.1336 0.0000
# 3 66.2901 19.5974 126.6229 0.0000 -16.6482 0.0000
# 4 0.0000 0.0000 0.0000 21.5497 0.0000 -2.0976
# 5 -7.1834 0.1336 -16.6482 0.0000 24.5182 0.0000
# 6 0.0000 0.0000 0.0000 -2.0976 0.0000 23.3193
#
#
#
# Elastic Compliance Matrix: (Units=1/GPa)
#
#
# Indices 1 2 3 4 5 6 
#
# 1 0.010832 -0.008694 -0.004284 0.000000 0.000312 0.000000
# 2 -0.008694 0.054947 -0.004751 0.000000 -0.006072 0.000000
# 3 -0.004284 -0.004751 0.011764 0.000000 0.006759 0.000000
# 4 0.000000 0.000000 0.000000 0.046814 0.000000 0.004211
# 5 0.000312 -0.006072 0.006759 0.000000 0.045500 0.000000
# 6 0.000000 0.000000 0.000000 0.004211 0.000000 0.043262
#
#
# Mechanical properties :
#
#
# Convention : Reuss Voigt Hill
#
# Bulk Modulus (GPa) = 23.76174 57.50287 40.63231
# Shear Modulus (GPa) = 19.03994 25.76584 22.40289
#
# Velocity S-wave (km/s) = 3.23309 3.76103 3.50701
# Velocity P-wave (km/s) = 5.19445 7.10137 6.22140
#
# Compressibility (1/GPa) = 0.04208445
#
# Stress axis : x y z
#
# Youngs Moduli (GPa) = 92.31964 18.19935 85.00357
#
# Poissons Ratio (x) = 0.15823 0.36417
# Poissons Ratio (y) = 0.80267 0.40383
# Poissons Ratio (z) = 0.39551 0.08646
#
# Static dielectric constant tensor:
#      x y z
#    x 3.798220 0.000000 -0.356010 
#    y 0.000000 3.188660 0.000000 
#    z -0.356010 0.000000 3.392740 
# 
# 
# High freq. dielectric constant tensor:
#      x y z
#    x 1.710860 0.000000 -0.017190 
#    y 0.000000 1.692700 0.000000 
#    z -0.017190 0.000000 1.702000 
# 
# From -- ./inp_files/68783.got.cif
#   From: 2010.06.25/outbox.cif.g09.slc.cpg/sg10_35_cif.got.tgz:68783.got - 2010.06.27 22:07:45.
