data_PCOD8062097
_publ_section_title
;
Structure prediction by ZEFSAII (Michael W. Deem and Ramdas Pophale) SiO2 
 PCOD8062097
Probable space group: P 2/M
;
_chemical_formula_sum "Si O2"
_cell_formula_units_Z 32
_cell_length_a 29.376140
_cell_length_b 9.066077
_cell_length_c 10.916846
_cell_angle_alpha 90.000000
_cell_angle_beta 146.029669
_cell_angle_gamma 90.000000
_cell_volume 1624.573529
_symmetry_space_group_name_H-M "P 2/M"
_symmetry_group_IT_number 10
_symmetry_cell_setting 'monoclinic'
loop_
_space_group_symop_operation_xyz
x,y,z
-x,y,-z
-x,-y,-z
x,-y,z
loop_
_atom_site_type_symbol
_atom_site_label
_atom_site_fract_x
_atom_site_fract_y
_atom_site_fract_z
Si Si1 0.846409 0.165056 0.407998
Si Si2 0.839362 0.828485 0.849818
Si Si3 0.708584 0.673507 0.970405
Si Si4 0.530727 0.170705 0.199787
Si Si5 0.398188 0.327408 0.037666
Si Si6 0.693036 0.168281 0.691769
Si Si7 0.999832 0.325122 0.141755
Si Si8 0.734098 0.836085 0.391385
O O1 0.791500 0.154546 0.403762
O O2 0.925982 0.257873 0.617141
O O3 0.870532 0.000000 0.417476
O O4 0.794764 0.246191 0.187179
O O5 0.784518 0.803260 0.847594
O O6 0.786621 0.770388 0.618429
O O7 0.863268 0.000000 0.886252
O O8 0.919911 0.730224 0.034623
O O9 0.724313 0.500000 0.008798
O O10 0.640106 0.718758 0.917231
O O11 0.675180 0.723283 0.764454
O O12 0.485274 0.251379 0.211299
O O13 0.627338 0.197915 0.436383
O O14 0.507769 0.000000 0.156599
O O15 0.500000 0.234393 0.000000
O O16 0.409629 0.500000 0.053287
O O17 0.340470 0.272933 0.798524
O O18 0.684320 0.000000 0.718135
O O19 0.005239 0.500000 0.160805
O O20 0.000000 0.271709 0.000000
O O21 0.700355 0.000000 0.349398
#
# Coordination Sequence:
#
# PCOD8062097 Si02
#       8
#     4   4   4   4   4   4   4   4
#     4  10  19  34  59  85 112 148 192 238 281 333
#     4  10  20  36  57  82 113 148 192 239 287 341
#     4  10  22  40  59  81 116 155 193 238 287 339
#     4  10  21  39  62  87 118 150 185 234 289 339
#     4  10  21  35  55  84 115 150 191 234 282 337
#     4  10  22  39  60  84 111 149 196 242 284 337
#     4  11  22  34  53  86 125 155 184 228 285 348
#     4   9  17  31  54  82 112 147 185 230 285 338
#
# _framework density 19.697478
#
# number of rings (size 3 to 8) (size 9 to 14) (size 15 to 20)
#    0.000    2.000    1.250    2.250    0.000    6.750 
#    0.000    4.375    0.000    3.750    0.000    0.000 
#    0.000    0.000    0.000    0.000    0.000    0.000 
#
# Total GULP energy -396825.483187 kJ/mol
# GULP energy per Si atom -12400.796350 kJ/mol
# Density = 1.965265 g / cm^3
# Si number density = 19.697478 Si / 1000 Ang^3
#
#
#
# Elastic Constant Matrix: (Units=GPa)
#
#
# Indices 1 2 3 4 5 6 
#
# 1 63.5571 40.3699 43.9854 0.0000 3.6569 0.0000
# 2 40.3699 78.0774 37.6919 0.0000 6.0661 0.0000
# 3 43.9854 37.6919 90.4100 0.0000 6.9403 0.0000
# 4 0.0000 0.0000 0.0000 27.5620 0.0000 3.9515
# 5 3.6569 6.0661 6.9403 0.0000 34.7776 0.0000
# 6 0.0000 0.0000 0.0000 3.9515 0.0000 27.2686
#
#
#
# Elastic Compliance Matrix: (Units=1/GPa)
#
#
# Indices 1 2 3 4 5 6 
#
# 1 0.029109 -0.010321 -0.009914 0.000000 0.000718 0.000000
# 2 -0.010321 0.019770 -0.003087 0.000000 -0.001747 0.000000
# 3 -0.009914 -0.003087 0.017315 0.000000 -0.001874 0.000000
# 4 0.000000 0.000000 0.000000 0.037052 0.000000 -0.005369
# 5 0.000718 -0.001747 -0.001874 0.000000 0.029358 0.000000
# 6 0.000000 0.000000 0.000000 -0.005369 0.000000 0.037450
#
#
# Mechanical properties :
#
#
# Convention : Reuss Voigt Hill
#
# Bulk Modulus (GPa) = 51.14958 52.90431 52.02694
# Shear Modulus (GPa) = 22.39998 25.25479 23.82739
#
# Velocity S-wave (km/s) = 3.37590 3.58457 3.48180
# Velocity P-wave (km/s) = 6.42024 6.63694 6.52949
#
# Compressibility (1/GPa) = 0.01955050
#
# Stress axis : x y z
#
# Youngs Moduli (GPa) = 34.35324 50.58168 57.75323
#
# Poissons Ratio (x) = 0.52203 0.57259
# Poissons Ratio (y) = 0.35454 0.17828
# Poissons Ratio (z) = 0.34059 0.15614
#
# Static dielectric constant tensor:
#      x y z
#    x 3.502030 0.000000 0.090430 
#    y 0.000000 3.546610 0.000000 
#    z 0.090430 0.000000 3.594150 
# 
# 
# High freq. dielectric constant tensor:
#      x y z
#    x 1.756560 0.000000 0.007460 
#    y 0.000000 1.762870 0.000000 
#    z 0.007460 0.000000 1.766350 
# 
# From -- ./inp_files/58299.got.cif
#   From: 2010.06.25/outbox.cif.g09.slc.cpg/sg10_30_cif.got.tgz:58299.got - 2010.06.27 22:07:45.
