data_PCOD8062160
_publ_section_title
;
Structure prediction by ZEFSAII (Michael W. Deem and Ramdas Pophale) SiO2 
 PCOD8062160
Probable space group: P 2/M
;
_chemical_formula_sum "Si O2"
_cell_formula_units_Z 32
_cell_length_a 19.632923
_cell_length_b 11.098616
_cell_length_c 9.271540
_cell_angle_alpha 90.000000
_cell_angle_beta 60.116044
_cell_angle_gamma 90.000000
_cell_volume 1751.632306
_symmetry_space_group_name_H-M "P 2/M"
_symmetry_group_IT_number 10
_symmetry_cell_setting 'monoclinic'
loop_
_space_group_symop_operation_xyz
x,y,z
-x,y,-z
-x,-y,-z
x,-y,z
loop_
_atom_site_type_symbol
_atom_site_label
_atom_site_fract_x
_atom_site_fract_y
_atom_site_fract_z
Si Si1 0.586865 0.695679 0.742223
Si Si2 0.149677 0.137326 0.009677
Si Si3 0.154326 0.139457 0.669067
Si Si4 0.695957 0.265379 0.188942
Si Si5 0.739144 0.369455 0.429295
Si Si6 0.001407 0.142171 0.337423
Si Si7 0.574344 0.138264 0.502322
Si Si8 0.412860 0.634583 0.945202
O O1 0.657782 0.618895 0.601610
O O2 0.582707 0.820050 0.658642
O O3 0.504244 0.627795 0.805269
O O4 0.600344 0.717785 0.899079
O O5 0.076219 0.195779 0.172527
O O6 0.162839 0.000000 0.043424
O O7 0.130946 0.146534 0.860349
O O8 0.228061 0.209621 0.969441
O O9 0.216484 0.246268 0.567325
O O10 0.078694 0.176212 0.657294
O O11 0.182944 0.000000 0.603001
O O12 0.722168 0.366928 0.275396
O O13 0.653216 0.161992 0.328325
O O14 0.638265 0.316315 0.130932
O O15 0.782706 0.500000 0.410838
O O16 0.000000 0.196853 0.500000
O O17 0.011297 0.000000 0.331807
O O18 0.500000 0.201030 0.500000
O O19 0.557434 0.000000 0.531829
O O20 0.384738 0.500000 0.013400
#
# Coordination Sequence:
#
# PCOD8062160 Si02
#       8
#     4   4   4   4   4   4   4   4
#     4  10  21  36  53  75 100 138 182 220 272 318
#     4   9  17  31  51  75 104 134 170 213 257 311
#     4   9  18  33  55  78 104 136 171 211 263 318
#     4  10  20  33  53  79 103 137 180 219 270 317
#     4  10  20  34  54  79 107 137 180 226 269 318
#     4   9  17  30  51  79 105 132 170 214 257 307
#     4  10  19  35  54  74 104 137 173 219 269 321
#     4  11  21  36  53  71 102 138 180 229 271 318
#
# _framework density 18.268675000000002
#
# number of rings (size 3 to 8) (size 9 to 14) (size 15 to 20)
#    0.000    2.250    1.250    2.625    0.000    5.500 
#    0.000    4.375    0.000    7.125    0.000    0.000 
#    0.000    0.000    0.000    0.000    0.000    0.000 
#
# Total GULP energy -396513.957854 kJ/mol
# GULP energy per Si atom -12391.061183 kJ/mol
# Density = 1.822709 g / cm^3
# Si number density = 18.268675 Si / 1000 Ang^3
#
#
#
# Elastic Constant Matrix: (Units=GPa)
#
#
# Indices 1 2 3 4 5 6 
#
# 1 105.4658 42.4793 58.9274 0.0000 -4.1999 0.0000
# 2 42.4793 90.7805 41.2472 0.0000 -7.0212 0.0000
# 3 58.9274 41.2472 101.1514 0.0000 -6.5107 0.0000
# 4 0.0000 0.0000 0.0000 3.8336 0.0000 -0.3705
# 5 -4.1999 -7.0212 -6.5107 0.0000 22.3830 0.0000
# 6 0.0000 0.0000 0.0000 -0.3705 0.0000 12.3179
#
#
#
# Elastic Compliance Matrix: (Units=1/GPa)
#
#
# Indices 1 2 3 4 5 6 
#
# 1 0.015035 -0.003778 -0.007248 0.000000 -0.000473 0.000000
# 2 -0.003778 0.014631 -0.003582 0.000000 0.002838 0.000000
# 3 -0.007248 -0.003582 0.015704 0.000000 0.002084 0.000000
# 4 0.000000 0.000000 0.000000 0.261611 0.000000 0.007869
# 5 -0.000473 0.002838 0.002084 0.000000 0.046085 0.000000
# 6 0.000000 0.000000 0.000000 0.007869 0.000000 0.081419
#
#
# Mechanical properties :
#
#
# Convention : Reuss Voigt Hill
#
# Bulk Modulus (GPa) = 61.91490 64.74505 63.32997
# Shear Modulus (GPa) = 10.65903 18.02315 14.34109
#
# Velocity S-wave (km/s) = 2.41811 3.14436 2.80484
# Velocity P-wave (km/s) = 6.46229 6.97855 6.72537
#
# Compressibility (1/GPa) = 0.01615120
#
# Stress axis : x y z
#
# Youngs Moduli (GPa) = 66.51270 68.34901 63.67915
#
# Poissons Ratio (x) = 0.25825 0.46157
# Poissons Ratio (y) = 0.25131 0.22811
# Poissons Ratio (z) = 0.48211 0.24484
#
# Static dielectric constant tensor:
#      x y z
#    x 3.436620 0.000000 -0.004440 
#    y 0.000000 3.149260 0.000000 
#    z -0.004440 0.000000 3.437310 
# 
# 
# High freq. dielectric constant tensor:
#      x y z
#    x 1.708160 0.000000 -0.000450 
#    y 0.000000 1.681090 0.000000 
#    z -0.000450 0.000000 1.705930 
# 
# From -- ./inp_files/34604.got.cif
#   From: 2010.06.25/outbox.cif.g09.slc.cpg/sg10_18_cif.got.tgz:34604.got - 2010.06.27 22:07:45.
