data_PCOD8062945
_publ_section_title
;
Structure prediction by ZEFSAII (Michael W. Deem and Ramdas Pophale) SiO2 
 PCOD8062945
Probable space group: P 2/M
;
_chemical_formula_sum "Si O2"
_cell_formula_units_Z 32
_cell_length_a 14.185322
_cell_length_b 9.324009
_cell_length_c 20.005347
_cell_angle_alpha 90.000000
_cell_angle_beta 139.294347
_cell_angle_gamma 90.000000
_cell_volume 1725.642865
_symmetry_space_group_name_H-M "P 2/M"
_symmetry_group_IT_number 10
_symmetry_cell_setting 'monoclinic'
loop_
_space_group_symop_operation_xyz
x,y,z
-x,y,-z
-x,-y,-z
x,-y,z
loop_
_atom_site_type_symbol
_atom_site_label
_atom_site_fract_x
_atom_site_fract_y
_atom_site_fract_z
Si Si1 0.806520 0.671654 0.232121
Si Si2 0.111343 0.658916 0.363894
Si Si3 0.856090 0.833205 0.881812
Si Si4 0.571836 0.328875 0.469909
Si Si5 0.288962 0.329806 0.962210
Si Si6 0.018931 0.341013 0.162516
Si Si7 0.423251 0.331396 0.253259
Si Si8 0.442934 0.330754 0.810827
O O1 0.819494 0.500000 0.235091
O O2 0.724922 0.727889 0.121343
O O3 0.712443 0.724635 0.245237
O O4 0.972113 0.733736 0.325595
O O5 0.129921 0.500000 0.404501
O O6 0.266729 0.737880 0.454580
O O7 0.075286 0.649075 0.267223
O O8 0.722193 0.752455 0.843790
O O9 0.878918 0.770708 0.820225
O O10 0.820553 0.000000 0.858523
O O11 0.000000 0.799001 0.000000
O O12 0.500000 0.268967 0.500000
O O13 0.582432 0.500000 0.480873
O O14 0.479185 0.281061 0.355836
O O15 0.299989 0.500000 0.965816
O O16 0.146479 0.285592 0.927544
O O17 0.428209 0.263299 0.074571
O O18 0.031193 0.500000 0.136319
O O19 0.390125 0.500000 0.234684
O O20 0.539237 0.290817 0.257702
O O21 0.448916 0.500000 0.823713
#
# Coordination Sequence:
#
# PCOD8062945 Si02
#       8
#     4   4   4   4   4   4   4   4
#     4   8  13  21  35  59  93 125 146 175 228 280
#     4   8  14  25  43  68  94 119 150 187 229 275
#     4  11  23  35  46  64  93 125 150 179 229 283
#     4   9  16  27  44  65  89 118 153 193 234 273
#     4   8  13  21  37  62  89 117 148 182 223 270
#     4   9  16  28  48  70  89 116 156 193 221 261
#     4  10  20  32  48  69  90 118 158 196 226 264
#     4   9  15  23  36  59  91 120 149 188 227 263
#
# _framework density 18.543813
#
# number of rings (size 3 to 8) (size 9 to 14) (size 15 to 20)
#    0.000    3.000    0.000    3.750    0.000    5.500 
#    0.000    0.625    0.000    7.125    0.000    3.500 
#    0.000   14.000    0.000    0.000    0.000    0.000 
#
# Total GULP energy -396468.473404 kJ/mol
# GULP energy per Si atom -12389.639794 kJ/mol
# Density = 1.850161 g / cm^3
# Si number density = 18.543813 Si / 1000 Ang^3
#
#
#
# Elastic Constant Matrix: (Units=GPa)
#
#
# Indices 1 2 3 4 5 6 
#
# 1 154.0964 25.0574 61.5615 0.0000 11.7106 0.0000
# 2 25.0574 24.9096 19.5329 0.0000 2.4050 0.0000
# 3 61.5615 19.5329 90.1723 0.0000 16.1179 0.0000
# 4 0.0000 0.0000 0.0000 7.0053 0.0000 1.6434
# 5 11.7106 2.4050 16.1179 0.0000 29.6994 0.0000
# 6 0.0000 0.0000 0.0000 1.6434 0.0000 2.4395
#
#
#
# Elastic Compliance Matrix: (Units=1/GPa)
#
#
# Indices 1 2 3 4 5 6 
#
# 1 0.009492 -0.005405 -0.005225 0.000000 -0.000469 0.000000
# 2 -0.005405 0.051541 -0.007873 0.000000 0.002230 0.000000
# 3 -0.005225 -0.007873 0.017586 0.000000 -0.006846 0.000000
# 4 0.000000 0.000000 0.000000 0.169545 0.000000 -0.114215
# 5 -0.000469 0.002230 -0.006846 0.000000 0.037391 0.000000
# 6 0.000000 0.000000 0.000000 -0.114215 0.000000 0.486854
#
#
# Mechanical properties :
#
#
# Convention : Reuss Voigt Hill
#
# Bulk Modulus (GPa) = 24.03181 53.49801 38.76491
# Shear Modulus (GPa) = 6.07323 18.69727 12.38525
#
# Velocity S-wave (km/s) = 1.81168 3.17878 2.58716
# Velocity P-wave (km/s) = 4.16700 6.51038 5.46575
#
# Compressibility (1/GPa) = 0.04161152
#
# Stress axis : x y z
#
# Youngs Moduli (GPa) = 105.35741 19.40215 56.86201
#
# Poissons Ratio (x) = 0.10487 0.29712
# Poissons Ratio (y) = 0.56947 0.44768
# Poissons Ratio (z) = 0.55052 0.15276
#
# Static dielectric constant tensor:
#      x y z
#    x 3.797980 0.000000 0.291900 
#    y 0.000000 2.664940 0.000000 
#    z 0.291900 0.000000 3.510460 
# 
# 
# High freq. dielectric constant tensor:
#      x y z
#    x 1.734770 0.000000 0.013870 
#    y 0.000000 1.628820 0.000000 
#    z 0.013870 0.000000 1.712900 
# 
# From -- ./inp_files/84769.got.cif
#   From: 2010.06.25/outbox.cif.g09.slc.cpg/sg10_43_cif.got.tgz:84769.got - 2010.06.27 22:07:45.
