data_PCOD8062950
_publ_section_title
;
Structure prediction by ZEFSAII (Michael W. Deem and Ramdas Pophale) SiO2 
 PCOD8062950
Probable space group: P 2/M
;
_chemical_formula_sum "Si O2"
_cell_formula_units_Z 32
_cell_length_a 18.749183
_cell_length_b 9.074739
_cell_length_c 12.510339
_cell_angle_alpha 90.000000
_cell_angle_beta 60.897510
_cell_angle_gamma 90.000000
_cell_volume 1859.830211
_symmetry_space_group_name_H-M "P 2/M"
_symmetry_group_IT_number 10
_symmetry_cell_setting 'monoclinic'
loop_
_space_group_symop_operation_xyz
x,y,z
-x,y,-z
-x,-y,-z
x,-y,z
loop_
_atom_site_type_symbol
_atom_site_label
_atom_site_fract_x
_atom_site_fract_y
_atom_site_fract_z
Si Si1 0.680702 0.174118 0.484003
Si Si2 0.153798 0.328188 0.255140
Si Si3 0.492923 0.166471 0.331229
Si Si4 0.446103 0.167871 0.943389
Si Si5 0.330554 0.826098 0.745478
Si Si6 0.005064 0.161607 0.622466
Si Si7 0.288521 0.672061 0.984101
Si Si8 0.181741 0.824570 0.456619
O O1 0.591001 0.245648 0.570433
O O2 0.707719 0.209933 0.342466
O O3 0.746224 0.238349 0.520174
O O4 0.676250 0.000000 0.505134
O O5 0.150451 0.500000 0.283709
O O6 0.063400 0.274440 0.286568
O O7 0.188510 0.247451 0.334802
O O8 0.210197 0.292025 0.112924
O O9 0.496145 0.175176 0.201471
O O10 0.575901 0.236218 0.319805
O O11 0.488796 0.000000 0.376726
O O12 0.366732 0.267269 0.989308
O O13 0.418131 0.000000 0.986712
O O14 0.500000 0.232218 0.000000
O O15 0.277397 0.748389 0.876344
O O16 0.331561 0.000000 0.770427
O O17 0.000000 0.146385 0.500000
O O18 0.097094 0.218308 0.579073
O O19 0.989948 0.000000 0.685510
O O20 0.300019 0.500000 0.956923
O O21 0.186215 0.000000 0.437424
#
# Coordination Sequence:
#
# PCOD8062950 Si02
#       8
#     4   4   4   4   4   4   4   4
#     4   9  16  27  48  74  97 122 152 196 244 279
#     4  10  20  32  48  70  95 126 162 193 227 284
#     4   8  14  25  43  70  96 119 152 194 232 267
#     4   9  18  30  47  71  95 123 161 196 229 279
#     4   9  17  31  50  70  92 122 165 203 231 272
#     4   8  15  29  47  70  97 123 151 188 236 286
#     4  10  21  34  47  66  94 128 162 196 237 278
#     4   9  18  30  48  75 102 124 149 188 243 293
#
# _framework density 17.205870999999998
#
# number of rings (size 3 to 8) (size 9 to 14) (size 15 to 20)
#    0.000    3.000    0.000    2.625    1.750    6.000 
#    0.000    0.625    0.000    6.750    0.000    5.250 
#    0.000    0.000    0.000    0.000    0.000    0.000 
#
# Total GULP energy -396589.449196 kJ/mol
# GULP energy per Si atom -12393.420287 kJ/mol
# Density = 1.716671 g / cm^3
# Si number density = 17.205871 Si / 1000 Ang^3
#
#
#
# Elastic Constant Matrix: (Units=GPa)
#
#
# Indices 1 2 3 4 5 6 
#
# 1 84.3008 29.3313 57.5346 0.0000 -5.3044 0.0000
# 2 29.3313 52.2070 45.9161 0.0000 -8.4399 0.0000
# 3 57.5346 45.9161 98.9124 0.0000 -11.5451 0.0000
# 4 0.0000 0.0000 0.0000 19.9210 0.0000 -5.1335
# 5 -5.3044 -8.4399 -11.5451 0.0000 23.7705 0.0000
# 6 0.0000 0.0000 0.0000 -5.1335 0.0000 11.0205
#
#
#
# Elastic Compliance Matrix: (Units=1/GPa)
#
#
# Indices 1 2 3 4 5 6 
#
# 1 0.019808 -0.001831 -0.010846 0.000000 -0.001498 0.000000
# 2 -0.001831 0.032989 -0.013706 0.000000 0.004648 0.000000
# 3 -0.010846 -0.013706 0.023249 0.000000 0.004005 0.000000
# 4 0.000000 0.000000 0.000000 0.057046 0.000000 0.026573
# 5 -0.001498 0.004648 0.004005 0.000000 0.045330 0.000000
# 6 0.000000 0.000000 0.000000 0.026573 0.000000 0.103118
#
#
# Mechanical properties :
#
#
# Convention : Reuss Voigt Hill
#
# Bulk Modulus (GPa) = 42.95860 55.66491 49.31175
# Shear Modulus (GPa) = 14.61700 17.78495 16.20097
#
# Velocity S-wave (km/s) = 2.91784 3.21854 3.07187
# Velocity P-wave (km/s) = 6.03103 6.79960 6.42681
#
# Compressibility (1/GPa) = 0.02327823
#
# Stress axis : x y z
#
# Youngs Moduli (GPa) = 50.48522 30.31273 43.01253
#
# Poissons Ratio (x) = 0.05551 0.46653
# Poissons Ratio (y) = 0.09245 0.58954
# Poissons Ratio (z) = 0.54758 0.41548
#
# Static dielectric constant tensor:
#      x y z
#    x 3.509120 0.000000 -0.150690 
#    y 0.000000 2.937640 0.000000 
#    z -0.150690 0.000000 3.189660 
# 
# 
# High freq. dielectric constant tensor:
#      x y z
#    x 1.656580 0.000000 -0.005140 
#    y 0.000000 1.631340 0.000000 
#    z -0.005140 0.000000 1.657070 
# 
# From -- ./inp_files/54767.got.cif
#   From: 2010.06.25/outbox.cif.g09.slc.cpg/sg10_28_cif.got.tgz:54767.got - 2010.06.27 22:07:45.
