data_PCOD8062478
_publ_section_title
;
Structure prediction by ZEFSAII (Michael W. Deem and Ramdas Pophale) SiO2 
 PCOD8062478
Probable space group: P 2/M
;
_chemical_formula_sum "Si O2"
_cell_formula_units_Z 32
_cell_length_a 16.968547
_cell_length_b 13.666809
_cell_length_c 13.682660
_cell_angle_alpha 90.000000
_cell_angle_beta 35.708750
_cell_angle_gamma 90.000000
_cell_volume 1852.021965
_symmetry_space_group_name_H-M "P 2/M"
_symmetry_group_IT_number 10
_symmetry_cell_setting 'monoclinic'
loop_
_space_group_symop_operation_xyz
x,y,z
-x,y,-z
-x,-y,-z
x,-y,z
loop_
_atom_site_type_symbol
_atom_site_label
_atom_site_fract_x
_atom_site_fract_y
_atom_site_fract_z
Si Si1 0.527578 0.384908 0.267065
Si Si2 0.595072 0.614362 0.987626
Si Si3 0.097404 0.613171 0.312715
Si Si4 0.974200 0.708036 0.814545
Si Si5 0.095387 0.110696 0.994099
Si Si6 0.230790 0.386708 0.843158
Si Si7 0.740689 0.292841 0.390354
Si Si8 0.353295 0.889609 0.611206
O O1 0.547718 0.500000 0.241019
O O2 0.636445 0.345209 0.235400
O O3 0.377276 0.361311 0.451446
O O4 0.558715 0.338239 0.129459
O O5 0.562919 0.500000 0.025492
O O6 0.750652 0.633828 0.804530
O O7 0.500000 0.662608 0.000000
O O8 0.080923 0.500000 0.295464
O O9 0.063300 0.686160 0.259088
O O10 0.000000 0.638328 0.500000
O O11 0.135002 0.696789 0.661344
O O12 0.929320 0.817810 0.889505
O O13 0.900443 0.629148 0.957846
O O14 0.250850 0.118515 0.805380
O O15 0.059035 0.000000 0.063121
O O16 0.000000 0.143184 0.000000
O O17 0.244891 0.500000 0.802030
O O18 0.212429 0.325118 0.764064
O O19 0.691257 0.180399 0.433119
O O20 0.500000 0.856696 0.500000
O O21 0.355393 0.000000 0.567443
#
# Coordination Sequence:
#
# PCOD8062478 Si02
#       8
#     4   4   4   4   4   4   4   4
#     4  10  21  35  50  72 104 144 181 219 264 314
#     4   9  18  35  56  74  96 133 183 229 272 318
#     4  10  22  38  56  78 107 139 175 230 283 321
#     4  12  22  35  53  80 107 140 184 222 267 323
#     4  10  19  36  57  79 110 145 180 219 266 320
#     4  11  21  35  49  69 108 150 180 212 258 315
#     4  12  23  32  49  78 110 145 181 216 258 319
#     4  10  20  34  53  77 107 142 182 225 263 306
#
# _framework density 17.278414000000001
#
# number of rings (size 3 to 8) (size 9 to 14) (size 15 to 20)
#    0.000    1.500    3.750    2.250    1.750    3.500 
#    0.000    0.000    0.000    0.375    0.000    0.000 
#    0.000    1.000    0.000    0.000    0.000    0.000 
#
# Total GULP energy -396869.587108 kJ/mol
# GULP energy per Si atom -12402.174597 kJ/mol
# Density = 1.723909 g / cm^3
# Si number density = 17.278414 Si / 1000 Ang^3
#
#
#
# Elastic Constant Matrix: (Units=GPa)
#
#
# Indices 1 2 3 4 5 6 
#
# 1 105.5305 34.7522 39.4874 0.0000 -9.3380 0.0000
# 2 34.7522 59.9414 13.6888 0.0000 4.0790 0.0000
# 3 39.4874 13.6888 87.4221 0.0000 -8.4065 0.0000
# 4 0.0000 0.0000 0.0000 21.1157 0.0000 -1.4229
# 5 -9.3380 4.0790 -8.4065 0.0000 35.8307 0.0000
# 6 0.0000 0.0000 0.0000 -1.4229 0.0000 19.6915
#
#
#
# Elastic Compliance Matrix: (Units=1/GPa)
#
#
# Indices 1 2 3 4 5 6 
#
# 1 0.013962 -0.007211 -0.004858 0.000000 0.003320 0.000000
# 2 -0.007211 0.021279 -0.000500 0.000000 -0.004419 0.000000
# 3 -0.004858 -0.000500 0.013909 0.000000 0.002054 0.000000
# 4 0.000000 0.000000 0.000000 0.047590 0.000000 0.003439
# 5 0.003320 -0.004419 0.002054 0.000000 0.029759 0.000000
# 6 0.000000 0.000000 0.000000 0.003439 0.000000 0.051032
#
#
# Mechanical properties :
#
#
# Convention : Reuss Voigt Hill
#
# Bulk Modulus (GPa) = 41.64634 47.63897 44.64266
# Shear Modulus (GPa) = 23.73349 26.32528 25.02938
#
# Velocity S-wave (km/s) = 3.71022 3.90756 3.81017
# Velocity P-wave (km/s) = 6.51995 6.92748 6.72680
#
# Compressibility (1/GPa) = 0.02401171
#
# Stress axis : x y z
#
# Youngs Moduli (GPa) = 71.62139 46.99540 71.89666
#
# Poissons Ratio (x) = 0.33890 0.34929
# Poissons Ratio (y) = 0.51649 0.03591
# Poissons Ratio (z) = 0.34795 0.02347
#
# Static dielectric constant tensor:
#      x y z
#    x 3.318920 0.000000 -0.162440 
#    y 0.000000 3.145910 0.000000 
#    z -0.162440 0.000000 3.242640 
# 
# 
# High freq. dielectric constant tensor:
#      x y z
#    x 1.659060 0.000000 -0.025200 
#    y 0.000000 1.644980 0.000000 
#    z -0.025200 0.000000 1.670330 
# 
# From -- ./inp_files/35118.got.cif
#   From: 2010.06.25/outbox.cif.g09.slc.cpg/sg10_18_cif.got.tgz:35118.got - 2010.06.27 22:07:45.
