data_PCOD8062839
_publ_section_title
;
Structure prediction by ZEFSAII (Michael W. Deem and Ramdas Pophale) SiO2 
 PCOD8062839
Probable space group: P 2/M
;
_chemical_formula_sum "Si O2"
_cell_formula_units_Z 28
_cell_length_a 24.739771
_cell_length_b 9.397080
_cell_length_c 18.933464
_cell_angle_alpha 90.000000
_cell_angle_beta 21.250734
_cell_angle_gamma 90.000000
_cell_volume 1595.389595
_symmetry_space_group_name_H-M "P 2/M"
_symmetry_group_IT_number 10
_symmetry_cell_setting 'monoclinic'
loop_
_space_group_symop_operation_xyz
x,y,z
-x,y,-z
-x,-y,-z
x,-y,z
loop_
_atom_site_type_symbol
_atom_site_label
_atom_site_fract_x
_atom_site_fract_y
_atom_site_fract_z
Si Si1 0.566663 0.830123 0.086325
Si Si2 0.345679 0.166736 0.867304
Si Si3 0.058620 0.167321 0.128973
Si Si4 0.451219 0.662648 0.483038
Si Si5 0.113274 0.337015 0.920955
Si Si6 0.331146 0.155145 0.181505
Si Si7 0.245486 0.170276 0.432202
O O1 0.642410 0.778462 0.066530
O O2 0.394041 0.777646 0.292624
O O3 0.568397 0.000000 0.077716
O O4 0.663716 0.766403 0.901661
O O5 0.474206 0.243026 0.667291
O O6 0.378697 0.000000 0.822445
O O7 0.182499 0.204713 0.036814
O O8 0.900218 0.226667 0.349613
O O9 0.052072 0.000000 0.121987
O O10 0.101421 0.243196 0.004828
O O11 0.500000 0.721015 0.500000
O O12 0.505284 0.500000 0.408441
O O13 0.274951 0.677691 0.689376
O O14 0.078396 0.500000 0.984072
O O15 0.000000 0.279441 0.000000
O O16 0.244807 0.232544 0.351843
O O17 0.256780 0.000000 0.261402
O O18 0.500000 0.135005 0.000000
O O19 0.242719 0.000000 0.430932
#
# Coordination Sequence:
#
# PCOD8062839 Si02
#       7
#     4   4   4   4   4   4   4
#     4   8  14  25  42  65  92 123 157 190 225 270
#     4  10  20  31  46  71 100 124 152 193 234 271
#     4  10  20  32  46  70 101 125 150 190 237 277
#     4  10  20  36  54  68  87 122 161 190 226 279
#     4  10  22  38  53  69  91 119 155 197 234 275
#     4   7  10  20  39  61  87 121 157 187 220 266
#     4   8  14  25  42  64  92 125 156 188 228 273
#
# _framework density 17.550573
#
# number of rings (size 3 to 8) (size 9 to 14) (size 15 to 20)
#    0.000    3.000    1.429    1.714    2.000    1.143 
#    0.000    0.714    0.000    4.286    0.000    1.000 
#    0.000    5.714    0.000    0.000    0.000    0.000 
#
# Total GULP energy -346951.060600 kJ/mol
# GULP energy per Si atom -12391.109307 kJ/mol
# Density = 1.751063 g / cm^3
# Si number density = 17.550573 Si / 1000 Ang^3
#
#
#
# Elastic Constant Matrix: (Units=GPa)
#
#
# Indices 1 2 3 4 5 6 
#
# 1 139.5940 27.7914 32.2021 0.0000 3.9209 0.0000
# 2 27.7914 20.9615 18.5140 0.0000 4.0001 0.0000
# 3 32.2021 18.5140 57.8829 0.0000 -0.1716 0.0000
# 4 0.0000 0.0000 0.0000 6.1830 0.0000 -10.3283
# 5 3.9209 4.0001 -0.1716 0.0000 28.4526 0.0000
# 6 0.0000 0.0000 0.0000 -10.3283 0.0000 1.0549
#
#
#
# Elastic Compliance Matrix: (Units=1/GPa)
#
#
# Indices 1 2 3 4 5 6 
#
# 1 0.009870 -0.011547 -0.001797 0.000000 0.000252 0.000000
# 2 -0.011547 0.082656 -0.020044 0.000000 -0.010150 0.000000
# 3 -0.001797 -0.020044 0.024697 0.000000 0.003214 0.000000
# 4 0.000000 0.000000 0.000000 -0.010533 0.000000 -0.103127
# 5 0.000252 -0.010150 0.003214 0.000000 0.036558 0.000000
# 6 0.000000 0.000000 0.000000 -0.103127 0.000000 -0.061736
#
#
# Mechanical properties :
#
#
# Convention : Reuss Voigt Hill
#
# Bulk Modulus (GPa) = 19.82270 41.71704 30.76987
# Shear Modulus (GPa) = 30.28417 16.46682 23.37550
#
# Velocity S-wave (km/s) = 4.15847 3.06641 3.65347
# Velocity P-wave (km/s) = 5.86313 6.02979 5.94704
#
# Compressibility (1/GPa) = 0.05044722
#
# Stress axis : x y z
#
# Youngs Moduli (GPa) = 101.31823 12.09828 40.49138
#
# Poissons Ratio (x) = 0.13970 0.07276
# Poissons Ratio (y) = 1.16991 0.81161
# Poissons Ratio (z) = 0.18206 0.24250
#
# Static dielectric constant tensor:
#      x y z
#    x 3.555360 0.000000 0.142100 
#    y 0.000000 2.775910 0.000000 
#    z 0.142100 0.000000 3.412870 
# 
# 
# High freq. dielectric constant tensor:
#      x y z
#    x 1.687930 0.000000 0.010340 
#    y 0.000000 1.619420 0.000000 
#    z 0.010340 0.000000 1.678170 
# 
# From -- ./inp_files/80205.got.cif
#   From: 2010.06.25/outbox.cif.g09.slc.cpg/sg10_41_cif.got.tgz:80205.got - 2010.06.27 22:07:45.
