data_PCOD8062996
_publ_section_title
;
Structure prediction by ZEFSAII (Michael W. Deem and Ramdas Pophale) SiO2 
 PCOD8062996
Probable space group: P 2/M
;
_chemical_formula_sum "Si O2"
_cell_formula_units_Z 32
_cell_length_a 32.079281
_cell_length_b 9.319587
_cell_length_c 11.897366
_cell_angle_alpha 90.000000
_cell_angle_beta 29.232322
_cell_angle_gamma 90.000000
_cell_volume 1737.021133
_symmetry_space_group_name_H-M "P 2/M"
_symmetry_group_IT_number 10
_symmetry_cell_setting 'monoclinic'
loop_
_space_group_symop_operation_xyz
x,y,z
-x,y,-z
-x,-y,-z
x,-y,z
loop_
_atom_site_type_symbol
_atom_site_label
_atom_site_fract_x
_atom_site_fract_y
_atom_site_fract_z
Si Si1 0.401604 0.831568 0.209630
Si Si2 0.770614 0.172134 0.773272
Si Si3 0.506061 0.659402 0.617960
Si Si4 0.911843 0.667201 0.565718
Si Si5 0.894517 0.334934 0.863139
Si Si6 0.336683 0.841558 0.762853
Si Si7 0.339815 0.671825 0.137789
Si Si8 0.744132 0.157868 0.278270
O O1 0.358342 0.734475 0.216375
O O2 0.343924 0.794990 0.454211
O O3 0.398752 0.000000 0.183853
O O4 0.500000 0.784857 0.000000
O O5 0.862632 0.233961 0.591791
O O6 0.741909 0.248608 0.724911
O O7 0.775192 0.000000 0.748622
O O8 0.705073 0.221312 0.025737
O O9 0.500000 0.666322 0.500000
O O10 0.522809 0.500000 0.623266
O O11 0.585446 0.752047 0.470142
O O12 0.419581 0.719056 0.873855
O O13 0.887748 0.500000 0.605373
O O14 0.890407 0.716755 0.743164
O O15 0.011852 0.692445 0.306855
O O16 0.870354 0.500000 0.923489
O O17 0.826061 0.258020 0.106041
O O18 0.266947 0.843001 0.829585
O O19 0.371571 0.000000 0.706813
O O20 0.325197 0.500000 0.176245
O O21 0.768549 0.000000 0.264969
#
# Coordination Sequence:
#
# PCOD8062996 Si02
#       8
#     4   4   4   4   4   4   4   4
#     4  10  22  41  62  80 108 149 190 234 278 322
#     4  11  21  33  53  81 112 145 181 221 272 331
#     4  10  20  33  48  70 102 138 174 217 269 321
#     4   9  18  33  52  79 116 152 183 218 272 332
#     4   9  18  32  53  81 113 150 186 222 269 331
#     4  10  20  32  49  77 108 140 178 219 267 325
#     4  11  23  38  56  78 108 144 186 231 278 332
#     4  10  20  35  55  81 110 142 185 231 275 322
#
# _framework density 18.422343000000001
#
# number of rings (size 3 to 8) (size 9 to 14) (size 15 to 20)
#    0.000    2.000    2.500    2.250    0.000    4.500 
#    0.000    1.250    0.000    0.750    0.000    5.250 
#    0.000    0.000    0.000    0.000    0.000    0.000 
#
# Total GULP energy -396682.025346 kJ/mol
# GULP energy per Si atom -12396.313292 kJ/mol
# Density = 1.838041 g / cm^3
# Si number density = 18.422343 Si / 1000 Ang^3
#
#
#
# Elastic Constant Matrix: (Units=GPa)
#
#
# Indices 1 2 3 4 5 6 
#
# 1 95.1052 45.7886 28.7627 0.0000 -12.7709 0.0000
# 2 45.7886 76.1513 44.2608 0.0000 -14.0885 0.0000
# 3 28.7627 44.2608 102.1030 0.0000 -12.4355 0.0000
# 4 0.0000 0.0000 0.0000 53.7013 0.0000 -14.8630
# 5 -12.7709 -14.0885 -12.4355 0.0000 26.8945 0.0000
# 6 0.0000 0.0000 0.0000 -14.8630 0.0000 35.3350
#
#
#
# Elastic Compliance Matrix: (Units=1/GPa)
#
#
# Indices 1 2 3 4 5 6 
#
# 1 0.014973 -0.008361 -0.000277 0.000000 0.002602 0.000000
# 2 -0.008361 0.023193 -0.007102 0.000000 0.004895 0.000000
# 3 -0.000277 -0.007102 0.013226 0.000000 0.002264 0.000000
# 4 0.000000 0.000000 0.000000 0.021075 0.000000 0.008865
# 5 0.002602 0.004895 0.002264 0.000000 0.042029 0.000000
# 6 0.000000 0.000000 0.000000 0.008865 0.000000 0.032029
#
#
# Mechanical properties :
#
#
# Convention : Reuss Voigt Hill
#
# Bulk Modulus (GPa) = 50.21956 56.77597 53.49777
# Shear Modulus (GPa) = 27.07926 33.48933 30.28429
#
# Velocity S-wave (km/s) = 3.83811 4.26827 4.05889
# Velocity P-wave (km/s) = 6.85279 7.42811 7.14624
#
# Compressibility (1/GPa) = 0.01991256
#
# Stress axis : x y z
#
# Youngs Moduli (GPa) = 66.78623 43.11698 75.60579
#
# Poissons Ratio (x) = 0.36050 0.02092
# Poissons Ratio (y) = 0.55839 0.53698
# Poissons Ratio (z) = 0.01848 0.30623
#
# Static dielectric constant tensor:
#      x y z
#    x 3.204010 0.000000 -0.051360 
#    y 0.000000 3.438110 0.000000 
#    z -0.051360 0.000000 3.344290 
# 
# 
# High freq. dielectric constant tensor:
#      x y z
#    x 1.696990 0.000000 -0.012530 
#    y 0.000000 1.714830 0.000000 
#    z -0.012530 0.000000 1.702930 
# 
# From -- ./inp_files/58169.got.cif
#   From: 2010.06.25/outbox.cif.g09.slc.cpg/sg10_30_cif.got.tgz:58169.got - 2010.06.27 22:07:45.
