data_PCOD8062082
_publ_section_title
;
Structure prediction by ZEFSAII (Michael W. Deem and Ramdas Pophale) SiO2 
 PCOD8062082
Probable space group: P 2/M
;
_chemical_formula_sum "Si O2"
_cell_formula_units_Z 32
_cell_length_a 19.923305
_cell_length_b 8.737242
_cell_length_c 19.951528
_cell_angle_alpha 90.000000
_cell_angle_beta 29.709444
_cell_angle_gamma 90.000000
_cell_volume 1721.253427
_symmetry_space_group_name_H-M "P 2/M"
_symmetry_group_IT_number 10
_symmetry_cell_setting 'monoclinic'
loop_
_space_group_symop_operation_xyz
x,y,z
-x,y,-z
-x,-y,-z
x,-y,z
loop_
_atom_site_type_symbol
_atom_site_label
_atom_site_fract_x
_atom_site_fract_y
_atom_site_fract_z
Si Si1 0.060966 0.317985 0.517057
Si Si2 0.425342 0.681852 0.629944
Si Si3 0.343209 0.178742 0.309875
Si Si4 0.507469 0.680034 0.703866
Si Si5 0.549114 0.321899 0.031411
Si Si6 0.868607 0.317243 0.076818
Si Si7 0.792376 0.681432 0.000182
Si Si8 0.151096 0.318974 0.192992
O O1 0.060795 0.500000 0.517731
O O2 0.212466 0.261545 0.394073
O O3 0.000000 0.257059 0.500000
O O4 0.968569 0.250472 0.657532
O O5 0.500000 0.752339 0.500000
O O6 0.422744 0.500000 0.628032
O O7 0.506891 0.730814 0.626228
O O8 0.269807 0.741171 0.767764
O O9 0.373559 0.233213 0.359644
O O10 0.468740 0.220604 0.154031
O O11 0.316733 0.000000 0.332857
O O12 0.533025 0.500000 0.688344
O O13 0.364802 0.728881 0.860480
O O14 0.527486 0.500000 0.068571
O O15 0.500000 0.283438 0.000000
O O16 0.705766 0.274346 0.898640
O O17 0.871832 0.500000 0.075630
O O18 0.871333 0.257616 0.997417
O O19 0.000000 0.247996 0.000000
O O20 0.799637 0.500000 0.993518
O O21 0.858543 0.748129 0.874598
O O22 0.136552 0.500000 0.202996
#
# Coordination Sequence:
#
# PCOD8062082 Si02
#       8
#     4   4   4   4   4   4   4   4
#     4  10  21  38  57  76 101 136 177 218 265 318
#     4   8  14  25  43  70 100 129 164 209 263 310
#     4  12  24  36  52  77 111 145 177 214 260 317
#     4   9  16  31  54  74 102 138 172 218 264 308
#     4  10  19  34  59  84 102 127 170 221 264 308
#     4   8  13  21  34  58  97 132 150 183 246 310
#     4   8  13  24  45  70  96 126 161 205 255 299
#     4   9  16  29  51  76  98 123 166 217 259 306
#
# _framework density 18.591103
#
# number of rings (size 3 to 8) (size 9 to 14) (size 15 to 20)
#    0.000    2.750    1.250    3.375    0.000    2.500 
#    2.250    0.625    0.000    0.375    0.000    0.000 
#    0.000    2.500    0.000    0.000    0.000    0.000 
#
# Total GULP energy -396641.563020 kJ/mol
# GULP energy per Si atom -12395.048844 kJ/mol
# Density = 1.854879 g / cm^3
# Si number density = 18.591103 Si / 1000 Ang^3
#
#
#
# Elastic Constant Matrix: (Units=GPa)
#
#
# Indices 1 2 3 4 5 6 
#
# 1 148.9192 16.3007 51.3557 0.0000 4.9729 0.0000
# 2 16.3007 7.1194 12.1810 0.0000 4.1630 0.0000
# 3 51.3557 12.1810 81.6321 0.0000 18.3171 0.0000
# 4 0.0000 0.0000 0.0000 5.9905 0.0000 0.8312
# 5 4.9729 4.1630 18.3171 0.0000 35.9063 0.0000
# 6 0.0000 0.0000 0.0000 0.8312 0.0000 2.6709
#
#
#
# Elastic Compliance Matrix: (Units=1/GPa)
#
#
# Indices 1 2 3 4 5 6 
#
# 1 0.009997 -0.017049 -0.004379 0.000000 0.002826 0.000000
# 2 -0.017049 0.220007 -0.019095 0.000000 -0.013405 0.000000
# 3 -0.004379 -0.019095 0.019448 0.000000 -0.007101 0.000000
# 4 0.000000 0.000000 0.000000 0.174465 0.000000 -0.054292
# 5 0.002826 -0.013405 -0.007101 0.000000 0.032635 0.000000
# 6 0.000000 0.000000 0.000000 -0.054292 0.000000 0.391301
#
#
# Mechanical properties :
#
#
# Convention : Reuss Voigt Hill
#
# Bulk Modulus (GPa) = 5.93810 44.14952 25.04381
# Shear Modulus (GPa) = 5.07596 19.43576 12.25586
#
# Velocity S-wave (km/s) = 1.65416 3.23682 2.57034
# Velocity P-wave (km/s) = 2.61712 6.14562 4.72324
#
# Compressibility (1/GPa) = 0.16840404
#
# Stress axis : x y z
#
# Youngs Moduli (GPa) = 100.02831 4.54532 51.41952
#
# Poissons Ratio (x) = 0.07749 0.22519
# Poissons Ratio (y) = 1.70541 0.98186
# Poissons Ratio (z) = 0.43807 0.08679
#
# Static dielectric constant tensor:
#      x y z
#    x 3.863540 0.000000 0.212640 
#    y 0.000000 2.772250 0.000000 
#    z 0.212640 0.000000 3.615190 
# 
# 
# High freq. dielectric constant tensor:
#      x y z
#    x 1.739230 0.000000 0.007420 
#    y 0.000000 1.654780 0.000000 
#    z 0.007420 0.000000 1.715660 
# 
# From -- ./inp_files/86122.got.cif
#   From: 2010.06.25/outbox.cif.g09.slc.cpg/sg10_44_cif.got.tgz:86122.got - 2010.06.27 22:07:45.
