data_PCOD8062496
_publ_section_title
;
Structure prediction by ZEFSAII (Michael W. Deem and Ramdas Pophale) SiO2 
 PCOD8062496
Probable space group: P 2/M
;
_chemical_formula_sum "Si O2"
_cell_formula_units_Z 32
_cell_length_a 22.148425
_cell_length_b 8.893949
_cell_length_c 28.056967
_cell_angle_alpha 90.000000
_cell_angle_beta 161.478757
_cell_angle_gamma 90.000000
_cell_volume 1755.640494
_symmetry_space_group_name_H-M "P 2/M"
_symmetry_group_IT_number 10
_symmetry_cell_setting 'monoclinic'
loop_
_space_group_symop_operation_xyz
x,y,z
-x,y,-z
-x,-y,-z
x,-y,z
loop_
_atom_site_type_symbol
_atom_site_label
_atom_site_fract_x
_atom_site_fract_y
_atom_site_fract_z
Si Si1 0.808672 0.322080 0.381774
Si Si2 0.473203 0.826911 0.654624
Si Si3 0.779389 0.321199 0.724399
Si Si4 0.794542 0.823618 0.201162
Si Si5 0.180253 0.676924 0.502217
Si Si6 0.085530 0.175635 0.013415
Si Si7 0.573618 0.823599 0.128975
Si Si8 0.428073 0.176831 0.512698
O O1 0.800961 0.500000 0.374538
O O2 0.800543 0.260947 0.429574
O O3 0.626303 0.259617 0.217158
O O4 0.000000 0.260839 0.500000
O O5 0.364094 0.724871 0.610487
O O6 0.391943 0.793855 0.541228
O O7 0.441900 0.000000 0.644838
O O8 0.693605 0.783667 0.822037
O O9 0.763010 0.500000 0.709383
O O10 0.623957 0.255702 0.644357
O O11 0.745292 0.250466 0.646459
O O12 0.986434 0.271589 0.897535
O O13 0.712769 0.768444 0.190783
O O14 0.990793 0.741824 0.336034
O O15 0.831513 0.000000 0.230040
O O16 0.643205 0.782634 0.046687
O O17 0.163673 0.500000 0.489788
O O18 0.047804 0.000000 0.976062
O O19 0.000000 0.225082 0.000000
O O20 0.596207 0.000000 0.153254
O O21 0.445357 0.000000 0.514578
#
# Coordination Sequence:
#
# PCOD8062496 Si02
#       8
#     4   4   4   4   4   4   4   4
#     4  10  20  35  53  79 114 147 184 225 272 334
#     4  10  22  39  60  82 108 146 190 234 278 329
#     4  11  21  32  53  88 119 142 176 229 283 325
#     4   9  18  34  54  80 111 139 179 228 275 325
#     4  11  23  37  55  80 113 151 184 224 280 338
#     4  10  19  37  60  83 110 146 192 234 275 331
#     4   9  18  32  55  84 108 136 179 234 277 313
#     4  10  19  36  58  80 108 147 188 227 273 329
#
# _framework density 18.226966000000001
#
# number of rings (size 3 to 8) (size 9 to 14) (size 15 to 20)
#    0.000    2.000    2.500    3.375    0.000    3.500 
#    0.000    2.500    0.000    1.500    0.000    0.000 
#    0.000    0.000    0.000    0.000    0.000    0.000 
#
# Total GULP energy -396870.216957 kJ/mol
# GULP energy per Si atom -12402.194280 kJ/mol
# Density = 1.818548 g / cm^3
# Si number density = 18.226966 Si / 1000 Ang^3
#
#
#
# Elastic Constant Matrix: (Units=GPa)
#
#
# Indices 1 2 3 4 5 6 
#
# 1 102.7576 40.6471 63.5772 0.0000 -6.5714 0.0000
# 2 40.6471 73.1261 49.5141 0.0000 -7.5439 0.0000
# 3 63.5772 49.5141 131.7018 0.0000 -12.2396 0.0000
# 4 0.0000 0.0000 0.0000 22.4514 0.0000 -1.7897
# 5 -6.5714 -7.5439 -12.2396 0.0000 29.5144 0.0000
# 6 0.0000 0.0000 0.0000 -1.7897 0.0000 25.5857
#
#
#
# Elastic Compliance Matrix: (Units=1/GPa)
#
#
# Indices 1 2 3 4 5 6 
#
# 1 0.014943 -0.004597 -0.005497 0.000000 -0.000128 0.000000
# 2 -0.004597 0.019862 -0.005067 0.000000 0.001952 0.000000
# 3 -0.005497 -0.005067 0.012395 0.000000 0.002621 0.000000
# 4 0.000000 0.000000 0.000000 0.044790 0.000000 0.003133
# 5 -0.000128 0.001952 0.002621 0.000000 0.035439 0.000000
# 6 0.000000 0.000000 0.000000 0.003133 0.000000 0.039303
#
#
# Mechanical properties :
#
#
# Convention : Reuss Voigt Hill
#
# Bulk Modulus (GPa) = 59.24688 68.34025 63.79357
# Shear Modulus (GPa) = 24.66920 25.76679 25.21799
#
# Velocity S-wave (km/s) = 3.68291 3.76395 3.72365
# Velocity P-wave (km/s) = 7.11764 7.51433 7.31867
#
# Compressibility (1/GPa) = 0.01687853
#
# Stress axis : x y z
#
# Youngs Moduli (GPa) = 66.92081 50.34621 80.67750
#
# Poissons Ratio (x) = 0.23145 0.44349
# Poissons Ratio (y) = 0.30764 0.40878
# Poissons Ratio (z) = 0.36787 0.25509
#
# Static dielectric constant tensor:
#      x y z
#    x 3.261410 0.000000 -0.206550 
#    y 0.000000 3.231930 0.000000 
#    z -0.206550 0.000000 3.443790 
# 
# 
# High freq. dielectric constant tensor:
#      x y z
#    x 1.686810 0.000000 -0.017880 
#    y 0.000000 1.703050 0.000000 
#    z -0.017880 0.000000 1.712270 
# 
# From -- ./inp_files/93757.got.cif
#   From: 2010.06.25/outbox.cif.g09.slc.cpg/sg10_47_cif.got.tgz:93757.got - 2010.06.27 22:07:45.
