data_PCOD8062365
_publ_section_title
;
Structure prediction by ZEFSAII (Michael W. Deem and Ramdas Pophale) SiO2 
 PCOD8062365
Probable space group: P 2/M
;
_chemical_formula_sum "Si O2"
_cell_formula_units_Z 28
_cell_length_a 23.105821
_cell_length_b 8.471577
_cell_length_c 19.992361
_cell_angle_alpha 90.000000
_cell_angle_beta 160.060965
_cell_angle_gamma 90.000000
_cell_volume 1334.534187
_symmetry_space_group_name_H-M "P 2/M"
_symmetry_group_IT_number 10
_symmetry_cell_setting 'monoclinic'
loop_
_space_group_symop_operation_xyz
x,y,z
-x,y,-z
-x,-y,-z
x,-y,z
loop_
_atom_site_type_symbol
_atom_site_label
_atom_site_fract_x
_atom_site_fract_y
_atom_site_fract_z
Si Si1 0.900104 0.182016 0.326223
Si Si2 0.988617 0.681070 0.282863
Si Si3 0.448391 0.318066 0.018478
Si Si4 0.334507 0.181648 0.633775
Si Si5 0.244177 0.683559 0.088717
Si Si6 0.034513 0.311703 0.112028
Si Si7 0.395604 0.312074 0.559567
O O1 0.957895 0.286786 0.327016
O O2 0.000000 0.242178 0.500000
O O3 0.941400 0.000000 0.355797
O O4 0.701755 0.203715 0.122304
O O5 0.044308 0.500000 0.333790
O O6 0.133798 0.791431 0.410020
O O7 0.820826 0.717849 0.057228
O O8 0.391215 0.500000 0.960556
O O9 0.604304 0.286379 0.237225
O O10 0.500000 0.271070 0.000000
O O11 0.422991 0.236766 0.661947
O O12 0.376704 0.000000 0.693046
O O13 0.244357 0.500000 0.104834
O O14 0.114810 0.759732 0.002629
O O15 0.440082 0.743630 0.306002
O O16 0.035298 0.500000 0.115788
O O17 0.000000 0.249448 0.000000
O O18 0.220773 0.249899 0.336728
O O19 0.394285 0.500000 0.565955
#
# Coordination Sequence:
#
# PCOD8062365 Si02
#       7
#     4   4   4   4   4   4   4
#     4  11  24  40  58  85 121 157 197 248 306 363
#     4  11  21  37  60  84 116 155 201 252 302 364
#     4  11  24  41  61  85 114 154 203 251 305 367
#     4  12  24  38  59  86 117 153 198 252 312 370
#     4   9  18  32  54  86 117 152 196 244 299 356
#     4   9  17  31  54  88 126 157 193 248 307 361
#     4  10  19  35  59  85 119 158 200 248 301 367
#
# _framework density 20.981103999999998
#
# number of rings (size 3 to 8) (size 9 to 14) (size 15 to 20)
#    0.000    1.571    1.429    4.286    0.000    6.286 
#    0.000    3.571    0.000    0.429    0.000    1.000 
#    0.000    0.000    0.000    0.000    0.000    0.000 
#
# Total GULP energy -347226.460235 kJ/mol
# GULP energy per Si atom -12400.945008 kJ/mol
# Density = 2.093335 g / cm^3
# Si number density = 20.981104 Si / 1000 Ang^3
#
#
#
# Elastic Constant Matrix: (Units=GPa)
#
#
# Indices 1 2 3 4 5 6 
#
# 1 151.1930 22.9570 73.4567 0.0000 2.7328 0.0000
# 2 22.9570 36.0544 15.8006 0.0000 -2.1577 0.0000
# 3 73.4567 15.8006 133.7630 0.0000 14.5869 0.0000
# 4 0.0000 0.0000 0.0000 15.3725 0.0000 3.5086
# 5 2.7328 -2.1577 14.5869 0.0000 42.1736 0.0000
# 6 0.0000 0.0000 0.0000 3.5086 0.0000 7.5070
#
#
#
# Elastic Compliance Matrix: (Units=1/GPa)
#
#
# Indices 1 2 3 4 5 6 
#
# 1 0.009564 -0.003896 -0.004887 0.000000 0.000871 0.000000
# 2 -0.003896 0.031158 -0.001811 0.000000 0.002473 0.000000
# 3 -0.004887 -0.001811 0.010755 0.000000 -0.003496 0.000000
# 4 0.000000 0.000000 0.000000 0.072819 0.000000 -0.034034
# 5 0.000871 0.002473 -0.003496 0.000000 0.024991 0.000000
# 6 0.000000 0.000000 0.000000 -0.034034 0.000000 0.149116
#
#
# Mechanical properties :
#
#
# Convention : Reuss Voigt Hill
#
# Bulk Modulus (GPa) = 33.01463 60.60435 46.80949
# Shear Modulus (GPa) = 15.16590 26.93035 21.04813
#
# Velocity S-wave (km/s) = 2.69148 3.58656 3.17076
# Velocity P-wave (km/s) = 5.04265 6.78963 5.98028
#
# Compressibility (1/GPa) = 0.03028960
#
# Stress axis : x y z
#
# Youngs Moduli (GPa) = 104.55612 32.09445 92.98202
#
# Poissons Ratio (x) = 0.12504 0.45441
# Poissons Ratio (y) = 0.40735 0.16836
# Poissons Ratio (z) = 0.51097 0.05811
#
# Static dielectric constant tensor:
#      x y z
#    x 4.005580 0.000000 0.105710 
#    y 0.000000 3.346100 0.000000 
#    z 0.105710 0.000000 3.968430 
# 
# 
# High freq. dielectric constant tensor:
#      x y z
#    x 1.826910 0.000000 0.006150 
#    y 0.000000 1.784740 0.000000 
#    z 0.006150 0.000000 1.831760 
# 
# From -- ./inp_files/86527.got.cif
#   From: 2010.06.25/outbox.cif.g09.slc.cpg/sg10_44_cif.got.tgz:86527.got - 2010.06.27 22:07:45.
