data_PCOD8062642
_publ_section_title
;
Structure prediction by ZEFSAII (Michael W. Deem and Ramdas Pophale) SiO2 
 PCOD8062642
Probable space group: P 2/M
;
_chemical_formula_sum "Si O2"
_cell_formula_units_Z 28
_cell_length_a 8.533157
_cell_length_b 32.144342
_cell_length_c 5.218605
_cell_angle_alpha 90.000000
_cell_angle_beta 62.111915
_cell_angle_gamma 90.000000
_cell_volume 1265.183784
_symmetry_space_group_name_H-M "P 2/M"
_symmetry_group_IT_number 10
_symmetry_cell_setting 'monoclinic'
loop_
_space_group_symop_operation_xyz
x,y,z
-x,y,-z
-x,-y,-z
x,-y,z
loop_
_atom_site_type_symbol
_atom_site_label
_atom_site_fract_x
_atom_site_fract_y
_atom_site_fract_z
Si Si1 0.112129 0.952351 0.669218
Si Si2 0.184241 0.451715 0.591995
Si Si3 0.613771 0.667744 0.166426
Si Si4 0.609173 0.115166 0.663956
Si Si5 0.790624 0.800481 0.646740
Si Si6 0.206951 0.583597 0.073428
Si Si7 0.210963 0.245637 0.851924
O O1 0.287203 0.925145 0.513157
O O2 0.000000 0.946358 0.500000
O O3 0.171212 0.000000 0.663224
O O4 0.000000 0.936881 0.000000
O O5 0.139614 0.500000 0.592660
O O6 0.296883 0.434028 0.265429
O O7 0.002634 0.425294 0.747481
O O8 0.290690 0.442492 0.771909
O O9 0.500000 0.653482 0.500000
O O10 0.723223 0.707883 0.163909
O O11 0.500000 0.677121 0.000000
O O12 0.755532 0.632211 0.988082
O O13 0.500000 0.130668 0.500000
O O14 0.739112 0.151834 0.651130
O O15 0.500000 0.102157 0.000000
O O16 0.713745 0.772680 0.472273
O O17 0.000000 0.797675 0.500000
O O18 0.714329 0.782856 0.972837
O O19 0.000000 0.245508 0.000000
#
# Coordination Sequence:
#
# PCOD8062642 Si02
#       7
#     4   4   4   4   4   4   4
#     4  10  22  42  66  91 124 174 223 269 324 384
#     4  10  19  36  65  93 114 147 202 255 290 333
#     4  12  26  42  60  88 129 166 193 241 311 371
#     4  12  25  38  62  98 131 169 210 264 326 389
#     4  10  22  42  63  90 122 162 207 263 311 368
#     4  10  20  35  58  88 117 151 192 240 290 347
#     4  10  23  42  66  90 117 158 216 261 298 355
#
# _framework density 22.131171999999999
#
# number of rings (size 3 to 8) (size 9 to 14) (size 15 to 20)
#    0.000    1.429    0.000    6.000    2.000    5.714 
#    5.143    0.000    0.000   14.571    0.000    0.000 
#    0.000    0.000    0.000    0.000    0.000    0.000 
#
# Total GULP energy -347167.892527 kJ/mol
# GULP energy per Si atom -12398.853305 kJ/mol
# Density = 2.208080 g / cm^3
# Si number density = 22.131172 Si / 1000 Ang^3
#
#
#
# Elastic Constant Matrix: (Units=GPa)
#
#
# Indices 1 2 3 4 5 6 
#
# 1 50.2355 38.8265 50.1894 0.0000 35.7509 0.0000
# 2 38.8265 146.7163 61.4821 0.0000 8.9966 0.0000
# 3 50.1894 61.4821 175.6691 0.0000 50.2303 0.0000
# 4 0.0000 0.0000 0.0000 39.7248 0.0000 15.5797
# 5 35.7509 8.9966 50.2303 0.0000 34.9986 0.0000
# 6 0.0000 0.0000 0.0000 15.5797 0.0000 28.2560
#
#
#
# Elastic Compliance Matrix: (Units=1/GPa)
#
#
# Indices 1 2 3 4 5 6 
#
# 1 0.160664 -0.039842 0.020421 0.000000 -0.183184 0.000000
# 2 -0.039842 0.018102 -0.008920 0.000000 0.048847 0.000000
# 3 0.020421 -0.008920 0.014058 0.000000 -0.038744 0.000000
# 4 0.000000 0.000000 0.000000 0.032119 0.000000 -0.017710
# 5 -0.183184 0.048847 -0.038744 0.000000 0.258743 0.000000
# 6 0.000000 0.000000 0.000000 -0.017710 0.000000 0.045155
#
#
# Mechanical properties :
#
#
# Convention : Reuss Voigt Hill
#
# Bulk Modulus (GPa) = 7.34524 74.84632 41.09578
# Shear Modulus (GPa) = 7.92515 35.40408 21.66461
#
# Velocity S-wave (km/s) = 1.89440 4.00401 3.13216
# Velocity P-wave (km/s) = 2.84801 7.43431 5.62939
#
# Compressibility (1/GPa) = 0.13614266
#
# Stress axis : x y z
#
# Youngs Moduli (GPa) = 6.22418 55.24227 71.13365
#
# Poissons Ratio (x) = 2.20098 -1.45263
# Poissons Ratio (y) = 0.24799 0.63448
# Poissons Ratio (z) = -0.12711 0.49273
#
# Static dielectric constant tensor:
#      x y z
#    x 4.171250 0.000000 0.948710 
#    y 0.000000 3.861290 0.000000 
#    z 0.948710 0.000000 5.334070 
# 
# 
# High freq. dielectric constant tensor:
#      x y z
#    x 1.863260 0.000000 0.029130 
#    y 0.000000 1.873800 0.000000 
#    z 0.029130 0.000000 1.892960 
# 
# From -- ./inp_files/5496.got.cif
#   From: 2010.06.25/outbox.cif.g09.slc.cpg/sg10_3_cif.got.tgz:5496.got - 2010.06.27 22:07:45.
