data_PCOD8062427
_publ_section_title
;
Structure prediction by ZEFSAII (Michael W. Deem and Ramdas Pophale) SiO2 
 PCOD8062427
Probable space group: P 2/M
;
_chemical_formula_sum "Si O2"
_cell_formula_units_Z 28
_cell_length_a 13.520865
_cell_length_b 9.177742
_cell_length_c 18.598245
_cell_angle_alpha 90.000000
_cell_angle_beta 143.535175
_cell_angle_gamma 90.000000
_cell_volume 1371.637446
_symmetry_space_group_name_H-M "P 2/M"
_symmetry_group_IT_number 10
_symmetry_cell_setting 'monoclinic'
loop_
_space_group_symop_operation_xyz
x,y,z
-x,y,-z
-x,-y,-z
x,-y,z
loop_
_atom_site_type_symbol
_atom_site_label
_atom_site_fract_x
_atom_site_fract_y
_atom_site_fract_z
Si Si1 0.181152 0.837523 0.072992
Si Si2 0.882056 0.335020 0.101394
Si Si3 0.956251 0.671892 0.392617
Si Si4 0.260099 0.338458 0.353429
Si Si5 0.750756 0.828868 0.512941
Si Si6 0.317341 0.670510 0.875157
Si Si7 0.436649 0.665640 0.311313
O O1 0.278398 0.726716 0.179197
O O2 0.258506 0.000000 0.118621
O O3 0.191351 0.777836 0.998309
O O4 0.000000 0.842093 0.000000
O O5 0.823299 0.500000 0.049384
O O6 0.812810 0.286315 0.138599
O O7 0.080183 0.325009 0.212028
O O8 0.985407 0.500000 0.400047
O O9 0.770085 0.714849 0.253280
O O10 0.000000 0.719520 0.500000
O O11 0.079962 0.757616 0.413770
O O12 0.275426 0.500000 0.398890
O O13 0.278347 0.209264 0.420811
O O14 0.404071 0.322031 0.377898
O O15 0.595934 0.759221 0.379593
O O16 0.756175 0.000000 0.503927
O O17 0.345859 0.500000 0.889177
O O18 0.500000 0.742523 0.000000
O O19 0.466226 0.500000 0.304869
#
# Coordination Sequence:
#
# PCOD8062427 Si02
#       7
#     4   4   4   4   4   4   4
#     4  11  23  37  55  84 124 160 197 246 304 367
#     4  10  19  35  61  87 116 155 202 247 293 356
#     4  10  21  40  66  92 120 159 210 261 311 369
#     4  10  20  37  61  88 116 155 207 254 294 353
#     4  12  25  39  59  88 125 161 200 250 314 375
#     4   9  18  35  61  92 120 148 195 257 310 361
#     4  11  23  39  61  86 119 161 210 256 300 359
#
# _framework density 20.413557000000001
#
# number of rings (size 3 to 8) (size 9 to 14) (size 15 to 20)
#    0.000    1.571    2.857    2.571    0.000    5.429 
#    0.000    2.857    0.000    1.714    0.000    0.000 
#    0.000    0.000    0.000    0.000    0.000    0.000 
#
# Total GULP energy -347070.108826 kJ/mol
# GULP energy per Si atom -12395.361030 kJ/mol
# Density = 2.036710 g / cm^3
# Si number density = 20.413557 Si / 1000 Ang^3
#
#
#
# Elastic Constant Matrix: (Units=GPa)
#
#
# Indices 1 2 3 4 5 6 
#
# 1 56.8031 25.0744 35.9468 0.0000 -2.4558 0.0000
# 2 25.0744 71.4897 41.7015 0.0000 -2.6348 0.0000
# 3 35.9468 41.7015 111.0564 0.0000 -3.1747 0.0000
# 4 0.0000 0.0000 0.0000 25.6558 0.0000 4.8954
# 5 -2.4558 -2.6348 -3.1747 0.0000 37.0998 0.0000
# 6 0.0000 0.0000 0.0000 4.8954 0.0000 40.1189
#
#
#
# Elastic Compliance Matrix: (Units=1/GPa)
#
#
# Indices 1 2 3 4 5 6 
#
# 1 0.023401 -0.004834 -0.005739 0.000000 0.000715 0.000000
# 2 -0.004834 0.018928 -0.005527 0.000000 0.000551 0.000000
# 3 -0.005739 -0.005527 0.012947 0.000000 0.000335 0.000000
# 4 0.000000 0.000000 0.000000 0.039907 0.000000 -0.004870
# 5 0.000715 0.000551 0.000335 0.000000 0.027069 0.000000
# 6 0.000000 0.000000 0.000000 -0.004870 0.000000 0.025520
#
#
# Mechanical properties :
#
#
# Convention : Reuss Voigt Hill
#
# Bulk Modulus (GPa) = 43.33423 49.42162 46.37792
# Shear Modulus (GPa) = 26.64338 29.68333 28.16335
#
# Velocity S-wave (km/s) = 3.61665 3.81740 3.71838
# Velocity P-wave (km/s) = 6.22209 6.61005 6.41901
#
# Compressibility (1/GPa) = 0.02307645
#
# Stress axis : x y z
#
# Youngs Moduli (GPa) = 42.73296 52.83246 77.23786
#
# Poissons Ratio (x) = 0.25538 0.44327
# Poissons Ratio (y) = 0.20656 0.42689
# Poissons Ratio (z) = 0.24525 0.29201
#
# Static dielectric constant tensor:
#      x y z
#    x 3.582970 0.000000 0.018100 
#    y 0.000000 3.531200 0.000000 
#    z 0.018100 0.000000 4.051690 
# 
# 
# High freq. dielectric constant tensor:
#      x y z
#    x 1.781560 0.000000 0.002810 
#    y 0.000000 1.773480 0.000000 
#    z 0.002810 0.000000 1.815720 
# 
# From -- ./inp_files/84956.got.cif
#   From: 2010.06.25/outbox.cif.g09.slc.cpg/sg10_43_cif.got.tgz:84956.got - 2010.06.27 22:07:45.
