data_PCOD8062349
_publ_section_title
;
Structure prediction by ZEFSAII (Michael W. Deem and Ramdas Pophale) SiO2 
 PCOD8062349
Probable space group: P 2/M
;
_chemical_formula_sum "Si O2"
_cell_formula_units_Z 32
_cell_length_a 29.108108
_cell_length_b 8.840531
_cell_length_c 12.495676
_cell_angle_alpha 90.000000
_cell_angle_beta 30.089563
_cell_angle_gamma 90.000000
_cell_volume 1612.114254
_symmetry_space_group_name_H-M "P 2/M"
_symmetry_group_IT_number 10
_symmetry_cell_setting 'monoclinic'
loop_
_space_group_symop_operation_xyz
x,y,z
-x,y,-z
-x,-y,-z
x,-y,z
loop_
_atom_site_type_symbol
_atom_site_label
_atom_site_fract_x
_atom_site_fract_y
_atom_site_fract_z
Si Si1 0.281179 0.678181 0.902955
Si Si2 0.457372 0.178179 0.474678
Si Si3 0.671028 0.825553 0.771407
Si Si4 0.507202 0.321668 0.806487
Si Si5 0.774398 0.819994 0.773706
Si Si6 0.697967 0.174163 0.480988
Si Si7 0.162145 0.824764 0.980210
Si Si8 0.028275 0.824454 0.558425
O O1 0.294328 0.500000 0.883089
O O2 0.355937 0.753343 0.673844
O O3 0.187535 0.724606 0.032958
O O4 0.288431 0.749105 0.006514
O O5 0.500000 0.228978 0.500000
O O6 0.516988 0.253396 0.261196
O O7 0.454758 0.000000 0.464006
O O8 0.735589 0.764395 0.737236
O O9 0.725554 0.803747 0.549805
O O10 0.645950 0.000000 0.841695
O O11 0.575268 0.735211 0.952037
O O12 0.506768 0.500000 0.804916
O O13 0.606767 0.267786 0.642091
O O14 0.877838 0.755559 0.581774
O O15 0.768834 0.000000 0.793052
O O16 0.784512 0.228539 0.234608
O O17 0.674974 0.000000 0.502042
O O18 0.183401 0.000000 0.962921
O O19 0.052512 0.799586 0.190822
O O20 0.000000 0.752657 0.500000
O O21 0.047989 0.000000 0.499195
#
# Coordination Sequence:
#
# PCOD8062349 Si02
#       8
#     4   4   4   4   4   4   4   4
#     4  12  23  34  53  83 117 147 184 232 283 338
#     4  11  23  38  56  79 111 152 190 227 281 345
#     4  10  22  39  58  82 112 152 198 240 283 336
#     4  12  24  37  57  85 114 148 192 240 286 335
#     4  10  20  37  59  82 114 153 192 235 287 344
#     4  10  21  38  60  83 112 152 198 240 280 335
#     4  10  19  35  59  83 111 148 189 232 285 339
#     4   9  16  30  57  88 112 144 191 236 282 339
#
# _framework density 19.849710999999999
#
# number of rings (size 3 to 8) (size 9 to 14) (size 15 to 20)
#    0.000    1.500    2.500    3.750    0.000    6.500 
#    0.000    1.875    0.000    3.750    0.000    0.000 
#    0.000    4.000    0.000    0.000    0.000    0.000 
#
# Total GULP energy -396762.698235 kJ/mol
# GULP energy per Si atom -12398.834320 kJ/mol
# Density = 1.980453 g / cm^3
# Si number density = 19.849711 Si / 1000 Ang^3
#
#
#
# Elastic Constant Matrix: (Units=GPa)
#
#
# Indices 1 2 3 4 5 6 
#
# 1 78.4411 19.3603 40.5009 0.0000 13.0328 0.0000
# 2 19.3603 62.6908 22.1388 0.0000 5.4700 0.0000
# 3 40.5009 22.1388 108.3686 0.0000 7.4825 0.0000
# 4 0.0000 0.0000 0.0000 5.2317 0.0000 3.4472
# 5 13.0328 5.4700 7.4825 0.0000 33.5868 0.0000
# 6 0.0000 0.0000 0.0000 3.4472 0.0000 9.0773
#
#
#
# Elastic Compliance Matrix: (Units=1/GPa)
#
#
# Indices 1 2 3 4 5 6 
#
# 1 0.017109 -0.002926 -0.005455 0.000000 -0.004947 0.000000
# 2 -0.002926 0.017832 -0.002465 0.000000 -0.001220 0.000000
# 3 -0.005455 -0.002465 0.011777 0.000000 -0.000106 0.000000
# 4 0.000000 0.000000 0.000000 0.254938 0.000000 -0.096817
# 5 -0.004947 -0.001220 -0.000106 0.000000 0.031915 0.000000
# 6 0.000000 0.000000 0.000000 -0.096817 0.000000 0.146933
#
#
# Mechanical properties :
#
#
# Convention : Reuss Voigt Hill
#
# Bulk Modulus (GPa) = 39.95760 45.94451 42.95105
# Shear Modulus (GPa) = 9.79359 20.74585 15.26972
#
# Velocity S-wave (km/s) = 2.22364 3.23638 2.77657
# Velocity P-wave (km/s) = 5.17364 6.09606 5.65369
#
# Compressibility (1/GPa) = 0.02502653
#
# Stress axis : x y z
#
# Youngs Moduli (GPa) = 58.44896 56.07952 84.90858
#
# Poissons Ratio (x) = 0.16407 0.46317
# Poissons Ratio (y) = 0.17100 0.20932
# Poissons Ratio (z) = 0.31883 0.13825
#
# Static dielectric constant tensor:
#      x y z
#    x 3.717200 0.000000 0.046030 
#    y 0.000000 3.285340 0.000000 
#    z 0.046030 0.000000 3.809240 
# 
# 
# High freq. dielectric constant tensor:
#      x y z
#    x 1.766570 0.000000 0.005730 
#    y 0.000000 1.744620 0.000000 
#    z 0.005730 0.000000 1.781520 
# 
# From -- ./inp_files/49788.got.cif
#   From: 2010.06.25/outbox.cif.g09.slc.cpg/sg10_25_cif.got.tgz:49788.got - 2010.06.27 22:07:45.
