data_PCOD8062661
_publ_section_title
;
Structure prediction by ZEFSAII (Michael W. Deem and Ramdas Pophale) SiO2 
 PCOD8062661
Probable space group: P 2/M
;
_chemical_formula_sum "Si O2"
_cell_formula_units_Z 32
_cell_length_a 9.031153
_cell_length_b 15.358237
_cell_length_c 24.087901
_cell_angle_alpha 90.000000
_cell_angle_beta 150.092954
_cell_angle_gamma 90.000000
_cell_volume 1665.830731
_symmetry_space_group_name_H-M "P 2/M"
_symmetry_group_IT_number 10
_symmetry_cell_setting 'monoclinic'
loop_
_space_group_symop_operation_xyz
x,y,z
-x,y,-z
-x,-y,-z
x,-y,z
loop_
_atom_site_type_symbol
_atom_site_label
_atom_site_fract_x
_atom_site_fract_y
_atom_site_fract_z
Si Si1 0.838699 0.326908 0.106536
Si Si2 0.579457 0.399946 0.202016
Si Si3 0.823322 0.312273 0.596617
Si Si4 0.242022 0.752385 0.032966
Si Si5 0.587240 0.900917 0.090907
Si Si6 0.270307 0.253471 0.554605
Si Si7 0.434453 0.596764 0.280367
Si Si8 0.117024 0.199020 0.279915
O O1 0.086773 0.402427 0.185403
O O2 0.897295 0.268870 0.179687
O O3 0.500000 0.363253 0.000000
O O4 0.903848 0.268097 0.073647
O O5 0.506288 0.500000 0.161787
O O6 0.421257 0.334169 0.108616
O O7 0.462200 0.377194 0.225048
O O8 0.932977 0.385860 0.312375
O O9 0.500000 0.356371 0.500000
O O10 0.864868 0.276636 0.548578
O O11 0.847286 0.228866 0.645014
O O12 0.441397 0.838612 0.089942
O O13 0.000000 0.777000 0.000000
O O14 0.944765 0.892589 0.216903
O O15 0.487939 0.000000 0.069111
O O16 0.500000 0.871536 0.000000
O O17 0.365905 0.341319 0.616969
O O18 0.559381 0.191449 0.643976
O O19 0.000000 0.207105 0.500000
O O20 0.557981 0.500000 0.329997
#
# Coordination Sequence:
#
# PCOD8062661 Si02
#       8
#     4   4   4   4   4   4   4   4
#     4  11  19  36  57  79 111 160 195 235 297 350
#     4  11  22  35  54  84 120 161 203 241 291 346
#     4  10  20  36  57  81 110 154 201 249 291 335
#     4  12  22  37  60  86 124 157 193 244 289 344
#     4  11  22  40  68  95 119 151 188 231 298 366
#     4  10  20  34  58  84 109 154 201 244 298 336
#     4  10  22  35  51  82 117 155 207 251 294 346
#     4  10  19  37  60  83 117 147 194 235 290 354
#
# _framework density 19.209634999999999
#
# number of rings (size 3 to 8) (size 9 to 14) (size 15 to 20)
#    0.000    1.375    6.250    0.000    0.000    2.250 
#    0.000    8.750    0.000    4.125    0.000    0.000 
#    0.000    0.000    0.000    0.000    0.000    0.000 
#
# Total GULP energy -396680.613490 kJ/mol
# GULP energy per Si atom -12396.269172 kJ/mol
# Density = 1.916591 g / cm^3
# Si number density = 19.209635 Si / 1000 Ang^3
#
#
#
# Elastic Constant Matrix: (Units=GPa)
#
#
# Indices 1 2 3 4 5 6 
#
# 1 117.4017 38.3905 41.7480 0.0000 8.2953 0.0000
# 2 38.3905 76.8218 31.4143 0.0000 1.6952 0.0000
# 3 41.7480 31.4143 89.3510 0.0000 11.1862 0.0000
# 4 0.0000 0.0000 0.0000 18.9146 0.0000 -1.7502
# 5 8.2953 1.6952 11.1862 0.0000 41.9954 0.0000
# 6 0.0000 0.0000 0.0000 -1.7502 0.0000 17.0283
#
#
#
# Elastic Compliance Matrix: (Units=1/GPa)
#
#
# Indices 1 2 3 4 5 6 
#
# 1 0.011239 -0.004088 -0.003679 0.000000 -0.001075 0.000000
# 2 -0.004088 0.016719 -0.004122 0.000000 0.001231 0.000000
# 3 -0.003679 -0.004122 0.014740 0.000000 -0.003033 0.000000
# 4 0.000000 0.000000 0.000000 0.053377 0.000000 0.005486
# 5 -0.001075 0.001231 -0.003033 0.000000 0.024783 0.000000
# 6 0.000000 0.000000 0.000000 0.005486 0.000000 0.059290
#
#
# Mechanical properties :
#
#
# Convention : Reuss Voigt Hill
#
# Bulk Modulus (GPa) = 52.85824 56.29779 54.57801
# Shear Modulus (GPa) = 23.78331 27.05577 25.41954
#
# Velocity S-wave (km/s) = 3.52247 3.75700 3.64162
# Velocity P-wave (km/s) = 6.64229 6.94196 6.79377
#
# Compressibility (1/GPa) = 0.01891853
#
# Stress axis : x y z
#
# Youngs Moduli (GPa) = 88.97637 59.81384 67.84348
#
# Poissons Ratio (x) = 0.24453 0.24962
# Poissons Ratio (y) = 0.36375 0.27964
# Poissons Ratio (z) = 0.32737 0.24654
#
# Static dielectric constant tensor:
#      x y z
#    x 3.762520 0.000000 0.077180 
#    y 0.000000 3.070510 0.000000 
#    z 0.077180 0.000000 3.694060 
# 
# 
# High freq. dielectric constant tensor:
#      x y z
#    x 1.764340 0.000000 0.002690 
#    y 0.000000 1.692940 0.000000 
#    z 0.002690 0.000000 1.760340 
# 
# From -- ./inp_files/36472.got.cif
#   From: 2010.06.25/outbox.cif.g09.slc.cpg/sg10_19_cif.got.tgz:36472.got - 2010.06.27 22:07:45.
