data_PCOD8062288
_publ_section_title
;
Structure prediction by ZEFSAII (Michael W. Deem and Ramdas Pophale) SiO2 
 PCOD8062288
Probable space group: P 2/M
;
_chemical_formula_sum "Si O2"
_cell_formula_units_Z 32
_cell_length_a 20.082344
_cell_length_b 9.192455
_cell_length_c 25.875039
_cell_angle_alpha 90.000000
_cell_angle_beta 21.217341
_cell_angle_gamma 90.000000
_cell_volume 1728.715735
_symmetry_space_group_name_H-M "P 2/M"
_symmetry_group_IT_number 10
_symmetry_cell_setting 'monoclinic'
loop_
_space_group_symop_operation_xyz
x,y,z
-x,y,-z
-x,-y,-z
x,-y,z
loop_
_atom_site_type_symbol
_atom_site_label
_atom_site_fract_x
_atom_site_fract_y
_atom_site_fract_z
Si Si1 0.702264 0.832533 0.339693
Si Si2 0.489562 0.671230 0.313669
Si Si3 0.619302 0.672011 0.106258
Si Si4 0.700977 0.827552 0.712394
Si Si5 0.112668 0.171009 0.605752
Si Si6 0.806956 0.671629 0.161888
Si Si7 0.020026 0.828782 0.406771
Si Si8 0.025146 0.832977 0.183730
O O1 0.500000 0.773826 0.500000
O O2 0.782601 0.740922 0.235067
O O3 0.830623 0.809943 0.296513
O O4 0.692786 0.000000 0.329359
O O5 0.457189 0.500000 0.339663
O O6 0.546941 0.720032 0.214771
O O7 0.305998 0.749047 0.464694
O O8 0.648580 0.722529 0.237434
O O9 0.619849 0.500000 0.099023
O O10 0.490970 0.744126 0.155345
O O11 0.825375 0.729669 0.950526
O O12 0.791147 0.777882 0.702043
O O13 0.839214 0.771750 0.567502
O O14 0.664277 0.000000 0.736650
O O15 0.987955 0.221479 0.647053
O O16 0.000858 0.213242 0.737822
O O17 0.154153 0.000000 0.573678
O O18 0.807499 0.500000 0.168716
O O19 0.000000 0.727548 0.000000
O O20 0.013729 0.000000 0.416937
O O21 0.090784 0.000000 0.131835
#
# Coordination Sequence:
#
# PCOD8062288 Si02
#       8
#     4   4   4   4   4   4   4   4
#     4  10  21  38  57  80 108 137 175 224 272 319
#     4  10  21  35  53  79 107 136 176 222 268 316
#     4  11  22  36  54  79 111 147 182 217 264 318
#     4   9  16  31  55  82 110 139 175 221 267 313
#     4  10  19  35  58  82 105 137 179 221 266 314
#     4  10  21  37  55  76 105 140 177 219 265 317
#     4   8  15  29  54  84 109 136 174 221 267 312
#     4  10  22  37  55  79 109 143 178 218 267 321
#
# _framework density 18.510850999999999
#
# number of rings (size 3 to 8) (size 9 to 14) (size 15 to 20)
#    0.000    2.250    1.250    2.625    0.000    4.500 
#    0.000    2.500    0.000    3.750    0.000    0.000 
#    0.000    0.000    0.000    0.000    0.000    0.000 
#
# Total GULP energy -396828.332622 kJ/mol
# GULP energy per Si atom -12400.885394 kJ/mol
# Density = 1.846872 g / cm^3
# Si number density = 18.510851 Si / 1000 Ang^3
#
#
#
# Elastic Constant Matrix: (Units=GPa)
#
#
# Indices 1 2 3 4 5 6 
#
# 1 111.8693 24.9685 25.9479 0.0000 0.5464 0.0000
# 2 24.9685 36.1970 25.2120 0.0000 0.8250 0.0000
# 3 25.9479 25.2120 73.8030 0.0000 2.2954 0.0000
# 4 0.0000 0.0000 0.0000 30.0911 0.0000 -1.4482
# 5 0.5464 0.8250 2.2954 0.0000 28.7520 0.0000
# 6 0.0000 0.0000 0.0000 -1.4482 0.0000 27.6847
#
#
#
# Elastic Compliance Matrix: (Units=1/GPa)
#
#
# Indices 1 2 3 4 5 6 
#
# 1 0.010713 -0.006255 -0.001633 0.000000 0.000106 0.000000
# 2 -0.006255 0.039904 -0.011429 0.000000 -0.000114 0.000000
# 3 -0.001633 -0.011429 0.018062 0.000000 -0.001083 0.000000
# 4 0.000000 0.000000 0.000000 0.033316 0.000000 0.001743
# 5 0.000106 -0.000114 -0.001083 0.000000 0.034868 0.000000
# 6 0.000000 0.000000 0.000000 0.001743 0.000000 0.036212
#
#
# Mechanical properties :
#
#
# Convention : Reuss Voigt Hill
#
# Bulk Modulus (GPa) = 33.28330 41.56957 37.42643
# Shear Modulus (GPa) = 22.55040 27.02163 24.78601
#
# Velocity S-wave (km/s) = 3.49410 3.82484 3.66320
# Velocity P-wave (km/s) = 5.85643 6.48163 6.17694
#
# Compressibility (1/GPa) = 0.03004510
#
# Stress axis : x y z
#
# Youngs Moduli (GPa) = 93.34147 25.05984 55.36542
#
# Poissons Ratio (x) = 0.15675 0.09042
# Poissons Ratio (y) = 0.58384 0.63278
# Poissons Ratio (z) = 0.15244 0.28641
#
# Static dielectric constant tensor:
#      x y z
#    x 3.794500 0.000000 -0.132760 
#    y 0.000000 3.168490 0.000000 
#    z -0.132760 0.000000 3.370830 
# 
# 
# High freq. dielectric constant tensor:
#      x y z
#    x 1.734030 0.000000 -0.008590 
#    y 0.000000 1.696950 0.000000 
#    z -0.008590 0.000000 1.711230 
# 
# From -- ./inp_files/86983.got.cif
#   From: 2010.06.25/outbox.cif.g09.slc.cpg/sg10_44_cif.got.tgz:86983.got - 2010.06.27 22:07:45.
