data_PCOD8062875
_publ_section_title
;
Structure prediction by ZEFSAII (Michael W. Deem and Ramdas Pophale) SiO2 
 PCOD8062875
Probable space group: P 2/M
;
_chemical_formula_sum "Si O2"
_cell_formula_units_Z 28
_cell_length_a 18.840058
_cell_length_b 9.109933
_cell_length_c 14.430027
_cell_angle_alpha 90.000000
_cell_angle_beta 141.585704
_cell_angle_gamma 90.000000
_cell_volume 1538.849626
_symmetry_space_group_name_H-M "P 2/M"
_symmetry_group_IT_number 10
_symmetry_cell_setting 'monoclinic'
loop_
_space_group_symop_operation_xyz
x,y,z
-x,y,-z
-x,-y,-z
x,-y,z
loop_
_atom_site_type_symbol
_atom_site_label
_atom_site_fract_x
_atom_site_fract_y
_atom_site_fract_z
Si Si1 0.905538 0.825740 0.627035
Si Si2 0.696246 0.331570 0.168705
Si Si3 0.963219 0.824824 0.061650
Si Si4 0.444332 0.668531 0.162430
Si Si5 0.743459 0.162976 0.936079
Si Si6 0.657292 0.174628 0.313154
Si Si7 0.883899 0.162949 0.267943
O O1 0.950659 0.762068 0.771531
O O2 0.778423 0.768868 0.476984
O O3 0.989726 0.776952 0.628850
O O4 0.908643 0.000000 0.635312
O O5 0.704868 0.500000 0.208295
O O6 0.638732 0.239116 0.191750
O O7 0.823767 0.271769 0.278943
O O8 0.616915 0.311603 0.998582
O O9 0.831987 0.777218 0.948820
O O10 0.969278 0.000000 0.067609
O O11 0.000000 0.759097 0.000000
O O12 0.472951 0.500000 0.212305
O O13 0.560224 0.762410 0.281440
O O14 0.363777 0.728118 0.162812
O O15 0.812418 0.153423 0.101396
O O16 0.698358 0.000000 0.863944
O O17 0.648732 0.000000 0.300573
O O18 0.889942 0.000000 0.319392
#
# Coordination Sequence:
#
# PCOD8062875 Si02
#       7
#     4   4   4   4   4   4   4
#     4   8  16  29  44  67  96 122 148 181 226 276
#     4  10  20  32  45  64  89 117 156 201 235 262
#     4   8  13  25  50  80 102 116 137 179 230 273
#     4  10  20  33  47  63  88 122 159 197 230 260
#     4   8  14  26  47  73  94 115 147 183 221 269
#     4  11  21  31  45  64  90 124 158 191 226 268
#     4   8  14  28  47  64  88 120 151 184 224 271
#
# _framework density 18.195409999999999
#
# number of rings (size 3 to 8) (size 9 to 14) (size 15 to 20)
#    0.000    3.000    0.000    3.429    0.000    4.000 
#    0.000    4.286    0.000    3.000    0.000    6.000 
#    0.000    0.000    0.000    0.000    0.000    0.000 
#
# Total GULP energy -347070.980879 kJ/mol
# GULP energy per Si atom -12395.392174 kJ/mol
# Density = 1.815400 g / cm^3
# Si number density = 18.195410 Si / 1000 Ang^3
#
#
#
# Elastic Constant Matrix: (Units=GPa)
#
#
# Indices 1 2 3 4 5 6 
#
# 1 120.7423 43.2002 30.7228 0.0000 31.7410 0.0000
# 2 43.2002 76.8982 27.3235 0.0000 17.5993 0.0000
# 3 30.7228 27.3235 47.7602 0.0000 26.3500 0.0000
# 4 0.0000 0.0000 0.0000 8.1565 0.0000 -1.8068
# 5 31.7410 17.5993 26.3500 0.0000 28.1564 0.0000
# 6 0.0000 0.0000 0.0000 -1.8068 0.0000 7.2453
#
#
#
# Elastic Compliance Matrix: (Units=1/GPa)
#
#
# Indices 1 2 3 4 5 6 
#
# 1 0.013106 -0.004932 0.001740 0.000000 -0.013319 0.000000
# 2 -0.004932 0.018304 -0.008382 0.000000 0.001964 0.000000
# 3 0.001740 -0.008382 0.047150 0.000000 -0.040847 0.000000
# 4 0.000000 0.000000 0.000000 0.129770 0.000000 0.032362
# 5 -0.013319 0.001964 -0.040847 0.000000 0.087530 0.000000
# 6 0.000000 0.000000 0.000000 0.032362 0.000000 0.146090
#
#
# Mechanical properties :
#
#
# Convention : Reuss Voigt Hill
#
# Bulk Modulus (GPa) = 18.04725 49.76595 33.90660
# Shear Modulus (GPa) = 10.33976 18.32193 14.33084
#
# Velocity S-wave (km/s) = 2.38641 3.17670 2.80948
# Velocity P-wave (km/s) = 4.18729 6.39261 5.40365
#
# Compressibility (1/GPa) = 0.05541011
#
# Stress axis : x y z
#
# Youngs Moduli (GPa) = 76.30360 54.63259 21.20874
#
# Poissons Ratio (x) = 0.26947 -0.03690
# Poissons Ratio (y) = 0.37636 0.17778
# Poissons Ratio (z) = -0.13275 0.45795
#
# Static dielectric constant tensor:
#      x y z
#    x 3.664300 0.000000 0.252350 
#    y 0.000000 3.154740 0.000000 
#    z 0.252350 0.000000 3.257930 
# 
# 
# High freq. dielectric constant tensor:
#      x y z
#    x 1.706520 0.000000 0.026580 
#    y 0.000000 1.675390 0.000000 
#    z 0.026580 0.000000 1.673220 
# 
# From -- ./inp_files/54690.got.cif
#   From: 2010.06.25/outbox.cif.g09.slc.cpg/sg10_28_cif.got.tgz:54690.got - 2010.06.27 22:07:45.
