data_PCOD8062538
_publ_section_title
;
Structure prediction by ZEFSAII (Michael W. Deem and Ramdas Pophale) SiO2 
 PCOD8062538
Probable space group: P 2/M
;
_chemical_formula_sum "Si O2"
_cell_formula_units_Z 28
_cell_length_a 9.827402
_cell_length_b 8.924315
_cell_length_c 27.655403
_cell_angle_alpha 90.000000
_cell_angle_beta 142.403937
_cell_angle_gamma 90.000000
_cell_volume 1479.748895
_symmetry_space_group_name_H-M "P 2/M"
_symmetry_group_IT_number 10
_symmetry_cell_setting 'monoclinic'
loop_
_space_group_symop_operation_xyz
x,y,z
-x,y,-z
-x,-y,-z
x,-y,z
loop_
_atom_site_type_symbol
_atom_site_label
_atom_site_fract_x
_atom_site_fract_y
_atom_site_fract_z
Si Si1 0.501086 0.176615 0.275226
Si Si2 0.294741 0.321974 0.472467
Si Si3 0.834060 0.675410 0.298905
Si Si4 0.357518 0.167987 0.008248
Si Si5 0.023598 0.323786 0.150178
Si Si6 0.257924 0.673162 0.836323
Si Si7 0.263720 0.330996 0.571787
O O1 0.623633 0.240630 0.262517
O O2 0.636252 0.218972 0.361249
O O3 0.255763 0.242154 0.209253
O O4 0.486553 0.000000 0.266670
O O5 0.500000 0.253870 0.500000
O O6 0.287967 0.500000 0.465853
O O7 0.334785 0.273361 0.538932
O O8 0.061043 0.259194 0.386165
O O9 0.806859 0.500000 0.302643
O O10 0.846115 0.707165 0.245186
O O11 0.138244 0.268220 0.938372
O O12 0.285899 0.000000 0.002636
O O13 0.500000 0.168695 0.000000
O O14 0.510624 0.236575 0.093638
O O15 0.058481 0.500000 0.155024
O O16 0.923171 0.279223 0.174327
O O17 0.319239 0.500000 0.860326
O O18 0.353064 0.500000 0.606623
O O19 0.000000 0.330336 0.500000
#
# Coordination Sequence:
#
# PCOD8062538 Si02
#       7
#     4   4   4   4   4   4   4
#     4  12  25  38  54  80 116 153 189 229 279 334
#     4   9  18  32  57  86 110 137 180 235 281 324
#     4  10  20  38  58  82 113 147 187 232 281 331
#     4   9  17  32  55  83 118 152 181 219 276 338
#     4  10  20  36  60  87 112 143 189 236 276 325
#     4   9  19  34  59  88 113 143 186 236 281 328
#     4  10  19  36  60  81 105 144 190 230 274 326
#
# _framework density 18.922129999999999
#
# number of rings (size 3 to 8) (size 9 to 14) (size 15 to 20)
#    0.000    2.143    1.429    2.143    2.000    3.143 
#    0.000    0.714    0.000    5.143    0.000    0.000 
#    0.000    0.000    0.000    0.000    0.000    0.000 
#
# Total GULP energy -347239.860054 kJ/mol
# GULP energy per Si atom -12401.423573 kJ/mol
# Density = 1.887906 g / cm^3
# Si number density = 18.922130 Si / 1000 Ang^3
#
#
#
# Elastic Constant Matrix: (Units=GPa)
#
#
# Indices 1 2 3 4 5 6 
#
# 1 104.0707 38.1041 34.9382 0.0000 12.1485 0.0000
# 2 38.1041 88.7049 43.1172 0.0000 10.3030 0.0000
# 3 34.9382 43.1172 89.9326 0.0000 16.1810 0.0000
# 4 0.0000 0.0000 0.0000 21.5996 0.0000 0.4126
# 5 12.1485 10.3030 16.1810 0.0000 22.4219 0.0000
# 6 0.0000 0.0000 0.0000 0.4126 0.0000 28.2388
#
#
#
# Elastic Compliance Matrix: (Units=1/GPa)
#
#
# Indices 1 2 3 4 5 6 
#
# 1 0.012125 -0.003687 -0.002374 0.000000 -0.003162 0.000000
# 2 -0.003687 0.015892 -0.006013 0.000000 -0.000965 0.000000
# 3 -0.002374 -0.006013 0.016314 0.000000 -0.007724 0.000000
# 4 0.000000 0.000000 0.000000 0.046310 0.000000 -0.000677
# 5 -0.003162 -0.000965 -0.007724 0.000000 0.052330 0.000000
# 6 0.000000 0.000000 0.000000 -0.000677 0.000000 0.035422
#
#
# Mechanical properties :
#
#
# Convention : Reuss Voigt Hill
#
# Bulk Modulus (GPa) = 49.54634 57.22526 53.38580
# Shear Modulus (GPa) = 23.89255 25.55530 24.72393
#
# Velocity S-wave (km/s) = 3.55727 3.67897 3.61863
# Velocity P-wave (km/s) = 6.56608 6.95375 6.76269
#
# Compressibility (1/GPa) = 0.02018313
#
# Stress axis : x y z
#
# Youngs Moduli (GPa) = 82.47480 62.92378 61.29582
#
# Poissons Ratio (x) = 0.23202 0.14549
# Poissons Ratio (y) = 0.30411 0.36858
# Poissons Ratio (z) = 0.19577 0.37837
#
# Static dielectric constant tensor:
#      x y z
#    x 3.564130 0.000000 -0.075710 
#    y 0.000000 3.377830 0.000000 
#    z -0.075710 0.000000 3.820400 
# 
# 
# High freq. dielectric constant tensor:
#      x y z
#    x 1.727610 0.000000 0.001990 
#    y 0.000000 1.715700 0.000000 
#    z 0.001990 0.000000 1.743430 
# 
# From -- ./inp_files/92073.got.cif
#   From: 2010.06.25/outbox.cif.g09.slc.cpg/sg10_47_cif.got.tgz:92073.got - 2010.06.27 22:07:45.
