data_PCOD8062885
_publ_section_title
;
Structure prediction by ZEFSAII (Michael W. Deem and Ramdas Pophale) SiO2 
 PCOD8062885
Probable space group: P 2/M
;
_chemical_formula_sum "Si O2"
_cell_formula_units_Z 24
_cell_length_a 9.514555
_cell_length_b 9.410083
_cell_length_c 21.679893
_cell_angle_alpha 90.000000
_cell_angle_beta 45.831402
_cell_angle_gamma 90.000000
_cell_volume 1392.308313
_symmetry_space_group_name_H-M "P 2/M"
_symmetry_group_IT_number 10
_symmetry_cell_setting 'monoclinic'
loop_
_space_group_symop_operation_xyz
x,y,z
-x,y,-z
-x,-y,-z
x,-y,z
loop_
_atom_site_type_symbol
_atom_site_label
_atom_site_fract_x
_atom_site_fract_y
_atom_site_fract_z
Si Si1 0.818474 0.339533 0.899088
Si Si2 0.050357 0.159853 0.742260
Si Si3 0.691147 0.155833 0.758707
Si Si4 0.270033 0.336357 0.578825
Si Si5 0.535260 0.658188 0.088221
Si Si6 0.004220 0.167073 0.570220
O O1 0.899686 0.500000 0.882345
O O2 0.651759 0.341139 0.898499
O O3 0.993008 0.234585 0.824747
O O4 0.723678 0.283521 0.992480
O O5 0.215848 0.253997 0.658315
O O6 0.860943 0.153158 0.757446
O O7 0.128791 0.000000 0.731205
O O8 0.509853 0.252273 0.836291
O O9 0.791901 0.208648 0.664226
O O10 0.601160 0.000000 0.777026
O O11 0.500000 0.328326 0.500000
O O12 0.197734 0.500000 0.605286
O O13 0.172735 0.260588 0.549788
O O14 0.581442 0.500000 0.096798
O O15 0.000000 0.204817 0.500000
O O16 0.047293 0.000000 0.569350
#
# Coordination Sequence:
#
# PCOD8062885 Si02
#       6
#     4   4   4   4   4   4
#     4   8  13  21  32  48  73 104 136 169 206 249
#     4   9  16  25  38  56  78 107 141 175 214 257
#     4   8  14  23  35  53  77 105 136 171 210 250
#     4  10  20  32  46  65  89 117 149 184 221 261
#     4   8  13  20  31  48  72 104 137 167 203 249
#     4   9  18  32  48  66  89 117 149 184 222 263
#
# _framework density 17.237562
#
# number of rings (size 3 to 8) (size 9 to 14) (size 15 to 20)
#    0.000    3.333    0.000    3.000    0.000    6.333 
#    0.000    3.333    0.000    0.000    0.000    0.000 
#    0.000    1.333    0.000   15.000    0.000   18.333 
#
# Total GULP energy -297389.027281 kJ/mol
# GULP energy per Si atom -12391.209470 kJ/mol
# Density = 1.719833 g / cm^3
# Si number density = 17.237562 Si / 1000 Ang^3
#
#
#
# Elastic Constant Matrix: (Units=GPa)
#
#
# Indices 1 2 3 4 5 6 
#
# 1 19.2132 25.4539 30.1973 0.0000 3.4625 0.0000
# 2 25.4539 116.9594 84.2733 0.0000 2.2525 0.0000
# 3 30.1973 84.2733 167.6490 0.0000 15.6551 0.0000
# 4 0.0000 0.0000 0.0000 36.3195 0.0000 1.6817
# 5 3.4625 2.2525 15.6551 0.0000 14.6908 0.0000
# 6 0.0000 0.0000 0.0000 1.6817 0.0000 6.8598
#
#
#
# Elastic Compliance Matrix: (Units=1/GPa)
#
#
# Indices 1 2 3 4 5 6 
#
# 1 0.081952 -0.011970 -0.007898 0.000000 -0.009063 0.000000
# 2 -0.011970 0.015596 -0.006357 0.000000 0.007204 0.000000
# 3 -0.007898 -0.006357 0.011458 0.000000 -0.009374 0.000000
# 4 0.000000 0.000000 0.000000 0.027850 0.000000 -0.006827
# 5 -0.009063 0.007204 -0.009374 0.000000 0.079091 0.000000
# 6 0.000000 0.000000 0.000000 -0.006827 0.000000 0.147451
#
#
# Mechanical properties :
#
#
# Convention : Reuss Voigt Hill
#
# Bulk Modulus (GPa) = 17.68112 64.85228 41.26670
# Shear Modulus (GPa) = 11.50220 22.50050 17.00135
#
# Velocity S-wave (km/s) = 2.58597 3.61684 3.14394
# Velocity P-wave (km/s) = 4.38131 7.42606 6.09681
#
# Compressibility (1/GPa) = 0.05655750
#
# Stress axis : x y z
#
# Youngs Moduli (GPa) = 12.20228 64.11737 87.27426
#
# Poissons Ratio (x) = 0.76747 0.68929
# Poissons Ratio (y) = 0.14606 0.55477
# Poissons Ratio (z) = 0.09637 0.40757
#
# Static dielectric constant tensor:
#      x y z
#    x 2.447580 0.000000 0.124250 
#    y 0.000000 3.522080 0.000000 
#    z 0.124250 0.000000 3.665760 
# 
# 
# High freq. dielectric constant tensor:
#      x y z
#    x 1.575040 0.000000 0.005670 
#    y 0.000000 1.671360 0.000000 
#    z 0.005670 0.000000 1.687700 
# 
# From -- ./inp_files/33775.got.cif
#   From: 2010.06.25/outbox.cif.g09.slc.cpg/sg10_17_cif.got.tgz:33775.got - 2010.06.27 22:07:45.
