data_PCOD8062474
_publ_section_title
;
Structure prediction by ZEFSAII (Michael W. Deem and Ramdas Pophale) SiO2 
 PCOD8062474
Probable space group: P 2/M
;
_chemical_formula_sum "Si O2"
_cell_formula_units_Z 24
_cell_length_a 14.496117
_cell_length_b 8.803550
_cell_length_c 9.953881
_cell_angle_alpha 90.000000
_cell_angle_beta 80.101229
_cell_angle_gamma 90.000000
_cell_volume 1251.376576
_symmetry_space_group_name_H-M "P 2/M"
_symmetry_group_IT_number 10
_symmetry_cell_setting 'monoclinic'
loop_
_space_group_symop_operation_xyz
x,y,z
-x,y,-z
-x,-y,-z
x,-y,z
loop_
_atom_site_type_symbol
_atom_site_label
_atom_site_fract_x
_atom_site_fract_y
_atom_site_fract_z
Si Si1 0.735158 0.678945 0.558684
Si Si2 0.083642 0.173148 0.374885
Si Si3 0.379657 0.679846 0.897649
Si Si4 0.762371 0.820290 0.269744
Si Si5 0.968626 0.180440 0.151243
Si Si6 0.588868 0.320504 0.810813
O O1 0.726355 0.500000 0.542978
O O2 0.834112 0.716827 0.600713
O O3 0.721887 0.754248 0.417588
O O4 0.653289 0.744921 0.675448
O O5 0.000000 0.184914 0.500000
O O6 0.046159 0.230318 0.240306
O O7 0.120811 0.000000 0.359189
O O8 0.363532 0.500000 0.886627
O O9 0.301251 0.770353 0.837732
O O10 0.481373 0.728426 0.814526
O O11 0.373214 0.734899 0.053907
O O12 0.866888 0.755628 0.218156
O O13 0.763519 0.000000 0.281406
O O14 0.962338 0.000000 0.146572
O O15 0.000000 0.248447 0.000000
O O16 0.594297 0.500000 0.811473
#
# Coordination Sequence:
#
# PCOD8062474 Si02
#       6
#     4   4   4   4   4   4
#     4  11  22  36  56  83 111 144 185 225 267 322
#     4  10  19  36  57  77 107 146 181 219 267 322
#     4   9  18  38  62  81 106 143 182 225 273 325
#     4  11  22  37  55  82 114 144 180 226 274 323
#     4   9  19  35  54  76 106 145 182 214 265 328
#     4   8  18  37  60  82 108 143 182 221 273 332
#
# _framework density 19.178878999999998
#
# number of rings (size 3 to 8) (size 9 to 14) (size 15 to 20)
#    0.000    2.333    1.667    2.000    2.333    1.000 
#    0.000    7.500    0.000    2.500    0.000    0.000 
#    0.000    0.000    0.000    0.000    0.000    0.000 
#
# Total GULP energy -297593.608090 kJ/mol
# GULP energy per Si atom -12399.733670 kJ/mol
# Density = 1.913523 g / cm^3
# Si number density = 19.178879 Si / 1000 Ang^3
#
#
#
# Elastic Constant Matrix: (Units=GPa)
#
#
# Indices 1 2 3 4 5 6 
#
# 1 67.2258 18.9685 26.8195 0.0000 -0.9426 0.0000
# 2 18.9685 42.4044 22.2161 0.0000 -2.7469 0.0000
# 3 26.8195 22.2161 119.2332 0.0000 -5.6845 0.0000
# 4 0.0000 0.0000 0.0000 22.1314 0.0000 6.8003
# 5 -0.9426 -2.7469 -5.6845 0.0000 35.0956 0.0000
# 6 0.0000 0.0000 0.0000 6.8003 0.0000 24.1802
#
#
#
# Elastic Compliance Matrix: (Units=1/GPa)
#
#
# Indices 1 2 3 4 5 6 
#
# 1 0.017836 -0.006534 -0.002818 0.000000 -0.000489 0.000000
# 2 -0.006534 0.028583 -0.003787 0.000000 0.001448 0.000000
# 3 -0.002818 -0.003787 0.009784 0.000000 0.001213 0.000000
# 4 0.000000 0.000000 0.000000 0.049459 0.000000 -0.013909
# 5 -0.000489 0.001448 0.001213 0.000000 0.028790 0.000000
# 6 0.000000 0.000000 0.000000 -0.013909 0.000000 0.045268
#
#
# Mechanical properties :
#
#
# Convention : Reuss Voigt Hill
#
# Bulk Modulus (GPa) = 33.41580 40.54131 36.97855
# Shear Modulus (GPa) = 23.15105 27.00540 25.07822
#
# Velocity S-wave (km/s) = 3.47812 3.75651 3.61999
# Velocity P-wave (km/s) = 5.79576 6.32452 6.06590
#
# Compressibility (1/GPa) = 0.02992596
#
# Stress axis : x y z
#
# Youngs Moduli (GPa) = 56.06592 34.98571 102.20587
#
# Poissons Ratio (x) = 0.22859 0.28800
# Poissons Ratio (y) = 0.36633 0.38705
# Poissons Ratio (z) = 0.15798 0.13249
#
# Static dielectric constant tensor:
#      x y z
#    x 3.670590 0.000000 -0.173380 
#    y 0.000000 3.138490 0.000000 
#    z -0.173380 0.000000 3.946840 
# 
# 
# High freq. dielectric constant tensor:
#      x y z
#    x 1.750920 0.000000 0.001000 
#    y 0.000000 1.710730 0.000000 
#    z 0.001000 0.000000 1.761510 
# 
# From -- ./inp_files/27087.got.cif
#   From: 2010.06.25/outbox.cif.g09.slc.cpg/sg10_14_cif.got.tgz:27087.got - 2010.06.27 22:07:45.
