data_PCOD8062942
_publ_section_title
;
Structure prediction by ZEFSAII (Michael W. Deem and Ramdas Pophale) SiO2 
 PCOD8062942
Probable space group: P 2/M
;
_chemical_formula_sum "Si O2"
_cell_formula_units_Z 32
_cell_length_a 15.621545
_cell_length_b 8.960863
_cell_length_c 29.137178
_cell_angle_alpha 90.000000
_cell_angle_beta 154.007198
_cell_angle_gamma 90.000000
_cell_volume 1787.521970
_symmetry_space_group_name_H-M "P 2/M"
_symmetry_group_IT_number 10
_symmetry_cell_setting 'monoclinic'
loop_
_space_group_symop_operation_xyz
x,y,z
-x,y,-z
-x,-y,-z
x,-y,z
loop_
_atom_site_type_symbol
_atom_site_label
_atom_site_fract_x
_atom_site_fract_y
_atom_site_fract_z
Si Si1 0.094284 0.674339 0.942456
Si Si2 0.887539 0.675049 0.634576
Si Si3 0.705214 0.172636 0.042160
Si Si4 0.338569 0.675045 0.234242
Si Si5 0.221338 0.831567 0.090199
Si Si6 0.448788 0.177068 0.584503
Si Si7 0.301347 0.837194 0.377379
Si Si8 0.264475 0.827150 0.836864
O O1 0.131501 0.500000 0.965203
O O2 0.149666 0.728951 0.918443
O O3 0.869417 0.714701 0.843367
O O4 0.235075 0.755880 0.046942
O O5 0.866390 0.500000 0.617790
O O6 0.750559 0.755633 0.531633
O O7 0.832508 0.718985 0.660561
O O8 0.110301 0.727438 0.734164
O O9 0.754387 0.207941 0.118353
O O10 0.741235 0.000000 0.048165
O O11 0.480347 0.215246 0.923428
O O12 0.376935 0.500000 0.250914
O O13 0.352116 0.739805 0.189338
O O14 0.509883 0.752729 0.346010
O O15 0.301002 0.000000 0.125338
O O16 0.000000 0.827704 0.000000
O O17 0.636410 0.220077 0.643088
O O18 0.423913 0.000000 0.575895
O O19 0.500000 0.861241 0.500000
O O20 0.194254 0.000000 0.323176
O O21 0.220299 0.000000 0.806104
#
# Coordination Sequence:
#
# PCOD8062942 Si02
#       8
#     4   4   4   4   4   4   4   4
#     4  10  20  32  49  74 104 132 159 199 252 297
#     4  11  21  31  47  69  95 127 161 202 252 295
#     4   9  19  35  54  73  94 126 169 209 244 290
#     4  10  20  32  47  72 106 134 160 200 248 291
#     4   9  17  31  50  71  96 130 169 200 234 288
#     4  10  20  33  48  67  93 129 170 203 235 286
#     4   8  16  30  44  60  85 121 162 199 232 274
#     4   9  19  36  53  70  95 128 167 210 249 286
#
# _framework density 17.901878
#
# number of rings (size 3 to 8) (size 9 to 14) (size 15 to 20)
#    0.000    2.500    0.000    4.125    1.750    6.750 
#    0.000    1.250    0.000    0.000    0.000    0.875 
#    0.000    7.000    0.000    0.000    0.000    0.000 
#
# Total GULP energy -396752.016469 kJ/mol
# GULP energy per Si atom -12398.500515 kJ/mol
# Density = 1.786113 g / cm^3
# Si number density = 17.901878 Si / 1000 Ang^3
#
#
#
# Elastic Constant Matrix: (Units=GPa)
#
#
# Indices 1 2 3 4 5 6 
#
# 1 31.3299 16.6123 10.0159 0.0000 -4.3706 0.0000
# 2 16.6123 97.2029 44.7698 0.0000 -3.3904 0.0000
# 3 10.0159 44.7698 91.1409 0.0000 -5.7576 0.0000
# 4 0.0000 0.0000 0.0000 12.7032 0.0000 -0.7279
# 5 -4.3706 -3.3904 -5.7576 0.0000 22.4816 0.0000
# 6 0.0000 0.0000 0.0000 -0.7279 0.0000 21.0873
#
#
#
# Elastic Compliance Matrix: (Units=1/GPa)
#
#
# Indices 1 2 3 4 5 6 
#
# 1 0.035960 -0.005546 -0.000853 0.000000 0.005936 0.000000
# 2 -0.005546 0.014154 -0.006380 0.000000 -0.000577 0.000000
# 3 -0.000853 -0.006380 0.014361 0.000000 0.002550 0.000000
# 4 0.000000 0.000000 0.000000 0.078876 0.000000 0.002723
# 5 0.005936 -0.000577 0.002550 0.000000 0.046201 0.000000
# 6 0.000000 0.000000 0.000000 0.002723 0.000000 0.047516
#
#
# Mechanical properties :
#
#
# Convention : Reuss Voigt Hill
#
# Bulk Modulus (GPa) = 25.69507 40.27440 32.98473
# Shear Modulus (GPa) = 18.14251 21.13946 19.64099
#
# Velocity S-wave (km/s) = 3.18691 3.44008 3.31591
# Velocity P-wave (km/s) = 5.28454 6.19072 5.75549
#
# Compressibility (1/GPa) = 0.03891798
#
# Stress axis : x y z
#
# Youngs Moduli (GPa) = 27.80892 70.65273 69.63529
#
# Poissons Ratio (x) = 0.39183 0.05937
# Poissons Ratio (y) = 0.15423 0.44424
# Poissons Ratio (z) = 0.02371 0.45073
#
# Static dielectric constant tensor:
#      x y z
#    x 3.152140 0.000000 -0.133710 
#    y 0.000000 3.258960 0.000000 
#    z -0.133710 0.000000 3.256800 
# 
# 
# High freq. dielectric constant tensor:
#      x y z
#    x 1.653340 0.000000 -0.014950 
#    y 0.000000 1.696820 0.000000 
#    z -0.014950 0.000000 1.686740 
# 
# From -- ./inp_files/93136.got.cif
#   From: 2010.06.25/outbox.cif.g09.slc.cpg/sg10_47_cif.got.tgz:93136.got - 2010.06.27 22:07:45.
