data_PCOD8062776
_publ_section_title
;
Structure prediction by ZEFSAII (Michael W. Deem and Ramdas Pophale) SiO2 
 PCOD8062776
Probable space group: P 2/M
;
_chemical_formula_sum "Si O2"
_cell_formula_units_Z 26
_cell_length_a 15.261183
_cell_length_b 15.091136
_cell_length_c 8.422627
_cell_angle_alpha 90.000000
_cell_angle_beta 42.820469
_cell_angle_gamma 90.000000
_cell_volume 1318.490896
_symmetry_space_group_name_H-M "P 2/M"
_symmetry_group_IT_number 10
_symmetry_cell_setting 'monoclinic'
loop_
_space_group_symop_operation_xyz
x,y,z
-x,y,-z
-x,-y,-z
x,-y,z
loop_
_atom_site_type_symbol
_atom_site_label
_atom_site_fract_x
_atom_site_fract_y
_atom_site_fract_z
Si Si1 0.500000 0.683068 0.500000
Si Si2 0.825232 0.899179 0.393697
Si Si3 0.115015 0.599388 0.959445
Si Si4 0.879744 0.900385 0.960443
Si Si5 0.747430 0.261197 0.017798
Si Si6 0.636664 0.403341 0.585783
Si Si7 0.647600 0.756573 0.802880
O O1 0.483764 0.622593 0.365613
O O2 0.373519 0.742286 0.699617
O O3 0.835685 0.872533 0.195490
O O4 0.731223 0.833424 0.611179
O O5 0.773966 0.000000 0.480550
O O6 0.968480 0.892087 0.272529
O O7 0.079409 0.500000 0.070338
O O8 0.238761 0.593068 0.687390
O O9 0.147039 0.664956 0.065131
O O10 0.000000 0.637129 0.000000
O O11 0.834026 0.000000 0.984747
O O12 0.810900 0.835337 0.930398
O O13 0.699818 0.274545 0.903081
O O14 0.609109 0.500000 0.697076
O O15 0.657002 0.334381 0.696923
O O16 0.500000 0.790854 0.000000
#
# Coordination Sequence:
#
# PCOD8062776 Si02
#       7
#     2   4   4   4   4   4   4
#     4  10  19  40  59  86 114 160 221 246 285 350
#     4   9  20  41  67  90 120 154 199 250 301 361
#     4   9  20  39  63  90 116 154 207 254 301 355
#     4   9  20  40  67  94 113 153 206 250 296 357
#     4  11  23  36  62  88 123 163 195 254 298 357
#     4  10  21  38  61  85 120 160 203 253 295 350
#     4  12  25  40  55  91 131 162 199 241 307 362
#
# _framework density 19.719515000000001
#
# number of rings (size 3 to 8) (size 9 to 14) (size 15 to 20)
#    0.000    2.000    1.538    3.000    4.308    3.077 
#    0.000    1.923    0.000    2.769    0.000    0.000 
#    0.000    0.000    0.000    0.000    0.000    0.000 
#
# Total GULP energy -322296.685177 kJ/mol
# GULP energy per Si atom -12396.026353 kJ/mol
# Density = 1.967463 g / cm^3
# Si number density = 19.719515 Si / 1000 Ang^3
#
#
#
# Elastic Constant Matrix: (Units=GPa)
#
#
# Indices 1 2 3 4 5 6 
#
# 1 139.8789 66.4336 21.1713 0.0000 4.5917 0.0000
# 2 66.4336 138.8842 49.7184 0.0000 3.2129 0.0000
# 3 21.1713 49.7184 55.2553 0.0000 2.1187 0.0000
# 4 0.0000 0.0000 0.0000 26.8994 0.0000 -0.5012
# 5 4.5917 3.2129 2.1187 0.0000 25.1288 0.0000
# 6 0.0000 0.0000 0.0000 -0.5012 0.0000 26.7316
#
#
#
# Elastic Compliance Matrix: (Units=1/GPa)
#
#
# Indices 1 2 3 4 5 6 
#
# 1 0.009300 -0.004664 0.000678 0.000000 -0.001160 0.000000
# 2 -0.004664 0.012969 -0.009883 0.000000 0.000027 0.000000
# 3 0.000678 -0.009883 0.026774 0.000000 -0.001118 0.000000
# 4 0.000000 0.000000 0.000000 0.037188 0.000000 0.000697
# 5 -0.001160 0.000027 -0.001118 0.000000 0.040098 0.000000
# 6 0.000000 0.000000 0.000000 0.000697 0.000000 0.037422
#
#
# Mechanical properties :
#
#
# Convention : Reuss Voigt Hill
#
# Bulk Modulus (GPa) = 46.94052 67.62945 57.28499
# Shear Modulus (GPa) = 25.17752 28.86497 27.02124
#
# Velocity S-wave (km/s) = 3.57708 3.83008 3.70574
# Velocity P-wave (km/s) = 6.39660 7.34367 6.88644
#
# Compressibility (1/GPa) = 0.02130356
#
# Stress axis : x y z
#
# Youngs Moduli (GPa) = 107.52973 77.10845 37.35034
#
# Poissons Ratio (x) = 0.35966 -0.02533
# Poissons Ratio (y) = 0.50156 0.36914
# Poissons Ratio (z) = -0.07293 0.76207
#
# Static dielectric constant tensor:
#      x y z
#    x 3.730030 0.000000 -0.180200 
#    y 0.000000 3.797750 0.000000 
#    z -0.180200 0.000000 3.508770 
# 
# 
# High freq. dielectric constant tensor:
#      x y z
#    x 1.770750 0.000000 -0.009830 
#    y 0.000000 1.774310 0.000000 
#    z -0.009830 0.000000 1.755730 
# 
# From -- ./inp_files/29763.got.cif
#   From: 2010.06.25/outbox.cif.g09.slc.cpg/sg10_15_cif.got.tgz:29763.got - 2010.06.27 22:07:45.
