data_PCOD8062456
_publ_section_title
;
Structure prediction by ZEFSAII (Michael W. Deem and Ramdas Pophale) SiO2 
 PCOD8062456
Probable space group: P 2/M
;
_chemical_formula_sum "Si O2"
_cell_formula_units_Z 26
_cell_length_a 9.308980
_cell_length_b 11.932214
_cell_length_c 24.601282
_cell_angle_alpha 90.000000
_cell_angle_beta 29.048990
_cell_angle_gamma 90.000000
_cell_volume 1326.848493
_symmetry_space_group_name_H-M "P 2/M"
_symmetry_group_IT_number 10
_symmetry_cell_setting 'monoclinic'
loop_
_space_group_symop_operation_xyz
x,y,z
-x,y,-z
-x,-y,-z
x,-y,z
loop_
_atom_site_type_symbol
_atom_site_label
_atom_site_fract_x
_atom_site_fract_y
_atom_site_fract_z
Si Si1 0.649808 0.500000 0.610851
Si Si2 0.142847 0.873121 0.738658
Si Si3 0.524959 0.500000 0.055813
Si Si4 0.111874 0.873230 0.057275
Si Si5 0.790516 0.500000 0.142969
Si Si6 0.601142 0.266998 0.184682
Si Si7 0.338989 0.262281 0.158659
Si Si8 0.658479 0.741785 0.609650
O O1 0.454855 0.500000 0.729255
O O2 0.587770 0.620918 0.603280
O O3 0.000000 0.500000 0.500000
O O4 0.483567 0.834573 0.633021
O O5 0.990846 0.865724 0.847095
O O6 0.979118 0.788817 0.751801
O O7 0.138014 0.000000 0.717519
O O8 0.874843 0.500000 0.948115
O O9 0.500000 0.500000 0.000000
O O10 0.359580 0.392923 0.136335
O O11 0.868909 0.821841 0.096849
O O12 0.171749 0.000000 0.019183
O O13 0.412380 0.804183 0.956492
O O14 0.738388 0.388873 0.124781
O O15 0.375144 0.239401 0.211045
O O16 0.438179 0.264854 0.295849
O O17 0.000000 0.775200 0.500000
#
# Coordination Sequence:
#
# PCOD8062456 Si02
#       8
#     2   4   2   4   2   4   4   4
#     4   8  16  31  58  86 103 130 175 233 277 310
#     4  10  22  38  56  80 110 148 189 233 278 328
#     4  12  25  33  54  85 115 160 191 220 272 334
#     4  10  20  35  54  75 107 151 192 221 260 326
#     4  10  19  36  54  77 118 145 187 228 269 330
#     4  10  21  35  55  82 111 145 183 230 277 329
#     4  12  23  34  52  80 118 149 182 226 278 328
#     4   9  19  38  63  84 106 140 187 234 284 339
#
# _framework density 19.595303000000001
#
# number of rings (size 3 to 8) (size 9 to 14) (size 15 to 20)
#    0.000    1.846    1.538    2.769    4.308    4.000 
#    0.000    0.769    0.000    0.923    0.000    7.538 
#    0.000    0.000    0.000    0.000    0.000    0.000 
#
# Total GULP energy -322218.751869 kJ/mol
# GULP energy per Si atom -12393.028918 kJ/mol
# Density = 1.955070 g / cm^3
# Si number density = 19.595303 Si / 1000 Ang^3
#
#
#
# Elastic Constant Matrix: (Units=GPa)
#
#
# Indices 1 2 3 4 5 6 
#
# 1 100.2894 40.0552 21.3157 0.0000 -29.6195 0.0000
# 2 40.0552 147.6934 35.9144 0.0000 -23.4121 0.0000
# 3 21.3157 35.9144 78.0536 0.0000 -28.5825 0.0000
# 4 0.0000 0.0000 0.0000 22.5456 0.0000 -9.9509
# 5 -29.6195 -23.4121 -28.5825 0.0000 24.1981 0.0000
# 6 0.0000 0.0000 0.0000 -9.9509 0.0000 15.6223
#
#
#
# Elastic Compliance Matrix: (Units=1/GPa)
#
#
# Indices 1 2 3 4 5 6 
#
# 1 0.017170 -0.001939 0.005661 0.000000 0.025828 0.000000
# 2 -0.001939 0.008316 -0.002149 0.000000 0.003134 0.000000
# 3 0.005661 -0.002149 0.024725 0.000000 0.034055 0.000000
# 4 0.000000 0.000000 0.000000 0.061701 0.000000 0.039301
# 5 0.025828 0.003134 0.034055 0.000000 0.116197 0.000000
# 6 0.000000 0.000000 0.000000 0.039301 0.000000 0.089045
#
#
# Mechanical properties :
#
#
# Convention : Reuss Voigt Hill
#
# Bulk Modulus (GPa) = 18.74164 57.84523 38.29343
# Shear Modulus (GPa) = 15.06954 27.72328 21.39641
#
# Velocity S-wave (km/s) = 2.77616 3.76545 3.30800
# Velocity P-wave (km/s) = 4.45659 6.96340 5.84594
#
# Compressibility (1/GPa) = 0.05335713
#
# Stress axis : x y z
#
# Youngs Moduli (GPa) = 58.23970 120.24914 40.44419
#
# Poissons Ratio (x) = 0.23318 -0.22896
# Poissons Ratio (y) = 0.11293 0.08693
# Poissons Ratio (z) = -0.32970 0.25847
#
# Static dielectric constant tensor:
#      x y z
#    x 3.312430 0.000000 -0.109720 
#    y 0.000000 4.164000 0.000000 
#    z -0.109720 0.000000 3.460500 
# 
# 
# High freq. dielectric constant tensor:
#      x y z
#    x 1.743080 0.000000 -0.013960 
#    y 0.000000 1.783950 0.000000 
#    z -0.013960 0.000000 1.747130 
# 
# From -- ./inp_files/28167.got.cif
#   From: 2010.06.25/outbox.cif.g09.slc.cpg/sg10_15_cif.got.tgz:28167.got - 2010.06.27 22:07:45.
