data_PCOD8062346
_publ_section_title
;
Structure prediction by ZEFSAII (Michael W. Deem and Ramdas Pophale) SiO2 
 PCOD8062346
Probable space group: P 2/M
;
_chemical_formula_sum "Si O2"
_cell_formula_units_Z 24
_cell_length_a 8.981532
_cell_length_b 8.955913
_cell_length_c 30.898905
_cell_angle_alpha 90.000000
_cell_angle_beta 150.095239
_cell_angle_gamma 90.000000
_cell_volume 1239.140668
_symmetry_space_group_name_H-M "P 2/M"
_symmetry_group_IT_number 10
_symmetry_cell_setting 'monoclinic'
loop_
_space_group_symop_operation_xyz
x,y,z
-x,y,-z
-x,-y,-z
x,-y,z
loop_
_atom_site_type_symbol
_atom_site_label
_atom_site_fract_x
_atom_site_fract_y
_atom_site_fract_z
Si Si1 0.683385 0.324530 0.338242
Si Si2 0.163475 0.668180 0.995530
Si Si3 0.322429 0.174378 0.832330
Si Si4 0.364064 0.828211 0.335120
Si Si5 0.366684 0.175920 0.177940
Si Si6 0.692503 0.171139 0.507044
O O1 0.654242 0.500000 0.324507
O O2 0.545563 0.278209 0.349261
O O3 0.507112 0.243323 0.256020
O O4 0.027873 0.279799 0.424686
O O5 0.201390 0.500000 0.988025
O O6 0.967842 0.760194 0.911796
O O7 0.489433 0.741138 0.083253
O O8 0.000000 0.673823 0.000000
O O9 0.426405 0.222052 0.810496
O O10 0.980482 0.219982 0.752178
O O11 0.377284 0.000000 0.852706
O O12 0.484630 0.803735 0.413475
O O13 0.403536 0.000000 0.330502
O O14 0.343979 0.000000 0.177650
O O15 0.500000 0.215297 0.500000
O O16 0.805283 0.000000 0.538449
#
# Coordination Sequence:
#
# PCOD8062346 Si02
#       6
#     4   4   4   4   4   4
#     4  12  25  38  54  81 117 151 183 224 278 334
#     4   9  17  30  51  82 117 148 179 223 280 333
#     4   9  18  34  58  85 109 141 188 235 276 323
#     4  10  21  38  59  82 111 147 186 227 272 326
#     4  10  19  35  59  83 109 145 191 236 275 323
#     4  10  21  40  65  88 109 140 185 231 273 323
#
# _framework density 19.368262999999999
#
# number of rings (size 3 to 8) (size 9 to 14) (size 15 to 20)
#    0.000    2.000    0.000    4.000    0.000    9.000 
#    0.000    2.500    0.000    5.000    0.000    0.000 
#    0.000    0.000    0.000    0.000    0.000    0.000 
#
# Total GULP energy -297696.301073 kJ/mol
# GULP energy per Si atom -12404.012545 kJ/mol
# Density = 1.932418 g / cm^3
# Si number density = 19.368263 Si / 1000 Ang^3
#
#
#
# Elastic Constant Matrix: (Units=GPa)
#
#
# Indices 1 2 3 4 5 6 
#
# 1 84.1934 32.9887 40.2333 0.0000 21.3884 0.0000
# 2 32.9887 85.9916 47.8285 0.0000 12.4849 0.0000
# 3 40.2333 47.8285 133.2530 0.0001 32.0658 0.0001
# 4 0.0000 0.0000 0.0001 26.5280 0.0000 -4.8233
# 5 21.3884 12.4849 32.0658 0.0000 -26.3434 0.0000
# 6 0.0000 0.0000 0.0001 -4.8233 0.0000 13.9309
#
#
#
# Elastic Compliance Matrix: (Units=1/GPa)
#
#
# Indices 1 2 3 4 5 6 
#
# 1 0.014106 -0.003869 -0.004011 0.000000 0.004738 0.000000
# 2 -0.003869 0.015585 -0.004213 0.000000 -0.000883 0.000000
# 3 -0.004011 -0.004213 0.008888 0.000000 0.005566 0.000000
# 4 0.000000 0.000000 0.000000 0.040229 0.000000 0.013928
# 5 0.004738 -0.000883 0.005566 0.000000 -0.027757 0.000000
# 6 0.000000 0.000000 0.000000 0.013928 0.000000 0.076605
#
#
# Mechanical properties :
#
#
# Convention : Reuss Voigt Hill
#
# Bulk Modulus (GPa) = 69.47179 60.61546 65.04363
# Shear Modulus (GPa) = 31.92051 14.98227 23.45139
#
# Velocity S-wave (km/s) = 4.06406 2.78429 3.48345
# Velocity P-wave (km/s) = 7.61373 6.45760 7.05937
#
# Compressibility (1/GPa) = 0.01439433
#
# Stress axis : x y z
#
# Youngs Moduli (GPa) = 70.89071 64.16504 112.50756
#
# Poissons Ratio (x) = 0.24823 0.45122
# Poissons Ratio (y) = 0.27425 0.47402
# Poissons Ratio (z) = 0.28431 0.27034
#
# Static dielectric constant tensor:
#      x y z
#    x 3.414800 0.000000 0.021150 
#    y 0.000000 3.625430 0.000000 
#    z 0.021150 0.000000 3.746950 
# 
# 
# High freq. dielectric constant tensor:
#      x y z
#    x 1.737350 0.000000 0.000160 
#    y 0.000000 1.751370 0.000000 
#    z 0.000160 0.000000 1.772870 
# 
# From -- ./inp_files/27037.got.cif
#   From: 2010.06.25/outbox.cif.g09.slc.cpg/sg10_14_cif.got.tgz:27037.got - 2010.06.27 22:07:45.
