data_PCOD8062774
_publ_section_title
;
Structure prediction by ZEFSAII (Michael W. Deem and Ramdas Pophale) SiO2 
 PCOD8062774
Probable space group: P 2/M
;
_chemical_formula_sum "Si O2"
_cell_formula_units_Z 32
_cell_length_a 20.878594
_cell_length_b 8.760429
_cell_length_c 10.368646
_cell_angle_alpha 90.000000
_cell_angle_beta 56.192349
_cell_angle_gamma 90.000000
_cell_volume 1575.805997
_symmetry_space_group_name_H-M "P 2/M"
_symmetry_group_IT_number 10
_symmetry_cell_setting 'monoclinic'
loop_
_space_group_symop_operation_xyz
x,y,z
-x,y,-z
-x,-y,-z
x,-y,z
loop_
_atom_site_type_symbol
_atom_site_label
_atom_site_fract_x
_atom_site_fract_y
_atom_site_fract_z
Si Si1 0.645342 0.319651 0.600875
Si Si2 0.325302 0.820545 0.906656
Si Si3 0.036518 0.172802 0.265397
Si Si4 0.077240 0.322356 0.971998
Si Si5 0.723819 0.678335 0.771270
Si Si6 0.880000 0.173199 0.558910
Si Si7 0.246128 0.317924 0.746735
Si Si8 0.485027 0.678744 0.665460
O O1 0.652690 0.500000 0.583013
O O2 0.666484 0.265555 0.721394
O O3 0.703492 0.251119 0.427947
O O4 0.558691 0.267989 0.665875
O O5 0.277389 0.742359 0.847262
O O6 0.414326 0.774250 0.799069
O O7 0.316373 0.000000 0.902424
O O8 0.292118 0.772371 0.082187
O O9 0.945588 0.212728 0.380264
O O10 0.076910 0.290060 0.124137
O O11 0.080801 0.193349 0.347761
O O12 0.045543 0.000000 0.204412
O O13 0.073672 0.500000 0.948261
O O14 0.158040 0.260190 0.823657
O O15 0.000000 0.242512 0.000000
O O16 0.713094 0.500000 0.811975
O O17 0.809905 0.709569 0.623041
O O18 0.850092 0.000000 0.574775
O O19 0.250547 0.500000 0.749311
O O20 0.500000 0.718108 0.500000
O O21 0.467154 0.500000 0.702736
#
# Coordination Sequence:
#
# PCOD8062774 Si02
#       8
#     4   4   4   4   4   4   4   4
#     4   9  20  38  63  92 118 153 198 247 297 355
#     4  12  25  40  61  91 126 159 196 244 295 352
#     4   9  19  36  56  77 109 153 196 238 290 354
#     4  10  22  35  54  84 118 150 190 249 298 336
#     4  11  23  38  60  90 121 156 197 244 297 353
#     4   9  19  37  58  80 111 151 194 243 294 347
#     4  10  20  40  64  87 118 158 205 248 297 356
#     4  10  19  39  69  92 116 154 200 244 293 352
#
# _framework density 20.307068000000001
#
# number of rings (size 3 to 8) (size 9 to 14) (size 15 to 20)
#    0.000    2.000    1.250    3.000    1.750    4.500 
#    0.000    6.250    0.000    0.000    0.000    0.000 
#    0.000    0.000    0.000    0.000    0.000    0.000 
#
# Total GULP energy -396762.147815 kJ/mol
# GULP energy per Si atom -12398.817119 kJ/mol
# Density = 2.026085 g / cm^3
# Si number density = 20.307068 Si / 1000 Ang^3
#
#
#
# Elastic Constant Matrix: (Units=GPa)
#
#
# Indices 1 2 3 4 5 6 
#
# 1 104.6319 19.9331 29.0292 0.0000 -17.7908 0.0000
# 2 19.9331 30.1146 15.4592 0.0000 -4.8089 0.0000
# 3 29.0292 15.4592 71.0908 0.0000 -11.5712 0.0000
# 4 0.0000 0.0000 0.0000 22.8591 0.0000 -6.2887
# 5 -17.7908 -4.8089 -11.5712 0.0000 35.5940 0.0000
# 6 0.0000 0.0000 0.0000 -6.2887 0.0000 9.9584
#
#
#
# Elastic Compliance Matrix: (Units=1/GPa)
#
#
# Indices 1 2 3 4 5 6 
#
# 1 0.012252 -0.005865 -0.003020 0.000000 0.004350 0.000000
# 2 -0.005865 0.040406 -0.006314 0.000000 0.000475 0.000000
# 3 -0.003020 -0.006314 0.017198 0.000000 0.003229 0.000000
# 4 0.000000 0.000000 0.000000 0.052944 0.000000 0.033434
# 5 0.004350 0.000475 0.003229 0.000000 0.031382 0.000000
# 6 0.000000 0.000000 0.000000 0.033434 0.000000 0.121531
#
#
# Mechanical properties :
#
#
# Convention : Reuss Voigt Hill
#
# Bulk Modulus (GPa) = 25.34332 37.18668 31.26500
# Shear Modulus (GPa) = 15.66105 23.11005 19.38555
#
# Velocity S-wave (km/s) = 2.78008 3.37713 3.09305
# Velocity P-wave (km/s) = 4.77622 5.79298 5.30900
#
# Compressibility (1/GPa) = 0.03945813
#
# Stress axis : x y z
#
# Youngs Moduli (GPa) = 81.61932 24.74893 58.14589
#
# Poissons Ratio (x) = 0.14515 0.17558
# Poissons Ratio (y) = 0.47870 0.36715
# Poissons Ratio (z) = 0.24646 0.15627
#
# Static dielectric constant tensor:
#      x y z
#    x 3.995590 0.000000 -0.242680 
#    y 0.000000 3.386030 0.000000 
#    z -0.242680 0.000000 3.887250 
# 
# 
# High freq. dielectric constant tensor:
#      x y z
#    x 1.803560 0.000000 -0.008300 
#    y 0.000000 1.764200 0.000000 
#    z -0.008300 0.000000 1.801200 
# 
# From -- ./inp_files/55222.got.cif
#   From: 2010.06.25/outbox.cif.g09.slc.cpg/sg10_28_cif.got.tgz:55222.got - 2010.06.27 22:07:45.
