data_PCOD8062417
_publ_section_title
;
Structure prediction by ZEFSAII (Michael W. Deem and Ramdas Pophale) SiO2 
 PCOD8062417
Probable space group: P 2/M
;
_chemical_formula_sum "Si O2"
_cell_formula_units_Z 32
_cell_length_a 19.756755
_cell_length_b 9.069448
_cell_length_c 25.279219
_cell_angle_alpha 90.000000
_cell_angle_beta 158.579228
_cell_angle_gamma 90.000000
_cell_volume 1654.275744
_symmetry_space_group_name_H-M "P 2/M"
_symmetry_group_IT_number 10
_symmetry_cell_setting 'monoclinic'
loop_
_space_group_symop_operation_xyz
x,y,z
-x,y,-z
-x,-y,-z
x,-y,z
loop_
_atom_site_type_symbol
_atom_site_label
_atom_site_fract_x
_atom_site_fract_y
_atom_site_fract_z
Si Si1 0.286259 0.826358 0.347252
Si Si2 0.917786 0.174236 0.694376
Si Si3 0.669753 0.825510 0.979944
Si Si4 0.628099 0.331865 0.843493
Si Si5 0.772270 0.329960 0.483921
Si Si6 0.992395 0.326232 0.934274
Si Si7 0.001138 0.826254 0.439754
Si Si8 0.410221 0.825166 0.882358
O O1 0.500000 0.776723 0.500000
O O2 0.208320 0.777523 0.347729
O O3 0.174100 0.749883 0.218483
O O4 0.263802 0.000000 0.322979
O O5 0.849520 0.249649 0.591462
O O6 0.124974 0.231121 0.856696
O O7 0.911373 0.000000 0.680454
O O8 0.668177 0.000000 0.977774
O O9 0.600450 0.770173 0.873575
O O10 0.522732 0.760354 0.914680
O O11 0.649909 0.500000 0.878224
O O12 0.450089 0.313251 0.676306
O O13 0.810532 0.278448 0.945925
O O14 0.832709 0.500000 0.529331
O O15 0.845970 0.258905 0.483036
O O16 0.958228 0.500000 0.906599
O O17 0.000000 0.270221 0.000000
O O18 0.000000 0.776908 0.500000
O O19 0.802935 0.779312 0.272590
O O20 0.040805 0.000000 0.463766
O O21 0.430024 0.000000 0.895998
O O22 0.500000 0.756565 0.000000
#
# Coordination Sequence:
#
# PCOD8062417 Si02
#       8
#     4   4   4   4   4   4   4   4
#     4  10  22  40  61  90 123 151 185 235 291 339
#     4  10  21  38  59  85 117 151 190 236 285 344
#     4  10  19  35  61  86 108 143 191 237 286 342
#     4  10  22  39  56  81 115 149 190 238 281 329
#     4  11  24  38  56  83 117 156 195 237 287 340
#     4  10  22  40  62  86 115 154 197 235 275 334
#     4  10  20  36  57  81 110 146 191 239 289 343
#     4   9  17  30  52  80 107 137 178 230 280 331
#
# _framework density 19.343810999999999
#
# number of rings (size 3 to 8) (size 9 to 14) (size 15 to 20)
#    0.000    2.000    1.250    1.875    1.750    5.750 
#    0.000    0.625    0.000    1.500    0.000    0.000 
#    0.000    0.000    0.000    0.000    0.000    0.000 
#
# Total GULP energy -396855.197497 kJ/mol
# GULP energy per Si atom -12401.724922 kJ/mol
# Density = 1.929978 g / cm^3
# Si number density = 19.343811 Si / 1000 Ang^3
#
#
#
# Elastic Constant Matrix: (Units=GPa)
#
#
# Indices 1 2 3 4 5 6 
#
# 1 120.9875 29.5701 36.2478 0.0000 -5.6732 0.0000
# 2 29.5701 35.2792 30.1724 0.0000 -3.5154 0.0000
# 3 36.2478 30.1724 98.7643 0.0000 -4.2448 0.0000
# 4 0.0000 0.0000 0.0000 27.4679 0.0000 -7.2690
# 5 -5.6732 -3.5154 -4.2448 0.0000 41.5373 0.0000
# 6 0.0000 0.0000 0.0000 -7.2690 0.0000 24.7222
#
#
#
# Elastic Compliance Matrix: (Units=1/GPa)
#
#
# Indices 1 2 3 4 5 6 
#
# 1 0.010593 -0.007463 -0.001580 0.000000 0.000654 0.000000
# 2 -0.007463 0.043804 -0.010574 0.000000 0.001607 0.000000
# 3 -0.001580 -0.010574 0.013949 0.000000 0.000315 0.000000
# 4 0.000000 0.000000 0.000000 0.039478 0.000000 0.011608
# 5 0.000654 0.001607 0.000315 0.000000 0.024332 0.000000
# 6 0.000000 0.000000 0.000000 0.011608 0.000000 0.043862
#
#
# Mechanical properties :
#
#
# Convention : Reuss Voigt Hill
#
# Bulk Modulus (GPa) = 34.34921 49.66797 42.00859
# Shear Modulus (GPa) = 22.22656 29.34820 25.78738
#
# Velocity S-wave (km/s) = 3.39341 3.89934 3.65514
# Velocity P-wave (km/s) = 5.75755 6.78272 6.29105
#
# Compressibility (1/GPa) = 0.02911275
#
# Stress axis : x y z
#
# Youngs Moduli (GPa) = 94.39993 22.82901 71.69037
#
# Poissons Ratio (x) = 0.17036 0.11327
# Poissons Ratio (y) = 0.70447 0.75806
# Poissons Ratio (z) = 0.14915 0.24140
#
# Static dielectric constant tensor:
#      x y z
#    x 3.730250 0.000000 0.133670 
#    y 0.000000 3.284920 0.000000 
#    z 0.133670 0.000000 3.722660 
# 
# 
# High freq. dielectric constant tensor:
#      x y z
#    x 1.765450 0.000000 0.002600 
#    y 0.000000 1.726660 0.000000 
#    z 0.002600 0.000000 1.769140 
# 
# From -- ./inp_files/93762.got.cif
#   From: 2010.06.25/outbox.cif.g09.slc.cpg/sg10_47_cif.got.tgz:93762.got - 2010.06.27 22:07:45.
