data_PCOD8062170
_publ_section_title
;
Structure prediction by ZEFSAII (Michael W. Deem and Ramdas Pophale) SiO2 
 PCOD8062170
Probable space group: P 2/M
;
_chemical_formula_sum "Si O2"
_cell_formula_units_Z 20
_cell_length_a 17.315342
_cell_length_b 7.832259
_cell_length_c 24.182881
_cell_angle_alpha 90.000000
_cell_angle_beta 160.670888
_cell_angle_gamma 90.000000
_cell_volume 1085.540766
_symmetry_space_group_name_H-M "P 2/M"
_symmetry_group_IT_number 10
_symmetry_cell_setting 'monoclinic'
loop_
_space_group_symop_operation_xyz
x,y,z
-x,y,-z
-x,-y,-z
x,-y,z
loop_
_atom_site_type_symbol
_atom_site_label
_atom_site_fract_x
_atom_site_fract_y
_atom_site_fract_z
Si Si1 0.128588 0.804644 0.888861
Si Si2 0.334705 0.802194 0.744661
Si Si3 0.468265 0.500000 0.568266
Si Si4 0.216134 0.810920 0.442391
Si Si5 0.124375 0.500000 0.233106
Si Si6 0.915844 0.692065 0.531517
O O1 0.001448 0.773129 0.744789
O O2 0.030359 0.672492 0.868113
O O3 0.094428 0.000000 0.887034
O O4 0.398569 0.763107 0.060924
O O5 0.277539 0.733466 0.645153
O O6 0.175765 0.711528 0.683055
O O7 0.273046 0.000000 0.704856
O O8 0.418693 0.670806 0.570335
O O9 0.308718 0.500000 0.406757
O O10 0.739394 0.500000 0.733291
O O11 0.121315 0.811210 0.440687
O O12 0.318915 0.000000 0.499495
O O13 0.881828 0.500000 0.529167
#
# Coordination Sequence:
#
# PCOD8062170 Si02
#       6
#     4   4   2   4   2   4
#     4   9  20  34  54  80 104 136 173 210 258 307
#     4  10  20  35  52  75 105 140 177 209 252 305
#     4   9  18  34  50  83 100 138 169 209 260 317
#     4  10  19  35  54  77 108 136 170 215 256 301
#     4   9  18  32  56  73 112 130 167 215 262 303
#     4  11  21  33  51  78 105 139 180 208 251 307
#
# _framework density 18.423997
#
# number of rings (size 3 to 8) (size 9 to 14) (size 15 to 20)
#    0.000    2.200    1.000    3.600    2.800    1.600 
#    0.000    8.000    0.000    2.400    0.000    4.200 
#    0.000    0.000    0.000    0.000    0.000    0.000 
#
# Total GULP energy -248000.968623 kJ/mol
# GULP energy per Si atom -12400.048431 kJ/mol
# Density = 1.838206 g / cm^3
# Si number density = 18.423997 Si / 1000 Ang^3
#
#
#
# Elastic Constant Matrix: (Units=GPa)
#
#
# Indices 1 2 3 4 5 6 
#
# 1 95.4544 42.5226 48.2221 0.0000 15.8545 0.0000
# 2 42.5226 135.4369 31.0189 0.0000 30.4107 0.0000
# 3 48.2221 31.0189 43.2145 0.0000 11.9647 0.0000
# 4 0.0000 0.0000 0.0000 24.9074 0.0000 2.1962
# 5 15.8545 30.4107 11.9647 0.0000 43.7760 0.0000
# 6 0.0000 0.0000 0.0000 2.1962 0.0000 21.6077
#
#
#
# Elastic Compliance Matrix: (Units=1/GPa)
#
#
# Indices 1 2 3 4 5 6 
#
# 1 0.024351 -0.001575 -0.025861 0.000000 -0.000657 0.000000
# 2 -0.001575 0.009964 -0.003933 0.000000 -0.005276 0.000000
# 3 -0.025861 -0.003933 0.055685 0.000000 -0.003121 0.000000
# 4 0.000000 0.000000 0.000000 0.040512 0.000000 -0.004118
# 5 -0.000657 -0.005276 -0.003121 0.000000 0.027600 0.000000
# 6 0.000000 0.000000 0.000000 -0.004118 0.000000 0.046698
#
#
# Mechanical properties :
#
#
# Convention : Reuss Voigt Hill
#
# Bulk Modulus (GPa) = 36.68125 57.51477 47.09801
# Shear Modulus (GPa) = 18.07435 28.21439 23.14437
#
# Velocity S-wave (km/s) = 3.13553 3.91755 3.54815
# Velocity P-wave (km/s) = 5.74991 7.19361 6.51189
#
# Compressibility (1/GPa) = 0.02726189
#
# Stress axis : x y z
#
# Youngs Moduli (GPa) = 41.06539 100.36564 17.95818
#
# Poissons Ratio (x) = 0.15809 0.46441
# Poissons Ratio (y) = 0.06469 0.07063
# Poissons Ratio (z) = 1.06197 0.39476
#
# Static dielectric constant tensor:
#      x y z
#    x 3.210090 0.000000 0.119240 
#    y 0.000000 3.631270 0.000000 
#    z 0.119240 0.000000 3.273950 
# 
# 
# High freq. dielectric constant tensor:
#      x y z
#    x 1.695220 0.000000 0.007450 
#    y 0.000000 1.736950 0.000000 
#    z 0.007450 0.000000 1.693450 
# 
# From -- ./inp_files/89432.got.cif
#   From: 2010.06.25/outbox.cif.g09.slc.cpg/sg10_45_cif.got.tgz:89432.got - 2010.06.27 22:07:45.
