data_PCOD8062137
_publ_section_title
;
Structure prediction by ZEFSAII (Michael W. Deem and Ramdas Pophale) SiO2 
 PCOD8062137
Probable space group: P 2/M
;
_chemical_formula_sum "Si O2"
_cell_formula_units_Z 32
_cell_length_a 14.031041
_cell_length_b 8.967346
_cell_length_c 23.518111
_cell_angle_alpha 90.000000
_cell_angle_beta 33.039404
_cell_angle_gamma 90.000000
_cell_volume 1613.335156
_symmetry_space_group_name_H-M "P 2/M"
_symmetry_group_IT_number 10
_symmetry_cell_setting 'monoclinic'
loop_
_space_group_symop_operation_xyz
x,y,z
-x,y,-z
-x,-y,-z
x,-y,z
loop_
_atom_site_type_symbol
_atom_site_label
_atom_site_fract_x
_atom_site_fract_y
_atom_site_fract_z
Si Si1 0.302127 0.671231 0.965093
Si Si2 0.201879 0.174995 0.901517
Si Si3 0.977407 0.326346 0.203256
Si Si4 0.316456 0.824098 0.451727
Si Si5 0.695996 0.671280 0.778809
Si Si6 0.205330 0.671424 0.395741
Si Si7 0.000628 0.175846 0.689092
Si Si8 0.334112 0.675854 0.724048
O O1 0.274453 0.500000 0.959005
O O2 0.280671 0.778733 0.922383
O O3 0.493575 0.693770 0.896514
O O4 0.163833 0.714499 0.082672
O O5 0.306119 0.261706 0.801022
O O6 0.227390 0.000000 0.879326
O O7 0.000000 0.222228 0.000000
O O8 0.964907 0.500000 0.224540
O O9 0.827080 0.276919 0.234855
O O10 0.950570 0.233291 0.273354
O O11 0.294911 0.775596 0.397346
O O12 0.489994 0.746848 0.390241
O O13 0.150023 0.768081 0.571014
O O14 0.339190 0.000000 0.444029
O O15 0.754675 0.500000 0.754881
O O16 0.724091 0.726112 0.700291
O O17 0.812323 0.764568 0.764118
O O18 0.257350 0.500000 0.381780
O O19 0.000000 0.695007 0.500000
O O20 0.991650 0.000000 0.694884
O O21 0.355365 0.500000 0.716950
#
# Coordination Sequence:
#
# PCOD8062137 Si02
#       8
#     4   4   4   4   4   4   4   4
#     4  10  21  39  63  91 121 159 203 247 296 349
#     4  11  22  36  60  94 129 163 194 237 299 360
#     4  10  23  42  63  86 115 155 206 254 296 348
#     4  11  24  40  60  89 123 158 196 246 307 367
#     4  10  21  38  62  89 120 155 195 245 295 351
#     4  10  19  34  60  92 121 155 197 240 292 357
#     4  11  25  42  61  85 118 159 199 246 306 363
#     4  11  23  40  64  90 119 159 203 249 297 352
#
# _framework density 19.834688
#
# number of rings (size 3 to 8) (size 9 to 14) (size 15 to 20)
#    0.000    1.500    2.500    2.250    0.000    6.750 
#    0.000    5.000    0.000    0.000    0.000    0.000 
#    0.000    0.000    0.000    0.000    0.000    0.000 
#
# Total GULP energy -397007.681610 kJ/mol
# GULP energy per Si atom -12406.490050 kJ/mol
# Density = 1.978954 g / cm^3
# Si number density = 19.834688 Si / 1000 Ang^3
#
#
#
# Elastic Constant Matrix: (Units=GPa)
#
#
# Indices 1 2 3 4 5 6 
#
# 1 71.2687 36.4752 48.0171 0.0000 -0.7011 0.0000
# 2 36.4752 67.3224 35.5461 0.0000 -2.4239 0.0000
# 3 48.0171 35.5461 84.7815 0.0000 -13.9154 0.0000
# 4 0.0000 0.0000 0.0000 29.1267 0.0000 -0.9306
# 5 -0.7011 -2.4239 -13.9154 0.0000 31.6254 0.0000
# 6 0.0000 0.0000 0.0000 -0.9306 0.0000 25.4848
#
#
#
# Elastic Compliance Matrix: (Units=1/GPa)
#
#
# Indices 1 2 3 4 5 6 
#
# 1 0.026530 -0.007909 -0.012624 0.000000 -0.005573 0.000000
# 2 -0.007909 0.021580 -0.004663 0.000000 -0.000573 0.000000
# 3 -0.012624 -0.004663 0.022414 0.000000 0.009225 0.000000
# 4 0.000000 0.000000 0.000000 0.034373 0.000000 0.001255
# 5 -0.005573 -0.000573 0.009225 0.000000 0.035512 0.000000
# 6 0.000000 0.000000 0.000000 0.001255 0.000000 0.039285
#
#
# Mechanical properties :
#
#
# Convention : Reuss Voigt Hill
#
# Bulk Modulus (GPa) = 49.67100 51.49437 50.58268
# Shear Modulus (GPa) = 21.11522 24.13633 22.62577
#
# Velocity S-wave (km/s) = 3.26630 3.49216 3.38111
# Velocity P-wave (km/s) = 6.27071 6.50218 6.38749
#
# Compressibility (1/GPa) = 0.02013247
#
# Stress axis : x y z
#
# Youngs Moduli (GPa) = 37.69327 46.33891 44.61510
#
# Poissons Ratio (x) = 0.36649 0.56323
# Poissons Ratio (y) = 0.29811 0.20802
# Poissons Ratio (z) = 0.47585 0.21606
#
# Static dielectric constant tensor:
#      x y z
#    x 3.513670 0.000000 -0.153290 
#    y 0.000000 3.507130 0.000000 
#    z -0.153290 0.000000 3.823450 
# 
# 
# High freq. dielectric constant tensor:
#      x y z
#    x 1.771780 0.000000 -0.011710 
#    y 0.000000 1.769290 0.000000 
#    z -0.011710 0.000000 1.785850 
# 
# From -- ./inp_files/71585.got.cif
#   From: 2010.06.25/outbox.cif.g09.slc.cpg/sg10_36_cif.got.tgz:71585.got - 2010.06.27 22:07:45.
