data_PCOD8062686
_publ_section_title
;
Structure prediction by ZEFSAII (Michael W. Deem and Ramdas Pophale) SiO2 
 PCOD8062686
Probable space group: P 2/M
;
_chemical_formula_sum "Si O2"
_cell_formula_units_Z 32
_cell_length_a 11.339273
_cell_length_b 13.991051
_cell_length_c 9.795452
_cell_angle_alpha 90.000000
_cell_angle_beta 90.894164
_cell_angle_gamma 90.000000
_cell_volume 1553.843028
_symmetry_space_group_name_H-M "P 2/M"
_symmetry_group_IT_number 10
_symmetry_cell_setting 'monoclinic'
loop_
_space_group_symop_operation_xyz
x,y,z
-x,y,-z
-x,-y,-z
x,-y,z
loop_
_atom_site_type_symbol
_atom_site_label
_atom_site_fract_x
_atom_site_fract_y
_atom_site_fract_z
Si Si1 0.184076 0.105551 0.369476
Si Si2 0.256990 0.610708 0.230618
Si Si3 0.130049 0.299853 0.467678
Si Si4 0.503225 0.690570 0.334746
Si Si5 0.746989 0.611481 0.281851
Si Si6 0.873149 0.102781 0.933689
Si Si7 0.458607 0.102536 0.346720
Si Si8 0.859241 0.304434 0.023234
O O1 0.141021 0.184431 0.477757
O O2 0.111799 0.118091 0.228144
O O3 0.320069 0.122746 0.336979
O O4 0.163771 0.000000 0.433239
O O5 0.253208 0.500000 0.268271
O O6 0.159962 0.667960 0.315493
O O7 0.386134 0.649885 0.264390
O O8 0.217688 0.625601 0.073566
O O9 0.221605 0.350952 0.568059
O O10 0.000000 0.334701 0.500000
O O11 0.500000 0.680167 0.500000
O O12 0.608148 0.632079 0.265211
O O13 0.520450 0.802068 0.288972
O O14 0.772480 0.500000 0.267605
O O15 0.829077 0.667353 0.176808
O O16 0.811575 0.195839 0.998384
O O17 0.806078 0.000000 0.958760
O O18 0.000000 0.094015 0.000000
O O19 0.500000 0.089422 0.500000
O O20 0.487792 0.000000 0.271666
O O21 0.000000 0.313648 0.000000
#
# Coordination Sequence:
#
# PCOD8062686 Si02
#       8
#     4   4   4   4   4   4   4   4
#     4  10  19  37  62  93 128 165 209 258 319 387
#     4  12  24  41  66  89 118 172 225 264 321 384
#     4  12  24  39  61  94 129 166 214 269 321 385
#     4  11  21  41  65  91 129 164 212 271 325 383
#     4  12  27  43  63  93 129 172 219 274 327 372
#     4   9  18  35  63  89 117 163 209 251 310 382
#     4   9  16  30  58  88 119 159 200 248 314 380
#     4  11  24  44  66  92 130 171 213 267 324 389
#
# _framework density 20.594100000000001
#
# number of rings (size 3 to 8) (size 9 to 14) (size 15 to 20)
#    0.000    1.250    3.750    2.625    1.750    4.250 
#    0.000    2.500    0.000    0.000    0.000    4.375 
#    0.000    0.000    0.000    0.000    0.000    0.000 
#
# Total GULP energy -396637.136290 kJ/mol
# GULP energy per Si atom -12394.910509 kJ/mol
# Density = 2.054723 g / cm^3
# Si number density = 20.594100 Si / 1000 Ang^3
#
#
#
# Elastic Constant Matrix: (Units=GPa)
#
#
# Indices 1 2 3 4 5 6 
#
# 1 83.0107 30.0877 27.2189 0.0000 9.9788 0.0000
# 2 30.0877 163.8597 18.1470 0.0000 -8.3230 0.0000
# 3 27.2189 18.1470 49.0520 0.0000 4.0580 0.0000
# 4 0.0000 0.0000 0.0000 31.3959 0.0000 1.3721
# 5 9.9788 -8.3230 4.0580 0.0000 33.8442 0.0000
# 6 0.0000 0.0000 0.0000 1.3721 0.0000 22.2596
#
#
#
# Elastic Compliance Matrix: (Units=1/GPa)
#
#
# Indices 1 2 3 4 5 6 
#
# 1 0.015897 -0.002296 -0.007613 0.000000 -0.004339 0.000000
# 2 -0.002296 0.006814 -0.001456 0.000000 0.002527 0.000000
# 3 -0.007613 -0.001456 0.025244 0.000000 -0.001140 0.000000
# 4 0.000000 0.000000 0.000000 0.031937 0.000000 -0.001969
# 5 -0.004339 0.002527 -0.001140 0.000000 0.031585 0.000000
# 6 0.000000 0.000000 0.000000 -0.001969 0.000000 0.045046
#
#
# Mechanical properties :
#
#
# Convention : Reuss Voigt Hill
#
# Bulk Modulus (GPa) = 39.64303 49.64775 44.64539
# Shear Modulus (GPa) = 26.64396 32.19785 29.42090
#
# Velocity S-wave (km/s) = 3.60080 3.95834 3.78379
# Velocity P-wave (km/s) = 6.04807 6.71203 6.38868
#
# Compressibility (1/GPa) = 0.02522511
#
# Stress axis : x y z
#
# Youngs Moduli (GPa) = 62.90630 146.75655 39.61398
#
# Poissons Ratio (x) = 0.33699 0.30156
# Poissons Ratio (y) = 0.14445 0.05767
# Poissons Ratio (z) = 0.47888 0.21364
#
# Static dielectric constant tensor:
#      x y z
#    x 3.602710 0.000000 0.276010 
#    y 0.000000 4.441310 0.000000 
#    z 0.276010 0.000000 3.517230 
# 
# 
# High freq. dielectric constant tensor:
#      x y z
#    x 1.794330 0.000000 0.034700 
#    y 0.000000 1.835780 0.000000 
#    z 0.034700 0.000000 1.777540 
# 
# From -- ./inp_files/25350.got.cif
#   From: 2010.06.25/outbox.cif.g09.slc.cpg/sg10_13_cif.got.tgz:25350.got - 2010.06.27 22:07:45.
