data_PCOD8062616
_publ_section_title
;
Structure prediction by ZEFSAII (Michael W. Deem and Ramdas Pophale) SiO2 
 PCOD8062616
Probable space group: P 2/M
;
_chemical_formula_sum "Si O2"
_cell_formula_units_Z 24
_cell_length_a 9.750724
_cell_length_b 8.768760
_cell_length_c 16.041191
_cell_angle_alpha 90.000000
_cell_angle_beta 59.992414
_cell_angle_gamma 90.000000
_cell_volume 1187.706370
_symmetry_space_group_name_H-M "P 2/M"
_symmetry_group_IT_number 10
_symmetry_cell_setting 'monoclinic'
loop_
_space_group_symop_operation_xyz
x,y,z
-x,y,-z
-x,-y,-z
x,-y,z
loop_
_atom_site_type_symbol
_atom_site_label
_atom_site_fract_x
_atom_site_fract_y
_atom_site_fract_z
Si Si1 0.323262 0.179097 0.031485
Si Si2 0.092856 0.179137 0.249233
Si Si3 0.478145 0.179569 0.331057
Si Si4 0.842623 0.679410 0.595249
Si Si5 0.333876 0.327383 0.857989
Si Si6 0.215840 0.327098 0.721624
O O1 0.205005 0.231937 0.139682
O O2 0.315604 0.000000 0.019501
O O3 0.500000 0.233543 0.000000
O O4 0.266990 0.258621 0.963490
O O5 0.149999 0.269930 0.311828
O O6 0.913025 0.221390 0.282600
O O7 0.106483 0.000000 0.262501
O O8 0.303968 0.239678 0.406825
O O9 0.517838 0.227483 0.222574
O O10 0.608864 0.258761 0.352082
O O11 0.486139 0.000000 0.339618
O O12 0.818054 0.500000 0.597126
O O13 0.000000 0.733096 0.500000
O O14 0.393006 0.500000 0.854266
O O15 0.195473 0.323546 0.829090
O O16 0.202459 0.500000 0.691429
#
# Coordination Sequence:
#
# PCOD8062616 Si02
#       6
#     4   4   4   4   4   4
#     4  10  21  35  53  83 121 159 198 243 293 345
#     4  11  23  38  60  90 121 155 199 250 298 347
#     4  10  19  36  62  88 118 154 194 242 291 348
#     4  11  24  42  64  89 118 154 194 241 299 358
#     4   9  19  34  56  83 115 158 199 234 285 346
#     4   9  20  38  59  86 121 160 199 241 295 352
#
# _framework density 20.207013
#
# number of rings (size 3 to 8) (size 9 to 14) (size 15 to 20)
#    1.000    1.000    0.000    4.000    0.000    5.000 
#    0.000    4.167    0.000    5.000    0.000    0.000 
#    0.000    0.000    0.000    0.000    0.000    0.000 
#
# Total GULP energy -297527.391982 kJ/mol
# GULP energy per Si atom -12396.974666 kJ/mol
# Density = 2.016102 g / cm^3
# Si number density = 20.207013 Si / 1000 Ang^3
#
#
#
# Elastic Constant Matrix: (Units=GPa)
#
#
# Indices 1 2 3 4 5 6 
#
# 1 86.5446 10.6304 7.9699 0.0000 -25.8124 0.0000
# 2 10.6304 76.5343 18.8354 0.0000 -9.2161 0.0000
# 3 7.9699 18.8354 39.7937 0.0000 -24.2509 0.0000
# 4 0.0000 0.0000 0.0000 27.0717 0.0000 -4.0751
# 5 -25.8124 -9.2161 -24.2509 0.0000 27.3494 0.0000
# 6 0.0000 0.0000 0.0000 -4.0751 0.0000 26.4421
#
#
#
# Elastic Compliance Matrix: (Units=1/GPa)
#
#
# Indices 1 2 3 4 5 6 
#
# 1 0.020689 -0.003272 0.018782 0.000000 0.035079 0.000000
# 2 -0.003272 0.015396 -0.011645 0.000000 -0.008225 0.000000
# 3 0.018782 -0.011645 0.076782 0.000000 0.081886 0.000000
# 4 0.000000 0.000000 0.000000 0.037816 0.000000 0.005828
# 5 0.035079 -0.008225 0.081886 0.000000 0.139508 0.000000
# 6 0.000000 0.000000 0.000000 0.005828 0.000000 0.038717
#
#
# Mechanical properties :
#
#
# Convention : Reuss Voigt Hill
#
# Bulk Modulus (GPa) = 8.29197 30.86045 19.57621
# Shear Modulus (GPa) = 13.83602 27.20177 20.51889
#
# Velocity S-wave (km/s) = 2.61954 3.67298 3.19004
# Velocity P-wave (km/s) = 3.64167 5.77001 4.82466
#
# Compressibility (1/GPa) = 0.12059862
#
# Stress axis : x y z
#
# Youngs Moduli (GPa) = 48.33405 64.95278 13.02390
#
# Poissons Ratio (x) = 0.21253 -0.24462
# Poissons Ratio (y) = 0.15815 0.15166
# Poissons Ratio (z) = -0.90783 0.75635
#
# Static dielectric constant tensor:
#      x y z
#    x 3.577480 0.000000 -0.087480 
#    y 0.000000 3.584060 0.000000 
#    z -0.087480 0.000000 3.512620 
# 
# 
# High freq. dielectric constant tensor:
#      x y z
#    x 1.786180 0.000000 -0.004820 
#    y 0.000000 1.797610 0.000000 
#    z -0.004820 0.000000 1.767390 
# 
# From -- ./inp_files/75893.got.cif
#   From: 2010.06.25/outbox.cif.g09.slc.cpg/sg10_38_cif.got.tgz:75893.got - 2010.06.27 22:07:45.
