data_PCOD8062162
_publ_section_title
;
Structure prediction by ZEFSAII (Michael W. Deem and Ramdas Pophale) SiO2 
 PCOD8062162
Probable space group: P 2/M
;
_chemical_formula_sum "Si O2"
_cell_formula_units_Z 24
_cell_length_a 5.198208
_cell_length_b 15.223603
_cell_length_c 20.347073
_cell_angle_alpha 90.000000
_cell_angle_beta 119.086322
_cell_angle_gamma 90.000000
_cell_volume 1407.112985
_symmetry_space_group_name_H-M "P 2/M"
_symmetry_group_IT_number 10
_symmetry_cell_setting 'monoclinic'
loop_
_space_group_symop_operation_xyz
x,y,z
-x,y,-z
-x,-y,-z
x,-y,z
loop_
_atom_site_type_symbol
_atom_site_label
_atom_site_fract_x
_atom_site_fract_y
_atom_site_fract_z
Si Si1 0.880750 0.328219 0.300399
Si Si2 0.524253 0.402078 0.645683
Si Si3 0.399737 0.236845 0.416499
Si Si4 0.667227 0.899654 0.702931
Si Si5 0.674706 0.836984 0.212821
Si Si6 0.339502 0.897305 0.046703
O O1 0.659700 0.392258 0.310571
O O2 0.702795 0.267892 0.227417
O O3 0.129062 0.386928 0.294410
O O4 0.050886 0.260672 0.371736
O O5 0.473733 0.500000 0.610647
O O6 0.423691 0.327339 0.580625
O O7 0.500000 0.203076 0.500000
O O8 0.464366 0.161177 0.371292
O O9 0.486736 0.883304 0.746646
O O10 0.008585 0.880848 0.759296
O O11 0.626003 0.000000 0.675681
O O12 0.481891 0.844994 0.124048
O O13 0.379865 0.000000 0.065756
O O14 0.500000 0.868841 0.000000
O O15 0.000000 0.870706 0.000000
#
# Coordination Sequence:
#
# PCOD8062162 Si02
#       6
#     4   4   4   4   4   4
#     4   9  19  35  52  75  98 134 168 212 250 311
#     4  10  19  35  54  75 101 128 167 214 266 320
#     4   9  21  36  50  73 105 134 173 220 262 299
#     4  11  21  34  53  74  97 143 185 212 252 291
#     4  11  19  37  54  72 106 139 175 209 247 301
#     4  10  20  31  47  76 107 135 167 204 246 294
#
# _framework density 17.0562
#
# number of rings (size 3 to 8) (size 9 to 14) (size 15 to 20)
#    1.000    1.000    1.667    3.000    0.000    2.667 
#    0.000    0.833    0.000    3.000    0.000    0.000 
#    0.000   13.333    0.000    0.000    0.000    0.000 
#
# Total GULP energy -297438.930193 kJ/mol
# GULP energy per Si atom -12393.288758 kJ/mol
# Density = 1.701738 g / cm^3
# Si number density = 17.056200 Si / 1000 Ang^3
#
#
#
# Elastic Constant Matrix: (Units=GPa)
#
#
# Indices 1 2 3 4 5 6 
#
# 1 100.9145 11.7658 20.0379 0.0000 -10.0229 0.0000
# 2 11.7658 81.6215 32.2533 0.0000 -4.4879 0.0000
# 3 20.0379 32.2533 108.4447 0.0000 0.9839 0.0000
# 4 0.0000 0.0000 0.0000 9.4232 0.0000 -1.3749
# 5 -10.0229 -4.4879 0.9839 0.0000 18.6895 0.0000
# 6 0.0000 0.0000 0.0000 -1.3749 0.0000 15.8121
#
#
#
# Elastic Compliance Matrix: (Units=1/GPa)
#
#
# Indices 1 2 3 4 5 6 
#
# 1 0.010930 -0.000493 -0.001926 0.000000 0.005844 0.000000
# 2 -0.000493 0.014145 -0.004146 0.000000 0.003351 0.000000
# 3 -0.001926 -0.004146 0.010834 0.000000 -0.002599 0.000000
# 4 0.000000 0.000000 0.000000 0.107485 0.000000 0.009346
# 5 0.005844 0.003351 -0.002599 0.000000 0.057582 0.000000
# 6 0.000000 0.000000 0.000000 0.009346 0.000000 0.064055
#
#
# Mechanical properties :
#
#
# Convention : Reuss Voigt Hill
#
# Bulk Modulus (GPa) = 43.90142 46.56605 45.23373
# Shear Modulus (GPa) = 17.49754 23.91321 20.70537
#
# Velocity S-wave (km/s) = 3.20640 3.74842 3.48796
# Velocity P-wave (km/s) = 6.28516 6.78933 6.54210
#
# Compressibility (1/GPa) = 0.02277831
#
# Stress axis : x y z
#
# Youngs Moduli (GPa) = 91.49329 70.69405 92.30266
#
# Poissons Ratio (x) = 0.03486 0.17777
# Poissons Ratio (y) = 0.04512 0.38272
# Poissons Ratio (z) = 0.17621 0.29312
#
# Static dielectric constant tensor:
#      x y z
#    x 3.269850 0.000000 -0.026420 
#    y 0.000000 3.084380 0.000000 
#    z -0.026420 0.000000 2.865210 
# 
# 
# High freq. dielectric constant tensor:
#      x y z
#    x 1.676750 0.000000 -0.008290 
#    y 0.000000 1.645200 0.000000 
#    z -0.008290 0.000000 1.622700 
# 
# From -- ./inp_files/73371.got.cif
#   From: 2010.06.25/outbox.cif.g09.slc.cpg/sg10_37_cif.got.tgz:73371.got - 2010.06.27 22:07:45.
