data_PCOD8062299
_publ_section_title
;
Structure prediction by ZEFSAII (Michael W. Deem and Ramdas Pophale) SiO2 
 PCOD8062299
Probable space group: P 2/M
;
_chemical_formula_sum "Si O2"
_cell_formula_units_Z 30
_cell_length_a 14.266073
_cell_length_b 9.457753
_cell_length_c 12.114406
_cell_angle_alpha 90.000000
_cell_angle_beta 109.996244
_cell_angle_gamma 90.000000
_cell_volume 1535.998218
_symmetry_space_group_name_H-M "P 2/M"
_symmetry_group_IT_number 10
_symmetry_cell_setting 'monoclinic'
loop_
_space_group_symop_operation_xyz
x,y,z
-x,y,-z
-x,-y,-z
x,-y,z
loop_
_atom_site_type_symbol
_atom_site_label
_atom_site_fract_x
_atom_site_fract_y
_atom_site_fract_z
Si Si1 0.226141 0.835778 0.413087
Si Si2 0.281906 0.658498 0.883702
Si Si3 0.500000 0.742016 0.000000
Si Si4 0.933283 0.165318 0.823015
Si Si5 0.722841 0.160478 0.326424
Si Si6 0.145733 0.167601 0.977255
Si Si7 0.506002 0.156313 0.763900
Si Si8 0.406241 0.335081 0.384378
O O1 0.122038 0.793105 0.312519
O O2 0.211927 0.809054 0.537935
O O3 0.311274 0.737494 0.399271
O O4 0.253167 0.000000 0.401039
O O5 0.239071 0.500000 0.868143
O O6 0.402029 0.648368 0.938006
O O7 0.244456 0.733212 0.756326
O O8 0.240687 0.747992 0.969865
O O9 0.520376 0.838052 0.901376
O O10 0.047427 0.219437 0.869392
O O11 0.942041 0.000000 0.843531
O O12 0.869318 0.218555 0.902438
O O13 0.608396 0.184793 0.314395
O O14 0.739066 0.000000 0.290222
O O15 0.166379 0.000000 0.975179
O O16 0.573797 0.270605 0.728733
O O17 0.538356 0.000000 0.737540
O O18 0.500000 0.305273 0.500000
O O19 0.384591 0.500000 0.360990
#
# Coordination Sequence:
#
# PCOD8062299 Si02
#       8
#     4   4   2   4   4   4   4   4
#     4  10  19  35  58  83 107 140 190 239 278 325
#     4  11  23  38  57  80 112 152 189 225 276 337
#     4  10  24  40  54  82 114 148 190 236 274 324
#     4   8  17  35  61  88 111 140 179 233 289 332
#     4   9  19  35  55  78 106 140 184 233 276 321
#     4   9  18  37  61  85 114 144 181 227 282 339
#     4  10  20  36  56  77 105 144 190 235 274 322
#     4  11  23  35  50  78 117 155 186 221 277 339
#
# _framework density 19.531272000000001
#
# number of rings (size 3 to 8) (size 9 to 14) (size 15 to 20)
#    0.000    2.267    1.333    2.000    1.867    5.333 
#    0.000    2.667    0.000    4.000    0.000    0.000 
#    0.000    0.000    0.000    0.000    0.000    0.000 
#
# Total GULP energy -371940.345614 kJ/mol
# GULP energy per Si atom -12398.011520 kJ/mol
# Density = 1.948682 g / cm^3
# Si number density = 19.531272 Si / 1000 Ang^3
#
#
#
# Elastic Constant Matrix: (Units=GPa)
#
#
# Indices 1 2 3 4 5 6 
#
# 1 58.0805 28.1695 23.3126 0.0000 -5.9258 0.0000
# 2 28.1695 87.1109 27.3477 0.0000 -8.0382 0.0000
# 3 23.3126 27.3477 117.4422 0.0000 4.5240 0.0000
# 4 0.0000 0.0000 0.0000 5.3491 0.0000 3.5555
# 5 -5.9258 -8.0382 4.5240 0.0000 28.0190 0.0000
# 6 0.0000 0.0000 0.0000 3.5555 0.0000 12.1682
#
#
#
# Elastic Compliance Matrix: (Units=1/GPa)
#
#
# Indices 1 2 3 4 5 6 
#
# 1 0.021565 -0.005688 -0.003088 0.000000 0.003428 0.000000
# 2 -0.005688 0.014358 -0.002341 0.000000 0.003294 0.000000
# 3 -0.003088 -0.002341 0.009785 0.000000 -0.002905 0.000000
# 4 0.000000 0.000000 0.000000 0.232010 0.000000 -0.067793
# 5 0.003428 0.003294 -0.002905 0.000000 0.037829 0.000000
# 6 0.000000 0.000000 0.000000 -0.067793 0.000000 0.101990
#
#
# Mechanical properties :
#
#
# Convention : Reuss Voigt Hill
#
# Bulk Modulus (GPa) = 42.60140 46.69924 44.65032
# Shear Modulus (GPa) = 11.17076 21.36085 16.26581
#
# Velocity S-wave (km/s) = 2.39413 3.31066 2.88897
# Velocity P-wave (km/s) = 5.43155 6.21095 5.83428
#
# Compressibility (1/GPa) = 0.02347341
#
# Stress axis : x y z
#
# Youngs Moduli (GPa) = 46.37040 69.64801 102.19782
#
# Poissons Ratio (x) = 0.39615 0.31562
# Poissons Ratio (y) = 0.26375 0.23927
# Poissons Ratio (z) = 0.14321 0.16306
#
# Static dielectric constant tensor:
#      x y z
#    x 3.407280 0.000000 0.155830 
#    y 0.000000 3.293770 0.000000 
#    z 0.155830 0.000000 3.811990 
# 
# 
# High freq. dielectric constant tensor:
#      x y z
#    x 1.740580 0.000000 -0.000560 
#    y 0.000000 1.737890 0.000000 
#    z -0.000560 0.000000 1.769650 
# 
# From -- ./inp_files/50005.got.cif
#   From: 2010.06.25/outbox.cif.g09.slc.cpg/sg10_26_cif.got.tgz:50005.got - 2010.06.27 22:07:45.
