data_PCOD8062397
_publ_section_title
;
Structure prediction by ZEFSAII (Michael W. Deem and Ramdas Pophale) SiO2 
 PCOD8062397
Probable space group: P 2/M
;
_chemical_formula_sum "Si O2"
_cell_formula_units_Z 32
_cell_length_a 14.727201
_cell_length_b 8.875240
_cell_length_c 11.948616
_cell_angle_alpha 90.000000
_cell_angle_beta 86.807922
_cell_angle_gamma 90.000000
_cell_volume 1559.349916
_symmetry_space_group_name_H-M "P 2/M"
_symmetry_group_IT_number 10
_symmetry_cell_setting 'monoclinic'
loop_
_space_group_symop_operation_xyz
x,y,z
-x,y,-z
-x,-y,-z
x,-y,z
loop_
_atom_site_type_symbol
_atom_site_label
_atom_site_fract_x
_atom_site_fract_y
_atom_site_fract_z
Si Si1 0.920116 0.673545 0.417073
Si Si2 0.719998 0.677780 0.486856
Si Si3 0.807494 0.171241 0.096759
Si Si4 0.173257 0.670478 0.126049
Si Si5 0.661398 0.322715 0.249588
Si Si6 0.496746 0.177974 0.128154
Si Si7 0.662313 0.672577 0.727700
Si Si8 0.990824 0.170900 0.197456
O O1 0.911597 0.500000 0.376795
O O2 0.824796 0.732188 0.475162
O O3 0.000000 0.690845 0.500000
O O4 0.941240 0.783219 0.314102
O O5 0.721549 0.500000 0.498877
O O6 0.664111 0.726538 0.379969
O O7 0.668964 0.740602 0.601122
O O8 0.757320 0.276288 0.189634
O O9 0.916101 0.183485 0.104282
O O10 0.772966 0.000000 0.113267
O O11 0.784574 0.225546 0.973588
O O12 0.169241 0.500000 0.081417
O O13 0.236574 0.683346 0.229830
O O14 0.072821 0.717935 0.167780
O O15 0.647744 0.500000 0.238461
O O16 0.580726 0.240489 0.192108
O O17 0.404331 0.228703 0.193014
O O18 0.502470 0.000000 0.128622
O O19 0.500000 0.238716 0.000000
O O20 0.627022 0.500000 0.730443
O O21 0.027278 0.000000 0.203849
#
# Coordination Sequence:
#
# PCOD8062397 Si02
#       8
#     4   4   4   4   4   4   4   4
#     4  10  19  35  60  86 118 162 211 258 300 354
#     4   9  19  37  61  90 122 156 198 249 304 355
#     4  11  23  39  58  85 125 164 202 253 311 366
#     4  11  23  38  61  89 119 159 209 259 305 362
#     4  11  22  39  66  93 120 159 205 252 302 364
#     4  11  25  44  65  91 124 160 197 245 308 370
#     4  10  22  42  65  91 121 154 199 251 303 360
#     4  11  23  37  55  84 123 164 204 251 309 368
#
# _framework density 20.521372
#
# number of rings (size 3 to 8) (size 9 to 14) (size 15 to 20)
#    0.000    1.500    1.250    3.750    0.000    9.750 
#    0.000    4.375    0.000    0.000    0.000    0.000 
#    0.000    0.000    0.000    0.000    0.000    0.000 
#
# Total GULP energy -396895.654332 kJ/mol
# GULP energy per Si atom -12402.989198 kJ/mol
# Density = 2.047466 g / cm^3
# Si number density = 20.521372 Si / 1000 Ang^3
#
#
#
# Elastic Constant Matrix: (Units=GPa)
#
#
# Indices 1 2 3 4 5 6 
#
# 1 101.0585 37.9585 52.4941 0.0000 -0.7875 0.0000
# 2 37.9585 60.2963 40.4409 0.0000 7.4542 0.0000
# 3 52.4941 40.4409 155.4492 0.0000 -6.4662 0.0000
# 4 0.0000 0.0000 0.0000 21.0072 0.0000 1.0899
# 5 -0.7875 7.4542 -6.4662 0.0000 33.7841 0.0000
# 6 0.0000 0.0000 0.0000 1.0899 0.0000 27.2761
#
#
#
# Elastic Compliance Matrix: (Units=1/GPa)
#
#
# Indices 1 2 3 4 5 6 
#
# 1 0.014051 -0.007108 -0.002839 0.000000 0.001352 0.000000
# 2 -0.007108 0.024744 -0.004305 0.000000 -0.006449 0.000000
# 3 -0.002839 -0.004305 0.008617 0.000000 0.002533 0.000000
# 4 0.000000 0.000000 0.000000 0.047702 0.000000 -0.001906
# 5 0.001352 -0.006449 0.002533 0.000000 0.031539 0.000000
# 6 0.000000 0.000000 0.000000 -0.001906 0.000000 0.036738
#
#
# Mechanical properties :
#
#
# Convention : Reuss Voigt Hill
#
# Bulk Modulus (GPa) = 52.89127 64.28789 58.58958
# Shear Modulus (GPa) = 25.22718 28.80752 27.01735
#
# Velocity S-wave (km/s) = 3.50996 3.75077 3.63236
# Velocity P-wave (km/s) = 6.50047 7.08188 6.79739
#
# Compressibility (1/GPa) = 0.01890671
#
# Stress axis : x y z
#
# Youngs Moduli (GPa) = 71.17170 40.41306 116.04707
#
# Poissons Ratio (x) = 0.28726 0.32949
# Poissons Ratio (y) = 0.50590 0.49962
# Poissons Ratio (z) = 0.20208 0.17399
#
# Static dielectric constant tensor:
#      x y z
#    x 3.738820 0.000000 0.042460 
#    y 0.000000 3.666680 0.000000 
#    z 0.042460 0.000000 4.024900 
# 
# 
# High freq. dielectric constant tensor:
#      x y z
#    x 1.805470 0.000000 0.002440 
#    y 0.000000 1.790600 0.000000 
#    z 0.002440 0.000000 1.814910 
# 
# From -- ./inp_files/49843.got.cif
#   From: 2010.06.25/outbox.cif.g09.slc.cpg/sg10_25_cif.got.tgz:49843.got - 2010.06.27 22:07:45.
