data_PCOD8062139
_publ_section_title
;
Structure prediction by ZEFSAII (Michael W. Deem and Ramdas Pophale) SiO2 
 PCOD8062139
Probable space group: P 2/M
;
_chemical_formula_sum "Si O2"
_cell_formula_units_Z 32
_cell_length_a 23.718022
_cell_length_b 14.680043
_cell_length_c 8.984394
_cell_angle_alpha 90.000000
_cell_angle_beta 29.680557
_cell_angle_gamma 90.000000
_cell_volume 1548.971892
_symmetry_space_group_name_H-M "P 2/M"
_symmetry_group_IT_number 10
_symmetry_cell_setting 'monoclinic'
loop_
_space_group_symop_operation_xyz
x,y,z
-x,y,-z
-x,-y,-z
x,-y,z
loop_
_atom_site_type_symbol
_atom_site_label
_atom_site_fract_x
_atom_site_fract_y
_atom_site_fract_z
Si Si1 0.106127 0.834664 0.850411
Si Si2 0.438410 0.398217 0.296478
Si Si3 0.769197 0.604543 0.704896
Si Si4 0.986451 0.397922 0.369665
Si Si5 0.743576 0.104200 0.750448
Si Si6 0.205660 0.351338 0.695337
Si Si7 0.953828 0.103539 0.455249
Si Si8 0.425141 0.735755 0.811724
O O1 0.187576 0.897258 0.563021
O O2 0.183886 0.755778 0.740112
O O3 0.000000 0.793217 0.000000
O O4 0.054095 0.892793 0.103840
O O5 0.449256 0.500000 0.346920
O O6 0.306953 0.374122 0.574899
O O7 0.492688 0.314241 0.260516
O O8 0.500000 0.402762 0.000000
O O9 0.749932 0.500000 0.792306
O O10 0.885914 0.647300 0.502901
O O11 0.767245 0.612381 0.531311
O O12 0.670596 0.662047 0.010257
O O13 0.946865 0.500000 0.494111
O O14 0.000000 0.347989 0.500000
O O15 0.097226 0.400289 0.014004
O O16 0.832401 0.141880 0.672855
O O17 0.702867 0.000000 0.874042
O O18 0.635036 0.171901 0.989067
O O19 0.000000 0.153427 0.500000
O O20 0.927740 0.000000 0.554130
O O21 0.500000 0.764942 0.500000
#
# Coordination Sequence:
#
# PCOD8062139 Si02
#       8
#     4   4   4   4   4   4   4   4
#     4  10  19  34  61  95 129 164 206 246 303 381
#     4  11  23  42  65  89 123 166 218 269 308 361
#     4  11  22  41  64  88 124 166 207 254 311 376
#     4  10  23  38  56  90 131 166 202 249 310 375
#     4  10  21  42  67  89 123 167 210 256 313 383
#     4  12  22  37  64  92 125 164 213 255 306 369
#     4   9  19  35  60  97 132 161 198 248 314 384
#     4  12  27  43  63  92 122 159 221 267 320 371
#
# _framework density 20.658863
#
# number of rings (size 3 to 8) (size 9 to 14) (size 15 to 20)
#    0.000    1.375    2.500    3.000    3.500    5.250 
#    0.000    0.000    0.000    4.125    0.000    0.000 
#    0.000    0.000    0.000    0.000    0.000    0.000 
#
# Total GULP energy -396578.363550 kJ/mol
# GULP energy per Si atom -12393.073861 kJ/mol
# Density = 2.061184 g / cm^3
# Si number density = 20.658863 Si / 1000 Ang^3
#
#
#
# Elastic Constant Matrix: (Units=GPa)
#
#
# Indices 1 2 3 4 5 6 
#
# 1 118.6196 34.0608 44.5527 0.0000 -13.6906 0.0000
# 2 34.0608 101.6404 27.2019 0.0000 -10.9944 0.0000
# 3 44.5527 27.2019 118.0885 0.0000 -7.9817 0.0000
# 4 0.0000 0.0000 0.0000 13.4922 0.0000 -12.1466
# 5 -13.6906 -10.9944 -7.9817 0.0000 35.7895 0.0000
# 6 0.0000 0.0000 0.0000 -12.1466 0.0000 20.2629
#
#
#
# Elastic Compliance Matrix: (Units=1/GPa)
#
#
# Indices 1 2 3 4 5 6 
#
# 1 0.010658 -0.002410 -0.003290 0.000000 0.002603 0.000000
# 2 -0.002410 0.011298 -0.001544 0.000000 0.002204 0.000000
# 3 -0.003290 -0.001544 0.010100 0.000000 0.000520 0.000000
# 4 0.000000 0.000000 0.000000 0.161008 0.000000 0.096517
# 5 0.002603 0.002204 0.000520 0.000000 0.029730 0.000000
# 6 0.000000 0.000000 0.000000 0.096517 0.000000 0.107208
#
#
# Mechanical properties :
#
#
# Convention : Reuss Voigt Hill
#
# Bulk Modulus (GPa) = 56.92069 61.10882 59.01475
# Shear Modulus (GPa) = 14.27153 29.41112 21.84133
#
# Velocity S-wave (km/s) = 2.63119 3.77723 3.25505
# Velocity P-wave (km/s) = 6.06988 6.97621 6.53876
#
# Compressibility (1/GPa) = 0.01756831
#
# Stress axis : x y z
#
# Youngs Moduli (GPa) = 93.82220 88.51226 99.00558
#
# Poissons Ratio (x) = 0.21328 0.32575
# Poissons Ratio (y) = 0.22608 0.15290
# Poissons Ratio (z) = 0.30870 0.13670
#
# Static dielectric constant tensor:
#      x y z
#    x 3.995950 0.000000 -0.097860 
#    y 0.000000 3.655250 0.000000 
#    z -0.097860 0.000000 3.704680 
# 
# 
# High freq. dielectric constant tensor:
#      x y z
#    x 1.803410 0.000000 -0.003270 
#    y 0.000000 1.802550 0.000000 
#    z -0.003270 0.000000 1.805340 
# 
# From -- ./inp_files/36352.got.cif
#   From: 2010.06.25/outbox.cif.g09.slc.cpg/sg10_19_cif.got.tgz:36352.got - 2010.06.27 22:07:45.
