data_PCOD8062079
_publ_section_title
;
Structure prediction by ZEFSAII (Michael W. Deem and Ramdas Pophale) SiO2 
 PCOD8062079
Probable space group: P 2/M
;
_chemical_formula_sum "Si O2"
_cell_formula_units_Z 20
_cell_length_a 15.197291
_cell_length_b 10.193107
_cell_length_c 12.204038
_cell_angle_alpha 90.000000
_cell_angle_beta 150.575935
_cell_angle_gamma 90.000000
_cell_volume 928.744452
_symmetry_space_group_name_H-M "P 2/M"
_symmetry_group_IT_number 10
_symmetry_cell_setting 'monoclinic'
loop_
_space_group_symop_operation_xyz
x,y,z
-x,y,-z
-x,-y,-z
x,-y,z
loop_
_atom_site_type_symbol
_atom_site_label
_atom_site_fract_x
_atom_site_fract_y
_atom_site_fract_z
Si Si1 0.140717 0.644850 0.443061
Si Si2 0.246746 0.282529 0.008496
Si Si3 0.375489 0.648623 0.504299
Si Si4 0.695888 0.652139 0.164015
Si Si5 0.804616 0.147449 0.836121
O O1 0.225023 0.500000 0.544285
O O2 0.262495 0.713025 0.482171
O O3 0.166397 0.705513 0.592826
O O4 0.935543 0.633920 0.184132
O O5 0.415497 0.360582 0.239680
O O6 0.205407 0.156511 0.041381
O O7 0.283459 0.253136 0.919708
O O8 0.312675 0.500000 0.405856
O O9 0.337947 0.746343 0.362875
O O10 0.735535 0.500000 0.172444
O O11 0.500000 0.667466 0.000000
O O12 0.749428 0.000000 0.742022
O O13 0.000000 0.181611 0.000000
#
# Coordination Sequence:
#
# PCOD8062079 Si02
#       5
#     4   4   4   4   4
#     4  10  20  35  57  92 133 169 203 255 315 374
#     4  12  22  37  65  91 125 173 213 254 315 379
#     4  11  23  39  64  99 131 162 212 267 316 377
#     4  10  19  34  58  92 135 171 205 252 314 382
#     4  11  26  48  68  90 125 172 220 267 322 384
#
# _framework density 21.53445
#
# number of rings (size 3 to 8) (size 9 to 14) (size 15 to 20)
#    0.000    1.200    4.000    3.000    0.000    6.800 
#    0.000    0.000    0.000    4.200    0.000    0.000 
#    0.000    0.000    0.000    0.000    0.000    0.000 
#
# Total GULP energy -247778.653298 kJ/mol
# GULP energy per Si atom -12388.932665 kJ/mol
# Density = 2.148544 g / cm^3
# Si number density = 21.534450 Si / 1000 Ang^3
#
#
#
# Elastic Constant Matrix: (Units=GPa)
#
#
# Indices 1 2 3 4 5 6 
#
# 1 165.0442 33.3229 56.3204 0.0000 -12.1145 0.0000
# 2 33.3229 75.6440 43.9256 0.0000 -13.0008 0.0000
# 3 56.3204 43.9256 145.7356 0.0000 -0.6348 0.0000
# 4 0.0000 0.0000 0.0000 -0.0081 0.0000 -2.8385
# 5 -12.1145 -13.0008 -0.6348 0.0000 40.4276 0.0000
# 6 0.0000 0.0000 0.0000 -2.8385 0.0000 16.7687
#
#
#
# Elastic Compliance Matrix: (Units=1/GPa)
#
#
# Indices 1 2 3 4 5 6 
#
# 1 0.007295 -0.001574 -0.002338 0.000000 0.001643 0.000000
# 2 -0.001574 0.017479 -0.004638 0.000000 0.005076 0.000000
# 3 -0.002338 -0.004638 0.009154 0.000000 -0.002048 0.000000
# 4 0.000000 0.000000 0.000000 -2.046794 0.000000 -0.346471
# 5 0.001643 0.005076 -0.002048 0.000000 0.026828 0.000000
# 6 0.000000 0.000000 0.000000 -0.346471 0.000000 0.000986
#
#
# Mechanical properties :
#
#
# Convention : Reuss Voigt Hill
#
# Bulk Modulus (GPa) = 59.42046 72.61796 66.01921
# Shear Modulus (GPa) = -2.54797 28.29465 12.87334
#
# Velocity S-wave (km/s) = -1.08893 3.62874 2.44765
# Velocity P-wave (km/s) = 5.10608 7.16603 6.22190
#
# Compressibility (1/GPa) = 0.01682922
#
# Stress axis : x y z
#
# Youngs Moduli (GPa) = 137.07876 57.21232 109.24014
#
# Poissons Ratio (x) = 0.09004 0.25537
# Poissons Ratio (y) = 0.21572 0.50665
# Poissons Ratio (z) = 0.32045 0.26535
#
# Static dielectric constant tensor:
#      x y z
#    x 4.348480 0.000000 -0.181530 
#    y 0.000000 3.222800 0.000000 
#    z -0.181530 0.000000 4.023490 
# 
# 
# High freq. dielectric constant tensor:
#      x y z
#    x 1.878300 0.000000 0.004060 
#    y 0.000000 1.761480 0.000000 
#    z 0.004060 0.000000 1.859630 
# 
# From -- ./inp_files/46847.got.cif
#   From: 2010.06.25/outbox.cif.g09.slc.cpg/sg10_24_cif.got.tgz:46847.got - 2010.06.27 22:07:45.
