data_PCOD8062638
_publ_section_title
;
Structure prediction by ZEFSAII (Michael W. Deem and Ramdas Pophale) SiO2 
 PCOD8062638
Probable space group: P 2/M
;
_chemical_formula_sum "Si O2"
_cell_formula_units_Z 32
_cell_length_a 9.454618
_cell_length_b 12.938339
_cell_length_c 25.036569
_cell_angle_alpha 90.000000
_cell_angle_beta 147.982994
_cell_angle_gamma 90.000000
_cell_volume 1623.727902
_symmetry_space_group_name_H-M "P 2/M"
_symmetry_group_IT_number 10
_symmetry_cell_setting 'monoclinic'
loop_
_space_group_symop_operation_xyz
x,y,z
-x,y,-z
-x,-y,-z
x,-y,z
loop_
_atom_site_type_symbol
_atom_site_label
_atom_site_fract_x
_atom_site_fract_y
_atom_site_fract_z
Si Si1 0.988062 0.117502 0.261368
Si Si2 0.687029 0.619954 0.908893
Si Si3 0.939015 0.885388 0.369729
Si Si4 0.008886 0.119062 0.065394
Si Si5 0.521840 0.263395 0.754328
Si Si6 0.690128 0.379196 0.411075
Si Si7 0.509742 0.229209 0.942366
Si Si8 0.469069 0.228072 0.550823
O O1 0.780084 0.184451 0.161850
O O2 0.894603 0.118092 0.292367
O O3 0.270929 0.171797 0.343497
O O4 0.002729 0.000000 0.244431
O O5 0.619223 0.500000 0.892062
O O6 0.518663 0.665989 0.805985
O O7 0.589809 0.672773 0.932208
O O8 0.000000 0.639410 0.000000
O O9 0.238734 0.857185 0.481432
O O10 0.738344 0.807015 0.332850
O O11 0.880754 0.000000 0.372843
O O12 0.218857 0.190594 0.163738
O O13 0.093293 0.000000 0.099111
O O14 0.000000 0.149750 0.000000
O O15 0.721017 0.137169 0.999529
O O16 0.505807 0.337070 0.697924
O O17 0.639388 0.500000 0.399765
O O18 0.600930 0.329187 0.438043
O O19 0.000000 0.354044 0.500000
O O20 0.500000 0.267443 0.000000
O O21 0.500000 0.266310 0.500000
#
# Coordination Sequence:
#
# PCOD8062638 Si02
#       8
#     4   4   4   4   4   4   4   4
#     4  10  21  38  63  89 125 171 207 244 306 372
#     4  11  23  43  68  90 117 165 218 266 317 366
#     4  10  19  36  64  94 124 159 202 251 312 375
#     4  11  22  40  66  94 128 167 211 258 315 381
#     4  12  20  40  66  94 122 162 208 264 315 374
#     4  11  25  44  66  92 122 164 212 267 321 363
#     4  12  24  40  59  91 133 166 207 259 306 374
#     4  10  22  42  64  91 127 163 204 255 305 374
#
# _framework density 19.707737000000002
#
# number of rings (size 3 to 8) (size 9 to 14) (size 15 to 20)
#    0.000    1.125    5.000    1.500    1.750    5.000 
#    0.000    3.125    0.000    0.000    0.000    0.000 
#    0.000    0.000    0.000    0.000    0.000    0.000 
#
# Total GULP energy -396940.615680 kJ/mol
# GULP energy per Si atom -12404.394240 kJ/mol
# Density = 1.966288 g / cm^3
# Si number density = 19.707737 Si / 1000 Ang^3
#
#
#
# Elastic Constant Matrix: (Units=GPa)
#
#
# Indices 1 2 3 4 5 6 
#
# 1 98.3532 60.1923 49.8968 0.0000 -6.6303 0.0000
# 2 60.1923 154.0066 64.5568 0.0000 -5.7030 0.0000
# 3 49.8968 64.5568 130.4967 0.0000 3.3820 0.0000
# 4 0.0000 0.0000 0.0000 30.6730 0.0000 2.6493
# 5 -6.6303 -5.7030 3.3820 0.0000 31.1665 0.0000
# 6 0.0000 0.0000 0.0000 2.6493 0.0000 20.8816
#
#
#
# Elastic Compliance Matrix: (Units=1/GPa)
#
#
# Indices 1 2 3 4 5 6 
#
# 1 0.014737 -0.004119 -0.003669 0.000000 0.002780 0.000000
# 2 -0.004119 0.009462 -0.003137 0.000000 0.001196 0.000000
# 3 -0.003669 -0.003137 0.010683 0.000000 -0.002514 0.000000
# 4 0.000000 0.000000 0.000000 0.032963 0.000000 -0.004182
# 5 0.002780 0.001196 -0.002514 0.000000 0.033169 0.000000
# 6 0.000000 0.000000 0.000000 -0.004182 0.000000 0.048420
#
#
# Mechanical properties :
#
#
# Convention : Reuss Voigt Hill
#
# Bulk Modulus (GPa) = 76.73438 81.34982 79.04210
# Shear Modulus (GPa) = 28.46915 30.42492 29.44704
#
# Velocity S-wave (km/s) = 3.80487 3.93339 3.86966
# Velocity P-wave (km/s) = 7.63698 7.87379 7.75628
#
# Compressibility (1/GPa) = 0.01303197
#
# Stress axis : x y z
#
# Youngs Moduli (GPa) = 67.85603 105.68198 93.60552
#
# Poissons Ratio (x) = 0.43529 0.34347
# Poissons Ratio (y) = 0.27949 0.29365
# Poissons Ratio (z) = 0.24899 0.33154
#
# Static dielectric constant tensor:
#      x y z
#    x 3.512230 0.000000 0.011740 
#    y 0.000000 3.591090 0.000000 
#    z 0.011740 0.000000 3.667540 
# 
# 
# High freq. dielectric constant tensor:
#      x y z
#    x 1.756750 0.000000 0.002890 
#    y 0.000000 1.772510 0.000000 
#    z 0.002890 0.000000 1.779260 
# 
# From -- ./inp_files/88264.got.cif
#   From: 2010.06.25/outbox.cif.g09.slc.cpg/sg10_45_cif.got.tgz:88264.got - 2010.06.27 22:07:45.
