data_PCOD8062281
_publ_section_title
;
Structure prediction by ZEFSAII (Michael W. Deem and Ramdas Pophale) SiO2 
 PCOD8062281
Probable space group: P 2/M
;
_chemical_formula_sum "Si O2"
_cell_formula_units_Z 28
_cell_length_a 8.285487
_cell_length_b 12.887792
_cell_length_c 14.570781
_cell_angle_alpha 90.000000
_cell_angle_beta 67.963540
_cell_angle_gamma 90.000000
_cell_volume 1442.226562
_symmetry_space_group_name_H-M "P 2/M"
_symmetry_group_IT_number 10
_symmetry_cell_setting 'monoclinic'
loop_
_space_group_symop_operation_xyz
x,y,z
-x,y,-z
-x,-y,-z
x,-y,z
loop_
_atom_site_type_symbol
_atom_site_label
_atom_site_fract_x
_atom_site_fract_y
_atom_site_fract_z
Si Si1 0.932189 0.114265 0.412794
Si Si2 0.365094 0.000000 0.887802
Si Si3 0.411841 0.214085 0.794665
Si Si4 0.196248 0.797036 0.224617
Si Si5 0.170890 0.613904 0.909741
Si Si6 0.251977 0.000000 0.109489
Si Si7 0.960690 0.387353 0.262187
Si Si8 0.660411 0.738385 0.402581
O O1 0.739570 0.161727 0.438523
O O2 0.000000 0.107179 0.500000
O O3 0.078255 0.184271 0.337023
O O4 0.926208 0.000000 0.370095
O O5 0.330299 0.899156 0.832536
O O6 0.557493 0.000000 0.887882
O O7 0.238015 0.000000 0.002590
O O8 0.608974 0.216403 0.784529
O O9 0.319216 0.297811 0.881655
O O10 0.398244 0.234748 0.688882
O O11 0.163379 0.892235 0.161087
O O12 0.124021 0.687350 0.203025
O O13 0.230392 0.500000 0.936926
O O14 0.137359 0.597092 0.810963
O O15 0.000000 0.653279 0.000000
O O16 0.028174 0.500000 0.283495
O O17 0.816637 0.345546 0.365502
O O18 0.500000 0.697887 0.500000
#
# Coordination Sequence:
#
# PCOD8062281 Si02
#       8
#     4   2   4   4   4   2   4   4
#     4  10  20  34  54  80 110 147 185 227 278 328
#     4   9  20  34  51  79 115 143 185 225 273 332
#     4  10  21  36  57  84 113 148 186 232 279 332
#     4  10  19  35  58  80 114 145 191 230 277 336
#     4   9  19  37  56  77 110 147 187 232 283 329
#     4   9  18  34  52  76 110 154 178 224 281 321
#     4   9  20  37  57  81 111 146 185 234 281 331
#     4  10  21  37  57  82 113 146 185 231 278 335
#
# _framework density 19.414425999999999
#
# number of rings (size 3 to 8) (size 9 to 14) (size 15 to 20)
#    0.000    2.429    0.714    0.857    3.000    1.143 
#    0.000    0.357    0.000   17.143    0.000    0.000 
#    0.000    0.000    0.000    0.000    0.000    0.000 
#
# Total GULP energy -346883.510965 kJ/mol
# GULP energy per Si atom -12388.696820 kJ/mol
# Density = 1.937024 g / cm^3
# Si number density = 19.414426 Si / 1000 Ang^3
#
#
#
# Elastic Constant Matrix: (Units=GPa)
#
#
# Indices 1 2 3 4 5 6 
#
# 1 64.5106 43.6408 22.9834 0.0000 -15.1248 0.0000
# 2 43.6408 149.4538 36.2755 0.0000 -10.8730 0.0000
# 3 22.9834 36.2755 96.8718 0.0000 -13.6778 0.0000
# 4 0.0000 0.0000 0.0000 23.5085 0.0000 -5.5096
# 5 -15.1248 -10.8730 -13.6778 0.0000 24.9638 0.0000
# 6 0.0000 0.0000 0.0000 -5.5096 0.0000 26.6771
#
#
#
# Elastic Compliance Matrix: (Units=1/GPa)
#
#
# Indices 1 2 3 4 5 6 
#
# 1 0.022084 -0.005268 -0.001844 0.000000 0.010075 0.000000
# 2 -0.005268 0.008695 -0.002083 0.000000 -0.000546 0.000000
# 3 -0.001844 -0.002083 0.012198 0.000000 0.004659 0.000000
# 4 0.000000 0.000000 0.000000 0.044701 0.000000 0.009232
# 5 0.010075 -0.000546 0.004659 0.000000 0.048477 0.000000
# 6 0.000000 0.000000 0.000000 0.009232 0.000000 0.039392
#
#
# Mechanical properties :
#
#
# Convention : Reuss Voigt Hill
#
# Bulk Modulus (GPa) = 40.67244 57.40394 49.03819
# Shear Modulus (GPa) = 24.73587 28.89231 26.81409
#
# Velocity S-wave (km/s) = 3.57332 3.86189 3.72040
# Velocity P-wave (km/s) = 6.16603 7.03686 6.61579
#
# Compressibility (1/GPa) = 0.02458667
#
# Stress axis : x y z
#
# Youngs Moduli (GPa) = 45.28084 115.00530 81.97770
#
# Poissons Ratio (x) = 0.60585 0.15120
# Poissons Ratio (y) = 0.23854 0.17079
# Poissons Ratio (z) = 0.08351 0.23959
#
# Static dielectric constant tensor:
#      x y z
#    x 3.556320 0.000000 -0.165890 
#    y 0.000000 4.333010 0.000000 
#    z -0.165890 0.000000 3.523640 
# 
# 
# High freq. dielectric constant tensor:
#      x y z
#    x 1.734120 0.000000 -0.008800 
#    y 0.000000 1.766390 0.000000 
#    z -0.008800 0.000000 1.756240 
# 
# From -- ./inp_files/61156.got.cif
#   From: 2010.06.25/outbox.cif.g09.slc.cpg/sg10_31_cif.got.tgz:61156.got - 2010.06.27 22:07:45.
