data_PCOD8062069
_publ_section_title
;
Structure prediction by ZEFSAII (Michael W. Deem and Ramdas Pophale) SiO2 
 PCOD8062069
Probable space group: P 2/M
;
_chemical_formula_sum "Si O2"
_cell_formula_units_Z 32
_cell_length_a 21.574852
_cell_length_b 8.471014
_cell_length_c 27.892752
_cell_angle_alpha 90.000000
_cell_angle_beta 161.159695
_cell_angle_gamma 90.000000
_cell_volume 1646.209314
_symmetry_space_group_name_H-M "P 2/M"
_symmetry_group_IT_number 10
_symmetry_cell_setting 'monoclinic'
loop_
_space_group_symop_operation_xyz
x,y,z
-x,y,-z
-x,-y,-z
x,-y,z
loop_
_atom_site_type_symbol
_atom_site_label
_atom_site_fract_x
_atom_site_fract_y
_atom_site_fract_z
Si Si1 0.280633 0.187240 0.339649
Si Si2 0.984679 0.316834 0.194266
Si Si3 0.403430 0.817301 0.828235
Si Si4 0.825713 0.817066 0.170496
Si Si5 0.701251 0.816801 0.911751
Si Si6 0.093683 0.316677 0.669995
Si Si7 0.676652 0.683139 0.332253
Si Si8 0.002203 0.814714 0.948640
O O1 0.500000 0.243413 0.500000
O O2 0.181087 0.266153 0.312478
O O3 0.175002 0.247115 0.213715
O O4 0.261091 0.000000 0.330407
O O5 0.990058 0.500000 0.210929
O O6 0.968634 0.218148 0.231357
O O7 0.800984 0.282592 0.026629
O O8 0.252241 0.787305 0.759503
O O9 0.351907 0.713114 0.744730
O O10 0.401527 0.000000 0.811613
O O11 0.611000 0.766659 0.999197
O O12 0.890862 0.710104 0.262268
O O13 0.837290 0.000000 0.193333
O O14 0.476504 0.776795 0.747010
O O15 0.736303 0.000000 0.949093
O O16 0.796442 0.773411 0.930177
O O17 0.124953 0.500000 0.680459
O O18 0.886417 0.257240 0.500634
O O19 0.651625 0.500000 0.325289
O O20 0.977594 0.000000 0.936856
O O21 0.000000 0.734809 0.000000
#
# Coordination Sequence:
#
# PCOD8062069 Si02
#       8
#     4   4   4   4   4   4   4   4
#     4   9  18  34  56  82 113 147 188 234 280 333
#     4  11  21  35  59  85 114 152 193 235 287 343
#     4  11  23  39  63  88 112 147 196 245 287 341
#     4  11  23  40  61  86 115 149 196 244 288 342
#     4  10  19  34  58  85 112 147 195 240 280 335
#     4  11  25  41  57  84 121 155 189 235 296 353
#     4  11  23  39  59  84 117 154 192 236 290 347
#     4   8  15  30  53  80 110 140 179 228 275 324
#
# _framework density 19.438599
#
# number of rings (size 3 to 8) (size 9 to 14) (size 15 to 20)
#    0.000    1.750    1.250    4.500    0.000    6.750 
#    2.250    0.000    0.000    9.375    0.000    0.000 
#    0.000    0.000    0.000    0.000    0.000    0.000 
#
# Total GULP energy -396917.273143 kJ/mol
# GULP energy per Si atom -12403.664786 kJ/mol
# Density = 1.939436 g / cm^3
# Si number density = 19.438599 Si / 1000 Ang^3
#
#
#
# Elastic Constant Matrix: (Units=GPa)
#
#
# Indices 1 2 3 4 5 6 
#
# 1 129.3673 9.9765 51.2484 0.0000 5.3049 0.0000
# 2 9.9765 40.5827 23.7300 0.0000 3.7755 0.0000
# 3 51.2484 23.7300 108.5077 0.0000 6.3099 0.0000
# 4 0.0000 0.0000 0.0000 24.0928 0.0000 1.0540
# 5 5.3049 3.7755 6.3099 0.0000 28.5530 0.0000
# 6 0.0000 0.0000 0.0000 1.0540 0.0000 24.0051
#
#
#
# Elastic Compliance Matrix: (Units=1/GPa)
#
#
# Indices 1 2 3 4 5 6 
#
# 1 0.009532 0.000387 -0.004539 0.000000 -0.000819 0.000000
# 2 0.000387 0.028433 -0.006259 0.000000 -0.002449 0.000000
# 3 -0.004539 -0.006259 0.012796 0.000000 -0.001157 0.000000
# 4 0.000000 0.000000 0.000000 0.041586 0.000000 -0.001826
# 5 -0.000819 -0.002449 -0.001157 0.000000 0.035754 0.000000
# 6 0.000000 0.000000 0.000000 -0.001826 0.000000 0.041738
#
#
# Mechanical properties :
#
#
# Convention : Reuss Voigt Hill
#
# Bulk Modulus (GPa) = 33.40035 49.81861 41.60948
# Shear Modulus (GPa) = 24.92029 28.23037 26.57533
#
# Velocity S-wave (km/s) = 3.58439 3.81502 3.70150
# Velocity P-wave (km/s) = 5.86091 6.71492 6.30240
#
# Compressibility (1/GPa) = 0.02993980
#
# Stress axis : x y z
#
# Youngs Moduli (GPa) = 104.91278 35.16998 78.15156
#
# Poissons Ratio (x) = -0.01361 0.35472
# Poissons Ratio (y) = -0.04060 0.48912
# Poissons Ratio (z) = 0.47619 0.22012
#
# Static dielectric constant tensor:
#      x y z
#    x 3.666540 0.000000 0.064230 
#    y 0.000000 3.355380 0.000000 
#    z 0.064230 0.000000 3.620000 
# 
# 
# High freq. dielectric constant tensor:
#      x y z
#    x 1.764510 0.000000 0.009530 
#    y 0.000000 1.747940 0.000000 
#    z 0.009530 0.000000 1.750770 
# 
# From -- ./inp_files/93801.got.cif
#   From: 2010.06.25/outbox.cif.g09.slc.cpg/sg10_47_cif.got.tgz:93801.got - 2010.06.27 22:07:45.
