data_PCOD8062718
_publ_section_title
;
Structure prediction by ZEFSAII (Michael W. Deem and Ramdas Pophale) SiO2 
 PCOD8062718
Probable space group: P 2/M
;
_chemical_formula_sum "Si O2"
_cell_formula_units_Z 32
_cell_length_a 8.648411
_cell_length_b 14.689273
_cell_length_c 24.140497
_cell_angle_alpha 90.000000
_cell_angle_beta 31.100873
_cell_angle_gamma 90.000000
_cell_volume 1584.134850
_symmetry_space_group_name_H-M "P 2/M"
_symmetry_group_IT_number 10
_symmetry_cell_setting 'monoclinic'
loop_
_space_group_symop_operation_xyz
x,y,z
-x,y,-z
-x,-y,-z
x,-y,z
loop_
_atom_site_type_symbol
_atom_site_label
_atom_site_fract_x
_atom_site_fract_y
_atom_site_fract_z
Si Si1 0.274970 0.896318 0.840206
Si Si2 0.876105 0.734636 0.979178
Si Si3 0.693855 0.899600 0.491324
Si Si4 0.189185 0.770747 0.307329
Si Si5 0.167422 0.728199 0.192228
Si Si6 0.921747 0.399021 0.180674
Si Si7 0.305352 0.668525 0.376230
Si Si8 0.339562 0.157170 0.699400
O O1 0.529812 0.836612 0.792903
O O2 0.335356 0.901218 0.756289
O O3 0.969646 0.840732 0.944489
O O4 0.256440 0.000000 0.868955
O O5 0.016784 0.672592 0.887558
O O6 0.522491 0.735628 0.081159
O O7 0.000000 0.695874 0.000000
O O8 0.500000 0.864248 0.500000
O O9 0.479615 0.906666 0.609905
O O10 0.962528 0.829293 0.414262
O O11 0.827604 0.000000 0.438976
O O12 0.060965 0.731053 0.289060
O O13 0.264275 0.685291 0.323078
O O14 0.080184 0.633848 0.188914
O O15 0.997240 0.810280 0.212655
O O16 0.043082 0.500000 0.128813
O O17 0.564626 0.407271 0.301157
O O18 0.435252 0.758179 0.365533
O O19 0.000000 0.636136 0.500000
#
# Coordination Sequence:
#
# PCOD8062718 Si02
#       8
#     4   4   4   4   4   4   4   4
#     4  11  23  40  60  90 128 170 214 256 303 363
#     4  12  23  43  67  92 125 162 209 264 309 366
#     4  11  21  31  52  90 127 166 218 261 298 357
#     4  11  20  38  60  89 124 171 209 254 311 364
#     4  11  22  40  64  86 126 163 205 262 315 371
#     4  11  25  45  70  96 122 158 202 257 325 382
#     4  10  19  37  66  93 122 164 201 245 314 371
#     4  10  20  37  57  87 125 170 209 256 307 357
#
# _framework density 20.200299999999999
#
# number of rings (size 3 to 8) (size 9 to 14) (size 15 to 20)
#    0.000    1.125    7.500    1.125    0.000    1.750 
#    0.000    5.625    0.000    0.750    0.000    0.000 
#    0.000    0.000    0.000    0.000    0.000    0.000 
#
# Total GULP energy -396661.713084 kJ/mol
# GULP energy per Si atom -12395.678534 kJ/mol
# Density = 2.015432 g / cm^3
# Si number density = 20.200300 Si / 1000 Ang^3
#
#
#
# Elastic Constant Matrix: (Units=GPa)
#
#
# Indices 1 2 3 4 5 6 
#
# 1 118.0895 26.2852 32.1035 0.0000 5.3685 0.0000
# 2 26.2852 89.3243 20.1761 0.0000 3.4070 0.0000
# 3 32.1035 20.1761 100.4258 0.0000 -11.8907 0.0000
# 4 0.0000 0.0000 0.0000 9.1931 0.0000 1.1436
# 5 5.3685 3.4070 -11.8907 0.0000 35.2415 0.0000
# 6 0.0000 0.0000 0.0000 1.1436 0.0000 13.8979
#
#
#
# Elastic Compliance Matrix: (Units=1/GPa)
#
#
# Indices 1 2 3 4 5 6 
#
# 1 0.009864 -0.002138 -0.002997 0.000000 -0.002307 0.000000
# 2 -0.002138 0.012329 -0.001975 0.000000 -0.001533 0.000000
# 3 -0.002997 -0.001975 0.011863 0.000000 0.004650 0.000000
# 4 0.000000 0.000000 0.000000 0.109902 0.000000 -0.009044
# 5 -0.002307 -0.001533 0.004650 0.000000 0.030444 0.000000
# 6 0.000000 0.000000 0.000000 -0.009044 0.000000 0.072698
#
#
# Mechanical properties :
#
#
# Convention : Reuss Voigt Hill
#
# Bulk Modulus (GPa) = 50.41254 51.66325 51.03790
# Shear Modulus (GPa) = 18.66159 26.95149 22.80654
#
# Velocity S-wave (km/s) = 3.04275 3.65665 3.36373
# Velocity P-wave (km/s) = 6.11187 6.59235 6.35665
#
# Compressibility (1/GPa) = 0.01983633
#
# Stress axis : x y z
#
# Youngs Moduli (GPa) = 101.38340 81.11110 84.29577
#
# Poissons Ratio (x) = 0.17338 0.25262
# Poissons Ratio (y) = 0.21672 0.16649
# Poissons Ratio (z) = 0.30383 0.16020
#
# Static dielectric constant tensor:
#      x y z
#    x 3.884710 0.000000 -0.028220 
#    y 0.000000 3.311500 0.000000 
#    z -0.028220 0.000000 3.829710 
# 
# 
# High freq. dielectric constant tensor:
#      x y z
#    x 1.800770 0.000000 -0.000150 
#    y 0.000000 1.755450 0.000000 
#    z -0.000150 0.000000 1.794880 
# 
# From -- ./inp_files/88260.got.cif
#   From: 2010.06.25/outbox.cif.g09.slc.cpg/sg10_45_cif.got.tgz:88260.got - 2010.06.27 22:07:45.
