data_PCOD8062094
_publ_section_title
;
Structure prediction by ZEFSAII (Michael W. Deem and Ramdas Pophale) SiO2 
 PCOD8062094
Probable space group: P 2/M
;
_chemical_formula_sum "Si O2"
_cell_formula_units_Z 20
_cell_length_a 12.873146
_cell_length_b 8.207321
_cell_length_c 10.902587
_cell_angle_alpha 90.000000
_cell_angle_beta 126.377810
_cell_angle_gamma 90.000000
_cell_volume 927.423746
_symmetry_space_group_name_H-M "P 2/M"
_symmetry_group_IT_number 10
_symmetry_cell_setting 'monoclinic'
loop_
_space_group_symop_operation_xyz
x,y,z
-x,y,-z
-x,-y,-z
x,-y,z
loop_
_atom_site_type_symbol
_atom_site_label
_atom_site_fract_x
_atom_site_fract_y
_atom_site_fract_z
Si Si1 0.085642 0.695062 0.676749
Si Si2 0.963572 0.313369 0.843341
Si Si3 0.375190 0.312219 0.846793
Si Si4 0.306932 0.815431 0.318827
Si Si5 0.466979 0.686423 0.641852
O O1 0.083968 0.500000 0.671866
O O2 0.233511 0.763013 0.775291
O O3 0.000000 0.758523 0.500000
O O4 0.028179 0.763605 0.765741
O O5 0.007592 0.500000 0.878339
O O6 0.811199 0.298191 0.726282
O O7 0.000000 0.228425 0.000000
O O8 0.371893 0.500000 0.885699
O O9 0.397810 0.288243 0.720444
O O10 0.500000 0.228113 0.000000
O O11 0.399962 0.808217 0.500695
O O12 0.381496 0.740370 0.251940
O O13 0.262986 0.000000 0.261765
O O14 0.455608 0.500000 0.590191
#
# Coordination Sequence:
#
# PCOD8062094 Si02
#       5
#     4   4   4   4   4
#     4   9  17  31  52  80 114 146 178 226 287 341
#     4  10  21  35  57  85 111 143 190 239 282 331
#     4   9  18  30  52  85 115 140 176 235 292 334
#     4  11  22  36  55  79 114 152 187 226 282 340
#     4  10  19  34  59  85 110 141 188 235 278 332
#
# _framework density 21.565114999999999
#
# number of rings (size 3 to 8) (size 9 to 14) (size 15 to 20)
#    0.000    2.200    0.000    4.800    2.800    3.600 
#    0.000    0.000    0.000    9.000    0.000    0.000 
#    0.000    0.000    0.000    0.000    0.000    0.000 
#
# Total GULP energy -247779.892045 kJ/mol
# GULP energy per Si atom -12388.994602 kJ/mol
# Density = 2.151603 g / cm^3
# Si number density = 21.565115 Si / 1000 Ang^3
#
#
#
# Elastic Constant Matrix: (Units=GPa)
#
#
# Indices 1 2 3 4 5 6 
#
# 1 197.1459 6.8124 77.2751 0.0000 13.0876 0.0000
# 2 6.8124 32.5196 5.2619 0.0000 -6.0721 0.0000
# 3 77.2751 5.2619 122.0448 0.0000 7.5895 0.0000
# 4 0.0000 0.0000 0.0000 -1.4083 0.0000 9.6652
# 5 13.0876 -6.0721 7.5895 0.0000 41.1902 0.0000
# 6 0.0000 0.0000 0.0000 9.6652 0.0000 -1.3036
#
#
#
# Elastic Compliance Matrix: (Units=1/GPa)
#
#
# Indices 1 2 3 4 5 6 
#
# 1 0.006859 -0.001048 -0.004200 0.000000 -0.001560 0.000000
# 2 -0.001048 0.032122 -0.001048 0.000000 0.005262 0.000000
# 3 -0.004200 -0.001048 0.010951 0.000000 -0.000838 0.000000
# 4 0.000000 0.000000 0.000000 0.014235 0.000000 0.105539
# 5 -0.001560 0.005262 -0.000838 0.000000 0.025703 0.000000
# 6 0.000000 0.000000 0.000000 0.105539 0.000000 0.015378
#
#
# Mechanical properties :
#
#
# Convention : Reuss Voigt Hill
#
# Bulk Modulus (GPa) = 26.78292 58.93434 42.85863
# Shear Modulus (GPa) = 38.37647 25.18638 31.78143
#
# Velocity S-wave (km/s) = 4.22306 3.42120 3.84310
# Velocity P-wave (km/s) = 6.01876 6.55698 6.29363
#
# Compressibility (1/GPa) = 0.03733723
#
# Stress axis : x y z
#
# Youngs Moduli (GPa) = 145.80199 31.13097 91.31913
#
# Poissons Ratio (x) = 0.03264 0.38358
# Poissons Ratio (y) = 0.15286 0.09573
# Poissons Ratio (z) = 0.61244 0.03264
#
# Static dielectric constant tensor:
#      x y z
#    x 4.515820 0.000000 0.242450 
#    y 0.000000 3.216790 0.000000 
#    z 0.242450 0.000000 4.112490 
# 
# 
# High freq. dielectric constant tensor:
#      x y z
#    x 1.872790 0.000000 0.004740 
#    y 0.000000 1.786480 0.000000 
#    z 0.004740 0.000000 1.840500 
# 
# From -- ./inp_files/45374.got.cif
#   From: 2010.06.25/outbox.cif.g09.slc.cpg/sg10_23_cif.got.tgz:45374.got - 2010.06.27 22:07:45.
