data_PCOD8062210
_publ_section_title
;
Structure prediction by ZEFSAII (Michael W. Deem and Ramdas Pophale) SiO2 
 PCOD8062210
Probable space group: P 2/M
;
_chemical_formula_sum "Si O2"
_cell_formula_units_Z 24
_cell_length_a 19.955560
_cell_length_b 8.740776
_cell_length_c 9.576102
_cell_angle_alpha 90.000000
_cell_angle_beta 129.965061
_cell_angle_gamma 90.000000
_cell_volume 1280.202656
_symmetry_space_group_name_H-M "P 2/M"
_symmetry_group_IT_number 10
_symmetry_cell_setting 'monoclinic'
loop_
_space_group_symop_operation_xyz
x,y,z
-x,y,-z
-x,-y,-z
x,-y,z
loop_
_atom_site_type_symbol
_atom_site_label
_atom_site_fract_x
_atom_site_fract_y
_atom_site_fract_z
Si Si1 0.467862 0.178933 0.111338
Si Si2 0.717683 0.679467 0.081983
Si Si3 0.248547 0.179961 0.159046
Si Si4 0.629772 0.680212 0.464417
Si Si5 0.215690 0.321569 0.531074
Si Si6 0.904375 0.819926 0.841413
O O1 0.540365 0.229172 0.320082
O O2 0.447757 0.000000 0.100167
O O3 0.500000 0.221998 0.000000
O O4 0.382017 0.274303 0.029381
O O5 0.721985 0.500000 0.057292
O O6 0.774015 0.723701 0.293755
O O7 0.761704 0.771611 0.014821
O O8 0.331771 0.268355 0.334916
O O9 0.160700 0.231289 0.121827
O O10 0.264626 0.000000 0.193826
O O11 0.611391 0.500000 0.439104
O O12 0.697335 0.731433 0.434268
O O13 0.202139 0.500000 0.491690
O O14 0.130609 0.239268 0.354388
O O15 0.910918 0.000000 0.839885
O O16 0.000000 0.749107 0.000000
#
# Coordination Sequence:
#
# PCOD8062210 Si02
#       6
#     4   4   4   4   4   4
#     4  11  22  34  53  81 111 144 187 230 269 314
#     4  11  22  37  55  79 112 148 184 223 272 323
#     4  10  21  37  56  81 112 142 179 227 276 323
#     4  10  19  35  56  78 107 146 188 227 270 318
#     4   9  19  34  55  81 108 141 181 222 266 321
#     4   9  19  37  61  85 108 138 177 220 269 329
#
# _framework density 18.747032000000001
#
# number of rings (size 3 to 8) (size 9 to 14) (size 15 to 20)
#    0.000    2.000    1.667    2.000    0.000    4.333 
#    0.000    4.167    0.000    5.000    0.000    0.000 
#    0.000    0.000    0.000    0.000    0.000    0.000 
#
# Total GULP energy -297693.885741 kJ/mol
# GULP energy per Si atom -12403.911906 kJ/mol
# Density = 1.870436 g / cm^3
# Si number density = 18.747032 Si / 1000 Ang^3
#
#
#
# Elastic Constant Matrix: (Units=GPa)
#
#
# Indices 1 2 3 4 5 6 
#
# 1 70.9687 17.4697 59.0802 0.0000 1.2224 0.0000
# 2 17.4697 32.3015 23.5663 0.0000 -1.1311 0.0000
# 3 59.0802 23.5663 131.5842 0.0000 6.5946 0.0000
# 4 0.0000 0.0000 0.0000 34.5591 0.0000 -2.8112
# 5 1.2224 -1.1311 6.5946 0.0000 35.9439 0.0000
# 6 0.0000 0.0000 0.0000 -2.8112 0.0000 23.8363
#
#
#
# Elastic Compliance Matrix: (Units=1/GPa)
#
#
# Indices 1 2 3 4 5 6 
#
# 1 0.023412 -0.005680 -0.009533 0.000000 0.000774 0.000000
# 2 -0.005680 0.037181 -0.004216 0.000000 0.002137 0.000000
# 3 -0.009533 -0.004216 0.012743 0.000000 -0.002146 0.000000
# 4 0.000000 0.000000 0.000000 0.029216 0.000000 0.003446
# 5 0.000774 0.002137 -0.002146 0.000000 0.028256 0.000000
# 6 0.000000 0.000000 0.000000 0.003446 0.000000 0.042359
#
#
# Mechanical properties :
#
#
# Convention : Reuss Voigt Hill
#
# Bulk Modulus (GPa) = 29.00438 48.34297 38.67368
# Shear Modulus (GPa) = 22.36971 27.85040 25.11006
#
# Velocity S-wave (km/s) = 3.45808 3.85852 3.66377
# Velocity P-wave (km/s) = 5.60798 6.75972 6.21061
#
# Compressibility (1/GPa) = 0.03447755
#
# Stress axis : x y z
#
# Youngs Moduli (GPa) = 42.71356 26.89572 78.47632
#
# Poissons Ratio (x) = 0.15276 0.74814
# Poissons Ratio (y) = 0.24259 0.33085
# Poissons Ratio (z) = 0.40720 0.11339
#
# Static dielectric constant tensor:
#      x y z
#    x 3.389990 0.000000 -0.022750 
#    y 0.000000 3.387020 0.000000 
#    z -0.022750 0.000000 3.605410 
# 
# 
# High freq. dielectric constant tensor:
#      x y z
#    x 1.707510 0.000000 -0.004040 
#    y 0.000000 1.732520 0.000000 
#    z -0.004040 0.000000 1.735390 
# 
# From -- ./inp_files/27092.got.cif
#   From: 2010.06.25/outbox.cif.g09.slc.cpg/sg10_14_cif.got.tgz:27092.got - 2010.06.27 22:07:45.
