data_PCOD8062215
_publ_section_title
;
Structure prediction by ZEFSAII (Michael W. Deem and Ramdas Pophale) SiO2 
 PCOD8062215
Probable space group: P 2/M
;
_chemical_formula_sum "Si O2"
_cell_formula_units_Z 28
_cell_length_a 16.630483
_cell_length_b 8.712842
_cell_length_c 14.935669
_cell_angle_alpha 90.000000
_cell_angle_beta 133.647592
_cell_angle_gamma 90.000000
_cell_volume 1565.983610
_symmetry_space_group_name_H-M "P 2/M"
_symmetry_group_IT_number 10
_symmetry_cell_setting 'monoclinic'
loop_
_space_group_symop_operation_xyz
x,y,z
-x,y,-z
-x,-y,-z
x,-y,z
loop_
_atom_site_type_symbol
_atom_site_label
_atom_site_fract_x
_atom_site_fract_y
_atom_site_fract_z
Si Si1 0.584635 0.821019 0.176174
Si Si2 0.352851 0.680911 0.952637
Si Si3 0.011381 0.679771 0.111988
Si Si4 0.203773 0.819048 0.979966
Si Si5 0.389040 0.178862 0.601838
Si Si6 0.366248 0.181412 0.260364
Si Si7 0.258741 0.679598 0.347966
O O1 0.657612 0.729514 0.159476
O O2 0.636115 0.790486 0.313234
O O3 0.585400 0.000000 0.152889
O O4 0.457742 0.764558 0.078058
O O5 0.368945 0.500000 0.971761
O O6 0.242860 0.734591 0.919730
O O7 0.989553 0.500000 0.109558
O O8 0.923685 0.775474 0.102267
O O9 0.131926 0.732279 0.238462
O O10 0.000000 0.726113 0.000000
O O11 0.216769 0.000000 0.977238
O O12 0.277328 0.756745 0.119710
O O13 0.511693 0.241017 0.672020
O O14 0.297632 0.272554 0.476479
O O15 0.379230 0.000000 0.570528
O O16 0.337720 0.240639 0.336583
O O17 0.363409 0.000000 0.258898
O O18 0.269548 0.500000 0.341899
#
# Coordination Sequence:
#
# PCOD8062215 Si02
#       7
#     4   4   4   4   4   4   4
#     4  10  19  35  56  79 110 145 182 222 266 321
#     4  11  21  33  53  83 114 143 175 221 277 325
#     4  10  21  38  55  76 109 144 181 227 276 319
#     4  11  21  35  57  82 108 142 185 226 268 319
#     4  10  21  37  55  77 110 148 181 222 268 317
#     4  10  20  35  53  77 109 145 182 220 267 318
#     4  11  23  36  53  78 109 146 184 224 270 323
#
# _framework density 17.880136
#
# number of rings (size 3 to 8) (size 9 to 14) (size 15 to 20)
#    0.000    1.571    2.857    3.857    0.000    5.429 
#    0.000    0.000    0.000    0.857    0.000    6.000 
#    0.000    0.000    0.000    0.000    0.000    0.000 
#
# Total GULP energy -347334.361636 kJ/mol
# GULP energy per Si atom -12404.798630 kJ/mol
# Density = 1.783944 g / cm^3
# Si number density = 17.880136 Si / 1000 Ang^3
#
#
#
# Elastic Constant Matrix: (Units=GPa)
#
#
# Indices 1 2 3 4 5 6 
#
# 1 105.1437 25.0346 46.6624 0.0000 -7.0740 0.0000
# 2 25.0346 42.3919 22.5193 0.0000 0.6925 0.0000
# 3 46.6624 22.5193 106.8246 0.0000 0.6057 0.0000
# 4 0.0000 0.0000 0.0000 25.5854 0.0000 2.3863
# 5 -7.0740 0.6925 0.6057 0.0000 23.8439 0.0000
# 6 0.0000 0.0000 0.0000 2.3863 0.0000 27.6466
#
#
#
# Elastic Compliance Matrix: (Units=1/GPa)
#
#
# Indices 1 2 3 4 5 6 
#
# 1 0.013119 -0.005359 -0.004625 0.000000 0.004165 0.000000
# 2 -0.005359 0.028763 -0.003709 0.000000 -0.002331 0.000000
# 3 -0.004625 -0.003709 0.012172 0.000000 -0.001574 0.000000
# 4 0.000000 0.000000 0.000000 0.039402 0.000000 -0.003401
# 5 0.004165 -0.002331 -0.001574 0.000000 0.043283 0.000000
# 6 0.000000 0.000000 0.000000 -0.003401 0.000000 0.036464
#
#
# Mechanical properties :
#
#
# Convention : Reuss Voigt Hill
#
# Bulk Modulus (GPa) = 37.49758 49.19918 43.34838
# Shear Modulus (GPa) = 23.86874 26.09142 24.98008
#
# Velocity S-wave (km/s) = 3.65763 3.82415 3.74182
# Velocity P-wave (km/s) = 6.23337 6.86110 6.55475
#
# Compressibility (1/GPa) = 0.02666839
#
# Stress axis : x y z
#
# Youngs Moduli (GPa) = 76.22284 34.76721 82.15518
#
# Poissons Ratio (x) = 0.18632 0.37994
# Poissons Ratio (y) = 0.40848 0.30473
# Poissons Ratio (z) = 0.35250 0.12896
#
# Static dielectric constant tensor:
#      x y z
#    x 3.327420 0.000000 -0.074920 
#    y 0.000000 3.241550 0.000000 
#    z -0.074920 0.000000 3.259810 
# 
# 
# High freq. dielectric constant tensor:
#      x y z
#    x 1.691380 0.000000 -0.010610 
#    y 0.000000 1.695810 0.000000 
#    z -0.010610 0.000000 1.675790 
# 
# From -- ./inp_files/68673.got.cif
#   From: 2010.06.25/outbox.cif.g09.slc.cpg/sg10_35_cif.got.tgz:68673.got - 2010.06.27 22:07:45.
