data_PCOD8062104
_publ_section_title
;
Structure prediction by ZEFSAII (Michael W. Deem and Ramdas Pophale) SiO2 
 PCOD8062104
Probable space group: P 2/M
;
_chemical_formula_sum "Si O2"
_cell_formula_units_Z 24
_cell_length_a 19.290968
_cell_length_b 9.345544
_cell_length_c 11.407591
_cell_angle_alpha 90.000000
_cell_angle_beta 35.544130
_cell_angle_gamma 90.000000
_cell_volume 1195.570402
_symmetry_space_group_name_H-M "P 2/M"
_symmetry_group_IT_number 10
_symmetry_cell_setting 'monoclinic'
loop_
_space_group_symop_operation_xyz
x,y,z
-x,y,-z
-x,-y,-z
x,-y,z
loop_
_atom_site_type_symbol
_atom_site_label
_atom_site_fract_x
_atom_site_fract_y
_atom_site_fract_z
Si Si1 0.769058 0.666029 0.643796
Si Si2 0.767269 0.834672 0.871060
Si Si3 0.115892 0.666772 0.900189
Si Si4 0.340552 0.331748 0.453104
Si Si5 0.469619 0.165132 0.672080
Si Si6 0.955221 0.335721 0.744082
O O1 0.755320 0.500000 0.695712
O O2 0.690738 0.703804 0.638083
O O3 0.906940 0.704603 0.428528
O O4 0.719286 0.761249 0.818424
O O5 0.670293 0.814045 0.107608
O O6 0.792285 0.000000 0.811549
O O7 0.892626 0.760883 0.732113
O O8 0.114202 0.500000 0.869698
O O9 0.235861 0.731593 0.680072
O O10 0.114532 0.694280 0.039857
O O11 0.000000 0.739365 0.000000
O O12 0.359221 0.500000 0.446019
O O13 0.460593 0.252526 0.324762
O O14 0.500000 0.223997 0.500000
O O15 0.507453 0.000000 0.629537
O O16 0.941494 0.500000 0.723602
#
# Coordination Sequence:
#
# PCOD8062104 Si02
#       6
#     4   4   4   4   4   4
#     4  10  21  37  57  85 118 148 181 226 282 335
#     4  11  24  39  56  79 110 151 194 232 274 327
#     4   9  15  29  55  86 115 140 173 221 276 329
#     4  10  20  35  60  90 115 143 184 232 277 328
#     4  10  23  43  61  78 109 150 188 231 282 332
#     4  10  19  34  59  86 115 149 183 226 280 333
#
# _framework density 20.074100000000001
#
# number of rings (size 3 to 8) (size 9 to 14) (size 15 to 20)
#    0.000    2.000    1.667    2.000    0.000    5.667 
#    0.000    3.333    0.000    1.000    0.000    0.000 
#    0.000    0.000    0.000    0.000    0.000    0.000 
#
# Total GULP energy -297654.072773 kJ/mol
# GULP energy per Si atom -12402.253032 kJ/mol
# Density = 2.002841 g / cm^3
# Si number density = 20.074100 Si / 1000 Ang^3
#
#
#
# Elastic Constant Matrix: (Units=GPa)
#
#
# Indices 1 2 3 4 5 6 
#
# 1 121.2901 57.9441 20.4382 0.0000 -0.3570 0.0000
# 2 57.9441 71.3557 33.6042 0.0000 4.7240 0.0000
# 3 20.4382 33.6042 64.2904 0.0000 10.2715 0.0000
# 4 0.0000 0.0000 0.0000 25.6049 0.0000 5.9083
# 5 -0.3570 4.7240 10.2715 0.0000 30.6042 0.0000
# 6 0.0000 0.0000 0.0000 5.9083 0.0000 6.9453
#
#
#
# Elastic Compliance Matrix: (Units=1/GPa)
#
#
# Indices 1 2 3 4 5 6 
#
# 1 0.013709 -0.012027 0.001697 0.000000 0.001447 0.000000
# 2 -0.012027 0.029147 -0.011275 0.000000 -0.000855 0.000000
# 3 0.001697 -0.011275 0.021796 0.000000 -0.005555 0.000000
# 4 0.000000 0.000000 0.000000 0.048594 0.000000 -0.041338
# 5 0.001447 -0.000855 -0.005555 0.000000 0.034689 0.000000
# 6 0.000000 0.000000 0.000000 -0.041338 0.000000 0.179148
#
#
# Mechanical properties :
#
#
# Convention : Reuss Voigt Hill
#
# Bulk Modulus (GPa) = 46.63730 53.43435 50.03582
# Shear Modulus (GPa) = 13.24715 22.29419 17.77067
#
# Velocity S-wave (km/s) = 2.57166 3.33617 2.97855
# Velocity P-wave (km/s) = 5.66577 6.44332 6.06702
#
# Compressibility (1/GPa) = 0.02144207
#
# Stress axis : x y z
#
# Youngs Moduli (GPa) = 72.94617 34.30832 45.88060
#
# Poissons Ratio (x) = 0.41264 -0.07788
# Poissons Ratio (y) = 0.87734 0.51730
# Poissons Ratio (z) = -0.12382 0.38683
#
# Static dielectric constant tensor:
#      x y z
#    x 3.562910 0.000000 0.081760 
#    y 0.000000 3.337370 0.000000 
#    z 0.081760 0.000000 3.725110 
# 
# 
# High freq. dielectric constant tensor:
#      x y z
#    x 1.787770 0.000000 0.005860 
#    y 0.000000 1.751020 0.000000 
#    z 0.005860 0.000000 1.791380 
# 
# From -- ./inp_files/52619.got.cif
#   From: 2010.06.25/outbox.cif.g09.slc.cpg/sg10_27_cif.got.tgz:52619.got - 2010.06.27 22:07:45.
