data_PCOD8062065
_publ_section_title
;
Structure prediction by ZEFSAII (Michael W. Deem and Ramdas Pophale) SiO2 
 PCOD8062065
Probable space group: P 2/M
;
_chemical_formula_sum "Si O2"
_cell_formula_units_Z 28
_cell_length_a 22.785990
_cell_length_b 7.928418
_cell_length_c 16.192439
_cell_angle_alpha 90.000000
_cell_angle_beta 152.151791
_cell_angle_gamma 90.000000
_cell_volume 1366.485989
_symmetry_space_group_name_H-M "P 2/M"
_symmetry_group_IT_number 10
_symmetry_cell_setting 'monoclinic'
loop_
_space_group_symop_operation_xyz
x,y,z
-x,y,-z
-x,-y,-z
x,-y,z
loop_
_atom_site_type_symbol
_atom_site_label
_atom_site_fract_x
_atom_site_fract_y
_atom_site_fract_z
Si Si1 0.964090 0.686873 0.692084
Si Si2 0.265501 0.808911 0.503172
Si Si3 0.080688 0.500000 0.515929
Si Si4 0.446245 0.700382 0.284733
Si Si5 0.280843 0.197003 0.342466
Si Si6 0.206312 0.693945 0.079446
Si Si7 0.619368 0.500000 0.084449
Si Si8 0.465084 0.804723 0.126168
O O1 0.944918 0.500000 0.708327
O O2 0.847405 0.799859 0.573770
O O3 0.964870 0.666236 0.593004
O O4 0.088576 0.776197 0.883844
O O5 0.235676 0.729183 0.375614
O O6 0.391085 0.735107 0.701657
O O7 0.302059 0.000000 0.528519
O O8 0.000000 0.500000 0.500000
O O9 0.233738 0.500000 0.704112
O O10 0.444544 0.500000 0.269932
O O11 0.573726 0.755710 0.488180
O O12 0.335817 0.769795 0.206219
O O13 0.424830 0.792941 0.171250
O O14 0.197460 0.281232 0.166843
O O15 0.257846 0.000000 0.305258
O O16 0.203180 0.500000 0.051589
O O17 0.614580 0.674255 0.027241
O O18 0.500000 0.500000 0.000000
O O19 0.447167 0.000000 0.073303
#
# Coordination Sequence:
#
# PCOD8062065 Si02
#       8
#     4   4   2   4   4   4   2   4
#     4   9  21  38  59  84 109 154 203 247 303 379
#     4   9  19  37  57  83 125 163 197 249 306 355
#     4  10  24  42  70  90 124 159 194 267 336 390
#     4  10  19  34  58  84 119 163 206 251 304 364
#     4  10  21  34  52  84 122 164 204 253 308 350
#     4  10  21  35  54  82 119 156 211 257 293 360
#     4  12  24  40  72 101 118 165 214 256 330 400
#     4  10  22  38  62  95 126 157 203 264 315 375
#
# _framework density 20.490514999999998
#
# number of rings (size 3 to 8) (size 9 to 14) (size 15 to 20)
#    0.429    1.714    0.714    3.000    3.000    5.429 
#    0.000    3.571    0.000    0.857    0.000    0.000 
#    0.000    0.000    0.000    0.000    0.000    0.000 
#
# Total GULP energy -346876.853091 kJ/mol
# GULP energy per Si atom -12388.459039 kJ/mol
# Density = 2.044388 g / cm^3
# Si number density = 20.490515 Si / 1000 Ang^3
#
#
#
# Elastic Constant Matrix: (Units=GPa)
#
#
# Indices 1 2 3 4 5 6 
#
# 1 101.0760 12.0479 46.6443 0.0000 0.8514 0.0000
# 2 12.0479 43.8577 11.6327 0.0000 -11.2332 0.0000
# 3 46.6443 11.6327 115.6336 0.0000 -18.7191 0.0000
# 4 0.0000 0.0000 0.0000 7.9236 0.0000 -4.3078
# 5 0.8514 -11.2332 -18.7191 0.0000 26.2230 0.0000
# 6 0.0000 0.0000 0.0000 -4.3078 0.0000 17.4844
#
#
#
# Elastic Compliance Matrix: (Units=1/GPa)
#
#
# Indices 1 2 3 4 5 6 
#
# 1 0.013115 -0.003620 -0.005931 0.000000 -0.006211 0.000000
# 2 -0.003620 0.026694 0.000729 0.000000 0.012073 0.000000
# 3 -0.005931 0.000729 0.012493 0.000000 0.009423 0.000000
# 4 0.000000 0.000000 0.000000 0.145726 0.000000 0.035904
# 5 -0.006211 0.012073 0.009423 0.000000 0.050234 0.000000
# 6 0.000000 0.000000 0.000000 0.035904 0.000000 0.066040
#
#
# Mechanical properties :
#
#
# Convention : Reuss Voigt Hill
#
# Bulk Modulus (GPa) = 28.85412 44.57968 36.71690
# Shear Modulus (GPa) = 14.55613 23.00901 18.78257
#
# Velocity S-wave (km/s) = 2.66819 3.35462 3.03090
# Velocity P-wave (km/s) = 4.85846 6.06697 5.49603
#
# Compressibility (1/GPa) = 0.03465710
#
# Stress axis : x y z
#
# Youngs Moduli (GPa) = 76.25115 37.46116 80.04736
#
# Poissons Ratio (x) = 0.13561 0.47479
# Poissons Ratio (y) = 0.27604 -0.05838
# Poissons Ratio (z) = 0.45227 -0.02732
#
# Static dielectric constant tensor:
#      x y z
#    x 3.600090 0.000000 0.000260 
#    y 0.000000 3.518320 0.000000 
#    z 0.000260 0.000000 3.787930 
# 
# 
# High freq. dielectric constant tensor:
#      x y z
#    x 1.792880 0.000000 -0.002470 
#    y 0.000000 1.782690 0.000000 
#    z -0.002470 0.000000 1.800310 
# 
# From -- ./inp_files/70351.got.cif
#   From: 2010.06.25/outbox.cif.g09.slc.cpg/sg10_36_cif.got.tgz:70351.got - 2010.06.27 22:07:45.
