data_PCOD8062209
_publ_section_title
;
Structure prediction by ZEFSAII (Michael W. Deem and Ramdas Pophale) SiO2 
 PCOD8062209
Probable space group: P 2/M
;
_chemical_formula_sum "Si O2"
_cell_formula_units_Z 32
_cell_length_a 21.079514
_cell_length_b 8.941194
_cell_length_c 26.210161
_cell_angle_alpha 90.000000
_cell_angle_beta 159.425520
_cell_angle_gamma 90.000000
_cell_volume 1736.033353
_symmetry_space_group_name_H-M "P 2/M"
_symmetry_group_IT_number 10
_symmetry_cell_setting 'monoclinic'
loop_
_space_group_symop_operation_xyz
x,y,z
-x,y,-z
-x,-y,-z
x,-y,z
loop_
_atom_site_type_symbol
_atom_site_label
_atom_site_fract_x
_atom_site_fract_y
_atom_site_fract_z
Si Si1 0.517417 0.821422 0.840696
Si Si2 0.506378 0.326711 0.564379
Si Si3 0.160962 0.822255 0.846045
Si Si4 0.205212 0.823007 0.151453
Si Si5 0.711845 0.168544 0.166749
Si Si6 0.240412 0.822553 0.437133
Si Si7 0.530392 0.823967 0.736153
Si Si8 0.796000 0.674272 0.332947
O O1 0.534380 0.755159 0.796005
O O2 0.332727 0.764396 0.726013
O O3 0.512618 0.000000 0.837857
O O4 0.688778 0.759857 0.001693
O O5 0.500000 0.297515 0.500000
O O6 0.506903 0.500000 0.579080
O O7 0.688594 0.252828 0.722468
O O8 0.328949 0.251261 0.454394
O O9 0.200078 0.765606 0.818398
O O10 0.964047 0.763310 0.713712
O O11 0.167996 0.000000 0.851764
O O12 0.293466 0.773933 0.163725
O O13 0.220012 0.000000 0.169914
O O14 0.000000 0.766908 0.000000
O O15 0.764536 0.279420 0.251194
O O16 0.781570 0.000000 0.231146
O O17 0.500000 0.164737 0.000000
O O18 0.349809 0.772553 0.570272
O O19 0.249377 0.000000 0.437306
O O20 0.530457 0.000000 0.742252
O O21 0.754948 0.500000 0.308375
O O22 0.000000 0.715313 0.500000
#
# Coordination Sequence:
#
# PCOD8062209 Si02
#       8
#     4   4   4   4   4   4   4   4
#     4  10  19  35  56  78 106 139 176 221 268 316
#     4  10  21  36  53  77 111 148 185 222 259 312
#     4   9  18  32  54  84 109 131 169 222 269 316
#     4   9  18  34  57  85 111 138 178 224 272 323
#     4  10  19  36  60  84 107 135 177 223 270 325
#     4   9  18  34  54  78 107 139 177 221 268 316
#     4   8  16  30  51  78 106 135 170 214 263 313
#     4  11  25  40  52  75 110 144 182 225 267 316
#
# _framework density 18.432825000000001
#
# number of rings (size 3 to 8) (size 9 to 14) (size 15 to 20)
#    0.000    2.500    1.250    1.500    1.750    3.500 
#    0.000    6.250    0.000    0.000    0.000    0.000 
#    0.000    0.000    0.000    0.000    0.000    0.000 
#
# Total GULP energy -396780.016994 kJ/mol
# GULP energy per Si atom -12399.375531 kJ/mol
# Density = 1.839087 g / cm^3
# Si number density = 18.432825 Si / 1000 Ang^3
#
#
#
# Elastic Constant Matrix: (Units=GPa)
#
#
# Indices 1 2 3 4 5 6 
#
# 1 141.6279 36.0313 81.4042 0.0000 2.5997 0.0000
# 2 36.0313 31.7119 33.0277 0.0000 2.2729 0.0000
# 3 81.4042 33.0277 136.8317 0.0000 18.2794 0.0000
# 4 0.0000 0.0000 0.0000 15.9194 0.0000 -2.7696
# 5 2.5997 2.2729 18.2794 0.0000 30.5303 0.0000
# 6 0.0000 0.0000 0.0000 -2.7696 0.0000 16.9823
#
#
#
# Elastic Compliance Matrix: (Units=1/GPa)
#
#
# Indices 1 2 3 4 5 6 
#
# 1 0.012463 -0.008327 -0.005810 0.000000 0.003038 0.000000
# 2 -0.008327 0.047978 -0.006787 0.000000 0.001201 0.000000
# 3 -0.005810 -0.006787 0.013336 0.000000 -0.006985 0.000000
# 4 0.000000 0.000000 0.000000 0.064651 0.000000 0.010544
# 5 0.003038 0.001201 -0.006985 0.000000 0.036588 0.000000
# 6 0.000000 0.000000 0.000000 0.010544 0.000000 0.060604
#
#
# Mechanical properties :
#
#
# Convention : Reuss Voigt Hill
#
# Bulk Modulus (GPa) = 31.32034 67.89974 49.61004
# Shear Modulus (GPa) = 17.35434 23.33364 20.34399
#
# Velocity S-wave (km/s) = 3.07170 3.56177 3.32578
# Velocity P-wave (km/s) = 5.44141 7.33698 6.45911
#
# Compressibility (1/GPa) = 0.03192813
#
# Stress axis : x y z
#
# Youngs Moduli (GPa) = 80.23666 20.84304 74.98269
#
# Poissons Ratio (x) = 0.17356 0.43569
# Poissons Ratio (y) = 0.66812 0.50892
# Poissons Ratio (z) = 0.46622 0.14147
#
# Static dielectric constant tensor:
#      x y z
#    x 3.610110 0.000000 0.036020 
#    y 0.000000 3.091080 0.000000 
#    z 0.036020 0.000000 3.572510 
# 
# 
# High freq. dielectric constant tensor:
#      x y z
#    x 1.725820 0.000000 0.002560 
#    y 0.000000 1.681770 0.000000 
#    z 0.002560 0.000000 1.721060 
# 
# From -- ./inp_files/93781.got.cif
#   From: 2010.06.25/outbox.cif.g09.slc.cpg/sg10_47_cif.got.tgz:93781.got - 2010.06.27 22:07:45.
