data_PCOD8062108
_publ_section_title
;
Structure prediction by ZEFSAII (Michael W. Deem and Ramdas Pophale) SiO2 
 PCOD8062108
Probable space group: P 2/M
;
_chemical_formula_sum "Si O2"
_cell_formula_units_Z 32
_cell_length_a 11.253428
_cell_length_b 8.728800
_cell_length_c 20.675137
_cell_angle_alpha 90.000000
_cell_angle_beta 127.072615
_cell_angle_gamma 90.000000
_cell_volume 1620.395690
_symmetry_space_group_name_H-M "P 2/M"
_symmetry_group_IT_number 10
_symmetry_cell_setting 'monoclinic'
loop_
_space_group_symop_operation_xyz
x,y,z
-x,y,-z
-x,-y,-z
x,-y,z
loop_
_atom_site_type_symbol
_atom_site_label
_atom_site_fract_x
_atom_site_fract_y
_atom_site_fract_z
Si Si1 0.550700 0.181046 0.326495
Si Si2 0.060579 0.180066 0.113630
Si Si3 0.107759 0.320426 0.264754
Si Si4 0.156652 0.321771 0.731543
Si Si5 0.878938 0.818712 0.412024
Si Si6 0.395999 0.817977 0.406255
Si Si7 0.201912 0.678672 0.034462
Si Si8 0.487223 0.321929 0.818545
O O1 0.718945 0.245037 0.381841
O O2 0.469781 0.242250 0.363956
O O3 0.472485 0.237152 0.235233
O O4 0.548145 0.000000 0.325972
O O5 0.124511 0.226829 0.204009
O O6 0.148193 0.273478 0.087996
O O7 0.083194 0.000000 0.110660
O O8 0.885417 0.225113 0.049148
O O9 0.127368 0.500000 0.258139
O O10 0.233960 0.262027 0.356465
O O11 0.943427 0.283537 0.238998
O O12 0.150200 0.500000 0.713246
O O13 0.083405 0.233017 0.647855
O O14 0.329286 0.268345 0.797916
O O15 0.000000 0.747123 0.500000
O O16 0.882367 0.000000 0.415921
O O17 0.500000 0.764548 0.500000
O O18 0.374811 0.000000 0.401057
O O19 0.168630 0.500000 0.012598
O O20 0.379098 0.713541 0.087264
O O21 0.482141 0.500000 0.800065
#
# Coordination Sequence:
#
# PCOD8062108 Si02
#       8
#     4   4   4   4   4   4   4   4
#     4   9  18  32  49  75 105 135 173 217 267 318
#     4  11  22  36  56  84 115 148 181 219 271 326
#     4  11  23  39  57  77 109 147 185 226 270 324
#     4   9  20  37  54  76 105 141 182 223 270 322
#     4   9  18  31  52  77 101 132 174 223 269 319
#     4  10  22  37  55  78 107 143 180 223 273 328
#     4  10  19  34  59  87 114 141 179 227 271 321
#     4   9  18  34  56  80 105 138 177 221 271 319
#
# _framework density 19.748262
#
# number of rings (size 3 to 8) (size 9 to 14) (size 15 to 20)
#    0.000    2.250    0.000    3.375    1.750    5.000 
#    0.000    0.625    0.000    3.750    0.000    0.000 
#    0.000    0.000    0.000    0.000    0.000    0.000 
#
# Total GULP energy -396744.659448 kJ/mol
# GULP energy per Si atom -12398.270608 kJ/mol
# Density = 1.970331 g / cm^3
# Si number density = 19.748262 Si / 1000 Ang^3
#
#
#
# Elastic Constant Matrix: (Units=GPa)
#
#
# Indices 1 2 3 4 5 6 
#
# 1 64.3257 10.9090 20.5118 0.0000 5.3539 0.0000
# 2 10.9090 29.1771 12.3414 0.0000 3.5579 0.0000
# 3 20.5118 12.3414 99.0237 0.0000 18.2633 0.0000
# 4 0.0000 0.0000 0.0000 28.0065 0.0000 3.3273
# 5 5.3539 3.5579 18.2633 0.0000 25.9559 0.0000
# 6 0.0000 0.0000 0.0000 3.3273 0.0000 20.3155
#
#
#
# Elastic Compliance Matrix: (Units=1/GPa)
#
#
# Indices 1 2 3 4 5 6 
#
# 1 0.017394 -0.005214 -0.002785 0.000000 -0.000914 0.000000
# 2 -0.005214 0.037839 -0.003307 0.000000 -0.001785 0.000000
# 3 -0.002785 -0.003307 0.012523 0.000000 -0.007784 0.000000
# 4 0.000000 0.000000 0.000000 0.036415 0.000000 -0.005964
# 5 -0.000914 -0.001785 -0.007784 0.000000 0.044437 0.000000
# 6 0.000000 0.000000 0.000000 -0.005964 0.000000 0.050200
#
#
# Mechanical properties :
#
#
# Convention : Reuss Voigt Hill
#
# Bulk Modulus (GPa) = 22.15065 31.11678 26.63371
# Shear Modulus (GPa) = 21.14449 24.77318 22.95884
#
# Velocity S-wave (km/s) = 3.27571 3.54566 3.41335
# Velocity P-wave (km/s) = 5.05449 5.70554 5.38986
#
# Compressibility (1/GPa) = 0.04514541
#
# Stress axis : x y z
#
# Youngs Moduli (GPa) = 57.49054 26.42758 79.85216
#
# Poissons Ratio (x) = 0.13780 0.22236
# Poissons Ratio (y) = 0.29977 0.26405
# Poissons Ratio (z) = 0.16009 0.08739
#
# Static dielectric constant tensor:
#      x y z
#    x 3.741490 0.000000 0.343320 
#    y 0.000000 3.443330 0.000000 
#    z 0.343320 0.000000 3.793210 
# 
# 
# High freq. dielectric constant tensor:
#      x y z
#    x 1.762190 0.000000 0.020760 
#    y 0.000000 1.760540 0.000000 
#    z 0.020760 0.000000 1.771080 
# 
# From -- ./inp_files/83634.got.cif
#   From: 2010.06.25/outbox.cif.g09.slc.cpg/sg10_42_cif.got.tgz:83634.got - 2010.06.27 22:07:45.
