data_PCOD8062957
_publ_section_title
;
Structure prediction by ZEFSAII (Michael W. Deem and Ramdas Pophale) SiO2 
 PCOD8062957
Probable space group: P 2/M
;
_chemical_formula_sum "Si O2"
_cell_formula_units_Z 28
_cell_length_a 14.615258
_cell_length_b 8.956801
_cell_length_c 18.826071
_cell_angle_alpha 90.000000
_cell_angle_beta 141.445836
_cell_angle_gamma 90.000000
_cell_volume 1535.975577
_symmetry_space_group_name_H-M "P 2/M"
_symmetry_group_IT_number 10
_symmetry_cell_setting 'monoclinic'
loop_
_space_group_symop_operation_xyz
x,y,z
-x,y,-z
-x,-y,-z
x,-y,z
loop_
_atom_site_type_symbol
_atom_site_label
_atom_site_fract_x
_atom_site_fract_y
_atom_site_fract_z
Si Si1 0.965674 0.164057 0.091012
Si Si2 0.364685 0.671894 0.969318
Si Si3 0.237514 0.823041 0.429309
Si Si4 0.751318 0.325713 0.714953
Si Si5 0.085073 0.164182 0.773270
Si Si6 0.356617 0.823268 0.113878
Si Si7 0.493519 0.675632 0.666147
O O1 0.940294 0.152511 0.158762
O O2 0.097321 0.277887 0.153832
O O3 0.008708 0.000000 0.087472
O O4 0.810631 0.218449 0.963801
O O5 0.347901 0.500000 0.981017
O O6 0.390464 0.768905 0.055027
O O7 0.500000 0.699623 0.000000
O O8 0.217108 0.721691 0.837397
O O9 0.274115 0.760391 0.373674
O O10 0.341924 0.749588 0.550642
O O11 0.071291 0.781776 0.353455
O O12 0.259994 0.000000 0.440238
O O13 0.757436 0.500000 0.701771
O O14 0.618068 0.282853 0.685064
O O15 0.127165 0.000000 0.768983
O O16 0.467427 0.741599 0.233658
O O17 0.380795 0.000000 0.131192
O O18 0.471990 0.500000 0.660055
#
# Coordination Sequence:
#
# PCOD8062957 Si02
#       7
#     4   4   4   4   4   4   4
#     4   8  16  31  49  70  97 130 169 211 252 296
#     4  10  20  34  56  85 110 130 156 195 246 303
#     4  10  20  34  52  73  99 134 177 217 250 290
#     4  10  20  32  48  72 100 133 175 218 257 295
#     4   8  16  31  51  76 102 130 166 205 246 293
#     4  10  21  36  53  74 101 134 170 206 251 304
#     4  11  23  35  48  70 102 138 174 213 256 300
#
# _framework density 18.229455000000002
#
# number of rings (size 3 to 8) (size 9 to 14) (size 15 to 20)
#    0.000    2.429    0.000    4.286    0.000   12.000 
#    0.000    2.857    0.000    0.857    0.000    6.000 
#    0.000    0.000    0.000    0.000    0.000    0.000 
#
# Total GULP energy -347129.045355 kJ/mol
# GULP energy per Si atom -12397.465906 kJ/mol
# Density = 1.818796 g / cm^3
# Si number density = 18.229455 Si / 1000 Ang^3
#
#
#
# Elastic Constant Matrix: (Units=GPa)
#
#
# Indices 1 2 3 4 5 6 
#
# 1 43.7109 39.8391 53.6203 0.0000 11.1199 0.0000
# 2 39.8391 90.9419 58.2453 0.0000 10.6805 0.0000
# 3 53.6203 58.2453 135.7975 0.0000 9.6200 0.0000
# 4 0.0000 0.0000 0.0000 12.6772 0.0000 27.0267
# 5 11.1199 10.6805 9.6200 0.0000 23.4318 0.0000
# 6 0.0000 0.0000 0.0000 27.0267 0.0000 -11.6608
#
#
#
# Elastic Compliance Matrix: (Units=1/GPa)
#
#
# Indices 1 2 3 4 5 6 
#
# 1 0.059540 -0.013689 -0.016560 0.000000 -0.015217 0.000000
# 2 -0.013689 0.018755 -0.002568 0.000000 -0.000998 0.000000
# 3 -0.016560 -0.002568 0.014795 0.000000 0.002955 0.000000
# 4 0.000000 0.000000 0.000000 0.013277 0.000000 0.030773
# 5 -0.015217 -0.000998 0.002955 0.000000 0.049140 0.000000
# 6 0.000000 0.000000 0.000000 0.030773 0.000000 -0.014434
#
#
# Mechanical properties :
#
#
# Convention : Reuss Voigt Hill
#
# Bulk Modulus (GPa) = 36.42419 63.76219 50.09319
# Shear Modulus (GPa) = 23.16326 12.80602 17.98464
#
# Velocity S-wave (km/s) = 3.56849 2.65333 3.14438
# Velocity P-wave (km/s) = 6.08302 6.66636 6.38136
#
# Compressibility (1/GPa) = 0.02745428
#
# Stress axis : x y z
#
# Youngs Moduli (GPa) = 16.79552 53.31890 67.59093
#
# Poissons Ratio (x) = 0.72991 1.11930
# Poissons Ratio (y) = 0.22992 0.17359
# Poissons Ratio (z) = 0.27813 0.13694
#
# Static dielectric constant tensor:
#      x y z
#    x 2.977700 0.000000 0.242230 
#    y 0.000000 3.461240 0.000000 
#    z 0.242230 0.000000 3.867440 
# 
# 
# High freq. dielectric constant tensor:
#      x y z
#    x 1.665410 0.000000 0.012300 
#    y 0.000000 1.716470 0.000000 
#    z 0.012300 0.000000 1.715880 
# 
# From -- ./inp_files/68684.got.cif
#   From: 2010.06.25/outbox.cif.g09.slc.cpg/sg10_35_cif.got.tgz:68684.got - 2010.06.27 22:07:45.
