data_PCOD8062021
_publ_section_title
;
Structure prediction by ZEFSAII (Michael W. Deem and Ramdas Pophale) SiO2 
 PCOD8062021
Probable space group: P 2/M
;
_chemical_formula_sum "Si O2"
_cell_formula_units_Z 32
_cell_length_a 22.662025
_cell_length_b 8.892536
_cell_length_c 14.839403
_cell_angle_alpha 90.000000
_cell_angle_beta 30.547635
_cell_angle_gamma 90.000000
_cell_volume 1519.924580
_symmetry_space_group_name_H-M "P 2/M"
_symmetry_group_IT_number 10
_symmetry_cell_setting 'monoclinic'
loop_
_space_group_symop_operation_xyz
x,y,z
-x,y,-z
-x,-y,-z
x,-y,z
loop_
_atom_site_type_symbol
_atom_site_label
_atom_site_fract_x
_atom_site_fract_y
_atom_site_fract_z
Si Si1 0.724777 0.330141 0.341688
Si Si2 0.892277 0.176907 0.992926
Si Si3 0.503074 0.172512 0.599846
Si Si4 0.332651 0.174108 0.979822
Si Si5 0.604804 0.678041 0.926761
Si Si6 0.092700 0.177502 0.230137
Si Si7 0.881258 0.671792 0.305801
Si Si8 0.162609 0.822881 0.451518
O O1 0.732655 0.500000 0.295325
O O2 0.776830 0.219199 0.198204
O O3 0.593655 0.279538 0.530969
O O4 0.783057 0.313807 0.361169
O O5 0.915083 0.000000 0.969567
O O6 0.882445 0.235048 0.903439
O O7 0.999679 0.268094 0.895432
O O8 0.500000 0.224454 0.500000
O O9 0.382808 0.195162 0.812481
O O10 0.543550 0.000000 0.552140
O O11 0.336238 0.000000 0.003839
O O12 0.409985 0.264002 0.951237
O O13 0.198112 0.235164 0.155677
O O14 0.603832 0.500000 0.926701
O O15 0.730429 0.735017 0.730956
O O16 0.500000 0.738101 0.000000
O O17 0.961315 0.223943 0.433164
O O18 0.101428 0.000000 0.217146
O O19 0.894473 0.500000 0.322143
O O20 0.845455 0.781759 0.433367
O O21 0.184167 0.000000 0.412555
#
# Coordination Sequence:
#
# PCOD8062021 Si02
#       8
#     4   4   4   4   4   4   4   4
#     4  11  23  35  52  79 117 162 203 250 307 368
#     4  10  19  34  57  85 118 158 205 253 301 357
#     4  10  22  40  62  89 120 157 202 255 308 361
#     4  10  21  40  66  93 120 157 204 252 303 365
#     4  11  26  45  63  86 124 166 201 250 312 365
#     4   8  17  36  62  91 121 151 189 248 312 359
#     4  10  21  36  54  82 122 161 198 246 309 367
#     4  10  21  39  65  93 119 154 203 251 300 364
#
# _framework density 21.053677
#
# number of rings (size 3 to 8) (size 9 to 14) (size 15 to 20)
#    0.000    2.000    0.000    3.750    1.750    7.750 
#    0.000    7.500    0.000    0.000    0.000    0.000 
#    0.000    0.000    0.000    0.000    0.000    0.000 
#
# Total GULP energy -396679.276216 kJ/mol
# GULP energy per Si atom -12396.227382 kJ/mol
# Density = 2.100576 g / cm^3
# Si number density = 21.053677 Si / 1000 Ang^3
#
#
#
# Elastic Constant Matrix: (Units=GPa)
#
#
# Indices 1 2 3 4 5 6 
#
# 1 119.2852 49.1981 47.0541 0.0000 -22.2401 0.0000
# 2 49.1981 59.5407 21.8374 0.0000 -11.9481 0.0000
# 3 47.0541 21.8374 98.2290 0.0000 -11.2023 0.0000
# 4 0.0000 0.0000 0.0000 27.3271 0.0000 2.6288
# 5 -22.2401 -11.9481 -11.2023 0.0000 32.2217 0.0000
# 6 0.0000 0.0000 0.0000 2.6288 0.0000 21.7091
#
#
#
# Elastic Compliance Matrix: (Units=1/GPa)
#
#
# Indices 1 2 3 4 5 6 
#
# 1 0.015204 -0.009857 -0.004490 0.000000 0.005278 0.000000
# 2 -0.009857 0.025697 -0.000708 0.000000 0.002479 0.000000
# 3 -0.004490 -0.000708 0.012605 0.000000 0.001021 0.000000
# 4 0.000000 0.000000 0.000000 0.037025 0.000000 -0.004484
# 5 0.005278 0.002479 0.001021 0.000000 0.035952 0.000000
# 6 0.000000 0.000000 0.000000 -0.004484 0.000000 0.046607
#
#
# Mechanical properties :
#
#
# Convention : Reuss Voigt Hill
#
# Bulk Modulus (GPa) = 42.74272 57.02599 49.88436
# Shear Modulus (GPa) = 23.69686 26.84926 25.27306
#
# Velocity S-wave (km/s) = 3.35855 3.57498 3.46845
# Velocity P-wave (km/s) = 5.94859 6.64721 6.30758
#
# Compressibility (1/GPa) = 0.02339579
#
# Stress axis : x y z
#
# Youngs Moduli (GPa) = 65.77307 38.91465 79.33448
#
# Poissons Ratio (x) = 0.38358 0.35619
# Poissons Ratio (y) = 0.64832 0.05620
# Poissons Ratio (z) = 0.29530 0.02756
#
# Static dielectric constant tensor:
#      x y z
#    x 3.962000 0.000000 -0.192320 
#    y 0.000000 3.673890 0.000000 
#    z -0.192320 0.000000 3.911430 
# 
# 
# High freq. dielectric constant tensor:
#      x y z
#    x 1.827380 0.000000 -0.008000 
#    y 0.000000 1.809050 0.000000 
#    z -0.008000 0.000000 1.829960 
# 
# From -- ./inp_files/71441.got.cif
#   From: 2010.06.25/outbox.cif.g09.slc.cpg/sg10_36_cif.got.tgz:71441.got - 2010.06.27 22:07:45.
