data_PCOD8062733
_publ_section_title
;
Structure prediction by ZEFSAII (Michael W. Deem and Ramdas Pophale) SiO2 
 PCOD8062733
Probable space group: P 2/M
;
_chemical_formula_sum "Si O2"
_cell_formula_units_Z 24
_cell_length_a 11.555709
_cell_length_b 17.357213
_cell_length_c 12.899166
_cell_angle_alpha 90.000000
_cell_angle_beta 152.853764
_cell_angle_gamma 90.000000
_cell_volume 1180.466321
_symmetry_space_group_name_H-M "P 2/M"
_symmetry_group_IT_number 10
_symmetry_cell_setting 'monoclinic'
loop_
_space_group_symop_operation_xyz
x,y,z
-x,y,-z
-x,-y,-z
x,-y,z
loop_
_atom_site_type_symbol
_atom_site_label
_atom_site_fract_x
_atom_site_fract_y
_atom_site_fract_z
Si Si1 0.850146 0.715496 0.479564
Si Si2 0.500000 0.162074 0.500000
Si Si3 0.999792 0.084523 0.877126
Si Si4 0.808674 0.500000 0.744669
Si Si5 0.658492 0.776845 0.838076
Si Si6 0.931378 0.358582 0.145804
Si Si7 0.558046 0.585497 0.156268
O O1 0.600608 0.766366 0.303451
O O2 0.779398 0.629601 0.389808
O O3 0.000000 0.753506 0.500000
O O4 0.003886 0.699323 0.707126
O O5 0.716617 0.109954 0.618216
O O6 0.386850 0.216066 0.320730
O O7 0.059922 0.000000 0.876644
O O8 0.000000 0.078938 0.000000
O O9 0.208610 0.146796 0.007611
O O10 0.500000 0.500000 0.500000
O O11 0.855396 0.418911 0.721345
O O12 0.000000 0.500000 0.000000
O O13 0.843026 0.702835 0.988963
O O14 0.697842 0.414817 0.982102
O O15 0.661195 0.500000 0.221607
O O16 0.500000 0.626064 0.000000
#
# Coordination Sequence:
#
# PCOD8062733 Si02
#       7
#     4   2   4   2   4   4   4
#     4  11  23  38  62  89 119 161 209 265 320 379
#     4  10  19  38  62  93 122 166 198 257 308 386
#     4   9  18  35  60  92 125 157 197 249 311 379
#     4  12  32  50  64  88 130 182 228 279 329 394
#     4  10  23  38  62  89 129 160 208 254 317 380
#     4  11  24  43  60  86 120 166 217 263 320 380
#     4  10  20  35  61  86 113 143 197 268 328 374
#
# _framework density 20.330947999999999
#
# number of rings (size 3 to 8) (size 9 to 14) (size 15 to 20)
#    0.000    1.667    2.500    1.250    5.833    4.333 
#    1.500    0.000    0.000    0.500    0.000    4.667 
#    0.000    0.000    0.000    0.000    0.000    0.000 
#
# Total GULP energy -297328.308893 kJ/mol
# GULP energy per Si atom -12388.679537 kJ/mol
# Density = 2.028467 g / cm^3
# Si number density = 20.330948 Si / 1000 Ang^3
#
#
#
# Elastic Constant Matrix: (Units=GPa)
#
#
# Indices 1 2 3 4 5 6 
#
# 1 87.6581 51.7260 32.4115 0.0000 16.1873 0.0000
# 2 51.7260 130.8994 43.4551 0.0000 10.3642 0.0000
# 3 32.4115 43.4551 99.6097 0.0000 4.7441 0.0000
# 4 0.0000 0.0000 0.0000 -53.4800 0.0000 -7.6883
# 5 16.1873 10.3642 4.7441 0.0000 35.6361 0.0000
# 6 0.0000 0.0000 0.0000 -7.6883 0.0000 17.1784
#
#
#
# Elastic Compliance Matrix: (Units=1/GPa)
#
#
# Indices 1 2 3 4 5 6 
#
# 1 0.016543 -0.005137 -0.002873 0.000000 -0.005638 0.000000
# 2 -0.005137 0.010686 -0.002972 0.000000 -0.000379 0.000000
# 3 -0.002873 -0.002972 0.012245 0.000000 0.000539 0.000000
# 4 0.000000 0.000000 0.000000 -0.017568 0.000000 -0.007863
# 5 -0.005638 -0.000379 0.000539 0.000000 0.030661 0.000000
# 6 0.000000 0.000000 0.000000 -0.007863 0.000000 0.054694
#
#
# Mechanical properties :
#
#
# Convention : Reuss Voigt Hill
#
# Bulk Modulus (GPa) = 57.11349 63.70583 60.40966
# Shear Modulus (GPa) = 37.02033 12.57186 24.79610
#
# Velocity S-wave (km/s) = 4.27181 2.48938 3.49610
# Velocity P-wave (km/s) = 7.24459 6.29803 6.78783
#
# Compressibility (1/GPa) = 0.01750900
#
# Stress axis : x y z
#
# Youngs Moduli (GPa) = 60.45008 93.58031 81.66514
#
# Poissons Ratio (x) = 0.48069 0.23465
# Poissons Ratio (y) = 0.31051 0.24274
# Poissons Ratio (z) = 0.17369 0.27815
#
# Static dielectric constant tensor:
#      x y z
#    x 2.709170 0.000000 1.012680 
#    y 0.000000 3.788790 0.000000 
#    z 1.012680 0.000000 3.127340 
# 
# 
# High freq. dielectric constant tensor:
#      x y z
#    x 1.772570 0.000000 0.012070 
#    y 0.000000 1.779310 0.000000 
#    z 0.012070 0.000000 1.809910 
# 
# From -- ./inp_files/47945.got.cif
#   From: 2010.06.25/outbox.cif.g09.slc.cpg/sg10_24_cif.got.tgz:47945.got - 2010.06.27 22:07:45.
