data_PCOD8062401
_publ_section_title
;
Structure prediction by ZEFSAII (Michael W. Deem and Ramdas Pophale) SiO2 
 PCOD8062401
Probable space group: P 2/M
;
_chemical_formula_sum "Si O2"
_cell_formula_units_Z 28
_cell_length_a 15.499955
_cell_length_b 7.832555
_cell_length_c 18.841320
_cell_angle_alpha 90.000000
_cell_angle_beta 140.273660
_cell_angle_gamma 90.000000
_cell_volume 1461.936857
_symmetry_space_group_name_H-M "P 2/M"
_symmetry_group_IT_number 10
_symmetry_cell_setting 'monoclinic'
loop_
_space_group_symop_operation_xyz
x,y,z
-x,y,-z
-x,-y,-z
x,-y,z
loop_
_atom_site_type_symbol
_atom_site_label
_atom_site_fract_x
_atom_site_fract_y
_atom_site_fract_z
Si Si1 0.874835 0.799045 0.625868
Si Si2 0.431378 0.807196 0.251166
Si Si3 0.817501 0.808104 0.164875
Si Si4 0.610684 0.693405 0.924042
Si Si5 0.294358 0.500000 0.415504
Si Si6 0.677656 0.692660 0.212785
Si Si7 0.269859 0.195279 0.605899
Si Si8 0.591855 0.500000 0.664774
O O1 0.783811 0.674760 0.615631
O O2 0.846152 0.763332 0.524510
O O3 0.028651 0.745694 0.736869
O O4 0.845387 0.000000 0.624845
O O5 0.356757 0.796034 0.127497
O O6 0.587940 0.758642 0.340331
O O7 0.370228 0.670968 0.267402
O O8 0.413225 0.000000 0.269559
O O9 0.756521 0.802897 0.205081
O O10 0.809433 0.000000 0.131848
O O11 0.734847 0.695715 0.056739
O O12 0.580223 0.500000 0.881845
O O13 0.474740 0.766866 0.875209
O O14 0.435524 0.500000 0.545299
O O15 0.312916 0.500000 0.343112
O O16 0.674500 0.500000 0.182064
O O17 0.753312 0.697964 0.336863
O O18 0.268090 0.000000 0.628630
#
# Coordination Sequence:
#
# PCOD8062401 Si02
#       8
#     4   4   4   4   2   4   4   2
#     4  10  23  40  58  82 116 157 195 231 281 350
#     4  10  19  35  60  87 119 151 184 233 287 338
#     4  11  23  37  53  78 114 157 202 240 281 333
#     4  10  20  35  57  84 116 151 197 244 283 333
#     4  11  24  38  65  87 124 149 176 231 294 344
#     4  10  21  33  52  82 114 148 196 250 286 323
#     4   9  18  34  55  78 111 153 189 231 285 331
#     4  11  22  38  61 100 115 143 184 227 287 357
#
# _framework density 19.152673
#
# number of rings (size 3 to 8) (size 9 to 14) (size 15 to 20)
#    0.000    1.857    2.143    1.714    4.000    4.571 
#    0.000    4.286    0.000    1.714    0.000    3.000 
#    0.000    0.000    0.000    0.000    0.000    0.000 
#
# Total GULP energy -347206.471943 kJ/mol
# GULP energy per Si atom -12400.231141 kJ/mol
# Density = 1.910908 g / cm^3
# Si number density = 19.152673 Si / 1000 Ang^3
#
#
#
# Elastic Constant Matrix: (Units=GPa)
#
#
# Indices 1 2 3 4 5 6 
#
# 1 84.7848 39.4565 63.2584 0.0000 -12.2666 0.0000
# 2 39.4565 82.5566 35.4616 0.0000 -7.9327 0.0000
# 3 63.2584 35.4616 105.3764 0.0000 -0.2278 0.0000
# 4 0.0000 0.0000 0.0000 27.2128 0.0000 -3.4148
# 5 -12.2666 -7.9327 -0.2278 0.0000 23.0216 0.0000
# 6 0.0000 0.0000 0.0000 -3.4148 0.0000 24.3991
#
#
#
# Elastic Compliance Matrix: (Units=1/GPa)
#
#
# Indices 1 2 3 4 5 6 
#
# 1 0.026651 -0.005503 -0.014121 0.000000 0.012164 0.000000
# 2 -0.005503 0.015855 -0.002027 0.000000 0.002511 0.000000
# 3 -0.014121 -0.002027 0.018631 0.000000 -0.008038 0.000000
# 4 0.000000 0.000000 0.000000 0.037404 0.000000 0.005235
# 5 0.012164 0.002511 -0.008038 0.000000 0.050705 0.000000
# 6 0.000000 0.000000 0.000000 0.005235 0.000000 0.041718
#
#
# Mechanical properties :
#
#
# Convention : Reuss Voigt Hill
#
# Bulk Modulus (GPa) = 56.06506 61.00787 58.53647
# Shear Modulus (GPa) = 20.81516 23.89610 22.35563
#
# Velocity S-wave (km/s) = 3.30024 3.53606 3.42019
# Velocity P-wave (km/s) = 6.62257 6.97096 6.79899
#
# Compressibility (1/GPa) = 0.01783642
#
# Stress axis : x y z
#
# Youngs Moduli (GPa) = 37.52217 63.07254 53.67371
#
# Poissons Ratio (x) = 0.34709 0.75790
# Poissons Ratio (y) = 0.20649 0.10877
# Poissons Ratio (z) = 0.52983 0.12782
#
# Static dielectric constant tensor:
#      x y z
#    x 3.181770 0.000000 -0.070310 
#    y 0.000000 3.515830 0.000000 
#    z -0.070310 0.000000 3.457830 
# 
# 
# High freq. dielectric constant tensor:
#      x y z
#    x 1.708540 0.000000 -0.015000 
#    y 0.000000 1.755700 0.000000 
#    z -0.015000 0.000000 1.742640 
# 
# From -- ./inp_files/68739.got.cif
#   From: 2010.06.25/outbox.cif.g09.slc.cpg/sg10_35_cif.got.tgz:68739.got - 2010.06.27 22:07:45.
