data_PCOD8062410
_publ_section_title
;
Structure prediction by ZEFSAII (Michael W. Deem and Ramdas Pophale) SiO2 
 PCOD8062410
Probable space group: P 2/M
;
_chemical_formula_sum "Si O2"
_cell_formula_units_Z 24
_cell_length_a 15.247127
_cell_length_b 7.695726
_cell_length_c 16.631593
_cell_angle_alpha 90.000000
_cell_angle_beta 141.953817
_cell_angle_gamma 90.000000
_cell_volume 1202.710569
_symmetry_space_group_name_H-M "P 2/M"
_symmetry_group_IT_number 10
_symmetry_cell_setting 'monoclinic'
loop_
_space_group_symop_operation_xyz
x,y,z
-x,y,-z
-x,-y,-z
x,-y,z
loop_
_atom_site_type_symbol
_atom_site_label
_atom_site_fract_x
_atom_site_fract_y
_atom_site_fract_z
Si Si1 0.626704 0.697297 0.856946
Si Si2 0.164333 0.698248 0.604180
Si Si3 0.310309 0.000000 0.801604
Si Si4 0.337771 0.705455 0.398977
Si Si5 0.366835 0.000000 0.018855
Si Si6 0.838515 0.801651 0.879044
Si Si7 0.667612 0.297367 0.427322
O O1 0.607453 0.500000 0.876209
O O2 0.674176 0.825402 0.962456
O O3 0.743962 0.689780 0.871695
O O4 0.479837 0.776630 0.715232
O O5 0.210676 0.500000 0.655896
O O6 0.203063 0.746341 0.539745
O O7 0.000000 0.727778 0.500000
O O8 0.245148 0.822757 0.722280
O O9 0.471557 0.000000 0.891565
O O10 0.277031 0.000000 0.872227
O O11 0.500000 0.763495 0.500000
O O12 0.321629 0.500000 0.379184
O O13 0.226649 0.790673 0.257378
O O14 0.297934 0.777635 0.459363
O O15 0.836393 0.000000 0.906783
O O16 0.000000 0.729458 0.000000
O O17 0.641898 0.500000 0.420199
#
# Coordination Sequence:
#
# PCOD8062410 Si02
#       7
#     4   4   2   4   2   4   4
#     4  11  21  40  66  86 120 168 206 256 312 362
#     4  10  21  40  63  89 123 161 205 258 314 371
#     4  11  23  40  64  89 123 163 197 257 322 371
#     4  10  19  35  60  90 119 153 205 257 301 364
#     4  11  24  40  61  94 123 153 209 261 302 375
#     4  11  24  41  58  87 131 169 206 254 305 368
#     4   9  18  35  60  88 117 152 203 258 302 357
#
# _framework density 19.954926
#
# number of rings (size 3 to 8) (size 9 to 14) (size 15 to 20)
#    0.000    1.667    4.167    0.750    0.000    2.333 
#    6.000    1.667    0.000    0.000    0.000    0.000 
#    0.000    0.000    0.000    0.000    0.000    0.000 
#
# Total GULP energy -297592.435464 kJ/mol
# GULP energy per Si atom -12399.684811 kJ/mol
# Density = 1.990951 g / cm^3
# Si number density = 19.954926 Si / 1000 Ang^3
#
#
#
# Elastic Constant Matrix: (Units=GPa)
#
#
# Indices 1 2 3 4 5 6 
#
# 1 149.0975 26.5454 61.9648 0.0000 -10.0474 0.0000
# 2 26.5454 67.0430 22.2481 0.0000 -13.6356 0.0000
# 3 61.9648 22.2481 103.1656 0.0000 -16.2281 0.0000
# 4 0.0000 0.0000 0.0000 13.9673 0.0000 3.3876
# 5 -10.0474 -13.6356 -16.2281 0.0000 43.0351 0.0000
# 6 0.0000 0.0000 0.0000 3.3876 0.0000 20.2344
#
#
#
# Elastic Compliance Matrix: (Units=1/GPa)
#
#
# Indices 1 2 3 4 5 6 
#
# 1 0.009174 -0.002014 -0.005145 0.000000 -0.000436 0.000000
# 2 -0.002014 0.017191 -0.001823 0.000000 0.004289 0.000000
# 3 -0.005145 -0.001823 0.013710 0.000000 0.003391 0.000000
# 4 0.000000 0.000000 0.000000 0.074626 0.000000 -0.012494
# 5 -0.000436 0.004289 0.003391 0.000000 0.025773 0.000000
# 6 0.000000 0.000000 0.000000 -0.012494 0.000000 0.051512
#
#
# Mechanical properties :
#
#
# Convention : Reuss Voigt Hill
#
# Bulk Modulus (GPa) = 45.22525 60.09142 52.65833
# Shear Modulus (GPa) = 23.00763 29.35055 26.17909
#
# Velocity S-wave (km/s) = 3.39924 3.83932 3.62596
# Velocity P-wave (km/s) = 6.17409 7.05923 6.63144
#
# Compressibility (1/GPa) = 0.02211154
#
# Stress axis : x y z
#
# Youngs Moduli (GPa) = 108.99968 58.17162 72.94068
#
# Poissons Ratio (x) = 0.11716 0.37526
# Poissons Ratio (y) = 0.21953 0.13296
# Poissons Ratio (z) = 0.56077 0.10604
#
# Static dielectric constant tensor:
#      x y z
#    x 3.804770 0.000000 -0.130710 
#    y 0.000000 3.508460 0.000000 
#    z -0.130710 0.000000 3.647960 
# 
# 
# High freq. dielectric constant tensor:
#      x y z
#    x 1.785890 0.000000 -0.006230 
#    y 0.000000 1.777470 0.000000 
#    z -0.006230 0.000000 1.760520 
# 
# From -- ./inp_files/66707.got.cif
#   From: 2010.06.25/outbox.cif.g09.slc.cpg/sg10_34_cif.got.tgz:66707.got - 2010.06.27 22:07:45.
