data_PCOD8062273
_publ_section_title
;
Structure prediction by ZEFSAII (Michael W. Deem and Ramdas Pophale) SiO2 
 PCOD8062273
Probable space group: P 2/M
;
_chemical_formula_sum "Si O2"
_cell_formula_units_Z 28
_cell_length_a 9.814525
_cell_length_b 8.031054
_cell_length_c 28.416121
_cell_angle_alpha 90.000000
_cell_angle_beta 40.911985
_cell_angle_gamma 90.000000
_cell_volume 1466.833739
_symmetry_space_group_name_H-M "P 2/M"
_symmetry_group_IT_number 10
_symmetry_cell_setting 'monoclinic'
loop_
_space_group_symop_operation_xyz
x,y,z
-x,y,-z
-x,-y,-z
x,-y,z
loop_
_atom_site_type_symbol
_atom_site_label
_atom_site_fract_x
_atom_site_fract_y
_atom_site_fract_z
Si Si1 0.444789 0.500000 0.587231
Si Si2 0.757577 0.193284 0.057074
Si Si3 0.898610 0.810634 0.184846
Si Si4 0.168606 0.500000 0.568062
Si Si5 0.101040 0.683071 0.712201
Si Si6 0.291301 0.690414 0.030813
Si Si7 0.078571 0.190377 0.332949
Si Si8 0.441024 0.195759 0.796213
O O1 0.334477 0.500000 0.565653
O O2 0.695177 0.500000 0.516265
O O3 0.354152 0.665791 0.637820
O O4 0.636625 0.268831 0.133669
O O5 0.705423 0.000000 0.062934
O O6 0.679065 0.294503 0.032649
O O7 0.000000 0.224304 0.000000
O O8 0.946260 0.725753 0.221954
O O9 0.699545 0.729800 0.209765
O O10 0.097769 0.799027 0.099112
O O11 0.848663 0.000000 0.209658
O O12 0.036917 0.328293 0.604761
O O13 0.002935 0.500000 0.727341
O O14 0.995392 0.807265 0.702354
O O15 0.251926 0.500000 0.055745
O O16 0.500000 0.760333 0.000000
O O17 0.319615 0.239381 0.274139
O O18 0.040282 0.000000 0.361126
O O19 0.398748 0.000000 0.809029
#
# Coordination Sequence:
#
# PCOD8062273 Si02
#       8
#     2   4   4   2   4   4   4   4
#     4   7  16  34  59  77 125 147 173 236 272 320
#     4  10  19  38  59  75 101 139 186 234 278 328
#     4  11  21  38  59  79 107 147 192 232 282 340
#     4   9  16  36  57  89 115 151 185 229 278 331
#     4   9  19  36  55  82 115 148 181 229 278 332
#     4  11  25  40  51  77 110 144 186 236 286 332
#     4  10  19  35  57  86 118 150 187 232 283 336
#     4   9  20  36  55  80 111 144 185 236 284 336
#
# _framework density 19.088733999999999
#
# number of rings (size 3 to 8) (size 9 to 14) (size 15 to 20)
#    0.429    1.857    2.143    1.286    2.000    1.429 
#    3.857    6.429    0.000    1.714    0.000    3.000 
#    0.000    0.000    0.000    0.000    0.000    0.000 
#
# Total GULP energy -346972.474650 kJ/mol
# GULP energy per Si atom -12391.874095 kJ/mol
# Density = 1.904529 g / cm^3
# Si number density = 19.088734 Si / 1000 Ang^3
#
#
#
# Elastic Constant Matrix: (Units=GPa)
#
#
# Indices 1 2 3 4 5 6 
#
# 1 82.1304 12.3830 26.1134 0.0000 -13.6210 0.0000
# 2 12.3830 62.9532 23.6968 0.0000 -11.4288 0.0000
# 3 26.1134 23.6968 78.0916 0.0000 -23.7482 0.0000
# 4 0.0000 0.0000 0.0000 20.2163 0.0000 2.7217
# 5 -13.6210 -11.4288 -23.7482 0.0000 21.8502 0.0000
# 6 0.0000 0.0000 0.0000 2.7217 0.0000 14.8648
#
#
#
# Elastic Compliance Matrix: (Units=1/GPa)
#
#
# Indices 1 2 3 4 5 6 
#
# 1 0.014075 -0.000728 -0.002888 0.000000 0.005255 0.000000
# 2 -0.000728 0.018372 -0.003805 0.000000 0.005020 0.000000
# 3 -0.002888 -0.003805 0.020573 0.000000 0.018570 0.000000
# 4 0.000000 0.000000 0.000000 0.050715 0.000000 -0.009286
# 5 0.005255 0.005020 0.018570 0.000000 0.071851 0.000000
# 6 0.000000 0.000000 0.000000 -0.009286 0.000000 0.068973
#
#
# Mechanical properties :
#
#
# Convention : Reuss Voigt Hill
#
# Bulk Modulus (GPa) = 26.19219 38.61794 32.40506
# Shear Modulus (GPa) = 18.37386 22.11838 20.24612
#
# Velocity S-wave (km/s) = 3.10586 3.40768 3.26027
# Velocity P-wave (km/s) = 5.15877 5.97978 5.58438
#
# Compressibility (1/GPa) = 0.03817932
#
# Stress axis : x y z
#
# Youngs Moduli (GPa) = 71.04725 54.43192 48.60769
#
# Poissons Ratio (x) = 0.03960 0.14037
# Poissons Ratio (y) = 0.05169 0.18494
# Poissons Ratio (z) = 0.20517 0.20710
#
# Static dielectric constant tensor:
#      x y z
#    x 3.435280 0.000000 0.036580 
#    y 0.000000 3.291420 0.000000 
#    z 0.036580 0.000000 3.709620 
# 
# 
# High freq. dielectric constant tensor:
#      x y z
#    x 1.730690 0.000000 -0.001860 
#    y 0.000000 1.728260 0.000000 
#    z -0.001860 0.000000 1.733730 
# 
# From -- ./inp_files/94515.got.cif
#   From: 2010.06.25/outbox.cif.g09.slc.cpg/sg10_48_cif.got.tgz:94515.got - 2010.06.27 22:07:45.
