data_PCOD8062130
_publ_section_title
;
Structure prediction by ZEFSAII (Michael W. Deem and Ramdas Pophale) SiO2 
 PCOD8062130
Probable space group: P 2/M
;
_chemical_formula_sum "Si O2"
_cell_formula_units_Z 28
_cell_length_a 14.982604
_cell_length_b 8.716569
_cell_length_c 11.114413
_cell_angle_alpha 90.000000
_cell_angle_beta 65.893155
_cell_angle_gamma 90.000000
_cell_volume 1324.915203
_symmetry_space_group_name_H-M "P 2/M"
_symmetry_group_IT_number 10
_symmetry_cell_setting 'monoclinic'
loop_
_space_group_symop_operation_xyz
x,y,z
-x,y,-z
-x,-y,-z
x,-y,z
loop_
_atom_site_type_symbol
_atom_site_label
_atom_site_fract_x
_atom_site_fract_y
_atom_site_fract_z
Si Si1 0.436380 0.681486 0.687290
Si Si2 0.733689 0.675639 0.764241
Si Si3 0.046943 0.317222 0.348656
Si Si4 0.752167 0.174199 0.316493
Si Si5 0.951871 0.319341 0.151334
Si Si6 0.636352 0.824557 0.598601
Si Si7 0.581512 0.324138 0.038238
O O1 0.419826 0.500000 0.680403
O O2 0.355322 0.775157 0.662086
O O3 0.547606 0.724490 0.588400
O O4 0.419699 0.748523 0.830263
O O5 0.736090 0.500000 0.718244
O O6 0.842272 0.743880 0.710472
O O7 0.661423 0.767401 0.717558
O O8 0.689489 0.690087 0.922275
O O9 0.041111 0.500000 0.347886
O O10 0.000000 0.256063 0.500000
O O11 0.997860 0.252303 0.251418
O O12 0.837059 0.279754 0.215402
O O13 0.738839 0.191376 0.468171
O O14 0.774879 0.000000 0.265628
O O15 0.965687 0.500000 0.143041
O O16 0.000000 0.253438 0.000000
O O17 0.601104 0.000000 0.621719
O O18 0.549484 0.500000 0.072806
O O19 0.500000 0.242070 0.000000
#
# Coordination Sequence:
#
# PCOD8062130 Si02
#       7
#     4   4   4   4   4   4   4
#     4  11  22  37  62  89 115 152 200 246 292 352
#     4  10  19  34  60  85 114 152 191 238 294 351
#     4   9  18  33  57  89 118 146 189 246 300 346
#     4  11  25  42  59  82 119 162 197 239 297 356
#     4  10  22  40  64  92 118 151 203 258 300 349
#     4  11  23  39  57  84 123 159 194 239 292 353
#     4   9  17  32  54  84 115 145 185 237 292 344
#
# _framework density 21.133427999999999
#
# number of rings (size 3 to 8) (size 9 to 14) (size 15 to 20)
#    0.000    1.857    1.429    2.571    2.000    5.429 
#    0.000    2.857    0.000    2.571    0.000    0.000 
#    0.000    0.000    0.000    0.000    0.000    0.000 
#
# Total GULP energy -347031.482127 kJ/mol
# GULP energy per Si atom -12393.981505 kJ/mol
# Density = 2.108533 g / cm^3
# Si number density = 21.133428 Si / 1000 Ang^3
#
#
#
# Elastic Constant Matrix: (Units=GPa)
#
#
# Indices 1 2 3 4 5 6 
#
# 1 95.1317 -0.6136 35.9506 0.0000 -10.3845 0.0000
# 2 -0.6136 28.5755 8.2628 0.0000 2.0798 0.0000
# 3 35.9506 8.2628 116.9224 0.0000 -9.8475 0.0000
# 4 0.0000 0.0000 0.0000 17.7177 0.0000 -4.9642
# 5 -10.3845 2.0798 -9.8475 0.0000 37.3177 0.0000
# 6 0.0000 0.0000 0.0000 -4.9642 0.0000 13.9956
#
#
#
# Elastic Compliance Matrix: (Units=1/GPa)
#
#
# Indices 1 2 3 4 5 6 
#
# 1 0.012143 0.001134 -0.003615 0.000000 0.002362 0.000000
# 2 0.001134 0.036103 -0.003112 0.000000 -0.002518 0.000000
# 3 -0.003615 -0.003112 0.010037 0.000000 0.001816 0.000000
# 4 0.000000 0.000000 0.000000 0.062669 0.000000 0.022229
# 5 0.002362 -0.002518 0.001816 0.000000 0.028074 0.000000
# 6 0.000000 0.000000 0.000000 0.022229 0.000000 0.079336
#
#
# Mechanical properties :
#
#
# Convention : Reuss Voigt Hill
#
# Bulk Modulus (GPa) = 21.23284 36.42544 28.82914
# Shear Modulus (GPa) = 19.58899 26.94152 23.26525
#
# Velocity S-wave (km/s) = 3.04784 3.57435 3.32154
# Velocity P-wave (km/s) = 4.73863 5.85730 5.32741
#
# Compressibility (1/GPa) = 0.04709686
#
# Stress axis : x y z
#
# Youngs Moduli (GPa) = 82.35228 27.69890 99.63099
#
# Poissons Ratio (x) = -0.03141 0.36015
# Poissons Ratio (y) = -0.09340 0.31006
# Poissons Ratio (z) = 0.29769 0.08620
#
# Static dielectric constant tensor:
#      x y z
#    x 3.784320 0.000000 0.148560 
#    y 0.000000 3.349900 0.000000 
#    z 0.148560 0.000000 4.225770 
# 
# 
# High freq. dielectric constant tensor:
#      x y z
#    x 1.826640 0.000000 -0.000040 
#    y 0.000000 1.783210 0.000000 
#    z -0.000040 0.000000 1.852000 
# 
# From -- ./inp_files/49557.got.cif
#   From: 2010.06.25/outbox.cif.g09.slc.cpg/sg10_25_cif.got.tgz:49557.got - 2010.06.27 22:07:45.
