data_PCOD8062654
_publ_section_title
;
Structure prediction by ZEFSAII (Michael W. Deem and Ramdas Pophale) SiO2 
 PCOD8062654
Probable space group: P 2/M
;
_chemical_formula_sum "Si O2"
_cell_formula_units_Z 28
_cell_length_a 11.855178
_cell_length_b 14.750932
_cell_length_c 9.764157
_cell_angle_alpha 90.000000
_cell_angle_beta 125.570505
_cell_angle_gamma 90.000000
_cell_volume 1388.886107
_symmetry_space_group_name_H-M "P 2/M"
_symmetry_group_IT_number 10
_symmetry_cell_setting 'monoclinic'
loop_
_space_group_symop_operation_xyz
x,y,z
-x,y,-z
-x,-y,-z
x,-y,z
loop_
_atom_site_type_symbol
_atom_site_label
_atom_site_fract_x
_atom_site_fract_y
_atom_site_fract_z
Si Si1 0.909350 0.596913 0.667720
Si Si2 0.576093 0.770825 0.409596
Si Si3 0.831385 0.789836 0.030183
Si Si4 0.426865 0.893792 0.089277
Si Si5 0.779870 0.601486 0.108125
Si Si6 0.657138 0.601444 0.304497
Si Si7 0.859354 0.222128 0.741182
O O1 0.883719 0.500000 0.721067
O O2 0.813631 0.609608 0.468155
O O3 0.870094 0.668632 0.757795
O O4 0.065220 0.604697 0.721297
O O5 0.500000 0.754892 0.500000
O O6 0.503157 0.849275 0.272535
O O7 0.563989 0.677158 0.314268
O O8 0.735647 0.803516 0.548813
O O9 0.772089 0.686417 0.998353
O O10 0.986260 0.808134 0.200471
O O11 0.730284 0.858457 0.036607
O O12 0.828028 0.816666 0.868184
O O13 0.426825 0.000000 0.116150
O O14 0.500000 0.867420 0.000000
O O15 0.752697 0.500000 0.024241
O O16 0.667196 0.618583 0.148535
O O17 0.596180 0.500000 0.289713
#
# Coordination Sequence:
#
# PCOD8062654 Si02
#       7
#     4   4   4   4   4   4   4
#     4   8  14  25  45  74 113 155 196 239 281 332
#     4  11  21  39  62  88 118 157 200 243 287 352
#     4  10  19  37  58  85 123 156 193 246 292 345
#     4  11  25  45  67  89 116 152 191 238 302 365
#     4   9  16  27  48  79 114 158 200 237 282 339
#     4   9  17  29  48  78 116 156 199 239 285 338
#     4   9  19  34  57  88 119 151 199 244 290 343
#
# _framework density 20.160039999999999
#
# number of rings (size 3 to 8) (size 9 to 14) (size 15 to 20)
#    0.000    2.429    1.429    1.286    0.000    2.857 
#    0.000    7.857    0.000    4.286    0.000    0.000 
#    0.000    0.000    0.000    0.000    0.000    0.000 
#
# Total GULP energy -346888.556382 kJ/mol
# GULP energy per Si atom -12388.877014 kJ/mol
# Density = 2.011416 g / cm^3
# Si number density = 20.160040 Si / 1000 Ang^3
#
#
#
# Elastic Constant Matrix: (Units=GPa)
#
#
# Indices 1 2 3 4 5 6 
#
# 1 119.5317 53.2338 34.1111 0.0000 2.5306 0.0000
# 2 53.2338 75.7377 16.9954 0.0000 -3.8189 0.0000
# 3 34.1111 16.9954 37.7388 0.0000 8.8284 0.0000
# 4 0.0000 0.0000 0.0000 23.7433 0.0000 1.7662
# 5 2.5306 -3.8189 8.8284 0.0000 32.8224 0.0000
# 6 0.0000 0.0000 0.0000 1.7662 0.0000 18.2811
#
#
#
# Elastic Compliance Matrix: (Units=1/GPa)
#
#
# Indices 1 2 3 4 5 6 
#
# 1 0.014795 -0.008167 -0.009824 0.000000 0.000552 0.000000
# 2 -0.008167 0.019634 -0.002286 0.000000 0.003529 0.000000
# 3 -0.009824 -0.002286 0.038729 0.000000 -0.009926 0.000000
# 4 0.000000 0.000000 0.000000 0.042422 0.000000 -0.004099
# 5 0.000552 0.003529 -0.009926 0.000000 0.033505 0.000000
# 6 0.000000 0.000000 0.000000 -0.004099 0.000000 0.055097
#
#
# Mechanical properties :
#
#
# Convention : Reuss Voigt Hill
#
# Bulk Modulus (GPa) = 30.67023 49.07653 39.87338
# Shear Modulus (GPa) = 19.56149 23.54722 21.55435
#
# Velocity S-wave (km/s) = 3.11836 3.42133 3.27335
# Velocity P-wave (km/s) = 5.31149 6.32484 5.84019
#
# Compressibility (1/GPa) = 0.03260491
#
# Stress axis : x y z
#
# Youngs Moduli (GPa) = 67.59137 50.93079 25.82035
#
# Poissons Ratio (x) = 0.41593 0.25366
# Poissons Ratio (y) = 0.55199 0.05903
# Poissons Ratio (z) = 0.66401 0.11644
#
# Static dielectric constant tensor:
#      x y z
#    x 3.720320 0.000000 0.200620 
#    y 0.000000 3.543260 0.000000 
#    z 0.200620 0.000000 3.497600 
# 
# 
# High freq. dielectric constant tensor:
#      x y z
#    x 1.790490 0.000000 0.013160 
#    y 0.000000 1.762960 0.000000 
#    z 0.013160 0.000000 1.770360 
# 
# From -- ./inp_files/25393.got.cif
#   From: 2010.06.25/outbox.cif.g09.slc.cpg/sg10_13_cif.got.tgz:25393.got - 2010.06.27 22:07:45.
