data_PCOD8062811
_publ_section_title
;
Structure prediction by ZEFSAII (Michael W. Deem and Ramdas Pophale) SiO2 
 PCOD8062811
Probable space group: P 2/M
;
_chemical_formula_sum "Si O2"
_cell_formula_units_Z 24
_cell_length_a 15.722590
_cell_length_b 13.735516
_cell_length_c 10.077852
_cell_angle_alpha 90.000000
_cell_angle_beta 36.748854
_cell_angle_gamma 90.000000
_cell_volume 1302.153766
_symmetry_space_group_name_H-M "P 2/M"
_symmetry_group_IT_number 10
_symmetry_cell_setting 'monoclinic'
loop_
_space_group_symop_operation_xyz
x,y,z
-x,y,-z
-x,-y,-z
x,-y,z
loop_
_atom_site_type_symbol
_atom_site_label
_atom_site_fract_x
_atom_site_fract_y
_atom_site_fract_z
Si Si1 0.953921 0.500000 0.833003
Si Si2 0.217659 0.500000 0.681693
Si Si3 0.078656 0.801551 0.762304
Si Si4 0.926080 0.693434 0.731763
Si Si5 0.635872 0.000000 0.235617
Si Si6 0.038166 0.000000 0.102918
Si Si7 0.645526 0.216877 0.166622
Si Si8 0.656578 0.286583 0.454545
O O1 0.902183 0.582492 0.797231
O O2 0.120239 0.500000 0.670102
O O3 0.870527 0.500000 0.074057
O O4 0.311173 0.401300 0.568054
O O5 0.245306 0.783363 0.577620
O O6 0.029325 0.721916 0.721806
O O7 0.036831 0.904028 0.743664
O O8 0.000000 0.785080 0.000000
O O9 0.000000 0.710986 0.500000
O O10 0.777281 0.750667 0.912436
O O11 0.500000 0.000000 0.500000
O O12 0.626545 0.899297 0.166162
O O13 0.791454 0.000000 0.108170
O O14 0.000000 0.000000 0.000000
O O15 0.676141 0.246756 0.280542
O O16 0.503794 0.271039 0.294771
#
# Coordination Sequence:
#
# PCOD8062811 Si02
#       8
#     2   2   4   4   2   2   4   4
#     4  11  21  37  63  90 119 156 206 250 293 362
#     4  11  20  34  64  95 118 151 198 259 310 348
#     4  11  19  37  59  88 120 154 204 248 297 350
#     4  12  24  41  61  88 123 165 205 243 295 366
#     4  12  20  34  56  90 129 154 192 257 314 348
#     4  10  20  30  58  90 121 148 202 245 295 359
#     4  11  23  37  57  93 125 158 196 252 307 354
#     4  11  21  35  61  88 126 153 195 252 310 350
#
# _framework density 18.431001999999999
#
# number of rings (size 3 to 8) (size 9 to 14) (size 15 to 20)
#    0.000    0.833    8.333    1.250    0.000    2.000 
#    0.000    2.500    0.000    1.000    0.000    2.333 
#    0.000    0.000    0.000    0.000    0.000    0.000 
#
# Total GULP energy -297384.721123 kJ/mol
# GULP energy per Si atom -12391.030047 kJ/mol
# Density = 1.838905 g / cm^3
# Si number density = 18.431002 Si / 1000 Ang^3
#
#
#
# Elastic Constant Matrix: (Units=GPa)
#
#
# Indices 1 2 3 4 5 6 
#
# 1 81.8465 39.0098 52.0169 0.0000 -31.6931 0.0000
# 2 39.0098 152.7164 49.6915 0.0000 -17.7091 0.0000
# 3 52.0169 49.6915 113.9840 0.0000 -18.2801 0.0000
# 4 0.0000 0.0000 0.0000 82.7010 0.0000 77.9012
# 5 -31.6931 -17.7091 -18.2801 0.0000 36.4604 0.0000
# 6 0.0000 0.0000 0.0000 77.9012 0.0000 162.4294
#
#
#
# Elastic Compliance Matrix: (Units=1/GPa)
#
#
# Indices 1 2 3 4 5 6 
#
# 1 0.024310 -0.001811 -0.007674 0.000000 0.016405 0.000000
# 2 -0.001811 0.007934 -0.002465 0.000000 0.001044 0.000000
# 3 -0.007674 -0.002465 0.013145 0.000000 -0.001277 0.000000
# 4 0.000000 0.000000 0.000000 0.022056 0.000000 -0.010578
# 5 0.016405 0.001044 -0.001277 0.000000 0.041553 0.000000
# 6 0.000000 0.000000 0.000000 -0.010578 0.000000 0.011230
#
#
# Mechanical properties :
#
#
# Convention : Reuss Voigt Hill
#
# Bulk Modulus (GPa) = 46.53312 69.99815 58.26564
# Shear Modulus (GPa) = 33.04900 70.17340 51.61120
#
# Velocity S-wave (km/s) = 4.23912 6.17707 5.29747
# Velocity P-wave (km/s) = 7.01870 9.43058 8.31258
#
# Compressibility (1/GPa) = 0.02149007
#
# Stress axis : x y z
#
# Youngs Moduli (GPa) = 41.13460 126.04456 76.07469
#
# Poissons Ratio (x) = 0.22821 0.58379
# Poissons Ratio (y) = 0.07448 0.18753
# Poissons Ratio (z) = 0.31566 0.31071
#
# Static dielectric constant tensor:
#      x y z
#    x 3.477430 0.000000 -0.420400 
#    y 0.000000 0.877870 0.000000 
#    z -0.420400 0.000000 3.153530 
# 
# 
# High freq. dielectric constant tensor:
#      x y z
#    x 1.704960 0.000000 -0.035460 
#    y 0.000000 1.742500 0.000000 
#    z -0.035460 0.000000 1.675990 
# 
# From -- ./inp_files/29377.got.cif
#   From: 2010.06.25/outbox.cif.g09.slc.cpg/sg10_15_cif.got.tgz:29377.got - 2010.06.27 22:07:45.
