data_PCOD8062675
_publ_section_title
;
Structure prediction by ZEFSAII (Michael W. Deem and Ramdas Pophale) SiO2 
 PCOD8062675
Probable space group: P 2/M
;
_chemical_formula_sum "Si O2"
_cell_formula_units_Z 28
_cell_length_a 14.565111
_cell_length_b 9.100790
_cell_length_c 19.834712
_cell_angle_alpha 90.000000
_cell_angle_beta 147.767978
_cell_angle_gamma 90.000000
_cell_volume 1402.265905
_symmetry_space_group_name_H-M "P 2/M"
_symmetry_group_IT_number 10
_symmetry_cell_setting 'monoclinic'
loop_
_space_group_symop_operation_xyz
x,y,z
-x,y,-z
-x,-y,-z
x,-y,z
loop_
_atom_site_type_symbol
_atom_site_label
_atom_site_fract_x
_atom_site_fract_y
_atom_site_fract_z
Si Si1 0.863719 0.333622 0.761579
Si Si2 0.535165 0.171840 0.805834
Si Si3 0.763994 0.331275 0.048683
Si Si4 0.394044 0.672705 0.283643
Si Si5 0.177227 0.171905 0.639776
Si Si6 0.300165 0.172975 0.862317
Si Si7 0.638865 0.163336 0.527775
O O1 0.804872 0.500000 0.708958
O O2 0.772292 0.284320 0.774507
O O3 0.810036 0.233573 0.664995
O O4 0.068443 0.320762 0.895517
O O5 0.628840 0.254232 0.803042
O O6 0.330401 0.203308 0.681514
O O7 0.574613 0.000000 0.825003
O O8 0.614088 0.232831 0.923885
O O9 0.704056 0.500000 0.018032
O O10 0.807323 0.264124 0.148876
O O11 0.413460 0.500000 0.286468
O O12 0.569080 0.736532 0.424123
O O13 0.232879 0.232477 0.748000
O O14 0.000000 0.243181 0.500000
O O15 0.148572 0.000000 0.630815
O O16 0.265392 0.000000 0.848672
O O17 0.500000 0.209628 0.000000
O O18 0.500000 0.156848 0.500000
O O19 0.679226 0.000000 0.525012
#
# Coordination Sequence:
#
# PCOD8062675 Si02
#       7
#     4   4   4   4   4   4   4
#     4   9  20  37  55  79 115 156 195 236 285 350
#     4  11  22  38  58  83 114 149 194 243 295 351
#     4  11  23  38  58  85 114 150 198 242 291 350
#     4  10  20  36  57  80 114 158 194 233 291 350
#     4   9  19  37  61  87 116 149 187 233 291 357
#     4  10  19  37  62  87 114 150 191 235 295 357
#     4   9  17  31  53  80 108 142 189 240 286 337
#
# _framework density 19.967682
#
# number of rings (size 3 to 8) (size 9 to 14) (size 15 to 20)
#    0.000    2.143    1.429    1.714    0.000    5.429 
#    0.000    4.286    0.000    3.000    0.000    0.000 
#    0.000    0.000    0.000    0.000    0.000    0.000 
#
# Total GULP energy -347159.744292 kJ/mol
# GULP energy per Si atom -12398.562296 kJ/mol
# Density = 1.992223 g / cm^3
# Si number density = 19.967682 Si / 1000 Ang^3
#
#
#
# Elastic Constant Matrix: (Units=GPa)
#
#
# Indices 1 2 3 4 5 6 
#
# 1 103.9377 43.2035 41.8703 0.0000 -9.7861 0.0000
# 2 43.2035 96.3256 34.8585 0.0000 -2.4397 0.0000
# 3 41.8703 34.8585 107.5294 0.0000 -5.2732 0.0000
# 4 0.0000 0.0000 0.0000 24.5851 0.0000 -3.5807
# 5 -9.7861 -2.4397 -5.2732 0.0000 29.6806 0.0000
# 6 0.0000 0.0000 0.0000 -3.5807 0.0000 29.9251
#
#
#
# Elastic Compliance Matrix: (Units=1/GPa)
#
#
# Indices 1 2 3 4 5 6 
#
# 1 0.013261 -0.004592 -0.003510 0.000000 0.003371 0.000000
# 2 -0.004592 0.013354 -0.002584 0.000000 -0.000876 0.000000
# 3 -0.003510 -0.002584 0.011537 0.000000 0.000680 0.000000
# 4 0.000000 0.000000 0.000000 0.041397 0.000000 0.004953
# 5 0.003371 -0.000876 0.000680 0.000000 0.034853 0.000000
# 6 0.000000 0.000000 0.000000 0.004953 0.000000 0.034009
#
#
# Mechanical properties :
#
#
# Convention : Reuss Voigt Hill
#
# Bulk Modulus (GPa) = 59.59129 60.85083 60.22106
# Shear Modulus (GPa) = 28.51006 29.36218 28.93612
#
# Velocity S-wave (km/s) = 3.78274 3.83885 3.81090
# Velocity P-wave (km/s) = 6.99910 7.08448 7.04192
#
# Compressibility (1/GPa) = 0.01678098
#
# Stress axis : x y z
#
# Youngs Moduli (GPa) = 75.40714 74.88342 86.67497
#
# Poissons Ratio (x) = 0.34390 0.30420
# Poissons Ratio (y) = 0.34630 0.22395
# Poissons Ratio (z) = 0.26465 0.19348
#
# Static dielectric constant tensor:
#      x y z
#    x 3.567110 0.000000 -0.077250 
#    y 0.000000 3.546880 0.000000 
#    z -0.077250 0.000000 3.648650 
# 
# 
# High freq. dielectric constant tensor:
#      x y z
#    x 1.775890 0.000000 -0.003720 
#    y 0.000000 1.768040 0.000000 
#    z -0.003720 0.000000 1.771560 
# 
# From -- ./inp_files/84972.got.cif
#   From: 2010.06.25/outbox.cif.g09.slc.cpg/sg10_43_cif.got.tgz:84972.got - 2010.06.27 22:07:45.
