data_PCOD8062605
_publ_section_title
;
Structure prediction by ZEFSAII (Michael W. Deem and Ramdas Pophale) SiO2 
 PCOD8062605
Probable space group: P 2/M
;
_chemical_formula_sum "Si O2"
_cell_formula_units_Z 32
_cell_length_a 27.146952
_cell_length_b 8.947750
_cell_length_c 21.033013
_cell_angle_alpha 90.000000
_cell_angle_beta 161.257001
_cell_angle_gamma 90.000000
_cell_volume 1641.644980
_symmetry_space_group_name_H-M "P 2/M"
_symmetry_group_IT_number 10
_symmetry_cell_setting 'monoclinic'
loop_
_space_group_symop_operation_xyz
x,y,z
-x,y,-z
-x,-y,-z
x,-y,z
loop_
_atom_site_type_symbol
_atom_site_label
_atom_site_fract_x
_atom_site_fract_y
_atom_site_fract_z
Si Si1 0.194510 0.676436 0.402776
Si Si2 0.671734 0.675780 0.699181
Si Si3 0.888267 0.175994 0.066667
Si Si4 0.159886 0.324061 0.218969
Si Si5 0.620920 0.675646 0.098396
Si Si6 0.533471 0.323830 0.853695
Si Si7 0.783990 0.175228 0.078495
Si Si8 0.966807 0.326267 0.531522
O O1 0.164616 0.500000 0.368265
O O2 0.201794 0.739277 0.339459
O O3 0.354985 0.718801 0.631435
O O4 0.058547 0.755485 0.274911
O O5 0.500000 0.733552 0.500000
O O6 0.688002 0.500000 0.732512
O O7 0.709226 0.716378 0.671949
O O8 0.789321 0.758678 0.888470
O O9 0.806313 0.219697 0.032352
O O10 0.902122 0.000000 0.075169
O O11 0.140142 0.500000 0.200911
O O12 0.000000 0.252562 0.000000
O O13 0.591366 0.500000 0.057424
O O14 0.790179 0.710730 0.330928
O O15 0.500000 0.747818 0.000000
O O16 0.596188 0.740582 0.997334
O O17 0.558627 0.500000 0.878143
O O18 0.627674 0.249987 0.911597
O O19 0.930987 0.229651 0.297009
O O20 0.769198 0.000000 0.069591
O O21 0.005788 0.500000 0.589835
O O22 0.000000 0.280004 0.500000
#
# Coordination Sequence:
#
# PCOD8062605 Si02
#       8
#     4   4   4   4   4   4   4   4
#     4  10  21  37  62  89 115 150 195 245 296 349
#     4  10  21  37  62  90 115 147 193 247 298 343
#     4  11  25  42  57  81 122 163 198 236 284 349
#     4   9  16  32  56  85 116 140 177 240 294 337
#     4   9  18  33  55  87 120 143 178 240 299 342
#     4  10  21  38  61  89 116 149 196 244 293 347
#     4  11  25  41  57  81 120 163 198 236 286 347
#     4  10  19  36  62  87 111 144 191 245 293 341
#
# _framework density 19.492643999999999
#
# number of rings (size 3 to 8) (size 9 to 14) (size 15 to 20)
#    0.000    2.000    2.500    0.750    3.500    3.000 
#    0.000    1.250    0.000    0.750    0.000    0.000 
#    0.000    0.000    0.000    0.000    0.000    0.000 
#
# Total GULP energy -396844.442186 kJ/mol
# GULP energy per Si atom -12401.388818 kJ/mol
# Density = 1.944828 g / cm^3
# Si number density = 19.492644 Si / 1000 Ang^3
#
#
#
# Elastic Constant Matrix: (Units=GPa)
#
#
# Indices 1 2 3 4 5 6 
#
# 1 104.3784 35.8317 30.9793 0.0000 19.1439 0.0000
# 2 35.8317 44.2425 30.3076 0.0000 4.8568 0.0000
# 3 30.9793 30.3076 92.3374 0.0000 15.3813 0.0000
# 4 0.0000 0.0000 0.0000 8.1584 0.0000 -0.2144
# 5 19.1439 4.8568 15.3813 0.0000 37.8636 0.0000
# 6 0.0000 0.0000 0.0000 -0.2144 0.0000 21.9468
#
#
#
# Elastic Compliance Matrix: (Units=1/GPa)
#
#
# Indices 1 2 3 4 5 6 
#
# 1 0.014466 -0.010858 -0.000325 0.000000 -0.005789 0.000000
# 2 -0.010858 0.037309 -0.009353 0.000000 0.004504 0.000000
# 3 -0.000325 -0.009353 0.014782 0.000000 -0.004641 0.000000
# 4 0.000000 0.000000 0.000000 0.122604 0.000000 0.001198
# 5 -0.005789 0.004504 -0.004641 0.000000 0.030645 0.000000
# 6 0.000000 0.000000 0.000000 0.001198 0.000000 0.045576
#
#
# Mechanical properties :
#
#
# Convention : Reuss Voigt Hill
#
# Bulk Modulus (GPa) = 39.23906 48.35508 43.79707
# Shear Modulus (GPa) = 15.87549 23.18306 19.52928
#
# Velocity S-wave (km/s) = 2.85693 3.45240 3.16868
# Velocity P-wave (km/s) = 5.57284 6.38379 5.99205
#
# Compressibility (1/GPa) = 0.02548481
#
# Stress axis : x y z
#
# Youngs Moduli (GPa) = 69.12675 26.80303 67.64981
#
# Poissons Ratio (x) = 0.29102 0.02200
# Poissons Ratio (y) = 0.75056 0.63275
# Poissons Ratio (z) = 0.02248 0.25070
#
# Static dielectric constant tensor:
#      x y z
#    x 3.840180 0.000000 0.041650 
#    y 0.000000 3.195910 0.000000 
#    z 0.041650 0.000000 3.635260 
# 
# 
# High freq. dielectric constant tensor:
#      x y z
#    x 1.773820 0.000000 0.005530 
#    y 0.000000 1.719360 0.000000 
#    z 0.005530 0.000000 1.769920 
# 
# From -- ./inp_files/87057.got.cif
#   From: 2010.06.25/outbox.cif.g09.slc.cpg/sg10_44_cif.got.tgz:87057.got - 2010.06.27 22:07:45.
