data_PCOD8062579
_publ_section_title
;
Structure prediction by ZEFSAII (Michael W. Deem and Ramdas Pophale) SiO2 
 PCOD8062579
Probable space group: P 2/M
;
_chemical_formula_sum "Si O2"
_cell_formula_units_Z 28
_cell_length_a 27.479857
_cell_length_b 9.232928
_cell_length_c 9.655637
_cell_angle_alpha 90.000000
_cell_angle_beta 38.611429
_cell_angle_gamma 90.000000
_cell_volume 1528.776957
_symmetry_space_group_name_H-M "P 2/M"
_symmetry_group_IT_number 10
_symmetry_cell_setting 'monoclinic'
loop_
_space_group_symop_operation_xyz
x,y,z
-x,y,-z
-x,-y,-z
x,-y,z
loop_
_atom_site_type_symbol
_atom_site_label
_atom_site_fract_x
_atom_site_fract_y
_atom_site_fract_z
Si Si1 0.839266 0.167817 0.233719
Si Si2 0.988447 0.336725 0.862399
Si Si3 0.860517 0.169963 0.504634
Si Si4 0.534593 0.664787 0.771677
Si Si5 0.558639 0.834791 0.242829
Si Si6 0.279745 0.171639 0.995570
Si Si7 0.306442 0.829758 0.627085
O O1 0.832676 0.205294 0.410656
O O2 0.758003 0.210119 0.343643
O O3 0.859380 0.000000 0.166152
O O4 0.907372 0.258060 0.006997
O O5 0.985991 0.500000 0.810219
O O6 0.059893 0.251932 0.632855
O O7 0.000000 0.333642 0.000000
O O8 0.875537 0.000000 0.490372
O O9 0.794888 0.230679 0.754890
O O10 0.549284 0.500000 0.692563
O O11 0.470707 0.735431 0.814976
O O12 0.615357 0.749289 0.587827
O O13 0.500000 0.673852 0.000000
O O14 0.500000 0.826632 0.500000
O O15 0.641590 0.770789 0.107279
O O16 0.566086 0.000000 0.172985
O O17 0.276259 0.223806 0.844285
O O18 0.280510 0.000000 0.000567
O O19 0.324943 0.000000 0.589150
#
# Coordination Sequence:
#
# PCOD8062579 Si02
#       7
#     4   4   4   4   4   4   4
#     4   9  18  31  53  80 103 133 173 216 263 312
#     4   9  17  31  51  75 104 137 172 211 259 311
#     4   9  17  31  52  78 105 132 171 218 260 312
#     4  11  25  40  53  77 113 148 182 222 269 321
#     4  10  19  36  61  83 105 139 183 227 270 317
#     4   9  18  33  54  81 108 134 170 221 271 315
#     4  10  20  37  57  79 107 139 177 221 270 320
#
# _framework density 18.315294999999999
#
# number of rings (size 3 to 8) (size 9 to 14) (size 15 to 20)
#    0.000    2.429    1.429    0.857    2.000    3.714 
#    0.000    2.143    0.000    4.286    0.000    0.000 
#    0.000    0.000    0.000    0.000    0.000    0.000 
#
# Total GULP energy -347230.370456 kJ/mol
# GULP energy per Si atom -12401.084659 kJ/mol
# Density = 1.827361 g / cm^3
# Si number density = 18.315295 Si / 1000 Ang^3
#
#
#
# Elastic Constant Matrix: (Units=GPa)
#
#
# Indices 1 2 3 4 5 6 
#
# 1 63.0171 35.8989 32.1389 0.0000 4.2220 0.0000
# 2 35.8989 70.0042 43.8927 0.0000 -3.7109 0.0000
# 3 32.1389 43.8927 121.3650 0.0000 -15.0592 0.0000
# 4 0.0000 0.0000 0.0000 21.5098 0.0000 -8.7204
# 5 4.2220 -3.7109 -15.0592 0.0000 20.8324 0.0000
# 6 0.0000 0.0000 0.0000 -8.7204 0.0000 33.1514
#
#
#
# Elastic Compliance Matrix: (Units=1/GPa)
#
#
# Indices 1 2 3 4 5 6 
#
# 1 0.024571 -0.010710 -0.003832 0.000000 -0.009657 0.000000
# 2 -0.010710 0.023196 -0.005241 0.000000 0.002514 0.000000
# 3 -0.003832 -0.005241 0.012227 0.000000 0.008682 0.000000
# 4 0.000000 0.000000 0.000000 0.052040 0.000000 0.013689
# 5 -0.009657 0.002514 0.008682 0.000000 0.056683 0.000000
# 6 0.000000 0.000000 0.000000 0.013689 0.000000 0.033766
#
#
# Mechanical properties :
#
#
# Convention : Reuss Voigt Hill
#
# Bulk Modulus (GPa) = 48.94968 53.13858 51.04413
# Shear Modulus (GPa) = 20.09180 24.59577 22.34379
#
# Velocity S-wave (km/s) = 3.31569 3.66855 3.49657
# Velocity P-wave (km/s) = 6.43759 6.85715 6.65068
#
# Compressibility (1/GPa) = 0.02042914
#
# Stress axis : x y z
#
# Youngs Moduli (GPa) = 40.69867 43.11022 81.78594
#
# Poissons Ratio (x) = 0.46169 0.31338
# Poissons Ratio (y) = 0.43587 0.42866
# Poissons Ratio (z) = 0.15595 0.22595
#
# Static dielectric constant tensor:
#      x y z
#    x 3.372260 0.000000 -0.088450 
#    y 0.000000 3.315790 0.000000 
#    z -0.088450 0.000000 3.473870 
# 
# 
# High freq. dielectric constant tensor:
#      x y z
#    x 1.706440 0.000000 -0.012050 
#    y 0.000000 1.691210 0.000000 
#    z -0.012050 0.000000 1.713250 
# 
# From -- ./inp_files/36983.got.cif
#   From: 2010.06.25/outbox.cif.g09.slc.cpg/sg10_19_cif.got.tgz:36983.got - 2010.06.27 22:07:45.
