data_PCOD8062115
_publ_section_title
;
Structure prediction by ZEFSAII (Michael W. Deem and Ramdas Pophale) SiO2 
 PCOD8062115
Probable space group: P 2/M
;
_chemical_formula_sum "Si O2"
_cell_formula_units_Z 28
_cell_length_a 11.157102
_cell_length_b 8.702380
_cell_length_c 14.774535
_cell_angle_alpha 90.000000
_cell_angle_beta 67.899542
_cell_angle_gamma 90.000000
_cell_volume 1329.109317
_symmetry_space_group_name_H-M "P 2/M"
_symmetry_group_IT_number 10
_symmetry_cell_setting 'monoclinic'
loop_
_space_group_symop_operation_xyz
x,y,z
-x,y,-z
-x,-y,-z
x,-y,z
loop_
_atom_site_type_symbol
_atom_site_label
_atom_site_fract_x
_atom_site_fract_y
_atom_site_fract_z
Si Si1 0.107029 0.681590 0.086649
Si Si2 0.148614 0.819663 0.446014
Si Si3 0.177417 0.680830 0.873229
Si Si4 0.594963 0.681063 0.553986
Si Si5 0.210750 0.329331 0.242469
Si Si6 0.419267 0.823354 0.750632
Si Si7 0.500626 0.670346 0.898469
O O1 0.105225 0.500000 0.098019
O O2 0.154013 0.752011 0.168320
O O3 0.963615 0.743145 0.110773
O O4 0.199112 0.721609 0.974423
O O5 0.257357 0.748250 0.484435
O O6 0.187396 0.782824 0.332647
O O7 0.000000 0.758434 0.500000
O O8 0.153244 0.000000 0.462001
O O9 0.191494 0.500000 0.852111
O O10 0.272330 0.767754 0.775541
O O11 0.500000 0.743510 0.500000
O O12 0.610697 0.500000 0.540878
O O13 0.523136 0.723315 0.667115
O O14 0.151867 0.500000 0.279363
O O15 0.359868 0.349354 0.182712
O O16 0.428589 0.791140 0.855146
O O17 0.440218 0.000000 0.719605
O O18 0.433285 0.500000 0.916745
O O19 0.500000 0.736936 0.000000
#
# Coordination Sequence:
#
# PCOD8062115 Si02
#       7
#     4   4   4   4   4   4   4
#     4   8  16  32  57  87 116 156 206 257 303 352
#     4  11  25  44  65  92 128 167 205 256 328 398
#     4   9  17  34  58  83 118 161 209 253 297 359
#     4  11  25  46  71  95 119 157 215 276 326 379
#     4  10  19  34  59  88 118 154 201 252 303 359
#     4  12  24  37  57  87 125 161 197 245 310 377
#     4  10  20  35  59  89 121 159 202 246 296 356
#
# _framework density 21.066738999999998
#
# number of rings (size 3 to 8) (size 9 to 14) (size 15 to 20)
#    0.000    1.857    1.429    3.857    0.000    6.000 
#    0.000    8.571    0.000    0.000    0.000    0.000 
#    0.000    0.000    0.000    0.000    0.000    0.000 
#
# Total GULP energy -346907.134436 kJ/mol
# GULP energy per Si atom -12389.540516 kJ/mol
# Density = 2.101879 g / cm^3
# Si number density = 21.066739 Si / 1000 Ang^3
#
#
#
# Elastic Constant Matrix: (Units=GPa)
#
#
# Indices 1 2 3 4 5 6 
#
# 1 116.3631 29.8422 38.2234 0.0000 -3.8720 0.0000
# 2 29.8422 54.2014 17.4754 0.0000 -0.7752 0.0000
# 3 38.2234 17.4754 76.8062 0.0000 -6.4085 0.0000
# 4 0.0000 0.0000 0.0000 15.2992 0.0000 -3.0836
# 5 -3.8720 -0.7752 -6.4085 0.0000 38.1239 0.0000
# 6 0.0000 0.0000 0.0000 -3.0836 0.0000 22.3924
#
#
#
# Elastic Compliance Matrix: (Units=1/GPa)
#
#
# Indices 1 2 3 4 5 6 
#
# 1 0.011311 -0.004766 -0.004520 0.000000 0.000292 0.000000
# 2 -0.004766 0.021923 -0.002657 0.000000 -0.000485 0.000000
# 3 -0.004520 -0.002657 0.016056 0.000000 0.002186 0.000000
# 4 0.000000 0.000000 0.000000 0.067229 0.000000 0.009258
# 5 0.000292 -0.000485 0.002186 0.000000 0.026617 0.000000
# 6 0.000000 0.000000 0.000000 0.009258 0.000000 0.045933
#
#
# Mechanical properties :
#
#
# Convention : Reuss Voigt Hill
#
# Bulk Modulus (GPa) = 39.36306 46.49475 42.92891
# Shear Modulus (GPa) = 22.58125 25.95177 24.26651
#
# Velocity S-wave (km/s) = 3.27753 3.51363 3.39763
# Velocity P-wave (km/s) = 5.74877 6.21119 5.98445
#
# Compressibility (1/GPa) = 0.02540453
#
# Stress axis : x y z
#
# Youngs Moduli (GPa) = 88.41340 45.61350 62.28154
#
# Poissons Ratio (x) = 0.21739 0.28152
# Poissons Ratio (y) = 0.42136 0.16547
# Poissons Ratio (z) = 0.39964 0.12119
#
# Static dielectric constant tensor:
#      x y z
#    x 4.054690 0.000000 -0.489270 
#    y 0.000000 3.466700 0.000000 
#    z -0.489270 0.000000 2.950320 
# 
# 
# High freq. dielectric constant tensor:
#      x y z
#    x 1.842670 0.000000 -0.006770 
#    y 0.000000 1.786270 0.000000 
#    z -0.006770 0.000000 1.821260 
# 
# From -- ./inp_files/49332.got.cif
#   From: 2010.06.25/outbox.cif.g09.slc.cpg/sg10_25_cif.got.tgz:49332.got - 2010.06.27 22:07:45.
