data_PCOD8062018
_publ_section_title
;
Structure prediction by ZEFSAII (Michael W. Deem and Ramdas Pophale) SiO2 
 PCOD8062018
Probable space group: P 2/M
;
_chemical_formula_sum "Si O2"
_cell_formula_units_Z 28
_cell_length_a 11.826920
_cell_length_b 8.779006
_cell_length_c 15.713909
_cell_angle_alpha 90.000000
_cell_angle_beta 123.438075
_cell_angle_gamma 90.000000
_cell_volume 1361.501557
_symmetry_space_group_name_H-M "P 2/M"
_symmetry_group_IT_number 10
_symmetry_cell_setting 'monoclinic'
loop_
_space_group_symop_operation_xyz
x,y,z
-x,y,-z
-x,-y,-z
x,-y,z
loop_
_atom_site_type_symbol
_atom_site_label
_atom_site_fract_x
_atom_site_fract_y
_atom_site_fract_z
Si Si1 0.353259 0.822179 0.456662
Si Si2 0.641604 0.320654 0.823231
Si Si3 0.835564 0.180744 0.769546
Si Si4 0.364437 0.680824 0.986414
Si Si5 0.916185 0.320086 0.206575
Si Si6 0.632018 0.824829 0.346706
Si Si7 0.913112 0.177762 0.384116
O O1 0.500000 0.747274 0.500000
O O2 0.245689 0.753218 0.346053
O O3 0.308821 0.789629 0.534834
O O4 0.362006 0.000000 0.440125
O O5 0.665048 0.500000 0.826539
O O6 0.762351 0.236793 0.824327
O O7 0.494663 0.282301 0.724189
O O8 0.647080 0.260065 0.921949
O O9 0.985385 0.250376 0.824369
O O10 0.845875 0.000000 0.775595
O O11 0.373482 0.500000 0.990313
O O12 0.235093 0.736542 0.878844
O O13 0.500000 0.750517 0.000000
O O14 0.927178 0.500000 0.207546
O O15 0.957888 0.263258 0.317496
O O16 0.753712 0.791009 0.332427
O O17 0.583132 0.000000 0.321350
O O18 0.000000 0.240063 0.500000
O O19 0.944398 0.000000 0.384376
#
# Coordination Sequence:
#
# PCOD8062018 Si02
#       7
#     4   4   4   4   4   4   4
#     4   9  16  31  56  81 110 154 196 225 270 342
#     4  11  22  37  59  87 116 149 196 246 294 346
#     4  11  22  39  61  85 119 157 195 237 293 359
#     4   9  20  40  63  84 112 154 196 236 292 356
#     4  11  23  40  62  87 117 152 197 248 294 341
#     4  10  19  34  57  85 115 151 196 241 286 341
#     4  10  21  38  60  86 119 159 198 233 285 356
#
# _framework density 20.565529999999999
#
# number of rings (size 3 to 8) (size 9 to 14) (size 15 to 20)
#    0.000    1.857    1.429    3.000    0.000    4.857 
#    0.000    9.286    0.000    5.143    0.000    0.000 
#    0.000    0.000    0.000    0.000    0.000    0.000 
#
# Total GULP energy -347260.608372 kJ/mol
# GULP energy per Si atom -12402.164585 kJ/mol
# Density = 2.051872 g / cm^3
# Si number density = 20.565530 Si / 1000 Ang^3
#
#
#
# Elastic Constant Matrix: (Units=GPa)
#
#
# Indices 1 2 3 4 5 6 
#
# 1 152.4127 42.6641 61.4813 0.0000 -3.4674 0.0000
# 2 42.6641 58.4312 31.5526 0.0000 0.5529 0.0000
# 3 61.4813 31.5526 116.6826 0.0000 -6.5750 0.0000
# 4 0.0000 0.0000 0.0000 22.1755 0.0000 0.1862
# 5 -3.4674 0.5529 -6.5750 0.0000 35.6771 0.0000
# 6 0.0000 0.0000 0.0000 0.1862 0.0000 32.8462
#
#
#
# Elastic Compliance Matrix: (Units=1/GPa)
#
#
# Indices 1 2 3 4 5 6 
#
# 1 0.009400 -0.004920 -0.003604 0.000000 0.000326 0.000000
# 2 -0.004920 0.022678 -0.003624 0.000000 -0.001498 0.000000
# 3 -0.003604 -0.003624 0.011553 0.000000 0.001835 0.000000
# 4 0.000000 0.000000 0.000000 0.045097 0.000000 -0.000256
# 5 0.000326 -0.001498 0.001835 0.000000 0.028422 0.000000
# 6 0.000000 0.000000 0.000000 -0.000256 0.000000 0.030446
#
#
# Mechanical properties :
#
#
# Convention : Reuss Voigt Hill
#
# Bulk Modulus (GPa) = 51.72405 66.54696 59.13550
# Shear Modulus (GPa) = 28.03681 30.92833 29.48257
#
# Velocity S-wave (km/s) = 3.69628 3.88221 3.79039
# Velocity P-wave (km/s) = 6.58955 7.24736 6.92626
#
# Compressibility (1/GPa) = 0.01933337
#
# Stress axis : x y z
#
# Youngs Moduli (GPa) = 106.38758 44.09570 86.56014
#
# Poissons Ratio (x) = 0.21696 0.31196
# Poissons Ratio (y) = 0.52345 0.31372
# Poissons Ratio (z) = 0.38341 0.15982
#
# Static dielectric constant tensor:
#      x y z
#    x 3.885030 0.000000 0.009910 
#    y 0.000000 3.337100 0.000000 
#    z 0.009910 0.000000 3.819900 
# 
# 
# High freq. dielectric constant tensor:
#      x y z
#    x 1.822290 0.000000 -0.002680 
#    y 0.000000 1.769570 0.000000 
#    z -0.002680 0.000000 1.805010 
# 
# From -- ./inp_files/63935.got.cif
#   From: 2010.06.25/outbox.cif.g09.slc.cpg/sg10_32_cif.got.tgz:63935.got - 2010.06.27 22:07:45.
