data_PCOD8062402
_publ_section_title
;
Structure prediction by ZEFSAII (Michael W. Deem and Ramdas Pophale) SiO2 
 PCOD8062402
Probable space group: P 2/M
;
_chemical_formula_sum "Si O2"
_cell_formula_units_Z 24
_cell_length_a 9.801075
_cell_length_b 7.826496
_cell_length_c 20.173709
_cell_angle_alpha 90.000000
_cell_angle_beta 127.772932
_cell_angle_gamma 90.000000
_cell_volume 1223.202054
_symmetry_space_group_name_H-M "P 2/M"
_symmetry_group_IT_number 10
_symmetry_cell_setting 'monoclinic'
loop_
_space_group_symop_operation_xyz
x,y,z
-x,y,-z
-x,-y,-z
x,-y,z
loop_
_atom_site_type_symbol
_atom_site_label
_atom_site_fract_x
_atom_site_fract_y
_atom_site_fract_z
Si Si1 0.924358 0.304936 0.166180
Si Si2 0.755775 0.309867 0.830097
Si Si3 0.797354 0.000000 0.934527
Si Si4 0.469307 0.196165 0.354720
Si Si5 0.152553 0.799619 0.499351
Si Si6 0.299790 0.000000 0.944550
Si Si7 0.177263 0.697982 0.358622
O O1 0.853768 0.500000 0.146066
O O2 0.055948 0.278246 0.144725
O O3 0.019223 0.259828 0.262928
O O4 0.770947 0.170814 0.111688
O O5 0.745221 0.500000 0.858433
O O6 0.613835 0.301553 0.729953
O O7 0.724225 0.168736 0.876534
O O8 0.729706 0.000000 0.987195
O O9 0.000000 0.000000 0.000000
O O10 0.659552 0.274417 0.424666
O O11 0.351911 0.208915 0.386065
O O12 0.480700 0.000000 0.336396
O O13 0.115815 0.758589 0.412095
O O14 0.000000 0.719776 0.500000
O O15 0.156543 0.000000 0.511207
O O16 0.500000 0.000000 0.000000
O O17 0.221537 0.500000 0.371554
#
# Coordination Sequence:
#
# PCOD8062402 Si02
#       7
#     4   4   2   4   4   2   4
#     4   9  20  39  62  90 121 153 198 247 293 354
#     4  10  20  37  64  95 120 151 197 251 300 346
#     4  12  22  40  66  91 120 151 197 246 299 360
#     4  10  19  35  60  87 120 154 198 246 289 344
#     4  10  22  38  55  84 120 160 199 241 290 346
#     4  12  26  42  62  91 118 163 195 238 305 360
#     4  10  21  36  59  87 114 154 200 244 293 342
#
# _framework density 19.620633999999999
#
# number of rings (size 3 to 8) (size 9 to 14) (size 15 to 20)
#    0.000    1.833    2.500    2.500    4.667    5.000 
#    3.000    0.000    0.000    0.000    0.000    0.000 
#    0.000    0.000    0.000    0.000    0.000    0.000 
#
# Total GULP energy -297604.552529 kJ/mol
# GULP energy per Si atom -12400.189689 kJ/mol
# Density = 1.957598 g / cm^3
# Si number density = 19.620634 Si / 1000 Ang^3
#
#
#
# Elastic Constant Matrix: (Units=GPa)
#
#
# Indices 1 2 3 4 5 6 
#
# 1 120.6153 40.0851 77.0064 0.0000 6.8832 0.0000
# 2 40.0851 96.6881 43.1156 0.0000 12.9761 0.0000
# 3 77.0064 43.1156 94.9089 0.0000 10.8852 0.0000
# 4 0.0000 0.0000 0.0000 21.4813 0.0000 -3.5222
# 5 6.8832 12.9761 10.8852 0.0000 31.3655 0.0000
# 6 0.0000 0.0000 0.0000 -3.5222 0.0000 5.1855
#
#
#
# Elastic Compliance Matrix: (Units=1/GPa)
#
#
# Indices 1 2 3 4 5 6 
#
# 1 0.017365 -0.001302 -0.013667 0.000000 0.001471 0.000000
# 2 -0.001302 0.013438 -0.004627 0.000000 -0.003668 0.000000
# 3 -0.013667 -0.004627 0.024124 0.000000 -0.003459 0.000000
# 4 0.000000 0.000000 0.000000 0.052387 0.000000 0.035583
# 5 0.001471 -0.003668 -0.003459 0.000000 0.034277 0.000000
# 6 0.000000 0.000000 0.000000 0.035583 0.000000 0.217017
#
#
# Mechanical properties :
#
#
# Convention : Reuss Voigt Hill
#
# Bulk Modulus (GPa) = 63.55471 70.29184 66.92328
# Shear Modulus (GPa) = 12.40556 21.74013 17.07285
#
# Velocity S-wave (km/s) = 2.51723 3.33231 2.95303
# Velocity P-wave (km/s) = 6.39615 7.12102 6.76830
#
# Compressibility (1/GPa) = 0.01573448
#
# Stress axis : x y z
#
# Youngs Moduli (GPa) = 57.58673 74.41485 41.45259
#
# Poissons Ratio (x) = 0.09692 0.56652
# Poissons Ratio (y) = 0.07500 0.19182
# Poissons Ratio (z) = 0.78702 0.34435
#
# Static dielectric constant tensor:
#      x y z
#    x 3.537390 0.000000 -0.085570 
#    y 0.000000 3.684480 0.000000 
#    z -0.085570 0.000000 3.748990 
# 
# 
# High freq. dielectric constant tensor:
#      x y z
#    x 1.736420 0.000000 -0.004800 
#    y 0.000000 1.773560 0.000000 
#    z -0.004800 0.000000 1.770000 
# 
# From -- ./inp_files/82083.got.cif
#   From: 2010.06.25/outbox.cif.g09.slc.cpg/sg10_42_cif.got.tgz:82083.got - 2010.06.27 22:07:45.
