data_PCOD8062119
_publ_section_title
;
Structure prediction by ZEFSAII (Michael W. Deem and Ramdas Pophale) SiO2 
 PCOD8062119
Probable space group: P 2/M
;
_chemical_formula_sum "Si O2"
_cell_formula_units_Z 24
_cell_length_a 12.002232
_cell_length_b 11.384430
_cell_length_c 16.643683
_cell_angle_alpha 90.000000
_cell_angle_beta 30.817355
_cell_angle_gamma 90.000000
_cell_volume 1165.063674
_symmetry_space_group_name_H-M "P 2/M"
_symmetry_group_IT_number 10
_symmetry_cell_setting 'monoclinic'
loop_
_space_group_symop_operation_xyz
x,y,z
-x,y,-z
-x,-y,-z
x,-y,z
loop_
_atom_site_type_symbol
_atom_site_label
_atom_site_fract_x
_atom_site_fract_y
_atom_site_fract_z
Si Si1 0.317325 0.749367 0.674354
Si Si2 0.764603 0.631248 0.670188
Si Si3 0.765649 0.000000 0.222047
Si Si4 0.370918 0.628109 0.421255
Si Si5 0.721870 0.000000 0.067971
Si Si6 0.430601 0.796071 0.958312
Si Si7 0.014249 0.638642 0.226100
O O1 0.500000 0.704773 0.500000
O O2 0.305126 0.888734 0.682605
O O3 0.412932 0.706317 0.699875
O O4 0.091755 0.686553 0.791284
O O5 0.786405 0.500000 0.697088
O O6 0.629944 0.619425 0.672860
O O7 0.644430 0.723549 0.800884
O O8 0.000000 0.681295 0.500000
O O9 0.641532 0.000000 0.211200
O O10 0.025393 0.000000 0.066041
O O11 0.408471 0.500000 0.436776
O O12 0.143424 0.675271 0.601366
O O13 0.642621 0.112503 0.065592
O O14 0.500000 0.858723 0.000000
O O15 0.241308 0.704032 0.095676
O O16 0.057858 0.500000 0.193805
#
# Coordination Sequence:
#
# PCOD8062119 Si02
#       7
#     4   4   2   4   2   4   4
#     4  10  19  34  59  89 118 153 193 242 288 345
#     4  10  21  38  60  87 118 153 193 237 293 351
#     4  11  21  40  62  82 116 152 198 245 292 349
#     4   9  18  34  56  85 123 158 188 235 292 346
#     4  11  25  42  61  82 113 157 195 246 301 339
#     4  12  24  41  62  85 117 155 200 244 289 347
#     4  10  20  35  58  91 123 155 194 234 287 348
#
# _framework density 20.599733000000001
#
# number of rings (size 3 to 8) (size 9 to 14) (size 15 to 20)
#    0.000    1.667    1.667    3.500    0.000    4.667 
#    0.000    0.417    0.000    4.000    0.000    0.000 
#    0.000    0.000    0.000    0.000    0.000    0.000 
#
# Total GULP energy -297344.288307 kJ/mol
# GULP energy per Si atom -12389.345346 kJ/mol
# Density = 2.055285 g / cm^3
# Si number density = 20.599733 Si / 1000 Ang^3
#
#
#
# Elastic Constant Matrix: (Units=GPa)
#
#
# Indices 1 2 3 4 5 6 
#
# 1 104.7256 33.0952 22.2115 0.0000 -6.2118 0.0000
# 2 33.0952 87.7205 19.7032 0.0000 -4.8932 0.0000
# 3 22.2115 19.7032 65.3588 0.0000 -8.6349 0.0000
# 4 0.0000 0.0000 0.0000 27.5545 0.0000 -3.0554
# 5 -6.2118 -4.8932 -8.6349 0.0000 25.3572 0.0000
# 6 0.0000 0.0000 0.0000 -3.0554 0.0000 29.4601
#
#
#
# Elastic Compliance Matrix: (Units=1/GPa)
#
#
# Indices 1 2 3 4 5 6 
#
# 1 0.011314 -0.003619 -0.002597 0.000000 0.001189 0.000000
# 2 -0.003619 0.013418 -0.002712 0.000000 0.000779 0.000000
# 3 -0.002597 -0.002712 0.017641 0.000000 0.004848 0.000000
# 4 0.000000 0.000000 0.000000 0.036714 0.000000 0.003808
# 5 0.001189 0.000779 0.004848 0.000000 0.041529 0.000000
# 6 0.000000 0.000000 0.000000 0.003808 0.000000 0.034339
#
#
# Mechanical properties :
#
#
# Convention : Reuss Voigt Hill
#
# Bulk Modulus (GPa) = 40.78881 45.31385 43.05133
# Shear Modulus (GPa) = 27.62705 28.66070 28.14387
#
# Velocity S-wave (km/s) = 3.66613 3.73408 3.70026
# Velocity P-wave (km/s) = 6.14526 6.37465 6.26101
#
# Compressibility (1/GPa) = 0.02451653
#
# Stress axis : x y z
#
# Youngs Moduli (GPa) = 88.38873 74.52774 56.68698
#
# Poissons Ratio (x) = 0.26970 0.14721
# Poissons Ratio (y) = 0.31986 0.15375
# Poissons Ratio (z) = 0.22953 0.20214
#
# Static dielectric constant tensor:
#      x y z
#    x 4.061840 0.000000 -0.103710 
#    y 0.000000 3.652500 0.000000 
#    z -0.103710 0.000000 3.538600 
# 
# 
# High freq. dielectric constant tensor:
#      x y z
#    x 1.823110 0.000000 -0.009690 
#    y 0.000000 1.795880 0.000000 
#    z -0.009690 0.000000 1.790100 
# 
# From -- ./inp_files/36121.got.cif
#   From: 2010.06.25/outbox.cif.g09.slc.cpg/sg10_19_cif.got.tgz:36121.got - 2010.06.27 22:07:45.
