data_PCOD8062328
_publ_section_title
;
Structure prediction by ZEFSAII (Michael W. Deem and Ramdas Pophale) SiO2 
 PCOD8062328
Probable space group: P 2/M
;
_chemical_formula_sum "Si O2"
_cell_formula_units_Z 32
_cell_length_a 15.097925
_cell_length_b 14.585275
_cell_length_c 8.669851
_cell_angle_alpha 90.000000
_cell_angle_beta 123.294136
_cell_angle_gamma 90.000000
_cell_volume 1595.801633
_symmetry_space_group_name_H-M "P 2/M"
_symmetry_group_IT_number 10
_symmetry_cell_setting 'monoclinic'
loop_
_space_group_symop_operation_xyz
x,y,z
-x,y,-z
-x,-y,-z
x,-y,z
loop_
_atom_site_type_symbol
_atom_site_label
_atom_site_fract_x
_atom_site_fract_y
_atom_site_fract_z
Si Si1 0.770033 0.399483 0.436611
Si Si2 0.718179 0.106597 0.889880
Si Si3 0.473994 0.793530 0.155454
Si Si4 0.861039 0.209079 0.525331
Si Si5 0.096232 0.789458 0.793127
Si Si6 0.905279 0.401069 0.288590
Si Si7 0.476385 0.401469 0.799785
Si Si8 0.329545 0.106024 0.509640
O O1 0.801964 0.500000 0.540216
O O2 0.834451 0.311861 0.564959
O O3 0.795246 0.405209 0.277924
O O4 0.647103 0.380392 0.343577
O O5 0.635816 0.154420 0.926116
O O6 0.682541 0.124208 0.682552
O O7 0.724407 0.000000 0.937430
O O8 0.833601 0.150808 0.024597
O O9 0.461906 0.687935 0.205504
O O10 0.566487 0.841642 0.337920
O O11 0.500000 0.793608 0.000000
O O12 0.860217 0.204107 0.339469
O O13 0.774919 0.137628 0.501784
O O14 0.975474 0.176458 0.696334
O O15 0.100372 0.680614 0.841933
O O16 0.926476 0.500000 0.228528
O O17 0.000000 0.377193 0.500000
O O18 0.506986 0.500000 0.748630
O O19 0.500000 0.413010 0.000000
O O20 0.347180 0.000000 0.563255
#
# Coordination Sequence:
#
# PCOD8062328 Si02
#       8
#     4   4   4   4   4   4   4   4
#     4   9  15  27  49  80 118 152 183 225 281 344
#     4  11  26  43  58  79 113 159 198 237 294 358
#     4  11  22  38  66  92 115 143 190 242 291 336
#     4  10  19  35  58  89 115 146 193 243 291 332
#     4  10  20  35  58  87 122 146 191 246 291 332
#     4   9  15  26  50  84 118 149 182 228 284 336
#     4   9  18  30  50  87 123 148 177 222 283 345
#     4  11  24  42  61  81 110 152 198 239 292 358
#
# _framework density 20.052619
#
# number of rings (size 3 to 8) (size 9 to 14) (size 15 to 20)
#    0.000    2.000    3.750    1.500    5.250    4.500 
#    0.000    2.500    0.000    3.750    0.000    1.750 
#    0.000    0.000    0.000    0.000    0.000    0.000 
#
# Total GULP energy -396515.115913 kJ/mol
# GULP energy per Si atom -12391.097372 kJ/mol
# Density = 2.000698 g / cm^3
# Si number density = 20.052619 Si / 1000 Ang^3
#
#
#
# Elastic Constant Matrix: (Units=GPa)
#
#
# Indices 1 2 3 4 5 6 
#
# 1 47.0784 27.0766 18.8911 0.0000 15.8384 0.0000
# 2 27.0766 153.2015 60.3188 0.0000 16.7638 0.0000
# 3 18.8911 60.3188 65.3564 0.0000 21.0780 0.0000
# 4 0.0000 0.0000 0.0000 18.9120 0.0000 16.3214
# 5 15.8384 16.7638 21.0780 0.0000 23.8130 0.0000
# 6 0.0000 0.0000 0.0000 16.3214 0.0000 10.1166
#
#
#
# Elastic Compliance Matrix: (Units=1/GPa)
#
#
# Indices 1 2 3 4 5 6 
#
# 1 0.028779 -0.003314 0.000225 0.000000 -0.017008 0.000000
# 2 -0.003314 0.010680 -0.010055 0.000000 0.003586 0.000000
# 3 0.000225 -0.010055 0.031183 0.000000 -0.020673 0.000000
# 4 0.000000 0.000000 0.000000 -0.134775 0.000000 0.217436
# 5 -0.017008 0.003586 -0.020673 0.000000 0.069080 0.000000
# 6 0.000000 0.000000 0.000000 0.217436 0.000000 -0.251948
#
#
# Mechanical properties :
#
#
# Convention : Reuss Voigt Hill
#
# Bulk Modulus (GPa) = 22.54628 53.13436 37.84032
# Shear Modulus (GPa) = -24.28010 21.19165 -1.54423
#
# Velocity S-wave (km/s) = -3.48346 3.25438 -0.87850
# Velocity P-wave (km/s) = 2.21615 6.37780 4.22877
#
# Compressibility (1/GPa) = 0.04435321
#
# Stress axis : x y z
#
# Youngs Moduli (GPa) = 34.74813 93.63700 32.06906
#
# Poissons Ratio (x) = 0.31031 -0.00722
# Poissons Ratio (y) = 0.11515 0.32246
# Poissons Ratio (z) = -0.00783 0.94153
#
# Static dielectric constant tensor:
#      x y z
#    x 2.731510 0.000000 -0.245550 
#    y 0.000000 4.192630 0.000000 
#    z -0.245550 0.000000 2.947160 
# 
# 
# High freq. dielectric constant tensor:
#      x y z
#    x 1.770690 0.000000 0.035640 
#    y 0.000000 1.808160 0.000000 
#    z 0.035640 0.000000 1.737810 
# 
# From -- ./inp_files/29525.got.cif
#   From: 2010.06.25/outbox.cif.g09.slc.cpg/sg10_15_cif.got.tgz:29525.got - 2010.06.27 22:07:45.
