data_PCOD8062844
_publ_section_title
;
Structure prediction by ZEFSAII (Michael W. Deem and Ramdas Pophale) SiO2 
 PCOD8062844
Probable space group: P 2/M
;
_chemical_formula_sum "Si O2"
_cell_formula_units_Z 32
_cell_length_a 22.930674
_cell_length_b 9.249298
_cell_length_c 12.185256
_cell_angle_alpha 90.000000
_cell_angle_beta 134.599231
_cell_angle_gamma 90.000000
_cell_volume 1840.186661
_symmetry_space_group_name_H-M "P 2/M"
_symmetry_group_IT_number 10
_symmetry_cell_setting 'monoclinic'
loop_
_space_group_symop_operation_xyz
x,y,z
-x,y,-z
-x,-y,-z
x,-y,z
loop_
_atom_site_type_symbol
_atom_site_label
_atom_site_fract_x
_atom_site_fract_y
_atom_site_fract_z
Si Si1 0.351499 0.830650 0.963996
Si Si2 0.818871 0.668335 0.651882
Si Si3 0.211458 0.832297 0.940110
Si Si4 0.322115 0.669731 0.701985
Si Si5 0.472274 0.840750 0.838634
Si Si6 0.158376 0.170754 0.108720
Si Si7 0.940159 0.334491 0.329554
Si Si8 0.002342 0.334901 0.836986
O O1 0.299558 0.794246 0.004537
O O2 0.316789 0.744014 0.813678
O O3 0.346362 0.000000 0.926625
O O4 0.445799 0.788268 0.117741
O O5 0.812044 0.500000 0.671890
O O6 0.760348 0.707078 0.472888
O O7 0.792612 0.759449 0.724710
O O8 0.910562 0.714623 0.741241
O O9 0.144539 0.750550 0.779335
O O10 0.190838 0.000000 0.903242
O O11 0.207084 0.784744 0.061954
O O12 0.334214 0.500000 0.735232
O O13 0.398065 0.728300 0.728938
O O14 0.443933 0.000000 0.759990
O O15 0.500000 0.850953 0.000000
O O16 0.153196 0.000000 0.116620
O O17 0.066355 0.234958 0.986375
O O18 0.919148 0.500000 0.328927
O O19 0.000000 0.268228 0.500000
O O20 0.986646 0.316127 0.277231
O O21 0.018206 0.500000 0.895092
#
# Coordination Sequence:
#
# PCOD8062844 Si02
#       8
#     4   4   4   4   4   4   4   4
#     4   9  18  33  52  73  99 131 160 190 236 295
#     4  10  21  34  49  69  97 130 161 198 241 287
#     4   9  19  34  50  70  96 125 160 201 241 281
#     4  10  20  31  48  76 104 126 156 198 241 284
#     4   8  15  30  50  70  97 130 159 188 233 292
#     4  10  20  34  51  71  94 122 164 210 243 276
#     4   9  18  30  47  68  95 129 162 196 234 283
#     4   9  18  33  49  66  92 129 165 197 239 284
#
# _framework density 17.38954
#
# number of rings (size 3 to 8) (size 9 to 14) (size 15 to 20)
#    0.000    2.750    0.000    1.875    1.750    6.500 
#    0.000    0.000    0.000    0.750    0.000    5.250 
#    0.000    0.000    0.000    0.000    0.000    0.000 
#
# Total GULP energy -396725.688558 kJ/mol
# GULP energy per Si atom -12397.677767 kJ/mol
# Density = 1.734996 g / cm^3
# Si number density = 17.389540 Si / 1000 Ang^3
#
#
#
# Elastic Constant Matrix: (Units=GPa)
#
#
# Indices 1 2 3 4 5 6 
#
# 1 115.4312 38.3825 34.1372 0.0000 12.9671 0.0000
# 2 38.3825 61.0225 33.6604 0.0000 2.3551 0.0000
# 3 34.1372 33.6604 57.5214 0.0000 -0.6200 0.0000
# 4 0.0000 0.0000 0.0000 11.6444 0.0000 4.7901
# 5 12.9671 2.3551 -0.6200 0.0000 15.0511 0.0000
# 6 0.0000 0.0000 0.0000 4.7901 0.0000 22.5350
#
#
#
# Elastic Compliance Matrix: (Units=1/GPa)
#
#
# Indices 1 2 3 4 5 6 
#
# 1 0.012973 -0.005082 -0.004839 0.000000 -0.010581 0.000000
# 2 -0.005082 0.026480 -0.012483 0.000000 -0.000279 0.000000
# 3 -0.004839 -0.012483 0.027640 0.000000 0.007261 0.000000
# 4 0.000000 0.000000 0.000000 0.094107 0.000000 -0.020003
# 5 -0.010581 -0.000279 0.007261 0.000000 0.075899 0.000000
# 6 0.000000 0.000000 0.000000 -0.020003 0.000000 0.048627
#
#
# Mechanical properties :
#
#
# Convention : Reuss Voigt Hill
#
# Bulk Modulus (GPa) = 44.87336 49.59280 47.23308
# Shear Modulus (GPa) = 14.79458 18.36576 16.58017
#
# Velocity S-wave (km/s) = 2.91997 3.25335 3.09116
# Velocity P-wave (km/s) = 6.10157 6.53399 6.32148
#
# Compressibility (1/GPa) = 0.02228494
#
# Stress axis : x y z
#
# Youngs Moduli (GPa) = 77.08499 37.76390 36.18010
#
# Poissons Ratio (x) = 0.19192 0.17507
# Poissons Ratio (y) = 0.39176 0.45162
# Poissons Ratio (z) = 0.37301 0.47139
#
# Static dielectric constant tensor:
#      x y z
#    x 3.594000 0.000000 0.130030 
#    y 0.000000 3.240550 0.000000 
#    z 0.130030 0.000000 3.162180 
# 
# 
# High freq. dielectric constant tensor:
#      x y z
#    x 1.673860 0.000000 0.001390 
#    y 0.000000 1.669570 0.000000 
#    z 0.001390 0.000000 1.649970 
# 
# From -- ./inp_files/56479.got.cif
#   From: 2010.06.25/outbox.cif.g09.slc.cpg/sg10_29_cif.got.tgz:56479.got - 2010.06.27 22:07:45.
