data_PCOD8062497
_publ_section_title
;
Structure prediction by ZEFSAII (Michael W. Deem and Ramdas Pophale) SiO2 
 PCOD8062497
Probable space group: P 2/M
;
_chemical_formula_sum "Si O2"
_cell_formula_units_Z 24
_cell_length_a 14.562119
_cell_length_b 8.743384
_cell_length_c 9.550000
_cell_angle_alpha 90.000000
_cell_angle_beta 81.966102
_cell_angle_gamma 90.000000
_cell_volume 1203.993346
_symmetry_space_group_name_H-M "P 2/M"
_symmetry_group_IT_number 10
_symmetry_cell_setting 'monoclinic'
loop_
_space_group_symop_operation_xyz
x,y,z
-x,y,-z
-x,-y,-z
x,-y,z
loop_
_atom_site_type_symbol
_atom_site_label
_atom_site_fract_x
_atom_site_fract_y
_atom_site_fract_z
Si Si1 0.410236 0.318415 0.931284
Si Si2 0.042424 0.182395 0.133959
Si Si3 0.255770 0.321857 0.442888
Si Si4 0.079537 0.831986 0.592495
Si Si5 0.249951 0.818687 0.148263
Si Si6 0.416880 0.680942 0.611581
O O1 0.400169 0.500000 0.936701
O O2 0.419345 0.255361 0.770055
O O3 0.500000 0.264797 0.000000
O O4 0.318244 0.247366 0.017215
O O5 0.146309 0.244954 0.138443
O O6 0.968874 0.243800 0.262716
O O7 0.045452 0.000000 0.138847
O O8 0.000000 0.245897 0.000000
O O9 0.266877 0.500000 0.407602
O O10 0.152948 0.285788 0.515663
O O11 0.281762 0.233385 0.295553
O O12 0.322588 0.269609 0.554679
O O13 0.000000 0.860731 0.500000
O O14 0.124832 0.000000 0.614800
O O15 0.252463 0.000000 0.140653
O O16 0.500000 0.750035 0.500000
O O17 0.427248 0.500000 0.617755
#
# Coordination Sequence:
#
# PCOD8062497 Si02
#       6
#     4   4   4   4   4   4
#     4  10  21  39  63  87 114 149 187 230 286 343
#     4   9  19  35  55  79 110 152 192 229 278 337
#     4  11  22  36  58  86 116 150 191 236 283 334
#     4  10  19  36  58  80 111 151 193 232 278 332
#     4  11  22  38  59  85 116 151 192 235 282 335
#     4   9  19  37  60  85 113 147 187 229 279 342
#
# _framework density 19.933665000000001
#
# number of rings (size 3 to 8) (size 9 to 14) (size 15 to 20)
#    0.000    2.000    1.667    2.000    2.333    3.333 
#    0.000    0.833    0.000    6.000    0.000    0.000 
#    0.000    0.000    0.000    0.000    0.000    0.000 
#
# Total GULP energy -297569.841481 kJ/mol
# GULP energy per Si atom -12398.743395 kJ/mol
# Density = 1.988830 g / cm^3
# Si number density = 19.933665 Si / 1000 Ang^3
#
#
#
# Elastic Constant Matrix: (Units=GPa)
#
#
# Indices 1 2 3 4 5 6 
#
# 1 102.2910 23.8262 65.8382 0.0000 -2.8015 0.0000
# 2 23.8262 27.2175 21.5221 0.0000 -0.9991 0.0000
# 3 65.8382 21.5221 193.4702 0.0000 -4.9665 0.0000
# 4 0.0000 0.0000 0.0000 27.9496 0.0000 -4.3418
# 5 -2.8015 -0.9991 -4.9665 0.0000 43.2398 0.0000
# 6 0.0000 0.0000 0.0000 -4.3418 0.0000 26.0801
#
#
#
# Elastic Compliance Matrix: (Units=1/GPa)
#
#
# Indices 1 2 3 4 5 6 
#
# 1 0.014514 -0.009644 -0.003859 0.000000 0.000274 0.000000
# 2 -0.009644 0.046700 -0.001907 0.000000 0.000235 0.000000
# 3 -0.003859 -0.001907 0.006706 0.000000 0.000476 0.000000
# 4 0.000000 0.000000 0.000000 0.036729 0.000000 0.006115
# 5 0.000274 0.000235 0.000476 0.000000 0.023205 0.000000
# 6 0.000000 0.000000 0.000000 0.006115 0.000000 0.039361
#
#
# Mechanical properties :
#
#
# Convention : Reuss Voigt Hill
#
# Bulk Modulus (GPa) = 26.95424 60.59462 43.77443
# Shear Modulus (GPa) = 23.76409 33.57337 28.66873
#
# Velocity S-wave (km/s) = 3.45651 4.10842 3.79648
# Velocity P-wave (km/s) = 5.42967 7.27802 6.42070
#
# Compressibility (1/GPa) = 0.03709991
#
# Stress axis : x y z
#
# Youngs Moduli (GPa) = 68.90025 21.41333 149.11033
#
# Poissons Ratio (x) = 0.20650 0.57545
# Poissons Ratio (y) = 0.66445 0.28439
# Poissons Ratio (z) = 0.26590 0.04084
#
# Static dielectric constant tensor:
#      x y z
#    x 3.697290 0.000000 0.064880 
#    y 0.000000 3.211980 0.000000 
#    z 0.064880 0.000000 3.907010 
# 
# 
# High freq. dielectric constant tensor:
#      x y z
#    x 1.784390 0.000000 -0.002400 
#    y 0.000000 1.738090 0.000000 
#    z -0.002400 0.000000 1.796880 
# 
# From -- ./inp_files/27052.got.cif
#   From: 2010.06.25/outbox.cif.g09.slc.cpg/sg10_14_cif.got.tgz:27052.got - 2010.06.27 22:07:45.
