data_PCOD8062290
_publ_section_title
;
Structure prediction by ZEFSAII (Michael W. Deem and Ramdas Pophale) SiO2 
 PCOD8062290
Probable space group: P 2/M
;
_chemical_formula_sum "Si O2"
_cell_formula_units_Z 28
_cell_length_a 10.212579
_cell_length_b 8.836067
_cell_length_c 26.414148
_cell_angle_alpha 90.000000
_cell_angle_beta 140.700492
_cell_angle_gamma 90.000000
_cell_volume 1509.702673
_symmetry_space_group_name_H-M "P 2/M"
_symmetry_group_IT_number 10
_symmetry_cell_setting 'monoclinic'
loop_
_space_group_symop_operation_xyz
x,y,z
-x,y,-z
-x,-y,-z
x,-y,z
loop_
_atom_site_type_symbol
_atom_site_label
_atom_site_fract_x
_atom_site_fract_y
_atom_site_fract_z
Si Si1 0.876102 0.179382 0.819053
Si Si2 0.808552 0.820417 0.911860
Si Si3 0.809030 0.177045 0.334562
Si Si4 0.625084 0.177212 0.174124
Si Si5 0.829248 0.833030 0.492115
Si Si6 0.524259 0.677506 0.332838
Si Si7 0.704392 0.677917 0.091893
O O1 0.818700 0.238607 0.857756
O O2 0.702832 0.248898 0.730247
O O3 0.103514 0.236219 0.874671
O O4 0.872286 0.000000 0.812987
O O5 0.600022 0.765913 0.876165
O O6 0.819107 0.000000 0.914710
O O7 0.000000 0.750483 0.000000
O O8 0.782072 0.211987 0.267186
O O9 0.640989 0.265298 0.317604
O O10 0.045240 0.222695 0.420281
O O11 0.768920 0.000000 0.333860
O O12 0.690180 0.275783 0.146012
O O13 0.626185 0.000000 0.160126
O O14 0.647809 0.719708 0.421315
O O15 0.000000 0.841115 0.500000
O O16 0.733078 0.000000 0.472131
O O17 0.500609 0.500000 0.322693
O O18 0.740763 0.500000 0.098718
O O19 0.500000 0.728029 0.000000
#
# Coordination Sequence:
#
# PCOD8062290 Si02
#       7
#     4   4   4   4   4   4   4
#     4  11  21  37  60  81 107 144 188 233 274 322
#     4   9  17  30  53  83 107 129 171 231 279 317
#     4   9  17  32  53  79 110 145 186 231 272 320
#     4  10  19  35  58  82 109 142 187 232 274 325
#     4   8  15  28  48  74 108 146 183 223 269 320
#     4  11  20  30  49  80 117 148 179 221 276 332
#     4  11  25  42  56  78 114 150 184 225 278 337
#
# _framework density 18.546697000000002
#
# number of rings (size 3 to 8) (size 9 to 14) (size 15 to 20)
#    0.000    2.143    1.429    3.857    0.000    5.429 
#    0.000    0.000    0.000    3.857    0.000    6.000 
#    0.000    0.000    0.000    0.000    0.000    0.000 
#
# Total GULP energy -347154.992837 kJ/mol
# GULP energy per Si atom -12398.392601 kJ/mol
# Density = 1.850448 g / cm^3
# Si number density = 18.546697 Si / 1000 Ang^3
#
#
#
# Elastic Constant Matrix: (Units=GPa)
#
#
# Indices 1 2 3 4 5 6 
#
# 1 50.6666 28.7778 18.6620 0.0000 1.7573 0.0000
# 2 28.7778 86.7175 51.5487 0.0000 5.9211 0.0000
# 3 18.6620 51.5487 133.7218 0.0000 -1.9691 0.0000
# 4 0.0000 0.0000 0.0000 23.6426 0.0000 2.6264
# 5 1.7573 5.9211 -1.9691 0.0000 27.2816 0.0000
# 6 0.0000 0.0000 0.0000 2.6264 0.0000 19.2102
#
#
#
# Elastic Compliance Matrix: (Units=1/GPa)
#
#
# Indices 1 2 3 4 5 6 
#
# 1 0.024335 -0.007869 -0.000361 0.000000 0.000114 0.000000
# 2 -0.007869 0.017880 -0.005850 0.000000 -0.003796 0.000000
# 3 -0.000361 -0.005850 0.009813 0.000000 0.002001 0.000000
# 4 0.000000 0.000000 0.000000 0.042949 0.000000 -0.005872
# 5 0.000114 -0.003796 0.002001 0.000000 0.037616 0.000000
# 6 0.000000 0.000000 0.000000 -0.005872 0.000000 0.052858
#
#
# Mechanical properties :
#
#
# Convention : Reuss Voigt Hill
#
# Bulk Modulus (GPa) = 41.89734 52.12032 47.00883
# Shear Modulus (GPa) = 22.56642 25.50139 24.03390
#
# Velocity S-wave (km/s) = 3.49196 3.71210 3.60371
# Velocity P-wave (km/s) = 6.23679 6.82174 6.53581
#
# Compressibility (1/GPa) = 0.02386786
#
# Stress axis : x y z
#
# Youngs Moduli (GPa) = 41.09245 55.92864 101.90239
#
# Poissons Ratio (x) = 0.44010 0.03680
# Poissons Ratio (y) = 0.32336 0.59616
# Poissons Ratio (z) = 0.01484 0.32720
#
# Static dielectric constant tensor:
#      x y z
#    x 3.165440 0.000000 -0.129100 
#    y 0.000000 3.196680 0.000000 
#    z -0.129100 0.000000 4.055330 
# 
# 
# High freq. dielectric constant tensor:
#      x y z
#    x 1.682470 0.000000 -0.004930 
#    y 0.000000 1.702420 0.000000 
#    z -0.004930 0.000000 1.744280 
# 
# From -- ./inp_files/31618.got.cif
#   From: 2010.06.25/outbox.cif.g09.slc.cpg/sg10_16_cif.got.tgz:31618.got - 2010.06.27 22:07:45.
