data_PCOD8062404
_publ_section_title
;
Structure prediction by ZEFSAII (Michael W. Deem and Ramdas Pophale) SiO2 
 PCOD8062404
Probable space group: P 2/M
;
_chemical_formula_sum "Si O2"
_cell_formula_units_Z 28
_cell_length_a 17.596648
_cell_length_b 8.479132
_cell_length_c 14.184391
_cell_angle_alpha 90.000000
_cell_angle_beta 42.852898
_cell_angle_gamma 90.000000
_cell_volume 1439.383694
_symmetry_space_group_name_H-M "P 2/M"
_symmetry_group_IT_number 10
_symmetry_cell_setting 'monoclinic'
loop_
_space_group_symop_operation_xyz
x,y,z
-x,y,-z
-x,-y,-z
x,-y,z
loop_
_atom_site_type_symbol
_atom_site_label
_atom_site_fract_x
_atom_site_fract_y
_atom_site_fract_z
Si Si1 0.830198 0.317365 0.333441
Si Si2 0.760729 0.815329 0.201579
Si Si3 0.086808 0.684335 0.096867
Si Si4 0.623045 0.315747 0.861137
Si Si5 0.745211 0.185325 0.919652
Si Si6 0.655183 0.815884 0.628619
Si Si7 0.422112 0.185880 0.770878
O O1 0.816376 0.500000 0.370761
O O2 0.778376 0.285314 0.278627
O O3 0.767932 0.216869 0.469741
O O4 0.958363 0.264181 0.218851
O O5 0.642079 0.756829 0.265058
O O6 0.759577 0.000000 0.228278
O O7 0.858038 0.783849 0.037449
O O8 0.099062 0.500000 0.062894
O O9 0.143145 0.726787 0.145843
O O10 0.629143 0.500000 0.875906
O O11 0.717394 0.230509 0.837978
O O12 0.653424 0.281265 0.726170
O O13 0.500000 0.249650 0.000000
O O14 0.765436 0.000000 0.910299
O O15 0.642548 0.247125 0.077540
O O16 0.550459 0.757703 0.659042
O O17 0.644735 0.000000 0.662304
O O18 0.415301 0.000000 0.777371
#
# Coordination Sequence:
#
# PCOD8062404 Si02
#       7
#     4   4   4   4   4   4   4
#     4  11  24  40  55  79 117 156 191 235 290 340
#     4  10  20  36  60  87 112 146 194 239 282 337
#     4  10  21  38  59  83 115 151 189 237 290 337
#     4  11  22  36  58  89 120 150 185 227 280 341
#     4  10  19  35  60  88 115 145 188 237 282 332
#     4  11  22  38  59  82 114 153 193 235 282 338
#     4   8  17  33  54  83 114 144 180 232 285 327
#
# _framework density 19.452770000000001
#
# number of rings (size 3 to 8) (size 9 to 14) (size 15 to 20)
#    0.000    1.857    1.429    3.857    0.000    5.143 
#    0.000    5.714    0.000    4.286    0.000    0.000 
#    0.000    0.000    0.000    0.000    0.000    0.000 
#
# Total GULP energy -347248.782425 kJ/mol
# GULP energy per Si atom -12401.742229 kJ/mol
# Density = 1.940849 g / cm^3
# Si number density = 19.452770 Si / 1000 Ang^3
#
#
#
# Elastic Constant Matrix: (Units=GPa)
#
#
# Indices 1 2 3 4 5 6 
#
# 1 96.5852 7.4898 31.1267 0.0000 17.3975 0.0000
# 2 7.4898 38.2154 4.7779 0.0000 -3.8975 0.0000
# 3 31.1267 4.7779 70.4307 0.0000 6.7066 0.0000
# 4 0.0000 0.0000 0.0000 27.7193 0.0000 3.6314
# 5 17.3975 -3.8975 6.7066 0.0000 13.0572 0.0000
# 6 0.0000 0.0000 0.0000 3.6314 0.0000 32.6343
#
#
#
# Elastic Compliance Matrix: (Units=1/GPa)
#
#
# Indices 1 2 3 4 5 6 
#
# 1 0.015858 -0.004551 -0.004793 0.000000 -0.020027 0.000000
# 2 -0.004551 0.028805 -0.001408 0.000000 0.015385 0.000000
# 3 -0.004793 -0.001408 0.016659 0.000000 -0.002591 0.000000
# 4 0.000000 0.000000 0.000000 0.036610 0.000000 -0.004074
# 5 -0.020027 0.015385 -0.002591 0.000000 0.109193 0.000000
# 6 0.000000 0.000000 0.000000 -0.004074 0.000000 0.031096
#
#
# Mechanical properties :
#
#
# Convention : Reuss Voigt Hill
#
# Bulk Modulus (GPa) = 25.11420 32.44666 28.78043
# Shear Modulus (GPa) = 18.31525 25.47129 21.89327
#
# Velocity S-wave (km/s) = 3.07176 3.62248 3.35842
# Velocity P-wave (km/s) = 5.05166 5.84913 5.46496
#
# Compressibility (1/GPa) = 0.03981811
#
# Stress axis : x y z
#
# Youngs Moduli (GPa) = 63.05803 34.71673 60.02862
#
# Poissons Ratio (x) = 0.15801 0.28771
# Poissons Ratio (y) = 0.28700 0.08450
# Poissons Ratio (z) = 0.30223 0.04887
#
# Static dielectric constant tensor:
#      x y z
#    x 3.800400 0.000000 -0.165020 
#    y 0.000000 3.404160 0.000000 
#    z -0.165020 0.000000 3.370850 
# 
# 
# High freq. dielectric constant tensor:
#      x y z
#    x 1.770990 0.000000 -0.003680 
#    y 0.000000 1.754090 0.000000 
#    z -0.003680 0.000000 1.734970 
# 
# From -- ./inp_files/68591.got.cif
#   From: 2010.06.25/outbox.cif.g09.slc.cpg/sg10_35_cif.got.tgz:68591.got - 2010.06.27 22:07:45.
