data_PCOD8062241
_publ_section_title
;
Structure prediction by ZEFSAII (Michael W. Deem and Ramdas Pophale) SiO2 
 PCOD8062241
Probable space group: P 2/M
;
_chemical_formula_sum "Si O2"
_cell_formula_units_Z 28
_cell_length_a 9.570828
_cell_length_b 9.271829
_cell_length_c 27.859062
_cell_angle_alpha 90.000000
_cell_angle_beta 141.783948
_cell_angle_gamma 90.000000
_cell_volume 1529.365766
_symmetry_space_group_name_H-M "P 2/M"
_symmetry_group_IT_number 10
_symmetry_cell_setting 'monoclinic'
loop_
_space_group_symop_operation_xyz
x,y,z
-x,y,-z
-x,-y,-z
x,-y,z
loop_
_atom_site_type_symbol
_atom_site_label
_atom_site_fract_x
_atom_site_fract_y
_atom_site_fract_z
Si Si1 0.162426 0.830968 0.640746
Si Si2 0.750351 0.836719 0.048607
Si Si3 0.498547 0.830570 0.351635
Si Si4 0.150127 0.331532 0.196969
Si Si5 0.496711 0.665500 0.207344
Si Si6 0.653443 0.828606 0.497802
Si Si7 0.753309 0.339086 0.954978
O O1 0.287579 0.793280 0.624553
O O2 0.289220 0.760483 0.720035
O O3 0.908448 0.768650 0.570826
O O4 0.160889 0.000000 0.649538
O O5 0.905438 0.740071 0.125119
O O6 0.843797 0.000000 0.073320
O O7 0.500000 0.829556 0.000000
O O8 0.742644 0.779174 0.992767
O O9 0.278986 0.742628 0.275963
O O10 0.552442 0.777231 0.419824
O O11 0.443583 0.000000 0.334708
O O12 0.120828 0.500000 0.200071
O O13 0.283798 0.301691 0.183926
O O14 0.568393 0.500000 0.231839
O O15 0.427488 0.704509 0.134580
O O16 0.500000 0.767815 0.500000
O O17 0.659471 0.000000 0.500829
O O18 0.698818 0.500000 0.960275
O O19 0.000000 0.340785 0.000000
#
# Coordination Sequence:
#
# PCOD8062241 Si02
#       7
#     4   4   4   4   4   4   4
#     4   9  17  30  51  77 102 133 174 214 254 309
#     4  11  24  39  54  79 112 144 182 227 270 315
#     4   9  17  31  53  78 102 131 173 219 259 308
#     4  10  19  35  57  79 106 140 179 219 266 322
#     4   9  18  33  54  80 107 135 172 221 267 311
#     4   9  17  31  51  75 104 137 169 209 263 315
#     4  10  19  36  59  81 107 143 183 222 268 321
#
# _framework density 18.308243000000001
#
# number of rings (size 3 to 8) (size 9 to 14) (size 15 to 20)
#    0.000    2.429    1.429    1.286    0.000    4.286 
#    2.571    0.714    0.000    4.286    0.000    0.000 
#    0.000    0.000    0.000    0.000    0.000    0.000 
#
# Total GULP energy -347222.939384 kJ/mol
# GULP energy per Si atom -12400.819264 kJ/mol
# Density = 1.826657 g / cm^3
# Si number density = 18.308243 Si / 1000 Ang^3
#
#
#
# Elastic Constant Matrix: (Units=GPa)
#
#
# Indices 1 2 3 4 5 6 
#
# 1 71.0578 33.9955 62.6715 0.0000 -2.1354 0.0000
# 2 33.9955 74.0835 65.9937 0.0000 3.4504 0.0000
# 3 62.6715 65.9937 159.6520 0.0000 -4.9432 0.0000
# 4 0.0000 0.0000 0.0000 30.2257 0.0000 -5.3976
# 5 -2.1354 3.4504 -4.9432 0.0000 17.9283 0.0000
# 6 0.0000 0.0000 0.0000 -5.3976 0.0000 17.8569
#
#
#
# Elastic Compliance Matrix: (Units=1/GPa)
#
#
# Indices 1 2 3 4 5 6 
#
# 1 0.022231 -0.004017 -0.007021 0.000000 0.001485 0.000000
# 2 -0.004017 0.022896 -0.008108 0.000000 -0.007120 0.000000
# 3 -0.007021 -0.008108 0.012500 0.000000 0.004171 0.000000
# 4 0.000000 0.000000 0.000000 0.034972 0.000000 0.010571
# 5 0.001485 -0.007120 0.004171 0.000000 0.058475 0.000000
# 6 0.000000 0.000000 0.000000 0.010571 0.000000 0.059196
#
#
# Mechanical properties :
#
#
# Convention : Reuss Voigt Hill
#
# Bulk Modulus (GPa) = 51.71490 70.01275 60.86382
# Shear Modulus (GPa) = 19.60738 22.67768 21.14253
#
# Velocity S-wave (km/s) = 3.27610 3.52328 3.40194
# Velocity P-wave (km/s) = 6.52829 7.40780 6.98191
#
# Compressibility (1/GPa) = 0.01933679
#
# Stress axis : x y z
#
# Youngs Moduli (GPa) = 44.98140 43.67660 79.99921
#
# Poissons Ratio (x) = 0.17544 0.56164
# Poissons Ratio (y) = 0.18068 0.64862
# Poissons Ratio (z) = 0.31580 0.35412
#
# Static dielectric constant tensor:
#      x y z
#    x 3.190820 0.000000 0.015770 
#    y 0.000000 3.306690 0.000000 
#    z 0.015770 0.000000 3.545730 
# 
# 
# High freq. dielectric constant tensor:
#      x y z
#    x 1.689830 0.000000 -0.001960 
#    y 0.000000 1.694240 0.000000 
#    z -0.001960 0.000000 1.724250 
# 
# From -- ./inp_files/92106.got.cif
#   From: 2010.06.25/outbox.cif.g09.slc.cpg/sg10_47_cif.got.tgz:92106.got - 2010.06.27 22:07:45.
