data_PCOD8062825
_publ_section_title
;
Structure prediction by ZEFSAII (Michael W. Deem and Ramdas Pophale) SiO2 
 PCOD8062825
Probable space group: P 2/M
;
_chemical_formula_sum "Si O2"
_cell_formula_units_Z 32
_cell_length_a 14.267568
_cell_length_b 19.381322
_cell_length_c 16.250555
_cell_angle_alpha 90.000000
_cell_angle_beta 151.398908
_cell_angle_gamma 90.000000
_cell_volume 2151.160267
_symmetry_space_group_name_H-M "P 2/M"
_symmetry_group_IT_number 10
_symmetry_cell_setting 'monoclinic'
loop_
_space_group_symop_operation_xyz
x,y,z
-x,y,-z
-x,-y,-z
x,-y,z
loop_
_atom_site_type_symbol
_atom_site_label
_atom_site_fract_x
_atom_site_fract_y
_atom_site_fract_z
Si Si1 0.958423 0.420842 0.191724
Si Si2 0.921612 0.830273 0.310163
Si Si3 0.425026 0.420842 0.191725
Si Si4 0.698714 0.169727 0.310163
Si Si5 0.604495 0.581896 0.500000
Si Si6 0.307316 0.324951 0.701191
Si Si7 0.904935 0.324951 0.298809
Si Si8 0.388054 0.077897 0.000000
O O1 0.976522 0.500000 0.234758
O O2 0.868990 0.377968 0.197933
O O3 0.171024 0.391967 0.329353
O O4 0.809752 0.414190 0.999999
O O5 0.814872 0.832785 0.314872
O O6 0.902854 0.752716 0.260791
O O7 0.150220 0.850379 0.500000
O O8 0.820865 0.883650 0.169548
O O9 0.492994 0.500000 0.234758
O O10 0.487684 0.391967 0.329354
O O11 0.526878 0.377968 0.197934
O O12 0.618729 0.247284 0.260792
O O13 0.518232 0.116350 0.169548
O O14 0.500000 0.613970 0.500000
O O15 0.597549 0.500000 0.500000
O O16 0.268442 0.334460 0.768442
O O17 0.111357 0.340893 0.500000
O O18 0.349576 0.000000 0.000000
O O19 0.500000 0.079042 0.000000
#
# Coordination Sequence:
#
# PCOD8062825 Si02
#       8
#     4   4   4   4   4   4   4   4
#     4  10  20  31  44  65  87 108 142 181 215 257
#     4   8  15  26  37  52  74 102 138 174 205 240
#     4  10  20  31  44  65  87 108 142 181 215 257
#     4   8  15  26  37  52  74 102 138 174 205 240
#     4   9  18  34  51  63  81 107 135 176 224 262
#     4   9  17  29  44  60  83 117 150 179 211 249
#     4   9  17  29  44  60  83 117 150 179 211 249
#     4   9  16  24  36  54  73  99 138 177 209 239
#
# _framework density 14.875693
#
# number of rings (size 3 to 8) (size 9 to 14) (size 15 to 20)
#    0.000    3.000    1.250    1.500    1.750    2.000 
#    0.000    7.500    0.000    0.000    0.000    0.000 
#    0.000    0.000    0.000    0.000    0.000    3.750 
#
# Total GULP energy -396662.225800 kJ/mol
# GULP energy per Si atom -12395.694556 kJ/mol
# Density = 1.484184 g / cm^3
# Si number density = 14.875693 Si / 1000 Ang^3
#
#
#
# Elastic Constant Matrix: (Units=GPa)
#
#
# Indices 1 2 3 4 5 6 
#
# 1 55.3009 29.7872 39.2100 0.0000 0.6859 0.0000
# 2 29.7872 76.8894 50.7549 0.0000 4.2958 0.0000
# 3 39.2100 50.7549 108.1710 0.0000 10.1461 0.0000
# 4 0.0000 0.0000 0.0000 22.9555 0.0000 4.4035
# 5 0.6859 4.2958 10.1461 0.0000 11.6573 0.0000
# 6 0.0000 0.0000 0.0000 4.4035 0.0000 1.4617
#
#
#
# Elastic Compliance Matrix: (Units=1/GPa)
#
#
# Indices 1 2 3 4 5 6 
#
# 1 0.026412 -0.005605 -0.007613 0.000000 0.007138 0.000000
# 2 -0.005605 0.020038 -0.007305 0.000000 -0.000696 0.000000
# 3 -0.007613 -0.007305 0.016483 0.000000 -0.011206 0.000000
# 4 0.000000 0.000000 0.000000 0.103208 0.000000 -0.310934
# 5 0.007138 -0.000696 -0.011206 0.000000 0.095374 0.000000
# 6 0.000000 0.000000 0.000000 -0.310934 0.000000 1.620900
#
#
# Mechanical properties :
#
#
# Convention : Reuss Voigt Hill
#
# Bulk Modulus (GPa) = 45.69162 53.31838 49.50500
# Shear Modulus (GPa) = 2.58966 15.25550 8.92258
#
# Velocity S-wave (km/s) = 1.32085 3.20587 2.45176
# Velocity P-wave (km/s) = 5.75400 7.04442 6.43165
#
# Compressibility (1/GPa) = 0.02188585
#
# Stress axis : x y z
#
# Youngs Moduli (GPa) = 37.86228 49.90487 60.66886
#
# Poissons Ratio (x) = 0.27973 0.46188
# Poissons Ratio (y) = 0.21223 0.44318
# Poissons Ratio (z) = 0.28825 0.36455
#
# Static dielectric constant tensor:
#      x y z
#    x 2.540470 0.000000 0.126420 
#    y 0.000000 2.830990 0.000000 
#    z 0.126420 0.000000 3.157540 
# 
# 
# High freq. dielectric constant tensor:
#      x y z
#    x 1.508520 0.000000 0.015700 
#    y 0.000000 1.551210 0.000000 
#    z 0.015700 0.000000 1.585140 
# 
# From -- ./inp_files/48003.got.cif
#   From: 2010.06.25/outbox.cif.g09.slc.cpg/sg10_25_cif.got.tgz:48003.got - 2010.06.27 22:07:45.
