data_PCOD8062906
_publ_section_title
;
Structure prediction by ZEFSAII (Michael W. Deem and Ramdas Pophale) SiO2 
 PCOD8062906
Probable space group: P 2/M
;
_chemical_formula_sum "Si O2"
_cell_formula_units_Z 22
_cell_length_a 17.212906
_cell_length_b 16.263594
_cell_length_c 16.654474
_cell_angle_alpha 90.000000
_cell_angle_beta 162.732354
_cell_angle_gamma 90.000000
_cell_volume 1383.941579
_symmetry_space_group_name_H-M "P 2/M"
_symmetry_group_IT_number 10
_symmetry_cell_setting 'monoclinic'
loop_
_space_group_symop_operation_xyz
x,y,z
-x,y,-z
-x,-y,-z
x,-y,z
loop_
_atom_site_type_symbol
_atom_site_label
_atom_site_fract_x
_atom_site_fract_y
_atom_site_fract_z
Si Si1 0.159869 0.905101 0.887306
Si Si2 0.661594 0.139205 0.483186
Si Si3 0.755398 0.097879 0.208780
Si Si4 0.015023 0.591329 0.919964
Si Si5 0.483441 0.691224 0.578679
Si Si6 0.755294 0.000000 0.699965
O O1 0.232780 0.871388 0.871160
O O2 0.913666 0.850843 0.674237
O O3 0.067217 0.000000 0.793065
O O4 0.414750 0.899672 0.194433
O O5 0.569336 0.225006 0.427606
O O6 0.762502 0.081454 0.654020
O O7 0.000000 0.132280 0.500000
O O8 0.748601 0.000000 0.203772
O O9 0.500000 0.134502 0.000000
O O10 0.056244 0.500000 0.923985
O O11 0.248900 0.651584 0.124477
O O12 0.000000 0.584512 0.000000
O O13 0.743376 0.627965 0.620682
O O14 0.500000 0.708535 0.500000
O O15 0.500000 0.000000 0.500000
O O16 0.000000 0.000000 0.000000
#
# Coordination Sequence:
#
# PCOD8062906 Si02
#       6
#     4   4   4   4   4   2
#     4  11  20  34  49  65  91 123 160 198 239 279
#     4  12  22  35  47  66  91 126 165 203 243 270
#     4   9  17  29  47  69  87 109 146 194 236 279
#     4   9  17  31  50  69  87 110 144 191 246 295
#     4  10  20  32  47  67  91 118 156 202 235 277
#     4  12  24  36  48  60  82 124 174 214 238 258
#
# _framework density 15.896625
#
# number of rings (size 3 to 8) (size 9 to 14) (size 15 to 20)
#    0.000    1.636    1.818    4.364    0.000    7.273 
#    0.000    0.000    0.000    0.000    0.000    0.000 
#    0.000    0.000    0.000    0.000    0.000  229.091 
#
# Total GULP energy -272813.636026 kJ/mol
# GULP energy per Si atom -12400.619819 kJ/mol
# Density = 1.586044 g / cm^3
# Si number density = 15.896625 Si / 1000 Ang^3
#
#
#
# Elastic Constant Matrix: (Units=GPa)
#
#
# Indices 1 2 3 4 5 6 
#
# 1 94.4360 41.5828 48.4528 0.0000 15.4625 0.0000
# 2 41.5828 84.2425 29.0707 0.0000 7.1623 0.0000
# 3 48.4528 29.0707 119.2881 0.0000 18.0070 0.0000
# 4 0.0000 0.0000 0.0000 9.2153 0.0000 2.5600
# 5 15.4625 7.1623 18.0070 0.0000 31.0929 0.0000
# 6 0.0000 0.0000 0.0000 2.5600 0.0000 6.3585
#
#
#
# Elastic Compliance Matrix: (Units=1/GPa)
#
#
# Indices 1 2 3 4 5 6 
#
# 1 0.016262 -0.006129 -0.004497 0.000000 -0.004071 0.000000
# 2 -0.006129 0.015316 -0.001283 0.000000 0.000263 0.000000
# 3 -0.004497 -0.001283 0.011112 0.000000 -0.003903 0.000000
# 4 0.000000 0.000000 0.000000 0.122180 0.000000 -0.049191
# 5 -0.004071 0.000263 -0.003903 0.000000 0.036386 0.000000
# 6 0.000000 0.000000 0.000000 -0.049191 0.000000 0.177076
#
#
# Mechanical properties :
#
#
# Convention : Reuss Voigt Hill
#
# Bulk Modulus (GPa) = 52.98923 59.57546 56.28234
# Shear Modulus (GPa) = 12.24171 21.25736 16.74954
#
# Velocity S-wave (km/s) = 2.77805 3.66078 3.24952
# Velocity P-wave (km/s) = 6.61030 7.44490 7.03998
#
# Compressibility (1/GPa) = 0.01887176
#
# Stress axis : x y z
#
# Youngs Moduli (GPa) = 61.49356 65.29066 89.99655
#
# Poissons Ratio (x) = 0.40017 0.40473
# Poissons Ratio (y) = 0.37689 0.11544
# Poissons Ratio (z) = 0.27655 0.08375
#
# Static dielectric constant tensor:
#      x y z
#    x 3.032690 0.000000 0.144040 
#    y 0.000000 2.842900 0.000000 
#    z 0.144040 0.000000 3.280930 
# 
# 
# High freq. dielectric constant tensor:
#      x y z
#    x 1.590290 0.000000 0.016890 
#    y 0.000000 1.575060 0.000000 
#    z 0.016890 0.000000 1.633040 
# 
# From -- ./inp_files/9061.got.cif
#   From: 2010.06.25/outbox.cif.g09.slc.cpg/sg10_5_cif.got.tgz:9061.got - 2010.06.27 22:07:45.
