data_PCOD8062606
_publ_section_title
;
Structure prediction by ZEFSAII (Michael W. Deem and Ramdas Pophale) SiO2 
 PCOD8062606
Probable space group: P 2/M
;
_chemical_formula_sum "Si O2"
_cell_formula_units_Z 28
_cell_length_a 18.984512
_cell_length_b 8.925235
_cell_length_c 13.578416
_cell_angle_alpha 90.000000
_cell_angle_beta 39.352309
_cell_angle_gamma 90.000000
_cell_volume 1458.871781
_symmetry_space_group_name_H-M "P 2/M"
_symmetry_group_IT_number 10
_symmetry_cell_setting 'monoclinic'
loop_
_space_group_symop_operation_xyz
x,y,z
-x,y,-z
-x,-y,-z
x,-y,z
loop_
_atom_site_type_symbol
_atom_site_label
_atom_site_fract_x
_atom_site_fract_y
_atom_site_fract_z
Si Si1 0.632834 0.328029 0.123066
Si Si2 0.947580 0.325545 0.282641
Si Si3 0.616915 0.328639 0.583717
Si Si4 0.246965 0.176326 0.398612
Si Si5 0.620393 0.674551 0.907162
Si Si6 0.811838 0.329624 0.234333
Si Si7 0.833330 0.175165 0.008549
O O1 0.667803 0.500000 0.103266
O O2 0.631714 0.288948 0.009499
O O3 0.511400 0.296308 0.300052
O O4 0.715945 0.220066 0.089677
O O5 0.952672 0.500000 0.301310
O O6 0.871345 0.248631 0.447251
O O7 0.898302 0.294985 0.227659
O O8 0.070189 0.257621 0.156474
O O9 0.633770 0.500000 0.602701
O O10 0.659123 0.221617 0.624396
O O11 0.686621 0.302226 0.408664
O O12 0.283920 0.232991 0.251419
O O13 0.232728 0.000000 0.412971
O O14 0.636809 0.500000 0.866414
O O15 0.500000 0.728269 0.000000
O O16 0.826088 0.500000 0.181007
O O17 0.837364 0.217858 0.118731
O O18 0.851702 0.000000 0.978573
#
# Coordination Sequence:
#
# PCOD8062606 Si02
#       7
#     4   4   4   4   4   4   4
#     4  10  21  38  60  82 112 153 196 236 276 330
#     4  10  21  40  64  84 108 147 199 241 273 328
#     4   9  18  36  59  84 112 149 196 239 274 326
#     4  11  21  33  56  90 123 147 177 231 295 342
#     4  10  19  36  62  87 112 147 195 237 272 328
#     4   9  19  36  61  86 109 144 194 241 279 328
#     4  12  25  38  54  81 120 154 185 233 292 345
#
# _framework density 19.192913999999998
#
# number of rings (size 3 to 8) (size 9 to 14) (size 15 to 20)
#    0.000    1.857    1.429    4.286    0.000    6.571 
#    0.000    3.571    0.000    4.286    0.000    0.000 
#    0.000    0.000    0.000    0.000    0.000    0.000 
#
# Total GULP energy -347328.742110 kJ/mol
# GULP energy per Si atom -12404.597933 kJ/mol
# Density = 1.914923 g / cm^3
# Si number density = 19.192914 Si / 1000 Ang^3
#
#
#
# Elastic Constant Matrix: (Units=GPa)
#
#
# Indices 1 2 3 4 5 6 
#
# 1 27.5663 16.4654 17.1168 0.0000 -10.0989 0.0000
# 2 16.4654 104.7130 47.3186 0.0000 -5.2191 0.0000
# 3 17.1168 47.3186 116.7995 0.0000 -14.7823 0.0000
# 4 0.0000 0.0000 0.0000 18.6494 0.0000 -5.2928
# 5 -10.0989 -5.2191 -14.7823 0.0000 25.6123 0.0000
# 6 0.0000 0.0000 0.0000 -5.2928 0.0000 20.0670
#
#
#
# Elastic Compliance Matrix: (Units=1/GPa)
#
#
# Indices 1 2 3 4 5 6 
#
# 1 0.046977 -0.005377 -0.002698 0.000000 0.015870 0.000000
# 2 -0.005377 0.012309 -0.004477 0.000000 -0.002196 0.000000
# 3 -0.002698 -0.004477 0.011350 0.000000 0.004575 0.000000
# 4 0.000000 0.000000 0.000000 0.057960 0.000000 0.015287
# 5 0.015870 -0.002196 0.004575 0.000000 0.047494 0.000000
# 6 0.000000 0.000000 0.000000 0.015287 0.000000 0.053865
#
#
# Mechanical properties :
#
#
# Convention : Reuss Voigt Hill
#
# Bulk Modulus (GPa) = 21.96190 45.65338 33.80764
# Shear Modulus (GPa) = 18.50249 24.07759 21.29004
#
# Velocity S-wave (km/s) = 3.10825 3.54574 3.33418
# Velocity P-wave (km/s) = 4.93449 6.37191 5.69870
#
# Compressibility (1/GPa) = 0.04553339
#
# Stress axis : x y z
#
# Youngs Moduli (GPa) = 21.28714 81.24231 88.10925
#
# Poissons Ratio (x) = 0.43682 0.23768
# Poissons Ratio (y) = 0.11446 0.39443
# Poissons Ratio (z) = 0.05742 0.36369
#
# Static dielectric constant tensor:
#      x y z
#    x 3.251110 0.000000 -0.065380 
#    y 0.000000 3.380690 0.000000 
#    z -0.065380 0.000000 3.772060 
# 
# 
# High freq. dielectric constant tensor:
#      x y z
#    x 1.720770 0.000000 -0.002350 
#    y 0.000000 1.738550 0.000000 
#    z -0.002350 0.000000 1.766190 
# 
# From -- ./inp_files/70214.got.cif
#   From: 2010.06.25/outbox.cif.g09.slc.cpg/sg10_36_cif.got.tgz:70214.got - 2010.06.27 22:07:45.
