data_PCOD8062015
_publ_section_title
;
Structure prediction by ZEFSAII (Michael W. Deem and Ramdas Pophale) SiO2 
 PCOD8062015
Probable space group: P 2/M
;
_chemical_formula_sum "Si O2"
_cell_formula_units_Z 32
_cell_length_a 20.553721
_cell_length_b 8.770311
_cell_length_c 25.279287
_cell_angle_alpha 90.000000
_cell_angle_beta 157.699302
_cell_angle_gamma 90.000000
_cell_volume 1729.198214
_symmetry_space_group_name_H-M "P 2/M"
_symmetry_group_IT_number 10
_symmetry_cell_setting 'monoclinic'
loop_
_space_group_symop_operation_xyz
x,y,z
-x,y,-z
-x,-y,-z
x,-y,z
loop_
_atom_site_type_symbol
_atom_site_label
_atom_site_fract_x
_atom_site_fract_y
_atom_site_fract_z
Si Si1 0.177433 0.177128 0.864173
Si Si2 0.916285 0.680213 0.591755
Si Si3 0.145335 0.174974 0.565846
Si Si4 0.599023 0.179997 0.414702
Si Si5 0.637891 0.818930 0.562772
Si Si6 0.021651 0.823203 0.860351
Si Si7 0.660927 0.323592 0.854373
Si Si8 0.499608 0.678163 0.153441
O O1 0.090464 0.266685 0.750772
O O2 0.065968 0.207649 0.832649
O O3 0.184442 0.000000 0.855034
O O4 0.369207 0.239283 0.015572
O O5 0.905800 0.500000 0.582635
O O6 0.919856 0.740650 0.535137
O O7 0.751631 0.741323 0.498311
O O8 0.313799 0.254009 0.716320
O O9 0.000000 0.189981 0.500000
O O10 0.187092 0.000000 0.583530
O O11 0.597134 0.241186 0.473363
O O12 0.418277 0.225054 0.252657
O O13 0.627901 0.000000 0.434109
O O14 0.500000 0.749115 0.500000
O O15 0.827399 0.767697 0.723580
O O16 0.627631 0.000000 0.554877
O O17 0.047611 0.000000 0.893859
O O18 0.142183 0.725293 0.989492
O O19 0.653398 0.500000 0.833432
O O20 0.552988 0.287921 0.825809
O O21 0.497699 0.500000 0.139492
#
# Coordination Sequence:
#
# PCOD8062015 Si02
#       8
#     4   4   4   4   4   4   4   4
#     4  10  19  34  57  85 114 147 189 238 282 331
#     4  12  23  36  57  86 117 149 188 236 283 333
#     4  11  24  41  61  85 115 152 190 230 279 337
#     4  11  20  34  57  84 111 145 189 237 283 332
#     4   9  18  34  56  83 113 144 186 237 284 332
#     4   9  17  32  54  81 109 145 186 229 281 332
#     4  10  20  33  52  82 113 145 183 231 281 331
#     4  10  20  35  56  85 117 150 185 229 284 337
#
# _framework density 18.505687000000002
#
# number of rings (size 3 to 8) (size 9 to 14) (size 15 to 20)
#    0.000    1.750    2.500    3.000    0.000    2.500 
#    0.000    1.250    0.000   10.875    0.000    0.000 
#    0.000    0.000    0.000    0.000    0.000    0.000 
#
# Total GULP energy -396930.732240 kJ/mol
# GULP energy per Si atom -12404.085382 kJ/mol
# Density = 1.846357 g / cm^3
# Si number density = 18.505687 Si / 1000 Ang^3
#
#
#
# Elastic Constant Matrix: (Units=GPa)
#
#
# Indices 1 2 3 4 5 6 
#
# 1 83.1156 40.3076 51.3602 0.0000 -6.4328 0.0000
# 2 40.3076 137.7145 91.6694 0.0000 -11.5675 0.0000
# 3 51.3602 91.6694 187.2607 0.0000 -10.5113 0.0000
# 4 0.0000 0.0000 0.0000 25.9328 0.0000 -9.5469
# 5 -6.4328 -11.5675 -10.5113 0.0000 28.6899 0.0000
# 6 0.0000 0.0000 0.0000 -9.5469 0.0000 8.7236
#
#
#
# Elastic Compliance Matrix: (Units=1/GPa)
#
#
# Indices 1 2 3 4 5 6 
#
# 1 0.015077 -0.002369 -0.002899 0.000000 0.001363 0.000000
# 2 -0.002369 0.011316 -0.004762 0.000000 0.002287 0.000000
# 3 -0.002899 -0.004762 0.008497 0.000000 0.000543 0.000000
# 4 0.000000 0.000000 0.000000 0.064579 0.000000 0.070674
# 5 0.001363 0.002287 0.000543 0.000000 0.036282 0.000000
# 6 0.000000 0.000000 0.000000 0.070674 0.000000 0.191975
#
#
# Mechanical properties :
#
#
# Convention : Reuss Voigt Hill
#
# Bulk Modulus (GPa) = 67.42460 86.08504 76.75482
# Shear Modulus (GPa) = 14.17517 27.65282 20.91400
#
# Velocity S-wave (km/s) = 2.77065 3.86980 3.36540
# Velocity P-wave (km/s) = 6.83732 8.16004 7.52779
#
# Compressibility (1/GPa) = 0.01483138
#
# Stress axis : x y z
#
# Youngs Moduli (GPa) = 66.32560 88.36772 117.69152
#
# Poissons Ratio (x) = 0.20930 0.34121
# Poissons Ratio (y) = 0.15709 0.56041
# Poissons Ratio (z) = 0.19229 0.42078
#
# Static dielectric constant tensor:
#      x y z
#    x 3.279490 0.000000 -0.101660 
#    y 0.000000 3.410800 0.000000 
#    z -0.101660 0.000000 3.624770 
# 
# 
# High freq. dielectric constant tensor:
#      x y z
#    x 1.690190 0.000000 -0.010290 
#    y 0.000000 1.718210 0.000000 
#    z -0.010290 0.000000 1.734690 
# 
# From -- ./inp_files/93715.got.cif
#   From: 2010.06.25/outbox.cif.g09.slc.cpg/sg10_47_cif.got.tgz:93715.got - 2010.06.27 22:07:45.
