data_PCOD8062706
_publ_section_title
;
Structure prediction by ZEFSAII (Michael W. Deem and Ramdas Pophale) SiO2 
 PCOD8062706
Probable space group: P 2/M
;
_chemical_formula_sum "Si O2"
_cell_formula_units_Z 32
_cell_length_a 27.576107
_cell_length_b 8.931262
_cell_length_c 11.756119
_cell_angle_alpha 90.000000
_cell_angle_beta 33.655404
_cell_angle_gamma 90.000000
_cell_volume 1604.625547
_symmetry_space_group_name_H-M "P 2/M"
_symmetry_group_IT_number 10
_symmetry_cell_setting 'monoclinic'
loop_
_space_group_symop_operation_xyz
x,y,z
-x,y,-z
-x,-y,-z
x,-y,z
loop_
_atom_site_type_symbol
_atom_site_label
_atom_site_fract_x
_atom_site_fract_y
_atom_site_fract_z
Si Si1 0.346096 0.326850 0.537776
Si Si2 0.847423 0.676978 0.528604
Si Si3 0.984006 0.675851 0.660436
Si Si4 0.830079 0.824208 0.090493
Si Si5 0.101797 0.825598 0.797136
Si Si6 0.670407 0.176909 0.903666
Si Si7 0.481962 0.325046 0.665596
Si Si8 0.399877 0.327030 0.180763
O O1 0.330507 0.500000 0.596875
O O2 0.267076 0.233699 0.746270
O O3 0.435754 0.271698 0.420148
O O4 0.349491 0.298294 0.396467
O O5 0.835762 0.500000 0.558017
O O6 0.851640 0.727365 0.389592
O O7 0.764500 0.753415 0.750845
O O8 0.934302 0.731904 0.423903
O O9 0.970854 0.500000 0.699690
O O10 0.000000 0.723100 0.500000
O O11 0.895784 0.754583 0.871790
O O12 0.856867 0.774940 0.164762
O O13 0.833388 0.000000 0.069229
O O14 0.117898 0.000000 0.739156
O O15 0.000000 0.786826 0.000000
O O16 0.643681 0.224829 0.829082
O O17 0.676551 0.000000 0.897519
O O18 0.602269 0.233827 0.130277
O O19 0.500000 0.286590 0.500000
O O20 0.463390 0.500000 0.721071
O O21 0.394004 0.500000 0.153562
O O22 0.500000 0.278916 0.000000
#
# Coordination Sequence:
#
# PCOD8062706 Si02
#       8
#     4   4   4   4   4   4   4   4
#     4  10  21  38  62  90 120 154 193 246 297 346
#     4  11  23  39  63  90 118 156 203 247 292 352
#     4  10  23  43  64  86 114 152 202 254 296 342
#     4  11  23  38  60  89 122 158 192 236 294 360
#     4  10  20  37  60  88 124 157 189 236 299 358
#     4  12  25  39  60  90 127 161 194 242 303 365
#     4  10  22  43  67  87 113 156 208 254 297 347
#     4  10  19  37  64  91 121 155 199 247 294 351
#
# _framework density 19.942347999999999
#
# number of rings (size 3 to 8) (size 9 to 14) (size 15 to 20)
#    0.000    1.500    2.500    2.625    0.000    6.500 
#    0.000    5.000    0.000    0.000    0.000    0.000 
#    0.000    0.000    0.000    0.000    0.000    0.000 
#
# Total GULP energy -397010.528465 kJ/mol
# GULP energy per Si atom -12406.579015 kJ/mol
# Density = 1.989696 g / cm^3
# Si number density = 19.942348 Si / 1000 Ang^3
#
#
#
# Elastic Constant Matrix: (Units=GPa)
#
#
# Indices 1 2 3 4 5 6 
#
# 1 43.1036 22.5149 39.4637 0.0000 11.9700 0.0000
# 2 22.5149 68.3609 54.2078 0.0000 3.5603 0.0000
# 3 39.4637 54.2078 147.3827 0.0000 -4.9231 0.0000
# 4 0.0000 0.0000 0.0000 24.6282 0.0000 -0.5378
# 5 11.9700 3.5603 -4.9231 0.0000 31.4171 0.0000
# 6 0.0000 0.0000 0.0000 -0.5378 0.0000 18.1834
#
#
#
# Elastic Compliance Matrix: (Units=1/GPa)
#
#
# Indices 1 2 3 4 5 6 
#
# 1 0.038170 -0.004593 -0.009047 0.000000 -0.015440 0.000000
# 2 -0.004593 0.021605 -0.006775 0.000000 -0.001760 0.000000
# 3 -0.009047 -0.006775 0.011903 0.000000 0.006080 0.000000
# 4 0.000000 0.000000 0.000000 0.040630 0.000000 0.001202
# 5 -0.015440 -0.001760 0.006080 0.000000 0.038865 0.000000
# 6 0.000000 0.000000 0.000000 0.001202 0.000000 0.055031
#
#
# Mechanical properties :
#
#
# Convention : Reuss Voigt Hill
#
# Bulk Modulus (GPa) = 32.41853 54.58000 43.49926
# Shear Modulus (GPa) = 19.43134 24.35646 21.89390
#
# Velocity S-wave (km/s) = 3.12489 3.49856 3.31699
# Velocity P-wave (km/s) = 5.41399 6.61425 6.04399
#
# Compressibility (1/GPa) = 0.03084656
#
# Stress axis : x y z
#
# Youngs Moduli (GPa) = 26.19878 46.28471 84.01590
#
# Poissons Ratio (x) = 0.21261 0.76007
# Poissons Ratio (y) = 0.12034 0.56924
# Poissons Ratio (z) = 0.23701 0.31360
#
# Static dielectric constant tensor:
#      x y z
#    x 3.705330 0.000000 -0.108410 
#    y 0.000000 3.461160 0.000000 
#    z -0.108410 0.000000 3.740100 
# 
# 
# High freq. dielectric constant tensor:
#      x y z
#    x 1.777430 0.000000 -0.007570 
#    y 0.000000 1.768580 0.000000 
#    z -0.007570 0.000000 1.792820 
# 
# From -- ./inp_files/49928.got.cif
#   From: 2010.06.25/outbox.cif.g09.slc.cpg/sg10_25_cif.got.tgz:49928.got - 2010.06.27 22:07:45.
