data_PCOD8062886
_publ_section_title
;
Structure prediction by ZEFSAII (Michael W. Deem and Ramdas Pophale) SiO2 
 PCOD8062886
Probable space group: P 2/M
;
_chemical_formula_sum "Si O2"
_cell_formula_units_Z 32
_cell_length_a 24.625908
_cell_length_b 9.320345
_cell_length_c 9.482280
_cell_angle_alpha 90.000000
_cell_angle_beta 122.602561
_cell_angle_gamma 90.000000
_cell_volume 1833.453803
_symmetry_space_group_name_H-M "P 2/M"
_symmetry_group_IT_number 10
_symmetry_cell_setting 'monoclinic'
loop_
_space_group_symop_operation_xyz
x,y,z
-x,y,-z
-x,-y,-z
x,-y,z
loop_
_atom_site_type_symbol
_atom_site_label
_atom_site_fract_x
_atom_site_fract_y
_atom_site_fract_z
Si Si1 0.439934 0.165177 0.018242
Si Si2 0.813111 0.160258 0.050740
Si Si3 0.805267 0.162242 0.376410
Si Si4 0.446923 0.667960 0.311305
Si Si5 0.074617 0.338519 0.443861
Si Si6 0.932438 0.339289 0.231012
Si Si7 0.305228 0.658076 0.127351
Si Si8 0.316349 0.662059 0.808438
O O1 0.460482 0.236488 0.193930
O O2 0.419350 0.000000 0.015463
O O3 0.500000 0.175924 0.000000
O O4 0.380989 0.250072 0.862871
O O5 0.809011 0.163692 0.213147
O O6 0.878065 0.237780 0.087268
O O7 0.815119 0.000000 0.994562
O O8 0.749810 0.234535 0.895040
O O9 0.869960 0.231625 0.533523
O O10 0.744415 0.255092 0.344676
O O11 0.798755 0.000000 0.423519
O O12 0.500000 0.708775 0.500000
O O13 0.449497 0.500000 0.271940
O O14 0.376520 0.704591 0.279325
O O15 0.089212 0.500000 0.410990
O O16 0.074048 0.338298 0.610912
O O17 0.004475 0.286736 0.289068
O O18 0.921018 0.500000 0.158202
O O19 0.287597 0.500000 0.159668
O O20 0.307301 0.656025 0.962147
O O21 0.320557 0.500000 0.752699
#
# Coordination Sequence:
#
# PCOD8062886 Si02
#       8
#     4   4   4   4   4   4   4   4
#     4  10  20  32  46  66  91 116 143 177 218 263
#     4   9  15  20  28  43  62  85 116 154 193 235
#     4   9  15  21  30  45  65  88 116 155 200 241
#     4   9  18  32  49  68  88 112 145 182 218 259
#     4   8  13  20  28  38  54  80 115 152 190 234
#     4   8  13  20  28  37  53  80 114 152 192 232
#     4   8  14  24  37  52  71  95 123 159 201 242
#     4   9  16  26  40  55  72  98 132 168 204 244
#
# _framework density 17.453399999999998
#
# number of rings (size 3 to 8) (size 9 to 14) (size 15 to 20)
#    0.000    3.250    0.000    3.000    0.000    7.750 
#    0.000    2.500    0.000    0.000    0.000    0.000 
#    0.000    0.000    0.000    0.000    0.000    1.250 
#
# Total GULP energy -396590.845179 kJ/mol
# GULP energy per Si atom -12393.463912 kJ/mol
# Density = 1.741367 g / cm^3
# Si number density = 17.453400 Si / 1000 Ang^3
#
#
#
# Elastic Constant Matrix: (Units=GPa)
#
#
# Indices 1 2 3 4 5 6 
#
# 1 66.2519 62.3855 47.7124 0.0000 39.9992 0.0000
# 2 62.3855 147.5668 55.6144 0.0000 39.4089 0.0000
# 3 47.7124 55.6144 66.5661 0.0000 41.5135 0.0000
# 4 0.0000 0.0000 0.0000 13.9490 0.0000 12.5264
# 5 39.9992 39.4089 41.5135 0.0000 36.5340 0.0000
# 6 0.0000 0.0000 0.0000 12.5264 0.0000 24.9642
#
#
#
# Elastic Compliance Matrix: (Units=1/GPa)
#
#
# Indices 1 2 3 4 5 6 
#
# 1 0.052822 -0.009590 -0.000802 0.000000 -0.046576 0.000000
# 2 -0.009590 0.011842 -0.005497 0.000000 0.003973 0.000000
# 3 -0.000802 -0.005497 0.054726 0.000000 -0.055377 0.000000
# 4 0.000000 0.000000 0.000000 0.130487 0.000000 -0.065475
# 5 -0.046576 0.003973 -0.055377 0.000000 0.137005 0.000000
# 6 0.000000 0.000000 0.000000 -0.065475 0.000000 0.072911
#
#
# Mechanical properties :
#
#
# Convention : Reuss Voigt Hill
#
# Bulk Modulus (GPa) = 11.41409 67.97883 39.69646
# Shear Modulus (GPa) = 9.60109 22.73428 16.16769
#
# Velocity S-wave (km/s) = 2.34796 3.61303 3.04688
# Velocity P-wave (km/s) = 3.72888 7.51256 5.93056
#
# Compressibility (1/GPa) = 0.08761104
#
# Stress axis : x y z
#
# Youngs Moduli (GPa) = 18.93157 84.44649 18.27297
#
# Poissons Ratio (x) = 0.80988 0.01465
# Poissons Ratio (y) = 0.18156 0.10044
# Poissons Ratio (z) = 0.01518 0.46419
#
# Static dielectric constant tensor:
#      x y z
#    x 3.037300 0.000000 0.662140 
#    y 0.000000 3.492090 0.000000 
#    z 0.662140 0.000000 3.033600 
# 
# 
# High freq. dielectric constant tensor:
#      x y z
#    x 1.639470 0.000000 0.062750 
#    y 0.000000 1.683470 0.000000 
#    z 0.062750 0.000000 1.629610 
# 
# From -- ./inp_files/57185.got.cif
#   From: 2010.06.25/outbox.cif.g09.slc.cpg/sg10_29_cif.got.tgz:57185.got - 2010.06.27 22:07:45.
