data_PCOD8062539
_publ_section_title
;
Structure prediction by ZEFSAII (Michael W. Deem and Ramdas Pophale) SiO2 
 PCOD8062539
Probable space group: P 2/M
;
_chemical_formula_sum "Si O2"
_cell_formula_units_Z 30
_cell_length_a 15.865682
_cell_length_b 19.873356
_cell_length_c 15.480328
_cell_angle_alpha 90.000000
_cell_angle_beta 161.417143
_cell_angle_gamma 90.000000
_cell_volume 1555.460880
_symmetry_space_group_name_H-M "P 2/M"
_symmetry_group_IT_number 10
_symmetry_cell_setting 'monoclinic'
loop_
_space_group_symop_operation_xyz
x,y,z
-x,y,-z
-x,-y,-z
x,-y,z
loop_
_atom_site_type_symbol
_atom_site_label
_atom_site_fract_x
_atom_site_fract_y
_atom_site_fract_z
Si Si1 0.372776 0.708695 0.168163
Si Si2 0.824940 0.105704 0.522733
Si Si3 0.733643 0.192347 0.790772
Si Si4 0.263659 0.000000 0.704181
Si Si5 0.931785 0.613980 0.531314
Si Si6 0.297912 0.922811 0.105351
Si Si7 0.905141 0.253362 0.593748
Si Si8 0.601129 0.425051 0.895367
O O1 0.358999 0.738688 0.251049
O O2 0.630453 0.733602 0.371846
O O3 0.374827 0.626838 0.162293
O O4 0.125110 0.740714 0.879955
O O5 0.582280 0.106780 0.354052
O O6 0.899321 0.177646 0.554089
O O7 0.722238 0.064640 0.341938
O O8 0.085299 0.075695 0.821179
O O9 0.500000 0.170609 0.500000
O O10 0.799760 0.128057 0.915353
O O11 0.000000 0.211176 0.000000
O O12 0.000000 0.000000 0.500000
O O13 0.500000 0.000000 0.000000
O O14 0.958263 0.694895 0.567107
O O15 0.000000 0.593351 0.500000
O O16 0.132353 0.577017 0.790018
O O17 0.637402 0.591669 0.270892
O O18 0.329159 0.000000 0.169149
O O19 0.567609 0.500000 0.824161
#
# Coordination Sequence:
#
# PCOD8062539 Si02
#       8
#     4   4   4   2   4   4   4   4
#     4  10  20  38  59  84 116 147 195 237 272 355
#     4  12  21  40  64  80 112 161 198 244 292 352
#     4  12  24  38  62  92 121 147 187 243 302 347
#     4  12  26  40  56  88 116 146 204 256 294 332
#     4  10  21  34  53  85 122 149 191 247 294 337
#     4  12  23  40  63  88 115 158 197 230 293 374
#     4  10  19  36  60  81 105 155 203 235 281 341
#     4  10  21  36  58  84 113 159 199 232 281 346
#
# _framework density 19.286888000000001
#
# number of rings (size 3 to 8) (size 9 to 14) (size 15 to 20)
#    0.000    1.067    4.000    3.200    0.000    2.667 
#    0.000    2.667    0.000    0.800    0.000    0.000 
#    0.000    0.000    0.000    0.000    0.000    0.000 
#
# Total GULP energy -371954.775597 kJ/mol
# GULP energy per Si atom -12398.492520 kJ/mol
# Density = 1.924299 g / cm^3
# Si number density = 19.286888 Si / 1000 Ang^3
#
#
#
# Elastic Constant Matrix: (Units=GPa)
#
#
# Indices 1 2 3 4 5 6 
#
# 1 69.6090 32.8748 13.9397 0.0000 -3.0231 0.0000
# 2 32.8748 159.6188 12.8648 0.0000 -15.1887 0.0000
# 3 13.9397 12.8648 110.0221 0.0000 -0.0787 0.0000
# 4 0.0000 0.0000 0.0000 18.5124 0.0000 3.8569
# 5 -3.0231 -15.1887 -0.0787 0.0000 28.4543 0.0000
# 6 0.0000 0.0000 0.0000 3.8569 0.0000 12.2648
#
#
#
# Elastic Compliance Matrix: (Units=1/GPa)
#
#
# Indices 1 2 3 4 5 6 
#
# 1 0.016216 -0.003204 -0.001680 0.000000 0.000008 0.000000
# 2 -0.003204 0.007299 -0.000445 0.000000 0.003554 0.000000
# 3 -0.001680 -0.000445 0.009354 0.000000 -0.000390 0.000000
# 4 0.000000 0.000000 0.000000 0.057805 0.000000 -0.018178
# 5 0.000008 0.003554 -0.000390 0.000000 0.037041 0.000000
# 6 0.000000 0.000000 0.000000 -0.018178 0.000000 0.087250
#
#
# Mechanical properties :
#
#
# Convention : Reuss Voigt Hill
#
# Bulk Modulus (GPa) = 45.02235 50.95651 47.98943
# Shear Modulus (GPa) = 21.45689 30.48435 25.97062
#
# Velocity S-wave (km/s) = 3.33905 3.97996 3.67351
# Velocity P-wave (km/s) = 6.18546 6.89911 6.55201
#
# Compressibility (1/GPa) = 0.02221119
#
# Stress axis : x y z
#
# Youngs Moduli (GPa) = 61.66860 137.00836 106.90980
#
# Poissons Ratio (x) = 0.43892 0.17960
# Poissons Ratio (y) = 0.19756 0.04758
# Poissons Ratio (z) = 0.10360 0.06097
#
# Static dielectric constant tensor:
#      x y z
#    x 3.373550 0.000000 0.128270 
#    y 0.000000 3.954630 0.000000 
#    z 0.128270 0.000000 3.698520 
# 
# 
# High freq. dielectric constant tensor:
#      x y z
#    x 1.719320 0.000000 0.014500 
#    y 0.000000 1.761250 0.000000 
#    z 0.014500 0.000000 1.774130 
# 
# From -- ./inp_files/67866.got.cif
#   From: 2010.06.25/outbox.cif.g09.slc.cpg/sg10_34_cif.got.tgz:67866.got - 2010.06.27 22:07:45.
