data_PCOD8062098
_publ_section_title
;
Structure prediction by ZEFSAII (Michael W. Deem and Ramdas Pophale) SiO2 
 PCOD8062098
Probable space group: P 2/M
;
_chemical_formula_sum "Si O2"
_cell_formula_units_Z 32
_cell_length_a 27.485702
_cell_length_b 8.748478
_cell_length_c 21.376231
_cell_angle_alpha 90.000000
_cell_angle_beta 160.949263
_cell_angle_gamma 90.000000
_cell_volume 1677.751695
_symmetry_space_group_name_H-M "P 2/M"
_symmetry_group_IT_number 10
_symmetry_cell_setting 'monoclinic'
loop_
_space_group_symop_operation_xyz
x,y,z
-x,y,-z
-x,-y,-z
x,-y,z
loop_
_atom_site_type_symbol
_atom_site_label
_atom_site_fract_x
_atom_site_fract_y
_atom_site_fract_z
Si Si1 0.170261 0.321665 0.588981
Si Si2 0.142056 0.822942 0.807121
Si Si3 0.375614 0.677733 0.722318
Si Si4 0.842723 0.318156 0.782205
Si Si5 0.697071 0.177795 0.126663
Si Si6 0.554281 0.322460 0.501247
Si Si7 0.593074 0.677257 0.804306
Si Si8 0.306601 0.179899 0.514258
O O1 0.137746 0.500000 0.558316
O O2 0.300385 0.291124 0.697443
O O3 0.219133 0.251306 0.713582
O O4 0.023497 0.238876 0.385961
O O5 0.197230 0.794479 0.803966
O O6 0.147199 0.000000 0.831335
O O7 0.242468 0.730992 0.978457
O O8 0.382551 0.500000 0.714754
O O9 0.279112 0.760336 0.551123
O O10 0.541349 0.741671 0.925516
O O11 0.836580 0.500000 0.769575
O O12 0.712353 0.254735 0.669492
O O13 0.817127 0.252367 0.681780
O O14 0.000000 0.259954 0.000000
O O15 0.668940 0.000000 0.105265
O O16 0.500000 0.242991 0.500000
O O17 0.580650 0.500000 0.546190
O O18 0.428615 0.294593 0.296049
O O19 0.568724 0.500000 0.791461
O O20 0.473852 0.774301 0.698313
O O21 0.289730 0.000000 0.491996
#
# Coordination Sequence:
#
# PCOD8062098 Si02
#       8
#     4   4   4   4   4   4   4   4
#     4  11  25  41  58  85 117 151 192 241 291 338
#     4  11  23  39  59  85 118 153 192 236 288 346
#     4  11  23  40  61  85 114 150 197 243 285 339
#     4   9  18  34  56  82 111 146 187 230 278 332
#     4  11  23  39  62  88 114 150 191 234 290 349
#     4   8  15  30  53  81 110 140 180 228 274 322
#     4  10  19  34  59  85 112 149 195 238 279 331
#     4  11  21  35  58  85 114 150 192 235 286 341
#
# _framework density 19.073145
#
# number of rings (size 3 to 8) (size 9 to 14) (size 15 to 20)
#    0.000    1.750    1.250    4.500    0.000    6.750 
#    2.250    0.000    0.000    9.375    0.000    0.000 
#    0.000    0.000    0.000    0.000    0.000    0.000 
#
# Total GULP energy -396897.723395 kJ/mol
# GULP energy per Si atom -12403.053856 kJ/mol
# Density = 1.902973 g / cm^3
# Si number density = 19.073145 Si / 1000 Ang^3
#
#
#
# Elastic Constant Matrix: (Units=GPa)
#
#
# Indices 1 2 3 4 5 6 
#
# 1 68.7928 28.4752 22.4297 0.0000 -14.1332 0.0000
# 2 28.4752 69.6852 28.0433 0.0000 -4.9572 0.0000
# 3 22.4297 28.0433 112.3268 0.0000 -20.1083 0.0000
# 4 0.0000 0.0000 0.0000 19.9085 0.0000 6.7828
# 5 -14.1332 -4.9572 -20.1083 0.0000 27.6650 0.0000
# 6 0.0000 0.0000 0.0000 6.7828 0.0000 10.8046
#
#
#
# Elastic Compliance Matrix: (Units=1/GPa)
#
#
# Indices 1 2 3 4 5 6 
#
# 1 0.019345 -0.007068 -0.000639 0.000000 0.008152 0.000000
# 2 -0.007068 0.018535 -0.003757 0.000000 -0.003020 0.000000
# 3 -0.000639 -0.003757 0.011253 0.000000 0.007180 0.000000
# 4 0.000000 0.000000 0.000000 0.063896 0.000000 -0.040112
# 5 0.008152 -0.003020 0.007180 0.000000 0.044989 0.000000
# 6 0.000000 0.000000 0.000000 -0.040112 0.000000 0.117735
#
#
# Mechanical properties :
#
#
# Convention : Reuss Voigt Hill
#
# Bulk Modulus (GPa) = 38.15847 45.41125 41.78486
# Shear Modulus (GPa) = 16.26456 23.13271 19.69864
#
# Velocity S-wave (km/s) = 2.92335 3.48637 3.21720
# Velocity P-wave (km/s) = 5.60754 6.32985 5.97961
#
# Compressibility (1/GPa) = 0.02620650
#
# Stress axis : x y z
#
# Youngs Moduli (GPa) = 51.69272 53.95083 88.86160
#
# Poissons Ratio (x) = 0.38132 0.05678
# Poissons Ratio (y) = 0.36536 0.33384
# Poissons Ratio (z) = 0.03303 0.20268
#
# Static dielectric constant tensor:
#      x y z
#    x 3.637730 0.000000 -0.111400 
#    y 0.000000 3.466910 0.000000 
#    z -0.111400 0.000000 3.580150 
# 
# 
# High freq. dielectric constant tensor:
#      x y z
#    x 1.741060 0.000000 -0.012410 
#    y 0.000000 1.739080 0.000000 
#    z -0.012410 0.000000 1.745170 
# 
# From -- ./inp_files/86926.got.cif
#   From: 2010.06.25/outbox.cif.g09.slc.cpg/sg10_44_cif.got.tgz:86926.got - 2010.06.27 22:07:45.
