data_PCOD8062684
_publ_section_title
;
Structure prediction by ZEFSAII (Michael W. Deem and Ramdas Pophale) SiO2 
 PCOD8062684
Probable space group: P 2/M
;
_chemical_formula_sum "Si O2"
_cell_formula_units_Z 32
_cell_length_a 16.075001
_cell_length_b 13.670296
_cell_length_c 23.881071
_cell_angle_alpha 90.000000
_cell_angle_beta 16.987786
_cell_angle_gamma 90.000000
_cell_volume 1533.257628
_symmetry_space_group_name_H-M "P 2/M"
_symmetry_group_IT_number 10
_symmetry_cell_setting 'monoclinic'
loop_
_space_group_symop_operation_xyz
x,y,z
-x,y,-z
-x,-y,-z
x,-y,z
loop_
_atom_site_type_symbol
_atom_site_label
_atom_site_fract_x
_atom_site_fract_y
_atom_site_fract_z
Si Si1 0.309974 0.390320 0.326137
Si Si2 0.708536 0.612339 0.964422
Si Si3 0.495213 0.885819 0.628490
Si Si4 0.748202 0.211861 0.566668
Si Si5 0.771231 0.747676 0.359595
Si Si6 0.020995 0.107825 0.112045
Si Si7 0.358630 0.890785 0.259732
Si Si8 0.363425 0.778665 0.142294
O O1 0.299751 0.500000 0.357065
O O2 0.380538 0.316379 0.331523
O O3 0.000000 0.363158 0.500000
O O4 0.566028 0.378957 0.117462
O O5 0.722353 0.500000 0.936174
O O6 0.028289 0.655694 0.754769
O O7 0.505399 0.671388 0.052949
O O8 0.526923 0.849956 0.672064
O O9 0.683359 0.813304 0.469212
O O10 0.163221 0.873084 0.825513
O O11 0.591884 0.000000 0.560872
O O12 0.855424 0.155144 0.555206
O O13 0.027083 0.229784 0.349515
O O14 0.500000 0.706898 0.500000
O O15 0.953269 0.817220 0.203727
O O16 0.941810 0.000000 0.186042
O O17 0.357188 0.114069 0.884169
O O18 0.429621 0.834140 0.157325
O O19 0.264569 0.000000 0.304697
O O20 0.500000 0.833219 0.000000
#
# Coordination Sequence:
#
# PCOD8062684 Si02
#       8
#     4   4   4   4   4   4   4   4
#     4  10  19  37  65  89 113 158 214 263 312 369
#     4  11  22  40  64  91 120 157 210 266 319 373
#     4  10  22  37  59  93 130 170 211 255 308 368
#     4  12  22  38  61  91 129 164 208 260 310 375
#     4  10  19  37  62  90 126 166 204 254 315 377
#     4   9  18  36  63  90 120 163 214 259 304 368
#     4  11  23  40  63  89 122 167 214 259 313 374
#     4  12  25  41  60  88 125 164 207 256 315 379
#
# _framework density 20.870595000000002
#
# number of rings (size 3 to 8) (size 9 to 14) (size 15 to 20)
#    0.000    1.375    3.750    1.875    0.000    4.250 
#    0.000    3.750    0.000    0.750    0.000    7.875 
#    0.000    0.000    0.000    0.000    0.000    0.000 
#
# Total GULP energy -396616.880316 kJ/mol
# GULP energy per Si atom -12394.277510 kJ/mol
# Density = 2.082309 g / cm^3
# Si number density = 20.870595 Si / 1000 Ang^3
#
#
#
# Elastic Constant Matrix: (Units=GPa)
#
#
# Indices 1 2 3 4 5 6 
#
# 1 99.0773 40.8563 24.9650 0.0000 11.5327 0.0000
# 2 40.8563 129.1422 22.5936 0.0000 6.2603 0.0000
# 3 24.9650 22.5936 75.8867 0.0000 7.1722 0.0000
# 4 0.0000 0.0000 0.0000 58.5049 0.0000 36.6062
# 5 11.5327 6.2603 7.1722 0.0000 32.0611 0.0000
# 6 0.0000 0.0000 0.0000 36.6062 0.0000 76.3526
#
#
#
# Elastic Compliance Matrix: (Units=1/GPa)
#
#
# Indices 1 2 3 4 5 6 
#
# 1 0.012552 -0.003318 -0.002836 0.000000 -0.003233 0.000000
# 2 -0.003318 0.009082 -0.001591 0.000000 -0.000224 0.000000
# 3 -0.002836 -0.001591 0.014771 0.000000 -0.001973 0.000000
# 4 0.000000 0.000000 0.000000 0.024417 0.000000 -0.011707
# 5 -0.003233 -0.000224 -0.001973 0.000000 0.032838 0.000000
# 6 0.000000 0.000000 0.000000 -0.011707 0.000000 0.018710
#
#
# Mechanical properties :
#
#
# Convention : Reuss Voigt Hill
#
# Bulk Modulus (GPa) = 47.81365 53.43734 50.62549
# Shear Modulus (GPa) = 37.08273 47.76315 42.42294
#
# Velocity S-wave (km/s) = 4.21978 4.78906 4.51340
# Velocity P-wave (km/s) = 6.83384 7.49932 7.17430
#
# Compressibility (1/GPa) = 0.02091453
#
# Stress axis : x y z
#
# Youngs Moduli (GPa) = 79.66619 110.10252 67.70112
#
# Poissons Ratio (x) = 0.36535 0.19200
# Poissons Ratio (y) = 0.26435 0.10773
# Poissons Ratio (z) = 0.22593 0.17521
#
# Static dielectric constant tensor:
#      x y z
#    x 3.684290 0.000000 -0.130940 
#    y 0.000000 3.848890 0.000000 
#    z -0.130940 0.000000 3.936140 
# 
# 
# High freq. dielectric constant tensor:
#      x y z
#    x 1.807530 0.000000 -0.004450 
#    y 0.000000 1.811930 0.000000 
#    z -0.004450 0.000000 1.826790 
# 
# From -- ./inp_files/42961.got.cif
#   From: 2010.06.25/outbox.cif.g09.slc.cpg/sg10_22_cif.got.tgz:42961.got - 2010.06.27 22:07:45.
