data_PCOD8062501
_publ_section_title
;
Structure prediction by ZEFSAII (Michael W. Deem and Ramdas Pophale) SiO2 
 PCOD8062501
Probable space group: P 2/M
;
_chemical_formula_sum "Si O2"
_cell_formula_units_Z 30
_cell_length_a 15.505985
_cell_length_b 15.138620
_cell_length_c 20.937216
_cell_angle_alpha 90.000000
_cell_angle_beta 18.331142
_cell_angle_gamma 90.000000
_cell_volume 1545.741620
_symmetry_space_group_name_H-M "P 2/M"
_symmetry_group_IT_number 10
_symmetry_cell_setting 'monoclinic'
loop_
_space_group_symop_operation_xyz
x,y,z
-x,y,-z
-x,-y,-z
x,-y,z
loop_
_atom_site_type_symbol
_atom_site_label
_atom_site_fract_x
_atom_site_fract_y
_atom_site_fract_z
Si Si1 0.270583 0.399576 0.847874
Si Si2 0.145400 0.231508 0.141839
Si Si3 0.284019 0.100257 0.829173
Si Si4 0.320217 0.899900 0.567090
Si Si5 0.500000 0.749633 0.000000
Si Si6 0.471990 0.752885 0.790904
Si Si7 0.860220 0.596155 0.395567
Si Si8 0.977120 0.334052 0.590392
O O1 0.242738 0.500000 0.893506
O O2 0.310475 0.332184 0.877811
O O3 0.533259 0.390666 0.616258
O O4 0.000000 0.371148 0.000000
O O5 0.938835 0.162702 0.256690
O O6 0.010791 0.326455 0.251505
O O7 0.280143 0.194178 0.113274
O O8 0.395375 0.242466 0.918271
O O9 0.512539 0.106653 0.614975
O O10 0.378135 0.158486 0.821961
O O11 0.244885 0.000000 0.881201
O O12 0.000000 0.136406 0.000000
O O13 0.500000 0.865896 0.500000
O O14 0.220716 0.000000 0.650155
O O15 0.331305 0.692289 0.171467
O O16 0.802696 0.745910 0.554999
O O17 0.947847 0.500000 0.306344
O O18 0.926552 0.593366 0.425303
O O19 0.000000 0.367560 0.500000
#
# Coordination Sequence:
#
# PCOD8062501 Si02
#       8
#     4   4   4   4   2   4   4   4
#     4   9  18  34  54  77 110 150 189 234 286 341
#     4  11  22  36  58  82 117 156 192 244 295 350
#     4  10  20  35  56  83 115 148 187 236 285 343
#     4  10  21  38  60  88 118 149 190 240 295 352
#     4  10  20  38  58  84 118 154 196 248 294 348
#     4  11  21  34  58  84 110 152 193 236 286 351
#     4   9  20  36  55  81 114 152 195 242 285 341
#     4  10  19  36  58  81 111 148 197 240 294 342
#
# _framework density 19.408159999999999
#
# number of rings (size 3 to 8) (size 9 to 14) (size 15 to 20)
#    0.000    2.000    1.333    3.600    0.000    3.467 
#    0.000    5.667    0.000    4.000    0.000    0.000 
#    0.000    0.000    0.000    0.000    0.000    0.000 
#
# Total GULP energy -371750.686166 kJ/mol
# GULP energy per Si atom -12391.689539 kJ/mol
# Density = 1.936399 g / cm^3
# Si number density = 19.408160 Si / 1000 Ang^3
#
#
#
# Elastic Constant Matrix: (Units=GPa)
#
#
# Indices 1 2 3 4 5 6 
#
# 1 95.1304 41.0445 39.0322 0.0000 -5.4007 0.0000
# 2 41.0445 84.7439 30.2181 0.0000 -6.9799 0.0000
# 3 39.0322 30.2181 97.8088 0.0000 -4.6472 0.0000
# 4 0.0000 0.0000 0.0000 -2.2101 0.0000 -7.2134
# 5 -5.4007 -6.9799 -4.6472 0.0000 36.6521 0.0000
# 6 0.0000 0.0000 0.0000 -7.2134 0.0000 10.9680
#
#
#
# Elastic Compliance Matrix: (Units=1/GPa)
#
#
# Indices 1 2 3 4 5 6 
#
# 1 0.014629 -0.005581 -0.004086 0.000000 0.000575 0.000000
# 2 -0.005581 0.015540 -0.002487 0.000000 0.001822 0.000000
# 3 -0.004086 -0.002487 0.012648 0.000000 0.000528 0.000000
# 4 0.000000 0.000000 0.000000 -0.143798 0.000000 -0.094573
# 5 0.000575 0.001822 0.000528 0.000000 0.027782 0.000000
# 6 0.000000 0.000000 0.000000 -0.094573 0.000000 0.028975
#
#
# Mechanical properties :
#
#
# Convention : Reuss Voigt Hill
#
# Bulk Modulus (GPa) = 54.03035 55.36364 54.69699
# Shear Modulus (GPa) = -363.79990 20.24122 -171.77934
#
# Velocity S-wave (km/s) = -13.70598 3.23294 -9.41812
# Velocity P-wave (km/s) = 14.91886 6.52102 9.48811
#
# Compressibility (1/GPa) = 0.01850812
#
# Stress axis : x y z
#
# Youngs Moduli (GPa) = 68.35683 64.34867 79.06141
#
# Poissons Ratio (x) = 0.35912 0.32308
# Poissons Ratio (y) = 0.38149 0.19666
# Poissons Ratio (z) = 0.27934 0.16007
#
# Static dielectric constant tensor:
#      x y z
#    x 3.591460 0.000000 -0.105940 
#    y 0.000000 3.417600 0.000000 
#    z -0.105940 0.000000 3.707490 
# 
# 
# High freq. dielectric constant tensor:
#      x y z
#    x 1.755510 0.000000 -0.006140 
#    y 0.000000 1.731310 0.000000 
#    z -0.006140 0.000000 1.770240 
# 
# From -- ./inp_files/85338.got.cif
#   From: 2010.06.25/outbox.cif.g09.slc.cpg/sg10_43_cif.got.tgz:85338.got - 2010.06.27 22:07:45.
