data_PCOD8062631
_publ_section_title
;
Structure prediction by ZEFSAII (Michael W. Deem and Ramdas Pophale) SiO2 
 PCOD8062631
Probable space group: P 2/M
;
_chemical_formula_sum "Si O2"
_cell_formula_units_Z 26
_cell_length_a 16.143649
_cell_length_b 13.466702
_cell_length_c 6.028845
_cell_angle_alpha 90.000000
_cell_angle_beta 102.080700
_cell_angle_gamma 90.000000
_cell_volume 1281.654594
_symmetry_space_group_name_H-M "P 2/M"
_symmetry_group_IT_number 10
_symmetry_cell_setting 'monoclinic'
loop_
_space_group_symop_operation_xyz
x,y,z
-x,y,-z
-x,-y,-z
x,-y,z
loop_
_atom_site_type_symbol
_atom_site_label
_atom_site_fract_x
_atom_site_fract_y
_atom_site_fract_z
Si Si1 0.738542 0.114460 0.415106
Si Si2 0.000000 0.716789 0.000000
Si Si3 0.709404 0.262093 0.773956
Si Si4 0.412130 0.384798 0.578937
Si Si5 0.087268 0.391871 0.423612
Si Si6 0.152536 0.753691 0.808621
Si Si7 0.592329 0.789941 0.089863
O O1 0.751763 0.177358 0.645264
O O2 0.806851 0.145377 0.264441
O O3 0.643578 0.134872 0.275557
O O4 0.751943 0.000000 0.479234
O O5 0.068188 0.650638 0.169426
O O6 0.940544 0.779124 0.138003
O O7 0.669914 0.353361 0.613090
O O8 0.784652 0.298115 0.978527
O O9 0.633853 0.214801 0.872375
O O10 0.500000 0.365449 0.500000
O O11 0.402636 0.500000 0.639179
O O12 0.412577 0.319799 0.803200
O O13 0.130518 0.500000 0.421714
O O14 0.148704 0.321409 0.598546
O O15 0.000000 0.403396 0.500000
O O16 0.500000 0.835655 0.000000
#
# Coordination Sequence:
#
# PCOD8062631 Si02
#       7
#     4   2   4   4   4   4   4
#     4  10  23  41  60  82 111 150 197 250 307 358
#     4  10  19  36  63  90 122 160 189 236 293 344
#     4  10  21  38  58  82 119 159 194 246 290 342
#     4  10  20  34  57  88 122 163 202 235 279 340
#     4   9  18  33  56  88 121 154 190 227 275 339
#     4  10  21  38  60  87 119 155 196 244 295 350
#     4  10  20  37  59  85 117 150 194 246 292 347
#
# _framework density 20.286277999999999
#
# number of rings (size 3 to 8) (size 9 to 14) (size 15 to 20)
#    0.000    2.154    1.538    1.154    0.000    4.923 
#    0.000   11.923    0.000    8.769    0.000    0.000 
#    0.000    0.000    0.000    0.000    0.000    0.000 
#
# Total GULP energy -322306.945683 kJ/mol
# GULP energy per Si atom -12396.420988 kJ/mol
# Density = 2.024011 g / cm^3
# Si number density = 20.286278 Si / 1000 Ang^3
#
#
#
# Elastic Constant Matrix: (Units=GPa)
#
#
# Indices 1 2 3 4 5 6 
#
# 1 102.9398 38.2233 36.5062 0.0000 -4.2265 0.0000
# 2 38.2233 106.7734 36.2023 0.0000 3.2200 0.0000
# 3 36.5062 36.2023 109.0427 0.0000 11.2881 0.0000
# 4 0.0000 0.0000 0.0000 8.7645 0.0000 3.3727
# 5 -4.2265 3.2200 11.2881 0.0000 43.4844 0.0000
# 6 0.0000 0.0000 0.0000 3.3727 0.0000 10.7962
#
#
#
# Elastic Compliance Matrix: (Units=1/GPa)
#
#
# Indices 1 2 3 4 5 6 
#
# 1 0.012185 -0.003344 -0.003203 0.000000 0.002264 0.000000
# 2 -0.003344 0.011472 -0.002638 0.000000 -0.000490 0.000000
# 3 -0.003203 -0.002638 0.011439 0.000000 -0.003085 0.000000
# 4 0.000000 0.000000 0.000000 0.129687 0.000000 -0.040514
# 5 0.002264 -0.000490 -0.003085 0.000000 0.024054 0.000000
# 6 0.000000 0.000000 0.000000 -0.040514 0.000000 0.105281
#
#
# Mechanical properties :
#
#
# Convention : Reuss Voigt Hill
#
# Bulk Modulus (GPa) = 59.79590 60.06884 59.93237
# Shear Modulus (GPa) = 15.72004 26.46396 21.09200
#
# Velocity S-wave (km/s) = 2.78674 3.61574 3.22796
# Velocity P-wave (km/s) = 6.31622 6.86340 6.59549
#
# Compressibility (1/GPa) = 0.01672355
#
# Stress axis : x y z
#
# Youngs Moduli (GPa) = 82.06681 87.16740 87.42338
#
# Poissons Ratio (x) = 0.29151 0.28006
# Poissons Ratio (y) = 0.27445 0.23067
# Poissons Ratio (z) = 0.26290 0.22999
#
# Static dielectric constant tensor:
#      x y z
#    x 3.821720 0.000000 -0.028520 
#    y 0.000000 3.317840 0.000000 
#    z -0.028520 0.000000 3.909290 
# 
# 
# High freq. dielectric constant tensor:
#      x y z
#    x 1.802300 0.000000 -0.002480 
#    y 0.000000 1.748070 0.000000 
#    z -0.002480 0.000000 1.808420 
# 
# From -- ./inp_files/11168.got.cif
#   From: 2010.06.25/outbox.cif.g09.slc.cpg/sg10_6_cif.got.tgz:11168.got - 2010.06.27 22:07:45.
