data_PCOD8062625
_publ_section_title
;
Structure prediction by ZEFSAII (Michael W. Deem and Ramdas Pophale) SiO2 
 PCOD8062625
Probable space group: P 2/M
;
_chemical_formula_sum "Si O2"
_cell_formula_units_Z 32
_cell_length_a 8.499363
_cell_length_b 14.027224
_cell_length_c 13.389809
_cell_angle_alpha 90.000000
_cell_angle_beta 83.300452
_cell_angle_gamma 90.000000
_cell_volume 1585.465410
_symmetry_space_group_name_H-M "P 2/M"
_symmetry_group_IT_number 10
_symmetry_cell_setting 'monoclinic'
loop_
_space_group_symop_operation_xyz
x,y,z
-x,y,-z
-x,-y,-z
x,-y,z
loop_
_atom_site_type_symbol
_atom_site_label
_atom_site_fract_x
_atom_site_fract_y
_atom_site_fract_z
Si Si1 0.875514 0.843690 0.930925
Si Si2 0.635851 0.727963 0.060706
Si Si3 0.765223 0.605803 0.227007
Si Si4 0.832833 0.108056 0.456177
Si Si5 0.478415 0.604829 0.388317
Si Si6 0.573702 0.105566 0.840087
Si Si7 0.291615 0.213303 0.355775
Si Si8 0.030225 0.773639 0.721536
O O1 0.720944 0.903008 0.907609
O O2 0.981619 0.825166 0.826513
O O3 0.799605 0.749226 0.988791
O O4 0.000000 0.892832 0.000000
O O5 0.671845 0.650319 0.140990
O O6 0.566348 0.826130 0.111997
O O7 0.500000 0.683101 0.000000
O O8 0.826639 0.500000 0.193190
O O9 0.650613 0.598983 0.328949
O O10 0.909900 0.669999 0.251870
O O11 0.705904 0.163439 0.535478
O O12 0.841311 0.162150 0.348356
O O13 0.000000 0.104773 0.500000
O O14 0.774054 0.000000 0.440888
O O15 0.500000 0.635198 0.500000
O O16 0.395642 0.500000 0.384999
O O17 0.379843 0.686501 0.341674
O O18 0.635334 0.140006 0.728449
O O19 0.501692 0.000000 0.834035
O O20 0.113907 0.241289 0.342090
#
# Coordination Sequence:
#
# PCOD8062625 Si02
#       8
#     4   4   4   4   4   4   4   4
#     4  10  20  36  59  81 116 155 191 239 288 340
#     4  10  21  39  61  80 116 154 195 247 292 343
#     4  11  22  39  61  85 117 154 194 243 301 351
#     4   9  18  34  57  85 117 153 189 228 281 344
#     4  10  21  37  60  87 116 154 195 236 289 351
#     4  10  21  37  59  87 116 154 195 236 289 348
#     4  10  19  36  63  87 118 153 189 240 289 345
#     4  10  21  36  58  86 118 152 189 241 292 342
#
# _framework density 20.183347999999999
#
# number of rings (size 3 to 8) (size 9 to 14) (size 15 to 20)
#    0.000    2.000    2.500    1.125    0.000    6.250 
#    0.000    1.875    0.000    6.000    0.000    0.000 
#    0.000    0.000    0.000    0.000    0.000    0.000 
#
# Total GULP energy -396611.408743 kJ/mol
# GULP energy per Si atom -12394.106523 kJ/mol
# Density = 2.013741 g / cm^3
# Si number density = 20.183348 Si / 1000 Ang^3
#
#
#
# Elastic Constant Matrix: (Units=GPa)
#
#
# Indices 1 2 3 4 5 6 
#
# 1 37.0964 24.0812 20.3317 0.0000 -2.1187 0.0000
# 2 24.0812 131.5381 27.2967 0.0000 10.4537 0.0000
# 3 20.3317 27.2967 104.3781 0.0000 -9.3025 0.0000
# 4 0.0000 0.0000 0.0000 0.9273 0.0000 -5.5431
# 5 -2.1187 10.4537 -9.3025 0.0000 25.0183 0.0000
# 6 0.0000 0.0000 0.0000 -5.5431 0.0000 21.1967
#
#
#
# Elastic Compliance Matrix: (Units=1/GPa)
#
#
# Indices 1 2 3 4 5 6 
#
# 1 0.033240 -0.005353 -0.004783 0.000000 0.003273 0.000000
# 2 -0.005353 0.009370 -0.001859 0.000000 -0.005060 0.000000
# 3 -0.004783 -0.001859 0.011410 0.000000 0.004614 0.000000
# 4 0.000000 0.000000 0.000000 -1.914654 0.000000 -0.500695
# 5 0.003273 -0.005060 0.004614 0.000000 0.044078 0.000000
# 6 0.000000 0.000000 0.000000 -0.500695 0.000000 -0.083758
#
#
# Mechanical properties :
#
#
# Convention : Reuss Voigt Hill
#
# Bulk Modulus (GPa) = 33.29983 46.27019 39.78501
# Shear Modulus (GPa) = -2.67908 22.84867 10.08480
#
# Velocity S-wave (km/s) = -1.15337 3.36825 2.23773
# Velocity P-wave (km/s) = 3.84198 6.17264 5.14113
#
# Compressibility (1/GPa) = 0.03003018
#
# Stress axis : x y z
#
# Youngs Moduli (GPa) = 30.08412 106.72166 87.64571
#
# Poissons Ratio (x) = 0.57127 0.41923
# Poissons Ratio (y) = 0.16104 0.16291
# Poissons Ratio (z) = 0.14390 0.19836
#
# Static dielectric constant tensor:
#      x y z
#    x 3.583090 0.000000 -0.125860 
#    y 0.000000 3.659040 0.000000 
#    z -0.125860 0.000000 3.912430 
# 
# 
# High freq. dielectric constant tensor:
#      x y z
#    x 1.771950 0.000000 -0.010930 
#    y 0.000000 1.775090 0.000000 
#    z -0.010930 0.000000 1.805470 
# 
# From -- ./inp_files/42984.got.cif
#   From: 2010.06.25/outbox.cif.g09.slc.cpg/sg10_22_cif.got.tgz:42984.got - 2010.06.27 22:07:45.
