data_PCOD8062099
_publ_section_title
;
Structure prediction by ZEFSAII (Michael W. Deem and Ramdas Pophale) SiO2 
 PCOD8062099
Probable space group: P 2/M
;
_chemical_formula_sum "Si O2"
_cell_formula_units_Z 28
_cell_length_a 9.665766
_cell_length_b 9.068936
_cell_length_c 28.908222
_cell_angle_alpha 90.000000
_cell_angle_beta 145.803013
_cell_angle_gamma 90.000000
_cell_volume 1424.233283
_symmetry_space_group_name_H-M "P 2/M"
_symmetry_group_IT_number 10
_symmetry_cell_setting 'monoclinic'
loop_
_space_group_symop_operation_xyz
x,y,z
-x,y,-z
-x,-y,-z
x,-y,z
loop_
_atom_site_type_symbol
_atom_site_label
_atom_site_fract_x
_atom_site_fract_y
_atom_site_fract_z
Si Si1 0.784537 0.171163 0.849304
Si Si2 0.483906 0.828766 0.854338
Si Si3 0.545471 0.830850 0.609996
Si Si4 0.331053 0.824267 0.995090
Si Si5 0.624037 0.169408 0.332687
Si Si6 0.009228 0.670194 0.305651
Si Si7 0.109037 0.670266 0.439770
O O1 0.714149 0.195429 0.883488
O O2 0.576814 0.239859 0.758071
O O3 0.053929 0.241098 0.914007
O O4 0.799793 0.000000 0.841056
O O5 0.263604 0.731778 0.774239
O O6 0.405061 0.000000 0.833359
O O7 0.556437 0.771333 0.925150
O O8 0.477062 0.815460 0.644175
O O9 0.814471 0.760634 0.679508
O O10 0.356290 0.745757 0.525357
O O11 0.551728 0.000000 0.595886
O O12 0.321478 0.000000 0.991639
O O13 0.500000 0.763175 0.000000
O O14 0.875126 0.258988 0.399869
O O15 0.681574 0.000000 0.335438
O O16 0.012535 0.500000 0.292089
O O17 0.099542 0.693460 0.382600
O O18 0.117397 0.500000 0.455974
#
# Coordination Sequence:
#
# PCOD8062099 Si02
#       7
#     4   4   4   4   4   4   4
#     4   9  17  32  54  83 117 149 184 231 283 336
#     4  10  19  34  59  85 113 152 194 234 287 342
#     4  11  24  38  59  88 117 150 194 243 296 345
#     4   9  18  30  53  89 122 147 182 235 288 340
#     4  10  21  37  59  87 118 150 192 243 289 339
#     4  11  24  40  58  83 117 155 197 241 289 344
#     4  11  23  40  60  83 115 155 198 238 290 349
#
# _framework density 19.659700999999998
#
# number of rings (size 3 to 8) (size 9 to 14) (size 15 to 20)
#    0.000    1.857    1.429    2.571    2.000    8.000 
#    0.000    0.000    0.000    3.000    0.000    0.000 
#    0.000    0.000    0.000    0.000    0.000    0.000 
#
# Total GULP energy -347281.739659 kJ/mol
# GULP energy per Si atom -12402.919274 kJ/mol
# Density = 1.961495 g / cm^3
# Si number density = 19.659701 Si / 1000 Ang^3
#
#
#
# Elastic Constant Matrix: (Units=GPa)
#
#
# Indices 1 2 3 4 5 6 
#
# 1 92.8014 39.1128 28.0151 0.0000 20.4620 0.0000
# 2 39.1128 77.0735 25.3722 0.0000 3.7669 0.0000
# 3 28.0151 25.3722 93.1918 0.0000 7.7134 0.0000
# 4 0.0000 0.0000 0.0000 -15.5500 0.0000 -17.0520
# 5 20.4620 3.7669 7.7134 0.0000 29.9061 0.0000
# 6 0.0000 0.0000 0.0000 -17.0520 0.0000 7.1957
#
#
#
# Elastic Compliance Matrix: (Units=1/GPa)
#
#
# Indices 1 2 3 4 5 6 
#
# 1 0.016695 -0.007255 -0.002221 0.000000 -0.009936 0.000000
# 2 -0.007255 0.017424 -0.002853 0.000000 0.003505 0.000000
# 3 -0.002221 -0.002853 0.012282 0.000000 -0.001289 0.000000
# 4 0.000000 0.000000 0.000000 -0.017870 0.000000 -0.042348
# 5 -0.009936 0.003505 -0.001289 0.000000 0.040127 0.000000
# 6 0.000000 0.000000 0.000000 -0.042348 0.000000 0.038618
#
#
# Mechanical properties :
#
#
# Convention : Reuss Voigt Hill
#
# Bulk Modulus (GPa) = 45.99370 49.78521 47.88945
# Shear Modulus (GPa) = 35.92409 15.68146 25.80277
#
# Velocity S-wave (km/s) = 4.27933 2.82732 3.62673
# Velocity P-wave (km/s) = 6.91828 6.00307 6.47686
#
# Compressibility (1/GPa) = 0.02174211
#
# Stress axis : x y z
#
# Youngs Moduli (GPa) = 59.89822 57.39056 81.42232
#
# Poissons Ratio (x) = 0.41640 0.18084
# Poissons Ratio (y) = 0.43459 0.23229
# Poissons Ratio (z) = 0.13304 0.16373
#
# Static dielectric constant tensor:
#      x y z
#    x 3.689820 0.000000 0.052570 
#    y 0.000000 3.354760 0.000000 
#    z 0.052570 0.000000 3.748020 
# 
# 
# High freq. dielectric constant tensor:
#      x y z
#    x 1.780140 0.000000 0.002320 
#    y 0.000000 1.730910 0.000000 
#    z 0.002320 0.000000 1.777360 
# 
# From -- ./inp_files/37067.got.cif
#   From: 2010.06.25/outbox.cif.g09.slc.cpg/sg10_19_cif.got.tgz:37067.got - 2010.06.27 22:07:45.
