data_PCOD8062609
_publ_section_title
;
Structure prediction by ZEFSAII (Michael W. Deem and Ramdas Pophale) SiO2 
 PCOD8062609
Probable space group: P 2/M
;
_chemical_formula_sum "Si O2"
_cell_formula_units_Z 28
_cell_length_a 25.710392
_cell_length_b 9.168939
_cell_length_c 9.741501
_cell_angle_alpha 90.000000
_cell_angle_beta 140.410567
_cell_angle_gamma 90.000000
_cell_volume 1463.474728
_symmetry_space_group_name_H-M "P 2/M"
_symmetry_group_IT_number 10
_symmetry_cell_setting 'monoclinic'
loop_
_space_group_symop_operation_xyz
x,y,z
-x,y,-z
-x,-y,-z
x,-y,z
loop_
_atom_site_type_symbol
_atom_site_label
_atom_site_fract_x
_atom_site_fract_y
_atom_site_fract_z
Si Si1 0.929213 0.173254 0.759007
Si Si2 0.923724 0.172666 0.437340
Si Si3 0.324632 0.330791 0.396431
Si Si4 0.340358 0.163871 0.919192
Si Si5 0.483211 0.169105 0.812565
Si Si6 0.237667 0.833345 0.448992
Si Si7 0.241727 0.669003 0.941673
O O1 0.940199 0.229024 0.625694
O O2 0.842928 0.228814 0.641117
O O3 0.932431 0.000000 0.766291
O O4 0.000000 0.238665 0.000000
O O5 0.842780 0.245732 0.212519
O O6 0.000000 0.221208 0.500000
O O7 0.910544 0.000000 0.406548
O O8 0.332328 0.500000 0.446828
O O9 0.411902 0.257541 0.595198
O O10 0.255356 0.262590 0.352142
O O11 0.297865 0.301921 0.186921
O O12 0.313492 0.180170 0.706498
O O13 0.292437 0.278007 0.913793
O O14 0.319400 0.000000 0.927949
O O15 0.437015 0.192479 0.119717
O O16 0.457228 0.000000 0.766700
O O17 0.500000 0.228205 0.000000
O O18 0.224329 0.000000 0.374703
O O19 0.221249 0.500000 0.880469
#
# Coordination Sequence:
#
# PCOD8062609 Si02
#       7
#     4   4   4   4   4   4   4
#     4   9  18  33  56  90 120 142 182 240 295 343
#     4  10  21  38  62  89 116 151 197 244 291 346
#     4  11  25  40  56  85 122 159 200 239 285 353
#     4  10  20  38  64  89 114 149 197 246 292 349
#     4  10  20  38  62  89 118 148 192 249 301 345
#     4  10  19  36  62  87 117 153 192 246 296 341
#     4  11  25  42  58  82 123 165 197 236 289 351
#
# _framework density 19.132546999999999
#
# number of rings (size 3 to 8) (size 9 to 14) (size 15 to 20)
#    0.000    1.857    2.857    0.857    2.000    4.571 
#    0.000    2.857    0.000    0.857    0.000    0.000 
#    0.000    0.000    0.000    0.000    0.000    0.000 
#
# Total GULP energy -347300.844788 kJ/mol
# GULP energy per Si atom -12403.601600 kJ/mol
# Density = 1.908900 g / cm^3
# Si number density = 19.132547 Si / 1000 Ang^3
#
#
#
# Elastic Constant Matrix: (Units=GPa)
#
#
# Indices 1 2 3 4 5 6 
#
# 1 93.3216 35.1663 28.3446 0.0000 13.0597 0.0000
# 2 35.1663 65.2903 41.9577 0.0000 1.9043 0.0000
# 3 28.3446 41.9577 96.2189 0.0000 14.6113 0.0000
# 4 0.0000 0.0000 0.0000 25.0058 0.0000 -5.7066
# 5 13.0597 1.9043 14.6113 0.0000 27.0725 0.0000
# 6 0.0000 0.0000 0.0000 -5.7066 0.0000 14.3538
#
#
#
# Elastic Compliance Matrix: (Units=1/GPa)
#
#
# Indices 1 2 3 4 5 6 
#
# 1 0.014489 -0.007647 0.000050 0.000000 -0.006479 0.000000
# 2 -0.007647 0.025685 -0.010058 0.000000 0.007311 0.000000
# 3 0.000050 -0.010058 0.015969 0.000000 -0.007936 0.000000
# 4 0.000000 0.000000 0.000000 0.043981 0.000000 0.017485
# 5 -0.006479 0.007311 -0.007936 0.000000 0.043832 0.000000
# 6 0.000000 0.000000 0.000000 0.017485 0.000000 0.076619
#
#
# Mechanical properties :
#
#
# Convention : Reuss Voigt Hill
#
# Bulk Modulus (GPa) = 47.99933 51.75198 49.87566
# Shear Modulus (GPa) = 19.02377 23.24393 21.13385
#
# Velocity S-wave (km/s) = 3.15670 3.48931 3.32716
# Velocity P-wave (km/s) = 6.19908 6.58343 6.39414
#
# Compressibility (1/GPa) = 0.02083362
#
# Stress axis : x y z
#
# Youngs Moduli (GPa) = 69.01958 38.93261 62.62098
#
# Poissons Ratio (x) = 0.29772 -0.00315
# Poissons Ratio (y) = 0.52781 0.62984
# Poissons Ratio (z) = -0.00347 0.39158
#
# Static dielectric constant tensor:
#      x y z
#    x 3.531310 0.000000 0.050450 
#    y 0.000000 3.280030 0.000000 
#    z 0.050450 0.000000 3.566150 
# 
# 
# High freq. dielectric constant tensor:
#      x y z
#    x 1.755430 0.000000 0.006700 
#    y 0.000000 1.719270 0.000000 
#    z 0.006700 0.000000 1.748760 
# 
# From -- ./inp_files/37323.got.cif
#   From: 2010.06.25/outbox.cif.g09.slc.cpg/sg10_19_cif.got.tgz:37323.got - 2010.06.27 22:07:45.
