data_PCOD8062083
_publ_section_title
;
Structure prediction by ZEFSAII (Michael W. Deem and Ramdas Pophale) SiO2 
 PCOD8062083
Probable space group: P 2/M
;
_chemical_formula_sum "Si O2"
_cell_formula_units_Z 24
_cell_length_a 11.768876
_cell_length_b 19.144686
_cell_length_c 9.005568
_cell_angle_alpha 90.000000
_cell_angle_beta 40.074683
_cell_angle_gamma 90.000000
_cell_volume 1306.277920
_symmetry_space_group_name_H-M "P 2/M"
_symmetry_group_IT_number 10
_symmetry_cell_setting 'monoclinic'
loop_
_space_group_symop_operation_xyz
x,y,z
-x,y,-z
-x,-y,-z
x,-y,z
loop_
_atom_site_type_symbol
_atom_site_label
_atom_site_fract_x
_atom_site_fract_y
_atom_site_fract_z
Si Si1 0.202578 0.668033 0.470710
Si Si2 0.500003 0.580852 0.674180
Si Si3 0.696864 0.821524 0.979679
Si Si4 0.000002 0.078447 0.322633
Si Si5 0.202582 0.331967 0.124133
Si Si6 0.303133 0.821524 0.373410
O O1 0.323351 0.613895 0.436330
O O2 0.249485 0.663570 0.250516
O O3 0.239855 0.745982 0.493763
O O4 0.999998 0.648183 0.703577
O O5 0.500000 0.593516 0.500000
O O6 0.500005 0.500000 0.716775
O O7 0.323357 0.613894 0.916966
O O8 0.826962 0.881386 0.910987
O O9 0.760139 0.745982 0.973477
O O10 0.702425 0.821695 0.797575
O O11 0.499998 0.837287 0.235619
O O12 0.000000 0.077384 0.500000
O O13 0.826965 0.118614 0.435086
O O14 0.000003 0.000000 0.258394
#
# Coordination Sequence:
#
# PCOD8062083 Si02
#       6
#     4   4   4   4   4   4
#     4  10  19  34  59  84 105 138 183 227 268 314
#     4  11  25  41  55  77 112 145 172 216 277 331
#     4   9  15  25  44  69  98 135 175 214 258 307
#     4   9  16  24  36  64 108 145 170 206 263 323
#     4  10  19  34  59  84 105 138 183 227 268 314
#     4   9  15  25  44  69  98 135 175 214 258 307
#
# _framework density 18.372813000000001
#
# number of rings (size 3 to 8) (size 9 to 14) (size 15 to 20)
#    0.000    2.333    3.333    0.500    0.000    3.333 
#    0.000    6.667    0.000    0.000    0.000    0.000 
#    0.000    4.000    0.000    0.000    0.000    0.000 
#
# Total GULP energy -297580.750636 kJ/mol
# GULP energy per Si atom -12399.197943 kJ/mol
# Density = 1.833100 g / cm^3
# Si number density = 18.372813 Si / 1000 Ang^3
#
#
#
# Elastic Constant Matrix: (Units=GPa)
#
#
# Indices 1 2 3 4 5 6 
#
# 1 63.9218 69.6131 60.1112 0.0000 -31.2386 0.0000
# 2 69.6131 174.7543 77.8962 0.0000 -27.5447 0.0000
# 3 60.1112 77.8962 84.9410 0.0000 -38.6312 0.0000
# 4 0.0000 0.0000 0.0000 19.3083 0.0000 -20.4321
# 5 -31.2386 -27.5447 -38.6312 0.0000 31.1772 0.0000
# 6 0.0000 0.0000 0.0000 -20.4321 0.0000 13.1611
#
#
#
# Elastic Compliance Matrix: (Units=1/GPa)
#
#
# Indices 1 2 3 4 5 6 
#
# 1 0.057390 -0.009732 -0.021644 0.000000 0.022085 0.000000
# 2 -0.009732 0.011777 -0.008284 0.000000 -0.009611 0.000000
# 3 -0.021644 -0.008284 0.049249 0.000000 0.032018 0.000000
# 4 0.000000 0.000000 0.000000 -0.080569 0.000000 -0.125081
# 5 0.022085 -0.009611 0.032018 0.000000 0.085385 0.000000
# 6 0.000000 0.000000 0.000000 -0.125081 0.000000 -0.118201
#
#
# Mechanical properties :
#
#
# Convention : Reuss Voigt Hill
#
# Bulk Modulus (GPa) = 25.57893 82.09534 53.83714
# Shear Modulus (GPa) = 51.34366 20.46242 35.90304
#
# Velocity S-wave (km/s) = 5.29208 3.34089 4.42536
# Velocity P-wave (km/s) = 7.16197 7.72412 7.44835
#
# Compressibility (1/GPa) = 0.03909467
#
# Stress axis : x y z
#
# Youngs Moduli (GPa) = 17.42461 84.91334 20.30506
#
# Poissons Ratio (x) = 0.82639 0.43949
# Poissons Ratio (y) = 0.16958 0.16820
# Poissons Ratio (z) = 0.37715 0.70341
#
# Static dielectric constant tensor:
#      x y z
#    x 3.163210 0.000000 -0.424630 
#    y 0.000000 3.506710 0.000000 
#    z -0.424630 0.000000 3.290970 
# 
# 
# High freq. dielectric constant tensor:
#      x y z
#    x 1.684300 0.000000 -0.042480 
#    y 0.000000 1.715610 0.000000 
#    z -0.042480 0.000000 1.697080 
# 
# From -- ./inp_files/25943.got.cif
#   From: 2010.06.25/outbox.cif.g09.slc.cpg/sg10_13_cif.got.tgz:25943.got - 2010.06.27 22:07:45.
