data_PCOD8062238
_publ_section_title
;
Structure prediction by ZEFSAII (Michael W. Deem and Ramdas Pophale) SiO2 
 PCOD8062238
Probable space group: P 2/M
;
_chemical_formula_sum "Si O2"
_cell_formula_units_Z 28
_cell_length_a 16.442706
_cell_length_b 9.247324
_cell_length_c 22.694349
_cell_angle_alpha 90.000000
_cell_angle_beta 25.532649
_cell_angle_gamma 90.000000
_cell_volume 1487.338801
_symmetry_space_group_name_H-M "P 2/M"
_symmetry_group_IT_number 10
_symmetry_cell_setting 'monoclinic'
loop_
_space_group_symop_operation_xyz
x,y,z
-x,y,-z
-x,-y,-z
x,-y,z
loop_
_atom_site_type_symbol
_atom_site_label
_atom_site_fract_x
_atom_site_fract_y
_atom_site_fract_z
Si Si1 0.325170 0.328236 0.377697
Si Si2 0.273668 0.329387 0.843945
Si Si3 0.289714 0.170053 0.618913
Si Si4 0.697732 0.169579 0.847760
Si Si5 0.921951 0.670890 0.144410
Si Si6 0.785139 0.834156 0.659564
Si Si7 0.100284 0.831231 0.620360
O O1 0.304032 0.500000 0.390808
O O2 0.518610 0.272948 0.280070
O O3 0.331897 0.268796 0.307152
O O4 0.160065 0.259356 0.524288
O O5 0.261639 0.500000 0.848137
O O6 0.211453 0.270529 0.820966
O O7 0.134085 0.282013 0.988057
O O8 0.500000 0.224159 0.500000
O O9 0.134111 0.247465 0.760027
O O10 0.229424 0.212786 0.591812
O O11 0.273500 0.000000 0.639190
O O12 0.748380 0.226289 0.749237
O O13 0.875553 0.203608 0.775286
O O14 0.667320 0.000000 0.863476
O O15 0.500000 0.240547 0.000000
O O16 0.901976 0.500000 0.168038
O O17 0.000000 0.818253 0.500000
O O18 0.718066 0.000000 0.697030
O O19 0.126438 0.000000 0.588322
#
# Coordination Sequence:
#
# PCOD8062238 Si02
#       7
#     4   4   4   4   4   4   4
#     4  11  21  33  54  82 108 133 174 221 269 315
#     4   8  17  33  52  76 103 137 175 218 262 311
#     4  10  21  34  50  77 111 139 168 216 274 319
#     4   9  18  34  56  78 101 136 181 220 255 308
#     4   9  17  34  56  72  99 141 183 216 254 310
#     4  10  19  35  57  79 104 136 177 218 260 314
#     4  10  20  36  54  73 104 142 176 214 263 318
#
# _framework density 18.825569000000002
#
# number of rings (size 3 to 8) (size 9 to 14) (size 15 to 20)
#    0.000    2.429    1.429    2.143    0.000    2.286 
#    0.000    5.000    0.000    1.714    0.000    0.000 
#    0.000    0.000    0.000    0.000    0.000    0.000 
#
# Total GULP energy -347047.387856 kJ/mol
# GULP energy per Si atom -12394.549566 kJ/mol
# Density = 1.878272 g / cm^3
# Si number density = 18.825569 Si / 1000 Ang^3
#
#
#
# Elastic Constant Matrix: (Units=GPa)
#
#
# Indices 1 2 3 4 5 6 
#
# 1 111.3944 29.8278 52.4941 0.0000 -1.4973 0.0000
# 2 29.8278 33.7469 23.6638 0.0000 2.1204 0.0000
# 3 52.4941 23.6638 112.2966 0.0000 0.8930 0.0000
# 4 0.0000 0.0000 0.0000 22.0649 0.0000 5.1128
# 5 -1.4973 2.1204 0.8930 0.0000 35.0427 0.0000
# 6 0.0000 0.0000 0.0000 5.1128 0.0000 25.6584
#
#
#
# Elastic Compliance Matrix: (Units=1/GPa)
#
#
# Indices 1 2 3 4 5 6 
#
# 1 0.013455 -0.008862 -0.004432 0.000000 0.001224 0.000000
# 2 -0.008862 0.040736 -0.004420 0.000000 -0.002731 0.000000
# 3 -0.004432 -0.004420 0.011910 0.000000 -0.000225 0.000000
# 4 0.000000 0.000000 0.000000 0.047515 0.000000 -0.009468
# 5 0.001224 -0.002731 -0.000225 0.000000 0.028760 0.000000
# 6 0.000000 0.000000 0.000000 -0.009468 0.000000 0.040860
#
#
# Mechanical properties :
#
#
# Convention : Reuss Voigt Hill
#
# Bulk Modulus (GPa) = 32.60129 52.15660 42.37895
# Shear Modulus (GPa) = 21.84482 26.65000 24.24741
#
# Velocity S-wave (km/s) = 3.41013 3.76656 3.59277
# Velocity P-wave (km/s) = 5.73241 6.83238 6.30642
#
# Compressibility (1/GPa) = 0.03067363
#
# Stress axis : x y z
#
# Youngs Moduli (GPa) = 74.32199 24.54847 83.96320
#
# Poissons Ratio (x) = 0.21754 0.37213
# Poissons Ratio (y) = 0.65861 0.37111
# Poissons Ratio (z) = 0.32940 0.10850
#
# Static dielectric constant tensor:
#      x y z
#    x 3.791970 0.000000 -0.197810 
#    y 0.000000 3.072800 0.000000 
#    z -0.197810 0.000000 3.661560 
# 
# 
# High freq. dielectric constant tensor:
#      x y z
#    x 1.737610 0.000000 -0.004290 
#    y 0.000000 1.695750 0.000000 
#    z -0.004290 0.000000 1.735340 
# 
# From -- ./inp_files/49100.got.cif
#   From: 2010.06.25/outbox.cif.g09.slc.cpg/sg10_25_cif.got.tgz:49100.got - 2010.06.27 22:07:45.
