data_PCOD8062580
_publ_section_title
;
Structure prediction by ZEFSAII (Michael W. Deem and Ramdas Pophale) SiO2 
 PCOD8062580
Probable space group: P 2/M
;
_chemical_formula_sum "Si O2"
_cell_formula_units_Z 32
_cell_length_a 20.077621
_cell_length_b 8.915206
_cell_length_c 25.953848
_cell_angle_alpha 90.000000
_cell_angle_beta 158.703343
_cell_angle_gamma 90.000000
_cell_volume 1687.281277
_symmetry_space_group_name_H-M "P 2/M"
_symmetry_group_IT_number 10
_symmetry_cell_setting 'monoclinic'
loop_
_space_group_symop_operation_xyz
x,y,z
-x,y,-z
-x,-y,-z
x,-y,z
loop_
_atom_site_type_symbol
_atom_site_label
_atom_site_fract_x
_atom_site_fract_y
_atom_site_fract_z
Si Si1 0.698404 0.177915 0.661097
Si Si2 0.918641 0.323783 0.318759
Si Si3 0.200440 0.823591 0.154595
Si Si4 0.268062 0.177128 0.617020
Si Si5 0.755743 0.677312 0.094295
Si Si6 0.044543 0.322750 0.864454
Si Si7 0.345798 0.175597 0.151627
Si Si8 0.348105 0.323931 0.780133
O O1 0.500000 0.231394 0.500000
O O2 0.721593 0.241350 0.735819
O O3 0.846701 0.250542 0.730159
O O4 0.720843 0.000000 0.674102
O O5 0.959071 0.500000 0.344922
O O6 0.837758 0.260305 0.206794
O O7 0.771223 0.285803 0.256116
O O8 0.107540 0.239982 0.465739
O O9 0.337240 0.785118 0.206230
O O10 0.179013 0.000000 0.145692
O O11 0.000000 0.752495 0.000000
O O12 0.458672 0.228261 0.728629
O O13 0.253988 0.243242 0.664048
O O14 0.250881 0.000000 0.607652
O O15 0.738124 0.500000 0.085871
O O16 0.887703 0.727891 0.143161
O O17 0.551836 0.741455 0.936804
O O18 0.030177 0.500000 0.858346
O O19 0.186125 0.266039 0.008936
O O20 0.310889 0.000000 0.116795
O O21 0.352078 0.500000 0.771001
#
# Coordination Sequence:
#
# PCOD8062580 Si02
#       8
#     4   4   4   4   4   4   4   4
#     4  10  21  37  58  83 110 145 185 221 262 322
#     4  10  21  37  58  81 109 147 190 233 275 328
#     4   9  16  31  57  80 102 136 181 227 259 300
#     4  11  23  36  54  83 118 148 179 230 286 333
#     4   9  19  36  58  84 110 142 188 235 279 326
#     4  11  21  35  58  84 113 142 174 227 283 326
#     4  10  20  36  57  79 106 145 189 224 266 325
#     4  10  19  36  61  83 106 145 194 233 270 331
#
# _framework density 18.965420000000002
#
# number of rings (size 3 to 8) (size 9 to 14) (size 15 to 20)
#    0.000    2.000    2.500    1.500    0.000    5.250 
#    0.000    4.375    0.000    1.500    0.000    0.000 
#    0.000    0.000    0.000    0.000    0.000    0.000 
#
# Total GULP energy -396873.162189 kJ/mol
# GULP energy per Si atom -12402.286318 kJ/mol
# Density = 1.892225 g / cm^3
# Si number density = 18.965420 Si / 1000 Ang^3
#
#
#
# Elastic Constant Matrix: (Units=GPa)
#
#
# Indices 1 2 3 4 5 6 
#
# 1 120.1095 22.2183 55.1649 0.0000 3.7660 0.0000
# 2 22.2183 29.3459 27.8284 0.0000 9.4973 0.0000
# 3 55.1649 27.8284 139.3148 0.0000 2.1947 0.0000
# 4 0.0000 0.0000 0.0000 24.6950 0.0000 7.0050
# 5 3.7660 9.4973 2.1947 0.0000 36.7101 0.0000
# 6 0.0000 0.0000 0.0000 7.0050 0.0000 21.2159
#
#
#
# Elastic Compliance Matrix: (Units=1/GPa)
#
#
# Indices 1 2 3 4 5 6 
#
# 1 0.010760 -0.005235 -0.003222 0.000000 0.000443 0.000000
# 2 -0.005235 0.048951 -0.007521 0.000000 -0.011678 0.000000
# 3 -0.003222 -0.007521 0.009930 0.000000 0.001683 0.000000
# 4 0.000000 0.000000 0.000000 0.044678 0.000000 -0.014752
# 5 0.000443 -0.011678 0.001683 0.000000 0.030116 0.000000
# 6 0.000000 0.000000 0.000000 -0.014752 0.000000 0.052005
#
#
# Mechanical properties :
#
#
# Convention : Reuss Voigt Hill
#
# Bulk Modulus (GPa) = 26.53573 55.46591 41.00082
# Shear Modulus (GPa) = 20.75052 28.76144 24.75598
#
# Velocity S-wave (km/s) = 3.31134 3.89848 3.61684
# Velocity P-wave (km/s) = 5.35182 7.04084 6.25362
#
# Compressibility (1/GPa) = 0.03768504
#
# Stress axis : x y z
#
# Youngs Moduli (GPa) = 92.93680 20.42847 100.70767
#
# Poissons Ratio (x) = 0.10693 0.32448
# Poissons Ratio (y) = 0.48648 0.75746
# Poissons Ratio (z) = 0.29945 0.15365
#
# Static dielectric constant tensor:
#      x y z
#    x 3.698840 0.000000 -0.015760 
#    y 0.000000 3.170730 0.000000 
#    z -0.015760 0.000000 3.643270 
# 
# 
# High freq. dielectric constant tensor:
#      x y z
#    x 1.753150 0.000000 0.001560 
#    y 0.000000 1.705430 0.000000 
#    z 0.001560 0.000000 1.743250 
# 
# From -- ./inp_files/93706.got.cif
#   From: 2010.06.25/outbox.cif.g09.slc.cpg/sg10_47_cif.got.tgz:93706.got - 2010.06.27 22:07:45.
