data_PCOD8062062
_publ_section_title
;
Structure prediction by ZEFSAII (Michael W. Deem and Ramdas Pophale) SiO2 
 PCOD8062062
Probable space group: P 2/M
;
_chemical_formula_sum "Si O2"
_cell_formula_units_Z 32
_cell_length_a 20.188094
_cell_length_b 8.682313
_cell_length_c 26.056793
_cell_angle_alpha 90.000000
_cell_angle_beta 21.340908
_cell_angle_gamma 90.000000
_cell_volume 1662.085201
_symmetry_space_group_name_H-M "P 2/M"
_symmetry_group_IT_number 10
_symmetry_cell_setting 'monoclinic'
loop_
_space_group_symop_operation_xyz
x,y,z
-x,y,-z
-x,-y,-z
x,-y,z
loop_
_atom_site_type_symbol
_atom_site_label
_atom_site_fract_x
_atom_site_fract_y
_atom_site_fract_z
Si Si1 0.979604 0.818277 0.592519
Si Si2 0.483803 0.819131 0.716684
Si Si3 0.969439 0.319680 0.232580
Si Si4 0.874004 0.681131 0.415711
Si Si5 0.265853 0.679307 0.309734
Si Si6 0.806662 0.183174 0.157261
Si Si7 0.362354 0.678233 0.907969
Si Si8 0.299473 0.182503 0.655216
O O1 0.792968 0.760196 0.700946
O O2 0.985702 0.764131 0.646972
O O3 0.153701 0.748267 0.438039
O O4 0.990201 0.000000 0.581151
O O5 0.668925 0.725920 0.577385
O O6 0.350414 0.762002 0.767944
O O7 0.387401 0.783425 0.840075
O O8 0.525673 0.000000 0.682814
O O9 0.934255 0.500000 0.251977
O O10 0.926368 0.263344 0.321080
O O11 0.835531 0.231316 0.291796
O O12 0.175705 0.274847 0.070222
O O13 0.897914 0.500000 0.404833
O O14 0.220589 0.500000 0.338431
O O15 0.478404 0.710518 0.165820
O O16 0.766563 0.249815 0.242650
O O17 0.815439 0.000000 0.151568
O O18 0.000000 0.252214 0.000000
O O19 0.363371 0.500000 0.890111
O O20 0.500000 0.249778 0.500000
O O21 0.305527 0.000000 0.653045
#
# Coordination Sequence:
#
# PCOD8062062 Si02
#       8
#     4   4   4   4   4   4   4   4
#     4  11  21  34  56  86 117 144 187 238 278 328
#     4  11  21  34  58  86 111 143 188 237 284 335
#     4  10  23  40  58  82 114 152 193 235 281 337
#     4  11  22  38  57  80 113 151 189 232 282 335
#     4  10  19  34  58  84 115 152 185 224 285 341
#     4   9  18  32  50  76 108 140 176 222 278 337
#     4  10  21  38  58  83 116 151 188 231 282 341
#     4  10  20  36  57  79 107 146 190 234 283 338
#
# _framework density 19.252922999999999
#
# number of rings (size 3 to 8) (size 9 to 14) (size 15 to 20)
#    0.000    1.750    1.250    4.500    0.000    4.250 
#    0.000    1.875    0.000    7.125    0.000    0.000 
#    0.000    0.000    0.000    0.000    0.000    0.000 
#
# Total GULP energy -396913.635093 kJ/mol
# GULP energy per Si atom -12403.551097 kJ/mol
# Density = 1.920910 g / cm^3
# Si number density = 19.252923 Si / 1000 Ang^3
#
#
#
# Elastic Constant Matrix: (Units=GPa)
#
#
# Indices 1 2 3 4 5 6 
#
# 1 170.1723 47.4382 67.6516 0.0000 -4.0831 0.0000
# 2 47.4382 81.5827 25.3587 0.0000 -4.2247 0.0000
# 3 67.6516 25.3587 118.2215 0.0000 0.3293 0.0000
# 4 0.0000 0.0000 0.0000 7.3252 0.0000 -5.9121
# 5 -4.0831 -4.2247 0.3293 0.0000 33.9265 0.0000
# 6 0.0000 0.0000 0.0000 -5.9121 0.0000 31.2013
#
#
#
# Elastic Compliance Matrix: (Units=1/GPa)
#
#
# Indices 1 2 3 4 5 6 
#
# 1 0.008544 -0.003660 -0.004106 0.000000 0.000612 0.000000
# 2 -0.003660 0.014796 -0.001083 0.000000 0.001412 0.000000
# 3 -0.004106 -0.001083 0.011043 0.000000 -0.000736 0.000000
# 4 0.000000 0.000000 0.000000 0.161162 0.000000 0.030538
# 5 0.000612 0.001412 -0.000736 0.000000 0.029732 0.000000
# 6 0.000000 0.000000 0.000000 0.030538 0.000000 0.037836
#
#
# Mechanical properties :
#
#
# Convention : Reuss Voigt Hill
#
# Bulk Modulus (GPa) = 59.93774 72.31928 66.12851
# Shear Modulus (GPa) = 17.45987 29.79248 23.62617
#
# Velocity S-wave (km/s) = 3.01469 3.93800 3.50687
# Velocity P-wave (km/s) = 6.58158 7.63685 7.12877
#
# Compressibility (1/GPa) = 0.01668398
#
# Stress axis : x y z
#
# Youngs Moduli (GPa) = 117.04743 67.58810 90.55902
#
# Poissons Ratio (x) = 0.24737 0.37180
# Poissons Ratio (y) = 0.42839 0.09809
# Poissons Ratio (z) = 0.48055 0.07321
#
# Static dielectric constant tensor:
#      x y z
#    x 3.770780 0.000000 -0.015090 
#    y 0.000000 3.367680 0.000000 
#    z -0.015090 0.000000 3.603920 
# 
# 
# High freq. dielectric constant tensor:
#      x y z
#    x 1.765390 0.000000 -0.008600 
#    y 0.000000 1.738690 0.000000 
#    z -0.008600 0.000000 1.743040 
# 
# From -- ./inp_files/93665.got.cif
#   From: 2010.06.25/outbox.cif.g09.slc.cpg/sg10_47_cif.got.tgz:93665.got - 2010.06.27 22:07:45.
