data_PCOD8062379
_publ_section_title
;
Structure prediction by ZEFSAII (Michael W. Deem and Ramdas Pophale) SiO2 
 PCOD8062379
Probable space group: P 2/M
;
_chemical_formula_sum "Si O2"
_cell_formula_units_Z 28
_cell_length_a 9.766926
_cell_length_b 17.812666
_cell_length_c 16.456335
_cell_angle_alpha 90.000000
_cell_angle_beta 29.819865
_cell_angle_gamma 90.000000
_cell_volume 1423.693124
_symmetry_space_group_name_H-M "P 2/M"
_symmetry_group_IT_number 10
_symmetry_cell_setting 'monoclinic'
loop_
_space_group_symop_operation_xyz
x,y,z
-x,y,-z
-x,-y,-z
x,-y,z
loop_
_atom_site_type_symbol
_atom_site_label
_atom_site_fract_x
_atom_site_fract_y
_atom_site_fract_z
Si Si1 0.998934 0.301611 0.305095
Si Si2 0.759347 0.583586 0.925128
Si Si3 0.941777 0.793493 0.876592
Si Si4 0.837342 0.085722 0.500411
Si Si5 0.491381 0.298066 0.173565
Si Si6 0.523228 0.237596 0.647986
Si Si7 0.189427 0.913429 0.161384
O O1 0.996445 0.380602 0.256252
O O2 0.197865 0.300657 0.280694
O O3 0.122134 0.243358 0.177909
O O4 0.694539 0.276356 0.487398
O O5 0.846131 0.500000 0.908402
O O6 0.500000 0.581520 0.000000
O O7 0.683557 0.632128 0.044785
O O8 0.206284 0.761564 0.785808
O O9 0.970929 0.880334 0.835349
O O10 0.668685 0.778212 0.069882
O O11 0.605384 0.150475 0.621353
O O12 0.000000 0.091054 0.500000
O O13 0.043943 0.106375 0.321249
O O14 0.717884 0.000000 0.551415
O O15 0.431457 0.294963 0.300326
O O16 0.187111 0.000000 0.145362
O O17 0.500000 0.881826 0.000000
#
# Coordination Sequence:
#
# PCOD8062379 Si02
#       7
#     4   4   4   4   4   4   4
#     4  10  19  35  60  82 109 146 189 231 274 337
#     4   8  16  34  61  89 113 143 186 234 280 331
#     4  11  22  36  54  81 114 147 188 236 283 330
#     4  10  22  38  56  80 113 152 190 237 292 339
#     4  10  21  37  58  82 112 152 188 226 276 341
#     4  12  23  35  54  86 118 148 186 240 288 332
#     4  10  21  37  59  82 108 149 200 243 283 342
#
# _framework density 19.667159000000002
#
# number of rings (size 3 to 8) (size 9 to 14) (size 15 to 20)
#    0.000    1.857    1.429    4.286    2.000    0.571 
#    0.000    2.143    0.000   18.857    0.000    0.000 
#    0.000    0.000    0.000    0.000    0.000    0.143 
#
# Total GULP energy -346950.573623 kJ/mol
# GULP energy per Si atom -12391.091915 kJ/mol
# Density = 1.962240 g / cm^3
# Si number density = 19.667159 Si / 1000 Ang^3
#
#
#
# Elastic Constant Matrix: (Units=GPa)
#
#
# Indices 1 2 3 4 5 6 
#
# 1 55.6898 24.0524 5.2361 0.0000 0.9088 0.0000
# 2 24.0524 91.8662 27.9781 0.0000 5.1925 0.0000
# 3 5.2361 27.9781 61.3267 0.0000 6.0884 0.0000
# 4 0.0000 0.0000 0.0000 23.5406 0.0000 4.6974
# 5 0.9088 5.1925 6.0884 0.0000 22.6366 0.0000
# 6 0.0000 0.0000 0.0000 4.6974 0.0000 16.7642
#
#
#
# Elastic Compliance Matrix: (Units=1/GPa)
#
#
# Indices 1 2 3 4 5 6 
#
# 1 0.020281 -0.005562 0.000781 0.000000 0.000252 0.000000
# 2 -0.005562 0.014210 -0.005863 0.000000 -0.001459 0.000000
# 3 0.000781 -0.005863 0.019299 0.000000 -0.003877 0.000000
# 4 0.000000 0.000000 0.000000 0.044996 0.000000 -0.012608
# 5 0.000252 -0.001459 -0.003877 0.000000 0.045544 0.000000
# 6 0.000000 0.000000 0.000000 -0.012608 0.000000 0.063184
#
#
# Mechanical properties :
#
#
# Convention : Reuss Voigt Hill
#
# Bulk Modulus (GPa) = 30.76739 35.93510 33.35125
# Shear Modulus (GPa) = 20.86505 22.69604 21.78054
#
# Velocity S-wave (km/s) = 3.26069 3.40075 3.33146
# Velocity P-wave (km/s) = 5.46390 5.80788 5.63851
#
# Compressibility (1/GPa) = 0.03250194
#
# Stress axis : x y z
#
# Youngs Moduli (GPa) = 49.30641 70.37446 51.81593
#
# Poissons Ratio (x) = 0.39143 -0.04046
# Poissons Ratio (y) = 0.27425 0.30379
# Poissons Ratio (z) = -0.03850 0.41260
#
# Static dielectric constant tensor:
#      x y z
#    x 3.367200 0.000000 0.173330 
#    y 0.000000 3.960900 0.000000 
#    z 0.173330 0.000000 3.624890 
# 
# 
# High freq. dielectric constant tensor:
#      x y z
#    x 1.748270 0.000000 0.012780 
#    y 0.000000 1.759110 0.000000 
#    z 0.012780 0.000000 1.767670 
# 
# From -- ./inp_files/62324.got.cif
#   From: 2010.06.25/outbox.cif.g09.slc.cpg/sg10_32_cif.got.tgz:62324.got - 2010.06.27 22:07:45.
