data_PCOD8062482
_publ_section_title
;
Structure prediction by ZEFSAII (Michael W. Deem and Ramdas Pophale) SiO2 
 PCOD8062482
Probable space group: P 2/M
;
_chemical_formula_sum "Si O2"
_cell_formula_units_Z 32
_cell_length_a 15.083261
_cell_length_b 13.992446
_cell_length_c 9.956469
_cell_angle_alpha 90.000000
_cell_angle_beta 120.077894
_cell_angle_gamma 90.000000
_cell_volume 1818.374972
_symmetry_space_group_name_H-M "P 2/M"
_symmetry_group_IT_number 10
_symmetry_cell_setting 'monoclinic'
loop_
_space_group_symop_operation_xyz
x,y,z
-x,y,-z
-x,-y,-z
x,-y,z
loop_
_atom_site_type_symbol
_atom_site_label
_atom_site_fract_x
_atom_site_fract_y
_atom_site_fract_z
Si Si1 0.533833 0.108310 0.675596
Si Si2 0.635615 0.291543 0.826056
Si Si3 0.030876 0.613253 0.167010
Si Si4 0.404377 0.892144 0.832334
Si Si5 0.739287 0.387841 0.661206
Si Si6 0.090935 0.389323 0.672970
Si Si7 0.420254 0.612471 0.687632
Si Si8 0.699539 0.291919 0.175921
O O1 0.500000 0.135226 0.500000
O O2 0.625032 0.177943 0.791907
O O3 0.436948 0.120539 0.701840
O O4 0.576093 0.000000 0.715320
O O5 0.713880 0.334888 0.779597
O O6 0.525102 0.339139 0.722291
O O7 0.680820 0.312792 0.005979
O O8 0.023078 0.500000 0.156681
O O9 0.146225 0.642851 0.294333
O O10 0.950480 0.650377 0.216370
O O11 0.000000 0.657845 0.000000
O O12 0.311858 0.820264 0.796343
O O13 0.366815 0.000000 0.832808
O O14 0.500000 0.865356 0.000000
O O15 0.731153 0.500000 0.683385
O O16 0.664502 0.356372 0.485205
O O17 0.125844 0.500000 0.706308
O O18 0.187070 0.326337 0.699104
O O19 0.000000 0.376179 0.500000
O O20 0.436725 0.500000 0.704812
O O21 0.385532 0.648775 0.806926
#
# Coordination Sequence:
#
# PCOD8062482 Si02
#       8
#     4   4   4   4   4   4   4   4
#     4  10  20  35  55  78 108 143 179 218 257 308
#     4  12  22  33  50  78 110 142 174 217 265 320
#     4   9  17  32  51  70  92 125 174 228 268 301
#     4  10  19  36  57  80 113 145 176 217 266 324
#     4  10  21  35  51  71 101 143 182 216 265 322
#     4  10  21  37  55  75 103 139 182 232 276 316
#     4  11  22  34  47  70 109 147 176 209 258 323
#     4  12  22  34  53  81 105 139 182 220 269 319
#
# _framework density 17.598130999999999
#
# number of rings (size 3 to 8) (size 9 to 14) (size 15 to 20)
#    0.000    1.500    2.500    3.750    0.000    6.500 
#    0.000    0.000    0.000    0.375    0.000    0.875 
#    0.000    3.000    0.000    0.000    0.000    0.000 
#
# Total GULP energy -396889.335268 kJ/mol
# GULP energy per Si atom -12402.791727 kJ/mol
# Density = 1.755808 g / cm^3
# Si number density = 17.598131 Si / 1000 Ang^3
#
#
#
# Elastic Constant Matrix: (Units=GPa)
#
#
# Indices 1 2 3 4 5 6 
#
# 1 82.1458 39.0880 15.1075 0.0000 -0.6378 0.0000
# 2 39.0880 79.3071 28.1688 0.0000 3.8543 0.0000
# 3 15.1075 28.1688 74.7754 0.0000 -11.3873 0.0000
# 4 0.0000 0.0000 0.0000 18.3091 0.0000 -5.8159
# 5 -0.6378 3.8543 -11.3873 0.0000 33.4143 0.0000
# 6 0.0000 0.0000 0.0000 -5.8159 0.0000 23.8522
#
#
#
# Elastic Compliance Matrix: (Units=1/GPa)
#
#
# Indices 1 2 3 4 5 6 
#
# 1 0.015953 -0.007897 -0.000067 0.000000 0.001193 0.000000
# 2 -0.007897 0.018924 -0.006211 0.000000 -0.004450 0.000000
# 3 -0.000067 -0.006211 0.016702 0.000000 0.006407 0.000000
# 4 0.000000 0.000000 0.000000 0.059203 0.000000 0.014435
# 5 0.001193 -0.004450 0.006407 0.000000 0.032647 0.000000
# 6 0.000000 0.000000 0.000000 0.014435 0.000000 0.045445
#
#
# Mechanical properties :
#
#
# Convention : Reuss Voigt Hill
#
# Bulk Modulus (GPa) = 43.04830 44.55077 43.79954
# Shear Modulus (GPa) = 22.22566 25.37273 23.79919
#
# Velocity S-wave (km/s) = 3.55766 3.80120 3.68145
# Velocity P-wave (km/s) = 6.43358 6.68103 6.55847
#
# Compressibility (1/GPa) = 0.02322972
#
# Stress axis : x y z
#
# Youngs Moduli (GPa) = 62.68577 52.84386 59.87189
#
# Poissons Ratio (x) = 0.41730 0.00398
# Poissons Ratio (y) = 0.49502 0.37187
# Poissons Ratio (z) = 0.00417 0.32821
#
# Static dielectric constant tensor:
#      x y z
#    x 3.330490 0.000000 -0.216600 
#    y 0.000000 3.231110 0.000000 
#    z -0.216600 0.000000 3.416700 
# 
# 
# High freq. dielectric constant tensor:
#      x y z
#    x 1.672810 0.000000 -0.021860 
#    y 0.000000 1.658920 0.000000 
#    z -0.021860 0.000000 1.690950 
# 
# From -- ./inp_files/29540.got.cif
#   From: 2010.06.25/outbox.cif.g09.slc.cpg/sg10_15_cif.got.tgz:29540.got - 2010.06.27 22:07:45.
