data_PCOD8062705
_publ_section_title
;
Structure prediction by ZEFSAII (Michael W. Deem and Ramdas Pophale) SiO2 
 PCOD8062705
Probable space group: P 2/M
;
_chemical_formula_sum "Si O2"
_cell_formula_units_Z 32
_cell_length_a 29.018088
_cell_length_b 8.848076
_cell_length_c 12.370356
_cell_angle_alpha 90.000000
_cell_angle_beta 149.578582
_cell_angle_gamma 90.000000
_cell_volume 1608.258754
_symmetry_space_group_name_H-M "P 2/M"
_symmetry_group_IT_number 10
_symmetry_cell_setting 'monoclinic'
loop_
_space_group_symop_operation_xyz
x,y,z
-x,y,-z
-x,-y,-z
x,-y,z
loop_
_atom_site_type_symbol
_atom_site_label
_atom_site_fract_x
_atom_site_fract_y
_atom_site_fract_z
Si Si1 0.481372 0.679780 0.086251
Si Si2 0.282940 0.676058 0.751214
Si Si3 0.205220 0.673816 0.034142
Si Si4 0.347922 0.822038 0.482365
Si Si5 0.986637 0.171826 0.309633
Si Si6 0.829317 0.326053 0.275154
Si Si7 0.055269 0.171311 0.009890
Si Si8 0.231053 0.674112 0.413660
O O1 0.488175 0.500000 0.106900
O O2 0.550928 0.752977 0.313407
O O3 0.500000 0.732176 0.000000
O O4 0.383238 0.740754 0.928673
O O5 0.293333 0.500000 0.795168
O O6 0.232680 0.747812 0.754556
O O7 0.220748 0.708565 0.520096
O O8 0.204587 0.500000 0.069801
O O9 0.226216 0.689553 0.948794
O O10 0.106110 0.741598 0.854540
O O11 0.285215 0.757716 0.259712
O O12 0.310025 0.776035 0.523202
O O13 0.351789 0.000000 0.476378
O O14 0.073801 0.243058 0.544426
O O15 0.975422 0.000000 0.326747
O O16 0.006519 0.179723 0.221449
O O17 0.851745 0.500000 0.347481
O O18 0.139483 0.283989 0.165301
O O19 0.090850 0.000000 0.101258
O O20 0.000000 0.231318 0.000000
O O21 0.256932 0.500000 0.445904
#
# Coordination Sequence:
#
# PCOD8062705 Si02
#       8
#     4   4   4   4   4   4   4   4
#     4  10  19  37  64  91 119 152 190 234 286 349
#     4   9  19  37  61  89 119 150 190 240 291 344
#     4  11  23  40  62  85 113 155 204 248 287 336
#     4  12  24  38  58  87 120 151 189 240 295 348
#     4  11  22  36  57  85 118 157 196 240 291 344
#     4  10  22  40  61  86 116 153 199 246 288 339
#     4  10  21  35  50  77 119 160 193 232 286 347
#     4  11  20  34  58  85 114 152 193 236 289 345
#
# _framework density 19.897296000000001
#
# number of rings (size 3 to 8) (size 9 to 14) (size 15 to 20)
#    0.000    1.500    2.500    3.375    0.000    3.500 
#    0.000    1.875    0.000    3.750    0.000    0.000 
#    0.000    0.000    0.000    0.000    0.000    0.000 
#
# Total GULP energy -396753.564995 kJ/mol
# GULP energy per Si atom -12398.548906 kJ/mol
# Density = 1.985201 g / cm^3
# Si number density = 19.897296 Si / 1000 Ang^3
#
#
#
# Elastic Constant Matrix: (Units=GPa)
#
#
# Indices 1 2 3 4 5 6 
#
# 1 68.4479 19.3100 33.4427 0.0000 -7.8217 0.0000
# 2 19.3100 81.6749 40.2126 0.0000 1.6828 0.0000
# 3 33.4427 40.2126 119.1830 0.0000 2.4683 0.0000
# 4 0.0000 0.0000 0.0000 19.6315 0.0000 -0.2028
# 5 -7.8217 1.6828 2.4683 0.0000 30.6102 0.0000
# 6 0.0000 0.0000 0.0000 -0.2028 0.0000 16.8691
#
#
#
# Elastic Compliance Matrix: (Units=1/GPa)
#
#
# Indices 1 2 3 4 5 6 
#
# 1 0.017957 -0.002179 -0.004408 0.000000 0.005064 0.000000
# 2 -0.002179 0.014952 -0.004412 0.000000 -0.001023 0.000000
# 3 -0.004408 -0.004412 0.011153 0.000000 -0.001783 0.000000
# 4 0.000000 0.000000 0.000000 0.050945 0.000000 0.000613
# 5 0.005064 -0.001023 -0.001783 0.000000 0.034163 0.000000
# 6 0.000000 0.000000 0.000000 0.000613 0.000000 0.059287
#
#
# Mechanical properties :
#
#
# Convention : Reuss Voigt Hill
#
# Bulk Modulus (GPa) = 45.32561 50.58181 47.95371
# Shear Modulus (GPa) = 22.95565 25.17820 24.06692
#
# Velocity S-wave (km/s) = 3.40031 3.56112 3.48164
# Velocity P-wave (km/s) = 6.18429 6.51040 6.34944
#
# Compressibility (1/GPa) = 0.02206258
#
# Stress axis : x y z
#
# Youngs Moduli (GPa) = 55.68874 66.87902 89.66165
#
# Poissons Ratio (x) = 0.14576 0.39525
# Poissons Ratio (y) = 0.12137 0.39561
# Poissons Ratio (z) = 0.24549 0.29509
#
# Static dielectric constant tensor:
#      x y z
#    x 3.820250 0.000000 -0.043280 
#    y 0.000000 3.472240 0.000000 
#    z -0.043280 0.000000 3.717560 
# 
# 
# High freq. dielectric constant tensor:
#      x y z
#    x 1.771490 0.000000 -0.008470 
#    y 0.000000 1.761470 0.000000 
#    z -0.008470 0.000000 1.779630 
# 
# From -- ./inp_files/58106.got.cif
#   From: 2010.06.25/outbox.cif.g09.slc.cpg/sg10_30_cif.got.tgz:58106.got - 2010.06.27 22:07:45.
