data_PCOD8062707
_publ_section_title
;
Structure prediction by ZEFSAII (Michael W. Deem and Ramdas Pophale) SiO2 
 PCOD8062707
Probable space group: P 2/M
;
_chemical_formula_sum "Si O2"
_cell_formula_units_Z 32
_cell_length_a 14.714778
_cell_length_b 8.886221
_cell_length_c 12.308726
_cell_angle_alpha 90.000000
_cell_angle_beta 90.366129
_cell_angle_gamma 90.000000
_cell_volume 1609.441002
_symmetry_space_group_name_H-M "P 2/M"
_symmetry_group_IT_number 10
_symmetry_cell_setting 'monoclinic'
loop_
_space_group_symop_operation_xyz
x,y,z
-x,y,-z
-x,-y,-z
x,-y,z
loop_
_atom_site_type_symbol
_atom_site_label
_atom_site_fract_x
_atom_site_fract_y
_atom_site_fract_z
Si Si1 0.679301 0.827735 0.874327
Si Si2 0.155416 0.830114 0.719157
Si Si3 0.280013 0.168666 0.525189
Si Si4 0.494766 0.327979 0.836471
Si Si5 0.556094 0.670459 0.399124
Si Si6 0.785217 0.322497 0.680978
Si Si7 0.695212 0.173575 0.118062
Si Si8 0.024649 0.820132 0.378882
O O1 0.576505 0.766860 0.888270
O O2 0.738796 0.731559 0.791563
O O3 0.675231 0.000000 0.834388
O O4 0.726310 0.815740 0.992866
O O5 0.188487 0.824263 0.594254
O O6 0.224190 0.752051 0.806374
O O7 0.053471 0.763574 0.707423
O O8 0.148296 0.000000 0.760887
O O9 0.356971 0.222186 0.610287
O O10 0.277875 0.277267 0.421208
O O11 0.298714 0.000000 0.483948
O O12 0.502335 0.500000 0.876630
O O13 0.506485 0.317019 0.706920
O O14 0.396925 0.266007 0.868437
O O15 0.500000 0.731876 0.500000
O O16 0.589426 0.500000 0.418220
O O17 0.795379 0.500000 0.685997
O O18 0.882844 0.248071 0.665450
O O19 0.676834 0.000000 0.151862
O O20 0.000000 0.762639 0.500000
O O21 0.033192 0.000000 0.378827
#
# Coordination Sequence:
#
# PCOD8062707 Si02
#       8
#     4   4   4   4   4   4   4   4
#     4  11  24  41  62  85 114 158 211 255 294 346
#     4   9  18  35  61  90 118 147 188 244 294 341
#     4  11  20  35  60  86 115 153 195 238 289 351
#     4  11  22  36  58  88 123 161 200 245 299 355
#     4  10  21  35  50  77 119 161 196 237 290 349
#     4  12  25  40  59  87 125 158 193 245 304 362
#     4  10  21  40  63  88 118 157 206 254 294 344
#     4  10  19  37  64  92 120 153 195 239 290 357
#
# _framework density 19.882680000000001
#
# number of rings (size 3 to 8) (size 9 to 14) (size 15 to 20)
#    0.000    1.500    2.500    3.375    0.000    4.500 
#    0.000    1.250    0.000    3.750    0.000    0.000 
#    0.000    0.000    0.000    0.000    0.000    0.000 
#
# Total GULP energy -396727.969488 kJ/mol
# GULP energy per Si atom -12397.749046 kJ/mol
# Density = 1.983743 g / cm^3
# Si number density = 19.882680 Si / 1000 Ang^3
#
#
#
# Elastic Constant Matrix: (Units=GPa)
#
#
# Indices 1 2 3 4 5 6 
#
# 1 102.0203 33.2775 33.1306 0.0000 15.5731 0.0000
# 2 33.2775 71.7590 22.6578 0.0000 5.9679 0.0000
# 3 33.1306 22.6578 95.8823 0.0000 13.8588 0.0000
# 4 0.0000 0.0000 0.0000 19.8907 0.0000 -1.5891
# 5 15.5731 5.9679 13.8588 0.0000 20.6934 0.0000
# 6 0.0000 0.0000 0.0000 -1.5891 0.0000 20.4289
#
#
#
# Elastic Compliance Matrix: (Units=1/GPa)
#
#
# Indices 1 2 3 4 5 6 
#
# 1 0.013210 -0.004781 -0.002432 0.000000 -0.006933 0.000000
# 2 -0.004781 0.016878 -0.002384 0.000000 0.000327 0.000000
# 3 -0.002432 -0.002384 0.012698 0.000000 -0.005986 0.000000
# 4 0.000000 0.000000 0.000000 0.050589 0.000000 0.003935
# 5 -0.006933 0.000327 -0.005986 0.000000 0.057457 0.000000
# 6 0.000000 0.000000 0.000000 0.003935 0.000000 0.049256
#
#
# Mechanical properties :
#
#
# Convention : Reuss Voigt Hill
#
# Bulk Modulus (GPa) = 42.38755 49.75483 46.07119
# Shear Modulus (GPa) = 22.01210 24.24232 23.12721
#
# Velocity S-wave (km/s) = 3.33092 3.49559 3.41425
# Velocity P-wave (km/s) = 6.01319 6.43201 6.22612
#
# Compressibility (1/GPa) = 0.02359183
#
# Stress axis : x y z
#
# Youngs Moduli (GPa) = 75.70128 59.24790 78.74946
#
# Poissons Ratio (x) = 0.28328 0.19156
# Poissons Ratio (y) = 0.36195 0.18771
# Poissons Ratio (z) = 0.18414 0.14122
#
# Static dielectric constant tensor:
#      x y z
#    x 3.677800 0.000000 0.184140 
#    y 0.000000 3.480240 0.000000 
#    z 0.184140 0.000000 3.748180 
# 
# 
# High freq. dielectric constant tensor:
#      x y z
#    x 1.774350 0.000000 0.010900 
#    y 0.000000 1.760400 0.000000 
#    z 0.010900 0.000000 1.778420 
# 
# From -- ./inp_files/49901.got.cif
#   From: 2010.06.25/outbox.cif.g09.slc.cpg/sg10_25_cif.got.tgz:49901.got - 2010.06.27 22:07:45.
