data_PCOD8062998
_publ_section_title
;
Structure prediction by ZEFSAII (Michael W. Deem and Ramdas Pophale) SiO2 
 PCOD8062998
Probable space group: P 2/M
;
_chemical_formula_sum "Si O2"
_cell_formula_units_Z 30
_cell_length_a 12.873691
_cell_length_b 25.545642
_cell_length_c 15.120074
_cell_angle_alpha 90.000000
_cell_angle_beta 161.526577
_cell_angle_gamma 90.000000
_cell_volume 1575.606373
_symmetry_space_group_name_H-M "P 2/M"
_symmetry_group_IT_number 10
_symmetry_cell_setting 'monoclinic'
loop_
_space_group_symop_operation_xyz
x,y,z
-x,y,-z
-x,-y,-z
x,-y,z
loop_
_atom_site_type_symbol
_atom_site_label
_atom_site_fract_x
_atom_site_fract_y
_atom_site_fract_z
Si Si1 0.724817 0.808325 0.095091
Si Si2 0.020854 0.913766 0.274876
Si Si3 0.880690 0.000000 0.302591
Si Si4 0.214194 0.745554 0.585738
Si Si5 0.935771 0.439597 0.679147
Si Si6 0.734288 0.059778 0.856398
Si Si7 0.169080 0.439755 0.051489
Si Si8 0.878596 0.356419 0.306988
O O1 0.796070 0.862520 0.104154
O O2 0.081328 0.787986 0.410083
O O3 0.500000 0.817474 0.000000
O O4 0.575006 0.765017 0.905747
O O5 0.412231 0.903785 0.582912
O O6 0.995106 0.948877 0.342193
O O7 0.882607 0.940121 0.074744
O O8 0.000000 0.000000 0.500000
O O9 0.500000 0.000000 0.000000
O O10 0.000000 0.744024 0.500000
O O11 0.148676 0.687326 0.492574
O O12 0.046404 0.500000 0.758348
O O13 0.552428 0.432715 0.362261
O O14 0.121451 0.406760 0.755136
O O15 0.036731 0.414566 0.854535
O O16 0.631814 0.000000 0.751877
O O17 0.000000 0.080177 0.000000
O O18 0.057373 0.500000 0.960687
O O19 0.000000 0.412218 0.000000
O O20 0.000000 0.376472 0.500000
O O21 0.500000 0.334180 0.000000
#
# Coordination Sequence:
#
# PCOD8062998 Si02
#       8
#     4   4   2   4   4   4   4   4
#     4  10  20  34  55  80 109 137 174 226 270 325
#     4  12  22  38  56  84 112 149 186 220 274 329
#     4  12  24  36  51  80 123 160 178 202 260 342
#     4   9  18  34  52  74 101 137 182 228 268 307
#     4  10  20  32  49  78 111 145 185 225 272 337
#     4  11  22  39  59  80 109 148 194 238 264 301
#     4   9  17  31  50  72 102 140 181 229 274 316
#     4  11  21  34  53  77 110 150 185 224 270 323
#
# _framework density 19.040289000000001
#
# number of rings (size 3 to 8) (size 9 to 14) (size 15 to 20)
#    0.000    1.600    1.333    5.600    0.000    4.800 
#    0.000    0.000    0.000    0.000    0.000   14.000 
#    0.000    0.000    0.000    0.000    0.000    0.000 
#
# Total GULP energy -371786.679775 kJ/mol
# GULP energy per Si atom -12392.889326 kJ/mol
# Density = 1.899695 g / cm^3
# Si number density = 19.040289 Si / 1000 Ang^3
#
#
#
# Elastic Constant Matrix: (Units=GPa)
#
#
# Indices 1 2 3 4 5 6 
#
# 1 93.7191 35.9022 38.8297 0.0000 -12.1003 0.0000
# 2 35.9022 78.7302 22.1706 0.0000 2.7309 0.0000
# 3 38.8297 22.1706 105.3925 0.0000 -12.0633 0.0000
# 4 0.0000 0.0000 0.0000 30.1380 0.0000 -3.8736
# 5 -12.1003 2.7309 -12.0633 0.0000 33.8696 0.0000
# 6 0.0000 0.0000 0.0000 -3.8736 0.0000 11.5571
#
#
#
# Elastic Compliance Matrix: (Units=1/GPa)
#
#
# Indices 1 2 3 4 5 6 
#
# 1 0.015119 -0.005984 -0.003793 0.000000 0.004533 0.000000
# 2 -0.005984 0.016027 -0.001626 0.000000 -0.004009 0.000000
# 3 -0.003793 -0.001626 0.011559 0.000000 0.002893 0.000000
# 4 0.000000 0.000000 0.000000 0.034674 0.000000 0.011622
# 5 0.004533 -0.004009 0.002893 0.000000 0.032498 0.000000
# 6 0.000000 0.000000 0.000000 0.011622 0.000000 0.090423
#
#
# Mechanical properties :
#
#
# Convention : Reuss Voigt Hill
#
# Bulk Modulus (GPa) = 50.24979 52.40522 51.32750
# Shear Modulus (GPa) = 21.76389 27.17557 24.46973
#
# Velocity S-wave (km/s) = 3.38456 3.78202 3.58880
# Velocity P-wave (km/s) = 6.45928 6.83042 6.64744
#
# Compressibility (1/GPa) = 0.01990058
#
# Stress axis : x y z
#
# Youngs Moduli (GPa) = 66.14137 62.39401 86.51397
#
# Poissons Ratio (x) = 0.37335 0.32812
# Poissons Ratio (y) = 0.39577 0.14065
# Poissons Ratio (z) = 0.25086 0.10144
#
# Static dielectric constant tensor:
#      x y z
#    x 3.490950 0.000000 -0.199760 
#    y 0.000000 3.541360 0.000000 
#    z -0.199760 0.000000 3.702650 
# 
# 
# High freq. dielectric constant tensor:
#      x y z
#    x 1.725730 0.000000 -0.023530 
#    y 0.000000 1.711580 0.000000 
#    z -0.023530 0.000000 1.756120 
# 
# From -- ./inp_files/65550.got.cif
#   From: 2010.06.25/outbox.cif.g09.slc.cpg/sg10_33_cif.got.tgz:65550.got - 2010.06.27 22:07:45.
