data_PCOD8062182
_publ_section_title
;
Structure prediction by ZEFSAII (Michael W. Deem and Ramdas Pophale) SiO2 
 PCOD8062182
Probable space group: P 2/M
;
_chemical_formula_sum "Si O2"
_cell_formula_units_Z 28
_cell_length_a 26.717443
_cell_length_b 9.172264
_cell_length_c 9.304361
_cell_angle_alpha 90.000000
_cell_angle_beta 40.813402
_cell_angle_gamma 90.000000
_cell_volume 1490.282065
_symmetry_space_group_name_H-M "P 2/M"
_symmetry_group_IT_number 10
_symmetry_cell_setting 'monoclinic'
loop_
_space_group_symop_operation_xyz
x,y,z
-x,y,-z
-x,-y,-z
x,-y,z
loop_
_atom_site_type_symbol
_atom_site_label
_atom_site_fract_x
_atom_site_fract_y
_atom_site_fract_z
Si Si1 0.575998 0.669826 0.917484
Si Si2 0.915816 0.670544 0.646076
Si Si3 0.736283 0.174340 0.539219
Si Si4 0.693991 0.159882 0.152345
Si Si5 0.576141 0.341507 0.246000
Si Si6 0.821493 0.160069 0.639652
Si Si7 0.212104 0.670872 0.843746
O O1 0.591680 0.500000 0.849394
O O2 0.651190 0.759824 0.707889
O O3 0.500000 0.725055 0.000000
O O4 0.557642 0.699726 0.123210
O O5 0.916402 0.500000 0.616436
O O6 0.890215 0.739167 0.548602
O O7 0.000000 0.730466 0.500000
O O8 0.861896 0.708806 0.899069
O O9 0.775743 0.225937 0.602871
O O10 0.791952 0.239230 0.295485
O O11 0.731275 0.000000 0.539916
O O12 0.623985 0.212809 0.210063
O O13 0.711301 0.274672 0.241021
O O14 0.674922 0.000000 0.259038
O O15 0.765675 0.146101 0.894052
O O16 0.500000 0.355073 0.500000
O O17 0.618832 0.500000 0.158365
O O18 0.854035 0.000000 0.528206
O O19 0.219219 0.500000 0.796367
#
# Coordination Sequence:
#
# PCOD8062182 Si02
#       7
#     4   4   4   4   4   4   4
#     4  10  22  38  55  78 110 150 192 234 283 335
#     4   9  19  37  61  88 115 143 182 229 274 327
#     4  11  22  38  57  82 115 150 190 235 279 332
#     4  10  19  35  55  78 106 141 185 232 277 325
#     4  10  21  35  52  76 107 142 184 231 279 332
#     4   9  19  35  56  81 111 145 183 222 269 330
#     4  10  21  36  57  84 112 145 185 227 278 334
#
# _framework density 18.788388999999999
#
# number of rings (size 3 to 8) (size 9 to 14) (size 15 to 20)
#    0.000    2.143    1.429    1.286    2.000    3.143 
#    0.000    0.714    0.000    4.286    0.000    0.000 
#    0.000    0.000    0.000    0.000    0.000    0.000 
#
# Total GULP energy -347097.388855 kJ/mol
# GULP energy per Si atom -12396.335316 kJ/mol
# Density = 1.874563 g / cm^3
# Si number density = 18.788389 Si / 1000 Ang^3
#
#
#
# Elastic Constant Matrix: (Units=GPa)
#
#
# Indices 1 2 3 4 5 6 
#
# 1 132.9905 55.3058 45.3446 0.0000 -9.3662 0.0000
# 2 55.3058 86.1010 40.0563 0.0000 -4.9244 0.0000
# 3 45.3446 40.0563 65.6778 0.0000 1.9256 0.0000
# 4 0.0000 0.0000 0.0000 22.8098 0.0000 2.3384
# 5 -9.3662 -4.9244 1.9256 0.0000 29.7044 0.0000
# 6 0.0000 0.0000 0.0000 2.3384 0.0000 31.0950
#
#
#
# Elastic Compliance Matrix: (Units=1/GPa)
#
#
# Indices 1 2 3 4 5 6 
#
# 1 0.011480 -0.004836 -0.005069 0.000000 0.003147 0.000000
# 2 -0.004836 0.018589 -0.008059 0.000000 0.002079 0.000000
# 3 -0.005069 -0.008059 0.023772 0.000000 -0.004475 0.000000
# 4 0.000000 0.000000 0.000000 0.044181 0.000000 -0.003323
# 5 0.003147 0.002079 -0.004475 0.000000 0.035292 0.000000
# 6 0.000000 0.000000 0.000000 -0.003323 0.000000 0.032409
#
#
# Mechanical properties :
#
#
# Convention : Reuss Voigt Hill
#
# Bulk Modulus (GPa) = 55.82643 62.90918 59.36781
# Shear Modulus (GPa) = 24.08199 26.32601 25.20400
#
# Velocity S-wave (km/s) = 3.58404 3.74730 3.66658
# Velocity P-wave (km/s) = 6.84871 7.23040 7.04214
#
# Compressibility (1/GPa) = 0.01791266
#
# Stress axis : x y z
#
# Youngs Moduli (GPa) = 87.10462 53.79525 42.06629
#
# Poissons Ratio (x) = 0.26016 0.21323
# Poissons Ratio (y) = 0.42125 0.33902
# Poissons Ratio (z) = 0.44153 0.43355
#
# Static dielectric constant tensor:
#      x y z
#    x 3.503410 0.000000 0.128420 
#    y 0.000000 3.720810 0.000000 
#    z 0.128420 0.000000 3.312300 
# 
# 
# High freq. dielectric constant tensor:
#      x y z
#    x 1.731780 0.000000 0.011940 
#    y 0.000000 1.733880 0.000000 
#    z 0.011940 0.000000 1.711700 
# 
# From -- ./inp_files/31609.got.cif
#   From: 2010.06.25/outbox.cif.g09.slc.cpg/sg10_16_cif.got.tgz:31609.got - 2010.06.27 22:07:45.
