data_PCOD8062267
_publ_section_title
;
Structure prediction by ZEFSAII (Michael W. Deem and Ramdas Pophale) SiO2 
 PCOD8062267
Probable space group: P 2/M
;
_chemical_formula_sum "Si O2"
_cell_formula_units_Z 28
_cell_length_a 13.716038
_cell_length_b 8.931464
_cell_length_c 12.692763
_cell_angle_alpha 90.000000
_cell_angle_beta 67.277592
_cell_angle_gamma 90.000000
_cell_volume 1434.236333
_symmetry_space_group_name_H-M "P 2/M"
_symmetry_group_IT_number 10
_symmetry_cell_setting 'monoclinic'
loop_
_space_group_symop_operation_xyz
x,y,z
-x,y,-z
-x,-y,-z
x,-y,z
loop_
_atom_site_type_symbol
_atom_site_label
_atom_site_fract_x
_atom_site_fract_y
_atom_site_fract_z
Si Si1 0.889664 0.177531 0.085924
Si Si2 0.504144 0.824357 0.185489
Si Si3 0.190338 0.822990 0.658763
Si Si4 0.118312 0.677147 0.474401
Si Si5 0.717749 0.677404 0.772468
Si Si6 0.578991 0.821974 0.380010
Si Si7 0.279511 0.175541 0.011986
O O1 0.879286 0.225735 0.211763
O O2 0.889824 0.000000 0.078176
O O3 0.792326 0.235398 0.054823
O O4 0.000000 0.246462 0.000000
O O5 0.399229 0.736912 0.199772
O O6 0.543905 0.762283 0.281046
O O7 0.477258 0.000000 0.200675
O O8 0.597022 0.791966 0.062796
O O9 0.148808 0.742780 0.573517
O O10 0.306697 0.762359 0.636050
O O11 0.188812 0.000000 0.640216
O O12 0.122268 0.500000 0.479977
O O13 0.200041 0.734685 0.350914
O O14 0.000000 0.734026 0.500000
O O15 0.715014 0.500000 0.777202
O O16 0.757251 0.738768 0.868098
O O17 0.500000 0.757660 0.500000
O O18 0.579852 0.000000 0.376338
O O19 0.261485 0.000000 0.037635
#
# Coordination Sequence:
#
# PCOD8062267 Si02
#       7
#     4   4   4   4   4   4   4
#     4   9  18  33  56  88 120 144 174 229 287 328
#     4  10  19  35  57  84 115 148 185 224 278 340
#     4  10  19  35  60  89 112 137 184 234 276 328
#     4  10  24  44  59  75 110 155 191 231 284 334
#     4  11  24  39  56  80 112 150 193 237 279 325
#     4   9  16  28  51  81 112 141 172 219 272 324
#     4  10  20  36  59  86 117 151 184 223 280 341
#
# _framework density 19.522583999999998
#
# number of rings (size 3 to 8) (size 9 to 14) (size 15 to 20)
#    0.000    2.143    1.429    1.714    2.000    4.857 
#    0.000    1.429    0.000    3.429    0.000    0.000 
#    0.000    0.000    0.000    0.000    0.000    0.000 
#
# Total GULP energy -347191.892640 kJ/mol
# GULP energy per Si atom -12399.710451 kJ/mol
# Density = 1.947815 g / cm^3
# Si number density = 19.522584 Si / 1000 Ang^3
#
#
#
# Elastic Constant Matrix: (Units=GPa)
#
#
# Indices 1 2 3 4 5 6 
#
# 1 99.9035 22.1694 62.0735 0.0000 -0.8629 0.0000
# 2 22.1694 23.3725 27.8427 0.0000 -0.2173 0.0000
# 3 62.0735 27.8427 165.1855 0.0000 1.6157 0.0000
# 4 0.0000 0.0000 0.0000 -2.4715 0.0000 -24.5263
# 5 -0.8629 -0.2173 1.6157 0.0000 43.0117 0.0000
# 6 0.0000 0.0000 0.0000 -24.5263 0.0000 -10.3215
#
#
#
# Elastic Compliance Matrix: (Units=1/GPa)
#
#
# Indices 1 2 3 4 5 6 
#
# 1 0.014449 -0.009045 -0.003909 0.000000 0.000391 0.000000
# 2 -0.009045 0.059213 -0.006585 0.000000 0.000365 0.000000
# 3 -0.003909 -0.006585 0.008637 0.000000 -0.000436 0.000000
# 4 0.000000 0.000000 0.000000 0.017918 0.000000 -0.042578
# 5 0.000391 0.000365 -0.000436 0.000000 0.023276 0.000000
# 6 0.000000 0.000000 0.000000 -0.042578 0.000000 0.004291
#
#
# Mechanical properties :
#
#
# Convention : Reuss Voigt Hill
#
# Bulk Modulus (GPa) = 23.13724 56.95919 40.04822
# Shear Modulus (GPa) = 27.58348 17.80213 22.69281
#
# Velocity S-wave (km/s) = 3.76294 3.02300 3.41308
# Velocity P-wave (km/s) = 5.54588 6.43616 6.00753
#
# Compressibility (1/GPa) = 0.04322036
#
# Stress axis : x y z
#
# Youngs Moduli (GPa) = 69.20934 16.88828 115.78226
#
# Poissons Ratio (x) = 0.15275 0.45258
# Poissons Ratio (y) = 0.62600 0.76245
# Poissons Ratio (z) = 0.27053 0.11121
#
# Static dielectric constant tensor:
#      x y z
#    x 3.781110 0.000000 -0.079570 
#    y 0.000000 3.126400 0.000000 
#    z -0.079570 0.000000 3.890270 
# 
# 
# High freq. dielectric constant tensor:
#      x y z
#    x 1.772710 0.000000 0.001130 
#    y 0.000000 1.714040 0.000000 
#    z 0.001130 0.000000 1.780730 
# 
# From -- ./inp_files/49584.got.cif
#   From: 2010.06.25/outbox.cif.g09.slc.cpg/sg10_25_cif.got.tgz:49584.got - 2010.06.27 22:07:45.
