data_PCOD8062772
_publ_section_title
;
Structure prediction by ZEFSAII (Michael W. Deem and Ramdas Pophale) SiO2 
 PCOD8062772
Probable space group: P 2/M
;
_chemical_formula_sum "Si O2"
_cell_formula_units_Z 28
_cell_length_a 12.066114
_cell_length_b 14.875643
_cell_length_c 9.657722
_cell_angle_alpha 90.000000
_cell_angle_beta 128.497031
_cell_angle_gamma 90.000000
_cell_volume 1356.688493
_symmetry_space_group_name_H-M "P 2/M"
_symmetry_group_IT_number 10
_symmetry_cell_setting 'monoclinic'
loop_
_space_group_symop_operation_xyz
x,y,z
-x,y,-z
-x,-y,-z
x,-y,z
loop_
_atom_site_type_symbol
_atom_site_label
_atom_site_fract_x
_atom_site_fract_y
_atom_site_fract_z
Si Si1 0.856538 0.167961 0.256752
Si Si2 0.740254 0.403474 0.937791
Si Si3 0.026223 0.364384 0.668620
Si Si4 0.149671 0.102196 0.439238
Si Si5 0.418682 0.236666 0.074260
Si Si6 0.394106 0.780586 0.534716
Si Si7 0.243798 0.604586 0.363695
O O1 0.908316 0.268859 0.321094
O O2 0.824913 0.123253 0.379411
O O3 0.982460 0.115873 0.274160
O O4 0.712521 0.168638 0.054215
O O5 0.660940 0.500000 0.872913
O O6 0.630054 0.327940 0.891712
O O7 0.801804 0.383444 0.832255
O O8 0.865795 0.414646 0.146520
O O9 0.000000 0.414296 0.500000
O O10 0.879904 0.359072 0.635375
O O11 0.245017 0.165957 0.415146
O O12 0.192299 0.000000 0.441495
O O13 0.532327 0.192013 0.263745
O O14 0.500000 0.264050 0.000000
O O15 0.500000 0.816608 0.500000
O O16 0.372600 0.672705 0.498667
O O17 0.283191 0.500000 0.427129
#
# Coordination Sequence:
#
# PCOD8062772 Si02
#       7
#     4   4   4   4   4   4   4
#     4  10  19  39  66  95 127 163 211 259 323 386
#     4  10  23  39  57  89 128 175 229 270 321 383
#     4  11  20  36  61  94 130 168 218 274 322 380
#     4  11  22  42  72 100 128 164 215 271 327 394
#     4  11  23  40  64  91 134 172 208 269 330 392
#     4  12  24  44  65  98 133 174 217 265 331 393
#     4  11  23  40  62  89 130 180 226 268 318 386
#
# _framework density 20.638489
#
# number of rings (size 3 to 8) (size 9 to 14) (size 15 to 20)
#    0.000    1.143    5.714    1.714    2.000    3.714 
#    0.000    2.857    0.000    0.857    0.000    0.000 
#    0.000    0.000    0.000    0.000    0.000    0.000 
#
# Total GULP energy -347059.279061 kJ/mol
# GULP energy per Si atom -12394.974252 kJ/mol
# Density = 2.059151 g / cm^3
# Si number density = 20.638489 Si / 1000 Ang^3
#
#
#
# Elastic Constant Matrix: (Units=GPa)
#
#
# Indices 1 2 3 4 5 6 
#
# 1 129.0421 28.7860 28.8626 0.0000 -9.9328 0.0000
# 2 28.7860 97.7190 15.0119 0.0000 4.5080 0.0000
# 3 28.8626 15.0119 104.6926 0.0000 -1.9673 0.0000
# 4 0.0000 0.0000 0.0000 26.0511 0.0000 3.1917
# 5 -9.9328 4.5080 -1.9673 0.0000 34.4685 0.0000
# 6 0.0000 0.0000 0.0000 3.1917 0.0000 22.7815
#
#
#
# Elastic Compliance Matrix: (Units=1/GPa)
#
#
# Indices 1 2 3 4 5 6 
#
# 1 0.008975 -0.002454 -0.002070 0.000000 0.002789 0.000000
# 2 -0.002454 0.011209 -0.000972 0.000000 -0.002229 0.000000
# 3 -0.002070 -0.000972 0.010264 0.000000 0.000117 0.000000
# 4 0.000000 0.000000 0.000000 0.039057 0.000000 -0.005472
# 5 0.002789 -0.002229 0.000117 0.000000 0.030114 0.000000
# 6 0.000000 0.000000 0.000000 -0.005472 0.000000 0.044662
#
#
# Mechanical properties :
#
#
# Convention : Reuss Voigt Hill
#
# Bulk Modulus (GPa) = 51.40364 52.97495 52.18930
# Shear Modulus (GPa) = 30.91044 33.91309 32.41177
#
# Velocity S-wave (km/s) = 3.87422 4.05803 3.96719
# Velocity P-wave (km/s) = 6.70623 6.90511 6.80640
#
# Compressibility (1/GPa) = 0.01945387
#
# Stress axis : x y z
#
# Youngs Moduli (GPa) = 111.42606 89.21679 97.42756
#
# Poissons Ratio (x) = 0.21897 0.20166
# Poissons Ratio (y) = 0.27349 0.09474
# Poissons Ratio (z) = 0.23063 0.08676
#
# Static dielectric constant tensor:
#      x y z
#    x 3.786270 0.000000 0.082560 
#    y 0.000000 3.564000 0.000000 
#    z 0.082560 0.000000 3.943640 
# 
# 
# High freq. dielectric constant tensor:
#      x y z
#    x 1.814800 0.000000 0.000330 
#    y 0.000000 1.790110 0.000000 
#    z 0.000330 0.000000 1.800520 
# 
# From -- ./inp_files/25426.got.cif
#   From: 2010.06.25/outbox.cif.g09.slc.cpg/sg10_13_cif.got.tgz:25426.got - 2010.06.27 22:07:45.
