data_PCOD8062141
_publ_section_title
;
Structure prediction by ZEFSAII (Michael W. Deem and Ramdas Pophale) SiO2 
 PCOD8062141
Probable space group: P 2/M
;
_chemical_formula_sum "Si O2"
_cell_formula_units_Z 28
_cell_length_a 8.725383
_cell_length_b 15.555037
_cell_length_c 20.046216
_cell_angle_alpha 90.000000
_cell_angle_beta 149.713703
_cell_angle_gamma 90.000000
_cell_volume 1372.129518
_symmetry_space_group_name_H-M "P 2/M"
_symmetry_group_IT_number 10
_symmetry_cell_setting 'monoclinic'
loop_
_space_group_symop_operation_xyz
x,y,z
-x,y,-z
-x,-y,-z
x,-y,z
loop_
_atom_site_type_symbol
_atom_site_label
_atom_site_fract_x
_atom_site_fract_y
_atom_site_fract_z
Si Si1 0.046256 0.350877 0.442093
Si Si2 0.232012 0.402208 0.793481
Si Si3 0.414408 0.249969 0.041976
Si Si4 0.643970 0.695974 0.621633
Si Si5 0.238233 0.818337 0.211797
Si Si6 0.959129 0.000000 0.394164
Si Si7 0.253377 0.183930 0.708643
Si Si8 0.460199 0.000000 0.320861
O O1 0.394777 0.372912 0.554528
O O2 0.000000 0.382558 0.500000
O O3 0.816722 0.399167 0.305216
O O4 0.005572 0.247187 0.417984
O O5 0.257193 0.500000 0.826913
O O6 0.544624 0.353595 0.932810
O O7 0.956943 0.354119 0.727965
O O8 0.658997 0.210498 0.184115
O O9 0.500000 0.219940 0.000000
O O10 0.083030 0.215473 0.936436
O O11 0.500000 0.736845 0.500000
O O12 0.680856 0.768978 0.690571
O O13 0.470957 0.804194 0.239288
O O14 0.236408 0.919276 0.228861
O O15 0.865698 0.911868 0.323218
O O16 0.753020 0.000000 0.382766
O O17 0.330853 0.000000 0.534363
#
# Coordination Sequence:
#
# PCOD8062141 Si02
#       8
#     4   4   4   4   4   2   4   2
#     4  10  19  34  62  93 121 156 186 240 308 359
#     4  10  23  42  62  86 113 151 203 249 295 362
#     4  11  23  41  62  83 116 162 204 245 295 356
#     4  10  20  35  61  86 120 157 194 237 299 363
#     4  11  20  39  60  88 120 160 202 244 283 347
#     4   9  18  35  59  95 122 158 196 245 281 343
#     4  10  21  36  63  89 122 157 206 242 287 341
#     4   9  20  33  60  92 123 151 198 244 290 338
#
# _framework density 20.406236
#
# number of rings (size 3 to 8) (size 9 to 14) (size 15 to 20)
#    0.000    1.857    2.857    1.286    2.000    3.714 
#    0.000    3.929    0.000    6.857    0.000    0.000 
#    0.000    0.000    0.000    0.000    0.000    0.000 
#
# Total GULP energy -346941.352501 kJ/mol
# GULP energy per Si atom -12390.762589 kJ/mol
# Density = 2.035979 g / cm^3
# Si number density = 20.406236 Si / 1000 Ang^3
#
#
#
# Elastic Constant Matrix: (Units=GPa)
#
#
# Indices 1 2 3 4 5 6 
#
# 1 98.2399 26.8754 29.1204 0.0000 -14.4545 0.0000
# 2 26.8754 138.8587 44.2924 0.0000 7.1081 0.0000
# 3 29.1204 44.2924 95.8495 0.0000 6.7689 0.0000
# 4 0.0000 0.0000 0.0000 21.1839 0.0000 5.2716
# 5 -14.4545 7.1081 6.7689 0.0000 35.2065 0.0000
# 6 0.0000 0.0000 0.0000 5.2716 0.0000 21.9969
#
#
#
# Elastic Compliance Matrix: (Units=1/GPa)
#
#
# Indices 1 2 3 4 5 6 
#
# 1 0.012570 -0.001632 -0.003500 0.000000 0.006163 0.000000
# 2 -0.001632 0.008691 -0.003395 0.000000 -0.001772 0.000000
# 3 -0.003500 -0.003395 0.013299 0.000000 -0.003308 0.000000
# 4 0.000000 0.000000 0.000000 0.050199 0.000000 -0.012030
# 5 0.006163 -0.001772 -0.003308 0.000000 0.031928 0.000000
# 6 0.000000 0.000000 0.000000 -0.012030 0.000000 0.048344
#
#
# Mechanical properties :
#
#
# Convention : Reuss Voigt Hill
#
# Bulk Modulus (GPa) = 57.12464 59.28050 58.20257
# Shear Modulus (GPa) = 26.60691 31.18813 28.89752
#
# Velocity S-wave (km/s) = 3.61482 3.91367 3.76721
# Velocity P-wave (km/s) = 6.74367 7.03816 6.89249
#
# Compressibility (1/GPa) = 0.01750558
#
# Stress axis : x y z
#
# Youngs Moduli (GPa) = 79.55516 115.05992 75.19376
#
# Poissons Ratio (x) = 0.18777 0.26318
# Poissons Ratio (y) = 0.12983 0.25530
# Poissons Ratio (z) = 0.27845 0.39066
#
# Static dielectric constant tensor:
#      x y z
#    x 3.741120 0.000000 0.018440 
#    y 0.000000 3.620260 0.000000 
#    z 0.018440 0.000000 3.811560 
# 
# 
# High freq. dielectric constant tensor:
#      x y z
#    x 1.796560 0.000000 -0.005490 
#    y 0.000000 1.779720 0.000000 
#    z -0.005490 0.000000 1.800370 
# 
# From -- ./inp_files/82950.got.cif
#   From: 2010.06.25/outbox.cif.g09.slc.cpg/sg10_42_cif.got.tgz:82950.got - 2010.06.27 22:07:45.
