data_PCOD8062541
_publ_section_title
;
Structure prediction by ZEFSAII (Michael W. Deem and Ramdas Pophale) SiO2 
 PCOD8062541
Probable space group: P 2/M
;
_chemical_formula_sum "Si O2"
_cell_formula_units_Z 28
_cell_length_a 18.037771
_cell_length_b 8.745964
_cell_length_c 20.157781
_cell_angle_alpha 90.000000
_cell_angle_beta 152.319133
_cell_angle_gamma 90.000000
_cell_volume 1477.278358
_symmetry_space_group_name_H-M "P 2/M"
_symmetry_group_IT_number 10
_symmetry_cell_setting 'monoclinic'
loop_
_space_group_symop_operation_xyz
x,y,z
-x,y,-z
-x,-y,-z
x,-y,z
loop_
_atom_site_type_symbol
_atom_site_label
_atom_site_fract_x
_atom_site_fract_y
_atom_site_fract_z
Si Si1 0.496327 0.679877 0.650237
Si Si2 0.771112 0.818938 0.348156
Si Si3 0.335307 0.827249 0.330475
Si Si4 0.929156 0.317938 0.349105
Si Si5 0.180357 0.318971 0.325475
Si Si6 0.129192 0.680987 0.845822
Si Si7 0.532859 0.318745 0.830351
O O1 0.512553 0.500000 0.656890
O O2 0.642131 0.750672 0.723574
O O3 0.325709 0.737025 0.487466
O O4 0.511832 0.734092 0.738001
O O5 0.806903 0.763702 0.302007
O O6 0.592450 0.770566 0.223767
O O7 0.890452 0.734921 0.493519
O O8 0.794027 0.000000 0.371393
O O9 0.500000 0.812414 0.500000
O O10 0.199075 0.743654 0.265536
O O11 0.280946 0.000000 0.276661
O O12 0.917689 0.500000 0.348421
O O13 0.882457 0.261646 0.238900
O O14 0.177048 0.500000 0.318979
O O15 0.017550 0.251861 0.227540
O O16 0.116889 0.500000 0.837025
O O17 0.293967 0.736437 0.008329
O O18 0.508617 0.500000 0.819595
#
# Coordination Sequence:
#
# PCOD8062541 Si02
#       7
#     4   4   4   4   4   4   4
#     4   9  17  30  52  76  99 130 169 213 258 303
#     4  11  22  36  54  80 109 137 171 212 259 308
#     4   9  17  29  47  73 101 129 166 211 257 304
#     4  10  19  36  60  82 103 133 174 217 259 303
#     4   9  16  30  51  75 100 128 167 213 258 303
#     4   9  19  34  55  80 104 133 174 219 258 303
#     4  10  20  36  55  77 105 138 175 213 257 308
#
# _framework density 18.953773999999999
#
# number of rings (size 3 to 8) (size 9 to 14) (size 15 to 20)
#    0.000    2.429    0.000    3.857    0.000    5.143 
#    0.000   10.000    0.000    4.286    0.000    0.000 
#    0.000    0.000    0.000    0.000    0.000    0.000 
#
# Total GULP energy -347222.042986 kJ/mol
# GULP energy per Si atom -12400.787250 kJ/mol
# Density = 1.891063 g / cm^3
# Si number density = 18.953774 Si / 1000 Ang^3
#
#
#
# Elastic Constant Matrix: (Units=GPa)
#
#
# Indices 1 2 3 4 5 6 
#
# 1 154.4495 34.0193 77.8258 0.0000 20.6223 0.0000
# 2 34.0193 46.3964 23.5783 0.0000 4.0002 0.0000
# 3 77.8258 23.5783 96.8598 0.0000 16.2571 0.0000
# 4 0.0000 0.0000 0.0000 10.0668 0.0000 2.1788
# 5 20.6223 4.0002 16.2571 0.0000 13.5818 0.0000
# 6 0.0000 0.0000 0.0000 2.1788 0.0000 6.7517
#
#
#
# Elastic Compliance Matrix: (Units=1/GPa)
#
#
# Indices 1 2 3 4 5 6 
#
# 1 0.012333 -0.004564 -0.007360 0.000000 -0.008573 0.000000
# 2 -0.004564 0.026285 -0.003248 0.000000 0.003075 0.000000
# 3 -0.007360 -0.003248 0.018761 0.000000 -0.010325 0.000000
# 4 0.000000 0.000000 0.000000 0.106796 0.000000 -0.034464
# 5 -0.008573 0.003075 -0.010325 0.000000 0.098098 0.000000
# 6 0.000000 0.000000 0.000000 -0.034464 0.000000 0.159234
#
#
# Mechanical properties :
#
#
# Convention : Reuss Voigt Hill
#
# Bulk Modulus (GPa) = 36.98638 63.17249 50.07943
# Shear Modulus (GPa) = 10.84927 16.89888 13.87408
#
# Velocity S-wave (km/s) = 2.39510 2.98918 2.70848
# Velocity P-wave (km/s) = 5.21584 6.73170 6.02166
#
# Compressibility (1/GPa) = 0.02703698
#
# Stress axis : x y z
#
# Youngs Moduli (GPa) = 81.08415 38.04455 53.30164
#
# Poissons Ratio (x) = 0.17362 0.39228
# Poissons Ratio (y) = 0.37004 0.17311
# Poissons Ratio (z) = 0.59674 0.12356
#
# Static dielectric constant tensor:
#      x y z
#    x 3.708930 0.000000 0.026300 
#    y 0.000000 3.241150 0.000000 
#    z 0.026300 0.000000 3.386370 
# 
# 
# High freq. dielectric constant tensor:
#      x y z
#    x 1.754570 0.000000 0.003980 
#    y 0.000000 1.718370 0.000000 
#    z 0.003980 0.000000 1.713100 
# 
# From -- ./inp_files/85663.got.cif
#   From: 2010.06.25/outbox.cif.g09.slc.cpg/sg10_43_cif.got.tgz:85663.got - 2010.06.27 22:07:45.
