data_PCOD8062431
_publ_section_title
;
Structure prediction by ZEFSAII (Michael W. Deem and Ramdas Pophale) SiO2 
 PCOD8062431
Probable space group: P 2/M
;
_chemical_formula_sum "Si O2"
_cell_formula_units_Z 20
_cell_length_a 18.637150
_cell_length_b 8.913719
_cell_length_c 7.842426
_cell_angle_alpha 90.000000
_cell_angle_beta 49.928394
_cell_angle_gamma 90.000000
_cell_volume 996.980868
_symmetry_space_group_name_H-M "P 2/M"
_symmetry_group_IT_number 10
_symmetry_cell_setting 'monoclinic'
loop_
_space_group_symop_operation_xyz
x,y,z
-x,y,-z
-x,-y,-z
x,-y,z
loop_
_atom_site_type_symbol
_atom_site_label
_atom_site_fract_x
_atom_site_fract_y
_atom_site_fract_z
Si Si1 0.902531 0.676998 0.083709
Si Si2 0.104218 0.323360 0.287982
Si Si3 0.389874 0.673363 0.665427
Si Si4 0.291969 0.676308 0.468736
Si Si5 0.284299 0.822960 0.137131
O O1 0.915910 0.500000 0.055241
O O2 0.817010 0.720993 0.337050
O O3 0.878617 0.732376 0.930713
O O4 0.000000 0.750495 0.000000
O O5 0.120648 0.500000 0.287996
O O6 0.178046 0.237291 0.292529
O O7 0.000000 0.276935 0.500000
O O8 0.500000 0.699289 0.500000
O O9 0.362060 0.500000 0.736094
O O10 0.351534 0.728969 0.541479
O O11 0.344405 0.767439 0.885851
O O12 0.304427 0.500000 0.419465
O O13 0.329428 0.762159 0.244394
O O14 0.285059 0.000000 0.138274
#
# Coordination Sequence:
#
# PCOD8062431 Si02
#       5
#     4   4   4   4   4
#     4   9  16  29  54  88 117 148 195 250 303 349
#     4  10  19  35  61  89 120 160 210 260 301 353
#     4  10  22  43  70  94 116 152 208 267 313 356
#     4  10  20  38  63  88 120 157 204 259 302 358
#     4  12  25  39  59  89 131 169 199 244 307 379
#
# _framework density 20.060563999999999
#
# number of rings (size 3 to 8) (size 9 to 14) (size 15 to 20)
#    0.000    1.800    2.000    3.000    0.000    5.600 
#    0.000    4.000    0.000    2.400    0.000    0.000 
#    0.000    0.000    0.000    0.000    0.000    0.000 
#
# Total GULP energy -248034.225856 kJ/mol
# GULP energy per Si atom -12401.711293 kJ/mol
# Density = 2.001491 g / cm^3
# Si number density = 20.060564 Si / 1000 Ang^3
#
#
#
# Elastic Constant Matrix: (Units=GPa)
#
#
# Indices 1 2 3 4 5 6 
#
# 1 136.4989 49.7853 62.9254 0.0000 16.3096 0.0000
# 2 49.7853 84.1415 57.6841 0.0000 9.9763 0.0000
# 3 62.9254 57.6841 103.7715 0.0000 20.5345 0.0000
# 4 0.0000 0.0000 0.0000 15.6386 0.0000 -0.6310
# 5 16.3096 9.9763 20.5345 0.0000 37.8267 0.0000
# 6 0.0000 0.0000 0.0000 -0.6310 0.0000 5.2625
#
#
#
# Elastic Compliance Matrix: (Units=1/GPa)
#
#
# Indices 1 2 3 4 5 6 
#
# 1 0.010685 -0.003075 -0.004502 0.000000 -0.001352 0.000000
# 2 -0.003075 0.020110 -0.009553 0.000000 0.001208 0.000000
# 3 -0.004502 -0.009553 0.018815 0.000000 -0.005753 0.000000
# 4 0.000000 0.000000 0.000000 0.064255 0.000000 0.007705
# 5 -0.001352 0.001208 -0.005753 0.000000 0.029824 0.000000
# 6 0.000000 0.000000 0.000000 0.007705 0.000000 0.190946
#
#
# Mechanical properties :
#
#
# Convention : Reuss Voigt Hill
#
# Bulk Modulus (GPa) = 65.14864 73.91129 69.52996
# Shear Modulus (GPa) = 13.36851 22.01337 17.69094
#
# Velocity S-wave (km/s) = 2.58429 3.31621 2.97286
# Velocity P-wave (km/s) = 6.43826 7.18242 6.82049
#
# Compressibility (1/GPa) = 0.01534952
#
# Stress axis : x y z
#
# Youngs Moduli (GPa) = 93.59228 49.72567 53.14796
#
# Poissons Ratio (x) = 0.15292 0.23927
# Poissons Ratio (y) = 0.28782 0.50773
# Poissons Ratio (z) = 0.42136 0.47504
#
# Static dielectric constant tensor:
#      x y z
#    x 3.936550 0.000000 0.080800 
#    y 0.000000 3.200560 0.000000 
#    z 0.080800 0.000000 3.667690 
# 
# 
# High freq. dielectric constant tensor:
#      x y z
#    x 1.797950 0.000000 0.008530 
#    y 0.000000 1.736040 0.000000 
#    z 0.008530 0.000000 1.790510 
# 
# From -- ./inp_files/31426.got.cif
#   From: 2010.06.25/outbox.cif.g09.slc.cpg/sg10_16_cif.got.tgz:31426.got - 2010.06.27 22:07:45.
