data_PCOD8062798
_publ_section_title
;
Structure prediction by ZEFSAII (Michael W. Deem and Ramdas Pophale) SiO2 
 PCOD8062798
Probable space group: P 2/M
;
_chemical_formula_sum "Si O2"
_cell_formula_units_Z 30
_cell_length_a 27.656106
_cell_length_b 8.989152
_cell_length_c 17.195645
_cell_angle_alpha 90.000000
_cell_angle_beta 156.902337
_cell_angle_gamma 90.000000
_cell_volume 1677.050302
_symmetry_space_group_name_H-M "P 2/M"
_symmetry_group_IT_number 10
_symmetry_cell_setting 'monoclinic'
loop_
_space_group_symop_operation_xyz
x,y,z
-x,y,-z
-x,-y,-z
x,-y,z
loop_
_atom_site_type_symbol
_atom_site_label
_atom_site_fract_x
_atom_site_fract_y
_atom_site_fract_z
Si Si1 0.000000 0.752014 0.000000
Si Si2 0.489176 0.675888 0.704178
Si Si3 0.794687 0.321926 0.909802
Si Si4 0.258080 0.833107 0.324610
Si Si5 0.448778 0.674391 0.037201
Si Si6 0.403717 0.174652 0.289618
Si Si7 0.055916 0.333915 0.251954
Si Si8 0.309046 0.677153 0.685532
O O1 0.121108 0.847328 0.157920
O O2 0.036840 0.657616 0.130341
O O3 0.478885 0.500000 0.674242
O O4 0.353171 0.744245 0.520602
O O5 0.571992 0.713196 0.902958
O O6 0.550954 0.756894 0.723524
O O7 0.785138 0.500000 0.895057
O O8 0.730723 0.257972 0.738414
O O9 0.726381 0.253654 0.883305
O O10 0.936427 0.263374 0.117639
O O11 0.306433 0.000000 0.380602
O O12 0.462952 0.500000 0.046807
O O13 0.578432 0.742882 0.198961
O O14 0.334392 0.726046 0.813266
O O15 0.500000 0.212278 0.500000
O O16 0.382487 0.000000 0.248560
O O17 0.065428 0.500000 0.297152
O O18 0.180830 0.249869 0.464239
O O19 0.300905 0.500000 0.664321
#
# Coordination Sequence:
#
# PCOD8062798 Si02
#       8
#     2   4   4   4   4   4   4   4
#     4  10  20  30  44  68 101 138 173 202 231 288
#     4  11  21  32  51  77 101 126 164 213 256 293
#     4  10  20  33  50  73  98 128 166 206 248 294
#     4  11  21  33  46  67  99 137 170 198 240 295
#     4   8  15  26  45  75 103 131 165 202 246 294
#     4  11  22  36  53  72  97 132 169 204 252 308
#     4   9  17  28  46  73 104 134 164 205 252 296
#     4   8  13  26  46  70 106 139 162 195 245 298
#
# _framework density 17.888551
#
# number of rings (size 3 to 8) (size 9 to 14) (size 15 to 20)
#    0.000    2.267    1.333    3.600    0.000    3.200 
#    0.000    0.000    0.000    0.800    0.000   32.667 
#    0.000    0.000    0.000    0.000    0.000    0.000 
#
# Total GULP energy -371679.766916 kJ/mol
# GULP energy per Si atom -12389.325564 kJ/mol
# Density = 1.784784 g / cm^3
# Si number density = 17.888551 Si / 1000 Ang^3
#
#
#
# Elastic Constant Matrix: (Units=GPa)
#
#
# Indices 1 2 3 4 5 6 
#
# 1 113.5347 31.4307 57.5838 0.0000 -2.6862 0.0000
# 2 31.4307 67.0159 22.7604 0.0000 -1.2028 0.0000
# 3 57.5838 22.7604 122.8459 0.0000 -7.0879 0.0000
# 4 0.0000 0.0000 0.0000 8.8934 0.0000 6.0219
# 5 -2.6862 -1.2028 -7.0879 0.0000 26.9968 0.0000
# 6 0.0000 0.0000 0.0000 6.0219 0.0000 9.7817
#
#
#
# Elastic Compliance Matrix: (Units=1/GPa)
#
#
# Indices 1 2 3 4 5 6 
#
# 1 0.012553 -0.004149 -0.005132 0.000000 -0.000283 0.000000
# 2 -0.004149 0.017296 -0.001258 0.000000 0.000027 0.000000
# 3 -0.005132 -0.001258 0.010911 0.000000 0.002298 0.000000
# 4 0.000000 0.000000 0.000000 0.192823 0.000000 -0.118709
# 5 -0.000283 0.000027 0.002298 0.000000 0.037618 0.000000
# 6 0.000000 0.000000 0.000000 -0.118709 0.000000 0.175314
#
#
# Mechanical properties :
#
#
# Convention : Reuss Voigt Hill
#
# Bulk Modulus (GPa) = 50.80819 58.54958 54.67889
# Shear Modulus (GPa) = 10.54512 21.90914 16.22713
#
# Velocity S-wave (km/s) = 2.43058 3.50345 3.01512
# Velocity P-wave (km/s) = 6.02837 7.01190 6.53866
#
# Compressibility (1/GPa) = 0.01968186
#
# Stress axis : x y z
#
# Youngs Moduli (GPa) = 79.66484 57.81801 91.64796
#
# Poissons Ratio (x) = 0.23992 0.47030
# Poissons Ratio (y) = 0.33057 0.11528
# Poissons Ratio (z) = 0.40880 0.07272
#
# Static dielectric constant tensor:
#      x y z
#    x 3.338980 0.000000 0.021850 
#    y 0.000000 2.980600 0.000000 
#    z 0.021850 0.000000 3.674760 
# 
# 
# High freq. dielectric constant tensor:
#      x y z
#    x 1.684270 0.000000 0.005000 
#    y 0.000000 1.661480 0.000000 
#    z 0.005000 0.000000 1.686260 
# 
# From -- ./inp_files/80742.got.cif
#   From: 2010.06.25/outbox.cif.g09.slc.cpg/sg10_41_cif.got.tgz:80742.got - 2010.06.27 22:07:45.
