data_PCOD8062981
_publ_section_title
;
Structure prediction by ZEFSAII (Michael W. Deem and Ramdas Pophale) SiO2 
 PCOD8062981
Probable space group: P 2/M
;
_chemical_formula_sum "Si O2"
_cell_formula_units_Z 24
_cell_length_a 8.595535
_cell_length_b 16.576078
_cell_length_c 20.555737
_cell_angle_alpha 90.000000
_cell_angle_beta 27.058174
_cell_angle_gamma 90.000000
_cell_volume 1332.290230
_symmetry_space_group_name_H-M "P 2/M"
_symmetry_group_IT_number 10
_symmetry_cell_setting 'monoclinic'
loop_
_space_group_symop_operation_xyz
x,y,z
-x,y,-z
-x,-y,-z
x,-y,z
loop_
_atom_site_type_symbol
_atom_site_label
_atom_site_fract_x
_atom_site_fract_y
_atom_site_fract_z
Si Si1 0.789933 0.659353 0.441844
Si Si2 0.595010 0.500000 0.286595
Si Si3 0.945619 0.204550 0.944483
Si Si4 0.225776 0.328699 0.750319
Si Si5 0.841428 0.765303 0.787758
Si Si6 0.927020 0.500000 0.624574
Si Si7 0.096575 0.088661 0.151199
O O1 0.500000 0.631603 0.500000
O O2 0.610906 0.681085 0.577425
O O3 0.054627 0.584334 0.343233
O O4 0.982694 0.740142 0.345616
O O5 0.832477 0.422294 0.210273
O O6 0.262557 0.500000 0.455286
O O7 0.444076 0.500000 0.270253
O O8 0.031032 0.124510 0.870548
O O9 0.198701 0.275865 0.826383
O O10 0.561779 0.232047 0.071575
O O11 0.000000 0.185756 0.000000
O O12 0.934251 0.301365 0.807889
O O13 0.997706 0.850975 0.754211
O O14 0.928513 0.000000 0.224276
O O15 0.500000 0.079638 0.000000
#
# Coordination Sequence:
#
# PCOD8062981 Si02
#       7
#     4   2   4   4   4   2   4
#     4   9  17  30  51  72  96 128 169 204 241 290
#     4   9  18  30  47  69  94 132 171 206 240 283
#     4  10  20  32  49  73 102 128 160 202 247 291
#     4   9  18  34  50  66  98 131 168 202 243 288
#     4   9  18  32  51  75  97 128 161 201 245 290
#     4   9  17  28  45  72 100 125 165 211 245 276
#     4   8  15  31  53  74  97 126 160 196 236 290
#
# _framework density 18.014092000000002
#
# number of rings (size 3 to 8) (size 9 to 14) (size 15 to 20)
#    0.000    3.000    0.000    1.750    2.333    2.333 
#    0.000    2.917    0.000   12.500    0.000    0.000 
#    0.000   26.667    0.000    0.000    0.000    0.000 
#
# Total GULP energy -297378.688215 kJ/mol
# GULP energy per Si atom -12390.778676 kJ/mol
# Density = 1.797309 g / cm^3
# Si number density = 18.014092 Si / 1000 Ang^3
#
#
#
# Elastic Constant Matrix: (Units=GPa)
#
#
# Indices 1 2 3 4 5 6 
#
# 1 74.9584 57.8193 25.5582 0.0000 5.4298 0.0000
# 2 57.8193 174.5124 49.2301 0.0000 10.5457 0.0000
# 3 25.5582 49.2301 50.9528 0.0000 13.9091 0.0000
# 4 0.0000 0.0000 0.0000 21.1114 0.0000 3.6032
# 5 5.4298 10.5457 13.9091 0.0000 26.2329 0.0000
# 6 0.0000 0.0000 0.0000 3.6032 0.0000 17.2265
#
#
#
# Elastic Compliance Matrix: (Units=1/GPa)
#
#
# Indices 1 2 3 4 5 6 
#
# 1 0.018703 -0.004865 -0.004862 0.000000 0.000662 0.000000
# 2 -0.004865 0.009166 -0.006647 0.000000 0.000846 0.000000
# 3 -0.004862 -0.006647 0.032134 0.000000 -0.013359 0.000000
# 4 0.000000 0.000000 0.000000 0.049121 0.000000 -0.010275
# 5 0.000662 0.000846 -0.013359 0.000000 0.044726 0.000000
# 6 0.000000 0.000000 0.000000 -0.010275 0.000000 0.060199
#
#
# Mechanical properties :
#
#
# Convention : Reuss Voigt Hill
#
# Bulk Modulus (GPa) = 36.68997 62.84875 49.76936
# Shear Modulus (GPa) = 19.54021 24.10188 21.82105
#
# Velocity S-wave (km/s) = 3.29708 3.66176 3.48420
# Velocity P-wave (km/s) = 5.90812 7.26928 6.62376
#
# Compressibility (1/GPa) = 0.02725541
#
# Stress axis : x y z
#
# Youngs Moduli (GPa) = 53.46659 109.09711 31.12002
#
# Poissons Ratio (x) = 0.53079 0.15130
# Poissons Ratio (y) = 0.26013 0.20685
# Poissons Ratio (z) = 0.25994 0.72515
#
# Static dielectric constant tensor:
#      x y z
#    x 3.316150 0.000000 0.230270 
#    y 0.000000 3.730550 0.000000 
#    z 0.230270 0.000000 3.251180 
# 
# 
# High freq. dielectric constant tensor:
#      x y z
#    x 1.686820 0.000000 0.008320 
#    y 0.000000 1.695880 0.000000 
#    z 0.008320 0.000000 1.664350 
# 
# From -- ./inp_files/82973.got.cif
#   From: 2010.06.25/outbox.cif.g09.slc.cpg/sg10_42_cif.got.tgz:82973.got - 2010.06.27 22:07:45.
