data_PCOD8062214
_publ_section_title
;
Structure prediction by ZEFSAII (Michael W. Deem and Ramdas Pophale) SiO2 
 PCOD8062214
Probable space group: P 2/M
;
_chemical_formula_sum "Si O2"
_cell_formula_units_Z 28
_cell_length_a 25.320013
_cell_length_b 8.303672
_cell_length_c 9.605733
_cell_angle_alpha 90.000000
_cell_angle_beta 135.421276
_cell_angle_gamma 90.000000
_cell_volume 1417.531805
_symmetry_space_group_name_H-M "P 2/M"
_symmetry_group_IT_number 10
_symmetry_cell_setting 'monoclinic'
loop_
_space_group_symop_operation_xyz
x,y,z
-x,y,-z
-x,-y,-z
x,-y,z
loop_
_atom_site_type_symbol
_atom_site_label
_atom_site_fract_x
_atom_site_fract_y
_atom_site_fract_z
Si Si1 0.929455 0.814093 0.782585
Si Si2 0.706342 0.814557 0.705177
Si Si3 0.312396 0.687064 0.900031
Si Si4 0.053144 0.682169 0.481136
Si Si5 0.809299 0.820648 0.139468
Si Si6 0.241357 0.192980 0.491809
Si Si7 0.584179 0.191479 0.692734
O O1 0.949531 0.792845 0.658915
O O2 0.845603 0.741429 0.656082
O O3 0.925978 0.000000 0.815823
O O4 0.000000 0.734323 0.000000
O O5 0.721958 0.739134 0.582477
O O6 0.637495 0.739973 0.666279
O O7 0.686703 0.000000 0.646741
O O8 0.785255 0.791898 0.935117
O O9 0.292682 0.500000 0.882702
O O10 0.263344 0.807142 0.901070
O O11 0.297690 0.735626 0.713077
O O12 0.395270 0.725791 0.118816
O O13 0.030929 0.500000 0.399607
O O14 0.134803 0.683262 0.704280
O O15 0.000000 0.756278 0.500000
O O16 0.843702 0.000000 0.223132
O O17 0.240543 0.000000 0.497936
O O18 0.500000 0.245132 0.500000
O O19 0.592036 0.000000 0.721397
#
# Coordination Sequence:
#
# PCOD8062214 Si02
#       7
#     4   4   4   4   4   4   4
#     4  10  22  37  56  80 106 143 190 236 281 326
#     4   8  17  32  55  84 108 134 178 230 276 318
#     4  11  21  34  55  82 113 147 180 219 273 334
#     4  11  24  38  52  76 110 145 182 228 283 335
#     4  10  19  35  58  80 102 138 187 234 274 321
#     4  10  19  35  56  79 110 144 183 231 274 326
#     4   9  18  36  61  86 112 144 184 228 272 322
#
# _framework density 19.752644
#
# number of rings (size 3 to 8) (size 9 to 14) (size 15 to 20)
#    0.000    2.143    1.429    3.000    2.000    1.714 
#    0.000    4.286    0.000    4.286    0.000    0.000 
#    0.000    0.000    0.000    0.000    0.000    0.000 
#
# Total GULP energy -346930.970804 kJ/mol
# GULP energy per Si atom -12390.391814 kJ/mol
# Density = 1.970769 g / cm^3
# Si number density = 19.752644 Si / 1000 Ang^3
#
#
#
# Elastic Constant Matrix: (Units=GPa)
#
#
# Indices 1 2 3 4 5 6 
#
# 1 101.1326 12.5269 75.5336 0.0000 -14.8369 0.0000
# 2 12.5269 33.3230 26.1138 0.0000 -1.3328 0.0000
# 3 75.5336 26.1138 166.4896 0.0000 -7.7343 0.0000
# 4 0.0000 0.0000 0.0000 23.0726 0.0000 -6.2216
# 5 -14.8369 -1.3328 -7.7343 0.0000 35.4030 0.0000
# 6 0.0000 0.0000 0.0000 -6.2216 0.0000 24.3811
#
#
#
# Elastic Compliance Matrix: (Units=1/GPa)
#
#
# Indices 1 2 3 4 5 6 
#
# 1 0.015826 -0.000347 -0.006888 0.000000 0.005114 0.000000
# 2 -0.000347 0.034223 -0.005210 0.000000 0.000005 0.000000
# 3 -0.006888 -0.005210 0.009906 0.000000 -0.000919 0.000000
# 4 0.000000 0.000000 0.000000 0.046544 0.000000 0.011877
# 5 0.005114 0.000005 -0.000919 0.000000 0.030189 0.000000
# 6 0.000000 0.000000 0.000000 0.011877 0.000000 0.044046
#
#
# Mechanical properties :
#
#
# Convention : Reuss Voigt Hill
#
# Bulk Modulus (GPa) = 28.51894 58.81041 43.66467
# Shear Modulus (GPa) = 23.00839 29.02274 26.01557
#
# Velocity S-wave (km/s) = 3.41666 3.83732 3.63308
# Velocity P-wave (km/s) = 5.48034 7.03359 6.30498
#
# Compressibility (1/GPa) = 0.03506442
#
# Stress axis : x y z
#
# Youngs Moduli (GPa) = 63.18846 29.22016 100.95077
#
# Poissons Ratio (x) = 0.01014 0.69533
# Poissons Ratio (y) = 0.02192 0.52597
# Poissons Ratio (z) = 0.43523 0.15224
#
# Static dielectric constant tensor:
#      x y z
#    x 3.784750 0.000000 0.269420 
#    y 0.000000 3.194130 0.000000 
#    z 0.269420 0.000000 4.392710 
# 
# 
# High freq. dielectric constant tensor:
#      x y z
#    x 1.752080 0.000000 -0.007440 
#    y 0.000000 1.742560 0.000000 
#    z -0.007440 0.000000 1.780600 
# 
# From -- ./inp_files/37320.got.cif
#   From: 2010.06.25/outbox.cif.g09.slc.cpg/sg10_19_cif.got.tgz:37320.got - 2010.06.27 22:07:45.
