data_PCOD8062714
_publ_section_title
;
Structure prediction by ZEFSAII (Michael W. Deem and Ramdas Pophale) SiO2 
 PCOD8062714
Probable space group: P 2/M
;
_chemical_formula_sum "Si O2"
_cell_formula_units_Z 32
_cell_length_a 24.828882
_cell_length_b 9.022833
_cell_length_c 23.635109
_cell_angle_alpha 90.000000
_cell_angle_beta 18.020429
_cell_angle_gamma 90.000000
_cell_volume 1638.009232
_symmetry_space_group_name_H-M "P 2/M"
_symmetry_group_IT_number 10
_symmetry_cell_setting 'monoclinic'
loop_
_space_group_symop_operation_xyz
x,y,z
-x,y,-z
-x,-y,-z
x,-y,z
loop_
_atom_site_type_symbol
_atom_site_label
_atom_site_fract_x
_atom_site_fract_y
_atom_site_fract_z
Si Si1 0.198198 0.329623 0.793629
Si Si2 0.700726 0.827390 0.918064
Si Si3 0.309801 0.826795 0.313918
Si Si4 0.995351 0.327783 0.318086
Si Si5 0.985176 0.672374 0.196979
Si Si6 0.322598 0.824783 0.558921
Si Si7 0.673630 0.329181 0.210068
Si Si8 0.805280 0.824478 0.691826
O O1 0.204013 0.500000 0.767172
O O2 0.285710 0.228325 0.659233
O O3 0.304805 0.307787 0.744481
O O4 0.000000 0.278603 0.000000
O O5 0.703605 0.773774 0.849723
O O6 0.838306 0.737683 0.816803
O O7 0.751029 0.000000 0.871417
O O8 0.508252 0.797092 0.134604
O O9 0.184430 0.744155 0.482347
O O10 0.285185 0.763922 0.274725
O O11 0.264187 0.000000 0.361649
O O12 0.985903 0.500000 0.341147
O O13 0.019242 0.295512 0.228315
O O14 0.949170 0.500000 0.220391
O O15 0.819324 0.764499 0.342869
O O16 0.153684 0.727493 0.994132
O O17 0.511262 0.766728 0.350747
O O18 0.321622 0.000000 0.557838
O O19 0.638097 0.500000 0.230336
O O20 0.000000 0.759990 0.500000
O O21 0.807364 0.000000 0.686635
#
# Coordination Sequence:
#
# PCOD8062714 Si02
#       8
#     4   4   4   4   4   4   4   4
#     4  10  19  37  65  91 117 157 204 237 273 339
#     4  10  20  36  60  87 116 151 193 241 288 344
#     4  10  20  36  60  88 118 151 192 237 288 348
#     4  11  24  40  60  84 115 152 195 246 294 343
#     4  10  23  45  65  81 107 155 210 247 279 336
#     4  12  25  38  59  93 129 154 181 237 306 355
#     4  10  21  40  66  88 113 155 204 242 276 337
#     4   9  15  29  57  87 114 149 192 236 281 339
#
# _framework density 19.535910000000001
#
# number of rings (size 3 to 8) (size 9 to 14) (size 15 to 20)
#    0.000    1.750    2.500    2.250    0.000    6.750 
#    0.000    5.000    0.000    1.500    0.000    0.000 
#    0.000    0.000    0.000    0.000    0.000    0.000 
#
# Total GULP energy -396887.714248 kJ/mol
# GULP energy per Si atom -12402.741070 kJ/mol
# Density = 1.949145 g / cm^3
# Si number density = 19.535910 Si / 1000 Ang^3
#
#
#
# Elastic Constant Matrix: (Units=GPa)
#
#
# Indices 1 2 3 4 5 6 
#
# 1 59.2246 33.9447 31.4556 0.0000 11.5534 0.0000
# 2 33.9447 78.9360 47.8843 0.0000 -2.9388 0.0000
# 3 31.4556 47.8843 109.0497 0.0000 -14.8959 0.0000
# 4 0.0000 0.0000 0.0000 19.8197 0.0000 0.0038
# 5 11.5534 -2.9388 -14.8959 0.0000 17.9464 0.0000
# 6 0.0000 0.0000 0.0000 0.0038 0.0000 24.2229
#
#
#
# Elastic Compliance Matrix: (Units=1/GPa)
#
#
# Indices 1 2 3 4 5 6 
#
# 1 0.033820 -0.009800 -0.009751 0.000000 -0.031471 0.000000
# 2 -0.009800 0.020355 -0.005407 0.000000 0.005154 0.000000
# 3 -0.009751 -0.005407 0.017024 0.000000 0.019522 0.000000
# 4 0.000000 0.000000 0.000000 0.050455 0.000000 -0.000008
# 5 -0.031471 0.005154 0.019522 0.000000 0.093029 0.000000
# 6 0.000000 0.000000 0.000000 -0.000008 0.000000 0.041283
#
#
# Mechanical properties :
#
#
# Convention : Reuss Voigt Hill
#
# Bulk Modulus (GPa) = 46.98722 52.64217 49.81469
# Shear Modulus (GPa) = 15.97568 21.32617 18.65093
#
# Velocity S-wave (km/s) = 2.86275 3.30758 3.09317
# Velocity P-wave (km/s) = 5.91870 6.44916 6.18962
#
# Compressibility (1/GPa) = 0.02128238
#
# Stress axis : x y z
#
# Youngs Moduli (GPa) = 29.56832 49.12882 58.74169
#
# Poissons Ratio (x) = 0.48146 0.57279
# Poissons Ratio (y) = 0.28977 0.31761
# Poissons Ratio (z) = 0.28832 0.26564
#
# Static dielectric constant tensor:
#      x y z
#    x 3.585210 0.000000 0.012320 
#    y 0.000000 3.321740 0.000000 
#    z 0.012320 0.000000 3.721650 
# 
# 
# High freq. dielectric constant tensor:
#      x y z
#    x 1.761980 0.000000 -0.003540 
#    y 0.000000 1.732730 0.000000 
#    z -0.003540 0.000000 1.777050 
# 
# From -- ./inp_files/90549.got.cif
#   From: 2010.06.25/outbox.cif.g09.slc.cpg/sg10_46_cif.got.tgz:90549.got - 2010.06.27 22:07:45.
