data_PCOD8062845
_publ_section_title
;
Structure prediction by ZEFSAII (Michael W. Deem and Ramdas Pophale) SiO2 
 PCOD8062845
Probable space group: P 2/M
;
_chemical_formula_sum "Si O2"
_cell_formula_units_Z 22
_cell_length_a 14.934589
_cell_length_b 13.070833
_cell_length_c 14.189484
_cell_angle_alpha 90.000000
_cell_angle_beta 153.673193
_cell_angle_gamma 90.000000
_cell_volume 1228.421886
_symmetry_space_group_name_H-M "P 2/M"
_symmetry_group_IT_number 10
_symmetry_cell_setting 'monoclinic'
loop_
_space_group_symop_operation_xyz
x,y,z
-x,y,-z
-x,-y,-z
x,-y,z
loop_
_atom_site_type_symbol
_atom_site_label
_atom_site_fract_x
_atom_site_fract_y
_atom_site_fract_z
Si Si1 0.783812 0.111376 0.171874
Si Si2 0.500000 0.729571 0.000000
Si Si3 0.473942 0.889260 0.257529
Si Si4 0.919052 0.880566 0.025479
Si Si5 0.166979 0.618633 0.577068
Si Si6 0.120875 0.213871 0.391361
O O1 0.018122 0.139271 0.372465
O O2 0.775709 0.000000 0.215265
O O3 0.679873 0.198507 0.134401
O O4 0.675849 0.104442 0.970761
O O5 0.610571 0.658953 0.181650
O O6 0.642092 0.805870 0.396965
O O7 0.578439 0.000000 0.373280
O O8 0.324449 0.862944 0.203904
O O9 0.020160 0.801478 0.194490
O O10 0.970191 0.000000 0.097634
O O11 0.000000 0.849759 0.000000
O O12 0.187139 0.500000 0.572720
O O13 0.099922 0.672434 0.415491
O O14 0.000000 0.638459 0.500000
#
# Coordination Sequence:
#
# PCOD8062845 Si02
#       6
#     4   2   4   4   4   4
#     4  10  20  31  48  78 111 142 175 213 258 327
#     4  12  20  38  52  76 106 144 178 228 274 318
#     4   9  17  30  50  75 109 145 175 208 258 321
#     4   9  19  34  53  83 117 145 177 214 261 332
#     4  11  24  40  57  77 103 142 193 238 275 316
#     4  11  19  35  55  77 108 143 182 223 273 316
#
# _framework density 17.909157
#
# number of rings (size 3 to 8) (size 9 to 14) (size 15 to 20)
#    0.000    1.818    3.636    3.273    0.000    0.727 
#    0.000    3.636    0.000    0.545    0.000    1.273 
#    0.000    0.000    0.000    0.000    0.000    0.000 
#
# Total GULP energy -272606.846017 kJ/mol
# GULP energy per Si atom -12391.220273 kJ/mol
# Density = 1.786840 g / cm^3
# Si number density = 17.909157 Si / 1000 Ang^3
#
#
#
# Elastic Constant Matrix: (Units=GPa)
#
#
# Indices 1 2 3 4 5 6 
#
# 1 107.9282 61.9897 37.5483 0.0000 10.9013 0.0000
# 2 61.9897 122.2835 44.9718 0.0000 -0.7269 0.0000
# 3 37.5483 44.9718 70.1074 0.0000 11.0814 0.0000
# 4 0.0000 0.0000 0.0000 15.8672 0.0000 -6.9276
# 5 10.9013 -0.7269 11.0814 0.0000 29.9079 0.0000
# 6 0.0000 0.0000 0.0000 -6.9276 0.0000 15.0708
#
#
#
# Elastic Compliance Matrix: (Units=1/GPa)
#
#
# Indices 1 2 3 4 5 6 
#
# 1 0.014280 -0.006147 -0.003036 0.000000 -0.004229 0.000000
# 2 -0.006147 0.013605 -0.006204 0.000000 0.004870 0.000000
# 3 -0.003036 -0.006204 0.020945 0.000000 -0.006805 0.000000
# 4 0.000000 0.000000 0.000000 0.078847 0.000000 0.036244
# 5 -0.004229 0.004870 -0.006805 0.000000 0.037617 0.000000
# 6 0.000000 0.000000 0.000000 0.036244 0.000000 0.083014
#
#
# Mechanical properties :
#
#
# Convention : Reuss Voigt Hill
#
# Bulk Modulus (GPa) = 55.38902 65.48207 60.43555
# Shear Modulus (GPa) = 17.53760 22.55647 20.04703
#
# Velocity S-wave (km/s) = 3.13270 3.55278 3.34933
# Velocity P-wave (km/s) = 6.63927 7.31249 6.98400
#
# Compressibility (1/GPa) = 0.01805412
#
# Stress axis : x y z
#
# Youngs Moduli (GPa) = 70.02945 73.50346 47.74320
#
# Poissons Ratio (x) = 0.45186 0.14495
# Poissons Ratio (y) = 0.43050 0.29622
# Poissons Ratio (z) = 0.21261 0.45605
#
# Static dielectric constant tensor:
#      x y z
#    x 3.465550 0.000000 0.254000 
#    y 0.000000 3.231080 0.000000 
#    z 0.254000 0.000000 3.287890 
# 
# 
# High freq. dielectric constant tensor:
#      x y z
#    x 1.687540 0.000000 0.022290 
#    y 0.000000 1.663830 0.000000 
#    z 0.022290 0.000000 1.692000 
# 
# From -- ./inp_files/58946.got.cif
#   From: 2010.06.25/outbox.cif.g09.slc.cpg/sg10_30_cif.got.tgz:58946.got - 2010.06.27 22:07:45.
