data_PCOD8062335
_publ_section_title
;
Structure prediction by ZEFSAII (Michael W. Deem and Ramdas Pophale) SiO2 
 PCOD8062335
Probable space group: P 2/M
;
_chemical_formula_sum "Si O2"
_cell_formula_units_Z 32
_cell_length_a 27.978799
_cell_length_b 8.988411
_cell_length_c 21.643208
_cell_angle_alpha 90.000000
_cell_angle_beta 161.236291
_cell_angle_gamma 90.000000
_cell_volume 1750.809187
_symmetry_space_group_name_H-M "P 2/M"
_symmetry_group_IT_number 10
_symmetry_cell_setting 'monoclinic'
loop_
_space_group_symop_operation_xyz
x,y,z
-x,y,-z
-x,-y,-z
x,-y,z
loop_
_atom_site_type_symbol
_atom_site_label
_atom_site_fract_x
_atom_site_fract_y
_atom_site_fract_z
Si Si1 0.144151 0.172663 0.554558
Si Si2 0.167478 0.675766 0.825551
Si Si3 0.351497 0.823753 0.698885
Si Si4 0.841080 0.324728 0.783753
Si Si5 0.684978 0.172350 0.109096
Si Si6 0.540328 0.325076 0.480079
Si Si7 0.610290 0.827888 0.814691
Si Si8 0.302115 0.828593 0.502427
O O1 0.247656 0.234881 0.626388
O O2 0.230054 0.193757 0.723268
O O3 0.002183 0.276123 0.380335
O O4 0.099858 0.000000 0.490607
O O5 0.180954 0.500000 0.845821
O O6 0.235780 0.731275 0.845465
O O7 0.248771 0.745394 0.984238
O O8 0.286153 0.770047 0.553001
O O9 0.357654 0.000000 0.708038
O O10 0.518484 0.765167 0.913583
O O11 0.850632 0.500000 0.790105
O O12 0.709931 0.277305 0.670863
O O13 0.808924 0.263749 0.676204
O O14 0.000000 0.259213 0.000000
O O15 0.685895 0.000000 0.088889
O O16 0.500000 0.276561 0.500000
O O17 0.519081 0.500000 0.444126
O O18 0.424749 0.240792 0.294901
O O19 0.472505 0.803736 0.691897
O O20 0.649406 0.000000 0.853820
O O21 0.256954 0.000000 0.440730
#
# Coordination Sequence:
#
# PCOD8062335 Si02
#       8
#     4   4   4   4   4   4   4   4
#     4  10  21  36  57  82 111 144 179 225 279 329
#     4  12  24  37  54  78 112 149 185 226 275 327
#     4   9  17  34  58  84 110 137 178 227 276 323
#     4   9  18  33  52  75 105 141 177 211 251 310
#     4  10  19  36  61  84 105 139 185 228 272 329
#     4   9  18  34  55  79 110 143 176 215 265 321
#     4  10  19  35  59  82 106 139 186 232 267 316
#     4   9  17  32  56  81 106 135 173 224 266 310
#
# _framework density 18.277263000000001
#
# number of rings (size 3 to 8) (size 9 to 14) (size 15 to 20)
#    0.000    2.250    1.250    2.250    0.000    4.500 
#    2.250    1.250    0.000    1.500    0.000    0.000 
#    0.000    0.000    0.000    0.000    0.000    0.000 
#
# Total GULP energy -396846.672462 kJ/mol
# GULP energy per Si atom -12401.458514 kJ/mol
# Density = 1.823566 g / cm^3
# Si number density = 18.277263 Si / 1000 Ang^3
#
#
#
# Elastic Constant Matrix: (Units=GPa)
#
#
# Indices 1 2 3 4 5 6 
#
# 1 138.4603 53.2147 78.4183 0.0000 -4.7049 0.0000
# 2 53.2147 57.9861 44.1860 0.0000 -2.9635 0.0000
# 3 78.4183 44.1860 140.7193 0.0000 -1.7728 0.0000
# 4 0.0000 0.0000 0.0000 13.7478 0.0000 -33.8108
# 5 -4.7049 -2.9635 -1.7728 0.0000 25.7269 0.0000
# 6 0.0000 0.0000 0.0000 -33.8108 0.0000 -70.7245
#
#
#
# Elastic Compliance Matrix: (Units=1/GPa)
#
#
# Indices 1 2 3 4 5 6 
#
# 1 0.013150 -0.008463 -0.004657 0.000000 0.001109 0.000000
# 2 -0.008463 0.028232 -0.004131 0.000000 0.001420 0.000000
# 3 -0.004657 -0.004131 0.010991 0.000000 -0.000570 0.000000
# 4 0.000000 0.000000 0.000000 0.033432 0.000000 -0.015983
# 5 0.001109 0.001420 -0.000570 0.000000 0.039197 0.000000
# 6 0.000000 0.000000 0.000000 -0.015983 0.000000 -0.006499
#
#
# Mechanical properties :
#
#
# Convention : Reuss Voigt Hill
#
# Bulk Modulus (GPa) = 55.95178 76.53374 66.24276
# Shear Modulus (GPa) = 31.45405 4.50651 17.98028
#
# Velocity S-wave (km/s) = 4.15292 1.57194 3.13988
# Velocity P-wave (km/s) = 7.32632 6.72750 7.03328
#
# Compressibility (1/GPa) = 0.01787253
#
# Stress axis : x y z
#
# Youngs Moduli (GPa) = 76.04680 35.42042 90.98032
#
# Poissons Ratio (x) = 0.29975 0.42367
# Poissons Ratio (y) = 0.64355 0.37585
# Poissons Ratio (z) = 0.35413 0.14633
#
# Static dielectric constant tensor:
#      x y z
#    x 3.503400 0.000000 -0.020060 
#    y 0.000000 3.190770 0.000000 
#    z -0.020060 0.000000 3.469920 
# 
# 
# High freq. dielectric constant tensor:
#      x y z
#    x 1.711210 0.000000 -0.008670 
#    y 0.000000 1.688810 0.000000 
#    z -0.008670 0.000000 1.713890 
# 
# From -- ./inp_files/86747.got.cif
#   From: 2010.06.25/outbox.cif.g09.slc.cpg/sg10_44_cif.got.tgz:86747.got - 2010.06.27 22:07:45.
