data_PCOD8062058
_publ_section_title
;
Structure prediction by ZEFSAII (Michael W. Deem and Ramdas Pophale) SiO2 
 PCOD8062058
Probable space group: P 2/M
;
_chemical_formula_sum "Si O2"
_cell_formula_units_Z 32
_cell_length_a 13.441676
_cell_length_b 9.238478
_cell_length_c 22.500523
_cell_angle_alpha 90.000000
_cell_angle_beta 145.976086
_cell_angle_gamma 90.000000
_cell_volume 1563.423845
_symmetry_space_group_name_H-M "P 2/M"
_symmetry_group_IT_number 10
_symmetry_cell_setting 'monoclinic'
loop_
_space_group_symop_operation_xyz
x,y,z
-x,y,-z
-x,-y,-z
x,-y,z
loop_
_atom_site_type_symbol
_atom_site_label
_atom_site_fract_x
_atom_site_fract_y
_atom_site_fract_z
Si Si1 0.686489 0.164897 0.804969
Si Si2 0.052912 0.174047 0.260003
Si Si3 0.333316 0.841739 0.945963
Si Si4 0.722052 0.662148 0.281023
Si Si5 0.666322 0.247292 0.928187
Si Si6 0.054920 0.335856 0.143093
Si Si7 0.338798 0.669017 0.619791
Si Si8 0.055659 0.331469 0.377303
O O1 0.679266 0.163355 0.872814
O O2 0.859833 0.253993 0.870885
O O3 0.515147 0.241138 0.690909
O O4 0.698579 0.000000 0.788517
O O5 0.126734 0.248308 0.236686
O O6 0.850015 0.232774 0.162893
O O7 0.134527 0.238956 0.360889
O O8 0.075290 0.000000 0.266980
O O9 0.331158 0.000000 0.915196
O O10 0.500000 0.753621 0.000000
O O11 0.347126 0.863389 0.023770
O O12 0.793948 0.500000 0.321454
O O13 0.516340 0.660971 0.158650
O O14 0.736310 0.729753 0.354331
O O15 0.863150 0.732753 0.304347
O O16 0.842233 0.343048 0.027300
O O17 0.124916 0.500000 0.182213
O O18 0.391683 0.500000 0.652194
O O19 0.193237 0.695454 0.498134
O O20 0.047006 0.500000 0.354266
#
# Coordination Sequence:
#
# PCOD8062058 Si02
#       8
#     4   4   4   4   4   4   4   4
#     4  11  23  38  58  83 112 146 185 233 287 338
#     4  10  21  36  54  78 110 146 185 230 279 333
#     4   9  17  30  48  72 107 150 187 217 257 314
#     4   9  17  31  53  83 116 149 186 225 268 322
#     4  10  20  33  54  83 117 149 183 223 271 323
#     4  11  23  39  59  82 110 145 187 234 281 331
#     4   9  19  36  57  82 113 148 188 233 278 326
#     4  10  19  34  58  84 112 149 189 230 276 326
#
# _framework density 20.467898999999999
#
# number of rings (size 3 to 8) (size 9 to 14) (size 15 to 20)
#    0.000    2.125    0.000    3.375    0.000    6.000 
#    0.000    3.125    0.000   13.500    0.000    0.000 
#    0.000    0.000    0.000    0.000    0.000    0.000 
#
# Total GULP energy -396491.040369 kJ/mol
# GULP energy per Si atom -12390.345012 kJ/mol
# Density = 2.042131 g / cm^3
# Si number density = 20.467899 Si / 1000 Ang^3
#
#
#
# Elastic Constant Matrix: (Units=GPa)
#
#
# Indices 1 2 3 4 5 6 
#
# 1 89.3237 33.3144 33.9338 0.0000 -3.1378 0.0000
# 2 33.3144 102.7410 26.5345 0.0000 -1.5670 0.0000
# 3 33.9338 26.5345 78.6655 0.0000 -8.4610 0.0000
# 4 0.0000 0.0000 0.0000 15.7592 0.0000 -3.7879
# 5 -3.1378 -1.5670 -8.4610 0.0000 28.5210 0.0000
# 6 0.0000 0.0000 0.0000 -3.7879 0.0000 26.2802
#
#
#
# Elastic Compliance Matrix: (Units=1/GPa)
#
#
# Indices 1 2 3 4 5 6 
#
# 1 0.014371 -0.003349 -0.005081 0.000000 -0.000110 0.000000
# 2 -0.003349 0.011449 -0.002468 0.000000 -0.000472 0.000000
# 3 -0.005081 -0.002468 0.016178 0.000000 0.004105 0.000000
# 4 0.000000 0.000000 0.000000 0.065732 0.000000 0.009474
# 5 -0.000110 -0.000472 0.004105 0.000000 0.036242 0.000000
# 6 0.000000 0.000000 0.000000 0.009474 0.000000 0.039417
#
#
# Mechanical properties :
#
#
# Convention : Reuss Voigt Hill
#
# Bulk Modulus (GPa) = 49.50180 50.92172 50.21176
# Shear Modulus (GPa) = 23.59385 25.90859 24.75122
#
# Velocity S-wave (km/s) = 3.39886 3.56169 3.48123
# Velocity P-wave (km/s) = 6.29608 6.46893 6.38309
#
# Compressibility (1/GPa) = 0.02020129
#
# Stress axis : x y z
#
# Youngs Moduli (GPa) = 69.58537 87.34079 61.81267
#
# Poissons Ratio (x) = 0.29252 0.31409
# Poissons Ratio (y) = 0.23305 0.15255
# Poissons Ratio (z) = 0.35358 0.21555
#
# Static dielectric constant tensor:
#      x y z
#    x 3.962050 0.000000 0.025900 
#    y 0.000000 3.353120 0.000000 
#    z 0.025900 0.000000 3.588900 
# 
# 
# High freq. dielectric constant tensor:
#      x y z
#    x 1.809440 0.000000 -0.005050 
#    y 0.000000 1.772430 0.000000 
#    z -0.005050 0.000000 1.789800 
# 
# From -- ./inp_files/89621.got.cif
#   From: 2010.06.25/outbox.cif.g09.slc.cpg/sg10_45_cif.got.tgz:89621.got - 2010.06.27 22:07:45.
