data_PCOD8062572
_publ_section_title
;
Structure prediction by ZEFSAII (Michael W. Deem and Ramdas Pophale) SiO2 
 PCOD8062572
Probable space group: P 2/M
;
_chemical_formula_sum "Si O2"
_cell_formula_units_Z 28
_cell_length_a 21.042260
_cell_length_b 8.693089
_cell_length_c 14.133089
_cell_angle_alpha 90.000000
_cell_angle_beta 147.545953
_cell_angle_gamma 90.000000
_cell_volume 1387.308007
_symmetry_space_group_name_H-M "P 2/M"
_symmetry_group_IT_number 10
_symmetry_cell_setting 'monoclinic'
loop_
_space_group_symop_operation_xyz
x,y,z
-x,y,-z
-x,-y,-z
x,-y,z
loop_
_atom_site_type_symbol
_atom_site_label
_atom_site_fract_x
_atom_site_fract_y
_atom_site_fract_z
Si Si1 0.134963 0.828635 0.641981
Si Si2 0.689376 0.679738 0.000018
Si Si3 0.474889 0.683305 0.862247
Si Si4 0.050957 0.673813 0.360815
Si Si5 0.869016 0.316485 0.861545
Si Si6 0.252585 0.672828 0.472087
Si Si7 0.818098 0.180256 0.999168
O O1 0.197438 0.718609 0.794752
O O2 0.142968 0.746479 0.550746
O O3 0.000000 0.840537 0.500000
O O4 0.191965 0.000000 0.711024
O O5 0.682436 0.500000 0.971199
O O6 0.703808 0.764145 0.916437
O O7 0.575415 0.738093 0.915017
O O8 0.470486 0.500000 0.865685
O O9 0.352648 0.753117 0.663954
O O10 0.500000 0.750318 0.000000
O O11 0.014000 0.500000 0.342993
O O12 0.121959 0.672978 0.352576
O O13 0.934877 0.777769 0.205636
O O14 0.872870 0.500000 0.865846
O O15 0.772016 0.254319 0.662612
O O16 0.822084 0.261608 0.903348
O O17 0.000000 0.251757 0.000000
O O18 0.299516 0.500000 0.517284
O O19 0.810845 0.000000 0.974941
#
# Coordination Sequence:
#
# PCOD8062572 Si02
#       7
#     4   4   4   4   4   4   4
#     4  11  22  34  50  79 117 153 185 231 290 349
#     4  11  22  37  60  85 113 154 199 242 289 349
#     4   9  18  35  60  91 119 145 189 246 296 342
#     4  11  20  34  58  86 114 150 193 238 290 350
#     4  10  19  36  60  88 117 152 196 244 292 349
#     4   9  18  34  59  88 117 146 187 247 300 339
#     4  12  24  37  54  82 121 157 189 238 298 350
#
# _framework density 20.182973
#
# number of rings (size 3 to 8) (size 9 to 14) (size 15 to 20)
#    0.000    1.571    2.857    3.429    0.000    3.143 
#    0.000    0.714    0.000   15.429    0.000    0.000 
#    0.000    0.000    0.000    0.000    0.000    0.000 
#
# Total GULP energy -347050.893719 kJ/mol
# GULP energy per Si atom -12394.674776 kJ/mol
# Density = 2.013704 g / cm^3
# Si number density = 20.182973 Si / 1000 Ang^3
#
#
#
# Elastic Constant Matrix: (Units=GPa)
#
#
# Indices 1 2 3 4 5 6 
#
# 1 138.0952 12.6838 53.9104 0.0000 -13.7191 0.0000
# 2 12.6838 33.2542 13.1365 0.0000 -0.0120 0.0000
# 3 53.9104 13.1365 103.1167 0.0000 -13.7271 0.0000
# 4 0.0000 0.0000 0.0000 6.7316 0.0000 -6.5694
# 5 -13.7191 -0.0120 -13.7271 0.0000 36.1333 0.0000
# 6 0.0000 0.0000 0.0000 -6.5694 0.0000 11.5359
#
#
#
# Elastic Compliance Matrix: (Units=1/GPa)
#
#
# Indices 1 2 3 4 5 6 
#
# 1 0.009306 -0.001816 -0.004385 0.000000 0.001867 0.000000
# 2 -0.001816 0.032108 -0.003403 0.000000 -0.001972 0.000000
# 3 -0.004385 -0.003403 0.012852 0.000000 0.003216 0.000000
# 4 0.000000 0.000000 0.000000 0.334397 0.000000 0.190431
# 5 0.001867 -0.001972 0.003216 0.000000 0.029605 0.000000
# 6 0.000000 0.000000 0.000000 0.190431 0.000000 0.195132
#
#
# Mechanical properties :
#
#
# Convention : Reuss Voigt Hill
#
# Bulk Modulus (GPa) = 28.52578 48.21416 38.36997
# Shear Modulus (GPa) = 7.76042 23.86252 15.81147
#
# Velocity S-wave (km/s) = 1.96300 3.44220 2.80198
# Velocity P-wave (km/s) = 4.39342 6.30387 5.43327
#
# Compressibility (1/GPa) = 0.03505601
#
# Stress axis : x y z
#
# Youngs Moduli (GPa) = 107.46281 31.14501 77.80841
#
# Poissons Ratio (x) = 0.05657 0.34120
# Poissons Ratio (y) = 0.19519 0.26480
# Poissons Ratio (z) = 0.47124 0.10599
#
# Static dielectric constant tensor:
#      x y z
#    x 3.901940 0.000000 -0.145530 
#    y 0.000000 3.484660 0.000000 
#    z -0.145530 0.000000 3.740210 
# 
# 
# High freq. dielectric constant tensor:
#      x y z
#    x 1.800530 0.000000 -0.013530 
#    y 0.000000 1.755000 0.000000 
#    z -0.013530 0.000000 1.773620 
# 
# From -- ./inp_files/70298.got.cif
#   From: 2010.06.25/outbox.cif.g09.slc.cpg/sg10_36_cif.got.tgz:70298.got - 2010.06.27 22:07:45.
