data_PCOD8062724
_publ_section_title
;
Structure prediction by ZEFSAII (Michael W. Deem and Ramdas Pophale) SiO2 
 PCOD8062724
Probable space group: P 2/M
;
_chemical_formula_sum "Si O2"
_cell_formula_units_Z 28
_cell_length_a 13.948607
_cell_length_b 21.159196
_cell_length_c 5.206214
_cell_angle_alpha 90.000000
_cell_angle_beta 118.029008
_cell_angle_gamma 90.000000
_cell_volume 1356.344343
_symmetry_space_group_name_H-M "P 2/M"
_symmetry_group_IT_number 10
_symmetry_cell_setting 'monoclinic'
loop_
_space_group_symop_operation_xyz
x,y,z
-x,y,-z
-x,-y,-z
x,-y,z
loop_
_atom_site_type_symbol
_atom_site_label
_atom_site_fract_x
_atom_site_fract_y
_atom_site_fract_z
Si Si1 0.757505 0.729383 0.279400
Si Si2 0.563377 0.267116 0.341042
Si Si3 0.158861 0.500000 0.472069
Si Si4 0.128905 0.854955 0.671458
Si Si5 0.295763 0.500000 0.140607
Si Si6 0.111212 0.367274 0.257978
Si Si7 0.128736 0.929372 0.169389
Si Si8 0.670613 0.634786 0.773475
O O1 0.686862 0.756522 0.433982
O O2 0.812579 0.788098 0.207264
O O3 0.853944 0.682697 0.482562
O O4 0.672369 0.689226 0.995724
O O5 0.500000 0.232204 0.500000
O O6 0.584171 0.340760 0.451554
O O7 0.500000 0.258785 0.000000
O O8 0.256566 0.500000 0.387877
O O9 0.087606 0.436572 0.348056
O O10 0.199003 0.500000 0.814223
O O11 0.169036 0.887674 0.459673
O O12 0.000000 0.844497 0.500000
O O13 0.168546 0.898656 0.954650
O O14 0.365510 0.564506 0.179789
O O15 0.205817 0.372191 0.167185
O O16 0.000000 0.340955 0.000000
O O17 0.177586 0.000000 0.254991
O O18 0.000000 0.933257 0.000000
#
# Coordination Sequence:
#
# PCOD8062724 Si02
#       8
#     4   4   2   4   2   4   4   4
#     4  11  23  37  58  86 121 152 192 241 303 345
#     4  11  23  42  65  81 108 148 193 248 310 360
#     4  10  19  38  52  77 103 155 205 238 270 339
#     4  10  22  33  55  87 126 160 195 233 273 334
#     4  10  20  38  59  78 111 142 195 240 306 351
#     4  10  22  34  54  80 117 157 198 237 285 346
#     4   9  18  35  55  80 118 168 206 230 261 312
#     4  10  22  39  59  83 111 153 189 250 301 362
#
# _framework density 20.643723999999999
#
# number of rings (size 3 to 8) (size 9 to 14) (size 15 to 20)
#    0.000    1.857    2.857    0.643    6.000    2.286 
#    0.000    2.143    0.000    0.000    0.000    0.000 
#    0.000   11.429    0.000    0.000    0.000    0.000 
#
# Total GULP energy -346912.196318 kJ/mol
# GULP energy per Si atom -12389.721297 kJ/mol
# Density = 2.059674 g / cm^3
# Si number density = 20.643724 Si / 1000 Ang^3
#
#
#
# Elastic Constant Matrix: (Units=GPa)
#
#
# Indices 1 2 3 4 5 6 
#
# 1 44.5669 15.1862 3.0840 0.0000 -17.8138 0.0000
# 2 15.1862 125.2804 26.7405 0.0000 -16.6345 0.0000
# 3 3.0840 26.7405 90.9985 0.0000 -27.3988 0.0000
# 4 0.0000 0.0000 0.0000 19.6570 0.0000 -10.6842
# 5 -17.8138 -16.6345 -27.3988 0.0000 21.6358 0.0000
# 6 0.0000 0.0000 0.0000 -10.6842 0.0000 14.5253
#
#
#
# Elastic Compliance Matrix: (Units=1/GPa)
#
#
# Indices 1 2 3 4 5 6 
#
# 1 0.043371 -0.001338 0.015137 0.000000 0.053849 0.000000
# 2 -0.001338 0.008976 -0.001368 0.000000 0.004068 0.000000
# 3 0.015137 -0.001368 0.023135 0.000000 0.040709 0.000000
# 4 0.000000 0.000000 0.000000 0.084758 0.000000 0.062345
# 5 0.053849 0.004068 0.040709 0.000000 0.145236 0.000000
# 6 0.000000 0.000000 0.000000 0.062345 0.000000 0.114703
#
#
# Mechanical properties :
#
#
# Convention : Reuss Voigt Hill
#
# Bulk Modulus (GPa) = 9.96574 38.98525 24.47550
# Shear Modulus (GPa) = 11.66139 25.55263 18.60701
#
# Velocity S-wave (km/s) = 2.37932 3.52204 3.00549
# Velocity P-wave (km/s) = 3.51940 5.95529 4.89140
#
# Compressibility (1/GPa) = 0.10034378
#
# Stress axis : x y z
#
# Youngs Moduli (GPa) = 23.05713 111.40417 43.22431
#
# Poissons Ratio (x) = 0.14908 -0.65428
# Poissons Ratio (y) = 0.03085 0.05912
# Poissons Ratio (z) = -0.34901 0.15237
#
# Static dielectric constant tensor:
#      x y z
#    x 3.779590 0.000000 -0.266470 
#    y 0.000000 3.732360 0.000000 
#    z -0.266470 0.000000 3.714970 
# 
# 
# High freq. dielectric constant tensor:
#      x y z
#    x 1.786790 0.000000 -0.020550 
#    y 0.000000 1.783870 0.000000 
#    z -0.020550 0.000000 1.808600 
# 
# From -- ./inp_files/9854.got.cif
#   From: 2010.06.25/outbox.cif.g09.slc.cpg/sg10_5_cif.got.tgz:9854.got - 2010.06.27 22:07:45.
