data_PCOD8062495
_publ_section_title
;
Structure prediction by ZEFSAII (Michael W. Deem and Ramdas Pophale) SiO2 
 PCOD8062495
Probable space group: P 2/M
;
_chemical_formula_sum "Si O2"
_cell_formula_units_Z 24
_cell_length_a 29.917128
_cell_length_b 8.525856
_cell_length_c 9.673429
_cell_angle_alpha 90.000000
_cell_angle_beta 149.019726
_cell_angle_gamma 90.000000
_cell_volume 1270.073154
_symmetry_space_group_name_H-M "P 2/M"
_symmetry_group_IT_number 10
_symmetry_cell_setting 'monoclinic'
loop_
_space_group_symop_operation_xyz
x,y,z
-x,y,-z
-x,-y,-z
x,-y,z
loop_
_atom_site_type_symbol
_atom_site_label
_atom_site_fract_x
_atom_site_fract_y
_atom_site_fract_z
Si Si1 0.023676 0.815931 0.216061
Si Si2 0.401746 0.686037 0.750340
Si Si3 0.723274 0.315398 0.351100
Si Si4 0.135235 0.684840 0.060935
Si Si5 0.258863 0.183710 0.172035
Si Si6 0.788549 0.315120 0.237599
O O1 0.121066 0.775402 0.514903
O O2 0.007917 0.000000 0.183042
O O3 0.000000 0.752437 0.000000
O O4 0.963315 0.732643 0.170223
O O5 0.395448 0.500000 0.711876
O O6 0.364858 0.737245 0.803701
O O7 0.345022 0.767306 0.482150
O O8 0.500000 0.746839 0.000000
O O9 0.727952 0.500000 0.364197
O O10 0.806427 0.252716 0.656672
O O11 0.728737 0.255858 0.207920
O O12 0.143133 0.500000 0.059614
O O13 0.170613 0.766659 0.016156
O O14 0.258306 0.000000 0.144777
O O15 0.262920 0.271121 0.036283
O O16 0.806461 0.500000 0.292675
#
# Coordination Sequence:
#
# PCOD8062495 Si02
#       6
#     4   4   4   4   4   4
#     4  11  22  34  52  82 117 148 186 230 279 327
#     4   9  18  37  64  89 110 139 182 227 272 334
#     4   8  16  31  55  83 107 137 182 230 271 317
#     4  10  19  36  58  80 106 146 196 233 271 323
#     4  11  23  38  55  81 116 147 180 228 289 336
#     4  11  21  36  56  79 110 150 192 231 275 323
#
# _framework density 18.896547999999999
#
# number of rings (size 3 to 8) (size 9 to 14) (size 15 to 20)
#    0.000    2.000    1.667    4.000    0.000    1.667 
#    0.000    5.000    0.000    5.000    0.000    0.000 
#    0.000    0.000    0.000    0.000    0.000    0.000 
#
# Total GULP energy -297588.229262 kJ/mol
# GULP energy per Si atom -12399.509553 kJ/mol
# Density = 1.885354 g / cm^3
# Si number density = 18.896548 Si / 1000 Ang^3
#
#
#
# Elastic Constant Matrix: (Units=GPa)
#
#
# Indices 1 2 3 4 5 6 
#
# 1 152.4430 14.7428 64.8973 0.0000 -1.0784 0.0000
# 2 14.7428 34.2176 10.5928 0.0000 -0.3739 0.0000
# 3 64.8973 10.5928 72.6660 0.0000 2.0039 0.0000
# 4 0.0000 0.0000 0.0000 24.4117 0.0000 -2.4632
# 5 -1.0784 -0.3739 2.0039 0.0000 38.9110 0.0000
# 6 0.0000 0.0000 0.0000 -2.4632 0.0000 17.3027
#
#
#
# Elastic Compliance Matrix: (Units=1/GPa)
#
#
# Indices 1 2 3 4 5 6 
#
# 1 0.010703 -0.001715 -0.009330 0.000000 0.000761 0.000000
# 2 -0.001715 0.030891 -0.002983 0.000000 0.000403 0.000000
# 3 -0.009330 -0.002983 0.022568 0.000000 -0.001449 0.000000
# 4 0.000000 0.000000 0.000000 0.041561 0.000000 0.005917
# 5 0.000761 0.000403 -0.001449 0.000000 0.025799 0.000000
# 6 0.000000 0.000000 0.000000 0.005917 0.000000 0.058637
#
#
# Mechanical properties :
#
#
# Convention : Reuss Voigt Hill
#
# Bulk Modulus (GPa) = 27.69442 48.86580 38.28011
# Shear Modulus (GPa) = 21.71554 27.39800 24.55677
#
# Velocity S-wave (km/s) = 3.39363 3.81188 3.60882
# Velocity P-wave (km/s) = 5.48118 6.72976 6.13730
#
# Compressibility (1/GPa) = 0.03610835
#
# Stress axis : x y z
#
# Youngs Moduli (GPa) = 93.43366 32.37153 44.30956
#
# Poissons Ratio (x) = 0.05551 0.41339
# Poissons Ratio (y) = 0.16023 0.13216
# Poissons Ratio (z) = 0.87169 0.09656
#
# Static dielectric constant tensor:
#      x y z
#    x 3.930040 0.000000 -0.062480 
#    y 0.000000 3.290370 0.000000 
#    z -0.062480 0.000000 3.276160 
# 
# 
# High freq. dielectric constant tensor:
#      x y z
#    x 1.746410 0.000000 -0.003620 
#    y 0.000000 1.725590 0.000000 
#    z -0.003620 0.000000 1.710880 
# 
# From -- ./inp_files/33722.got.cif
#   From: 2010.06.25/outbox.cif.g09.slc.cpg/sg10_17_cif.got.tgz:33722.got - 2010.06.27 22:07:45.
