data_PCOD8062995
_publ_section_title
;
Structure prediction by ZEFSAII (Michael W. Deem and Ramdas Pophale) SiO2 
 PCOD8062995
Probable space group: P 2/M
;
_chemical_formula_sum "Si O2"
_cell_formula_units_Z 20
_cell_length_a 12.877980
_cell_length_b 16.847070
_cell_length_c 14.874801
_cell_angle_alpha 90.000000
_cell_angle_beta 18.623001
_cell_angle_gamma 90.000000
_cell_volume 1030.567124
_symmetry_space_group_name_H-M "P 2/M"
_symmetry_group_IT_number 10
_symmetry_cell_setting 'monoclinic'
loop_
_space_group_symop_operation_xyz
x,y,z
-x,y,-z
-x,-y,-z
x,-y,z
loop_
_atom_site_type_symbol
_atom_site_label
_atom_site_fract_x
_atom_site_fract_y
_atom_site_fract_z
Si Si1 0.361725 0.910044 0.711854
Si Si2 0.774192 0.412387 0.598725
Si Si3 0.492353 0.910492 0.108542
Si Si4 0.136512 0.155410 0.569073
Si Si5 0.730962 0.314688 0.895688
O O1 0.500000 0.908241 0.500000
O O2 0.552197 0.851263 0.622299
O O3 0.366443 0.000000 0.747857
O O4 0.000000 0.876532 0.000000
O O5 0.627384 0.500000 0.699388
O O6 0.000000 0.416158 0.500000
O O7 0.013409 0.386314 0.323330
O O8 0.496030 0.344537 0.836161
O O9 0.258694 0.858176 0.365301
O O10 0.357501 0.000000 0.222910
O O11 0.500000 0.875536 0.000000
O O12 0.875619 0.909750 0.819455
O O13 0.940286 0.236785 0.744055
O O14 0.500000 0.299565 0.000000
#
# Coordination Sequence:
#
# PCOD8062995 Si02
#       5
#     4   4   4   4   4
#     4  10  21  37  56  76  98 131 179 230 277 321
#     4   9  17  31  50  72 104 143 177 208 244 299
#     4  11  23  36  51  73 103 143 183 212 250 314
#     4  12  22  36  55  76 107 138 174 225 277 313
#     4  10  20  32  49  77 108 140 174 210 258 314
#
# _framework density 19.406790999999998
#
# number of rings (size 3 to 8) (size 9 to 14) (size 15 to 20)
#    0.000    1.600    0.000    6.000    0.000    8.800 
#    0.000    0.000    0.000    0.000    0.000    0.000 
#    0.000   16.000    0.000    0.000    0.000    0.000 
#
# Total GULP energy -247811.653419 kJ/mol
# GULP energy per Si atom -12390.582671 kJ/mol
# Density = 1.936262 g / cm^3
# Si number density = 19.406791 Si / 1000 Ang^3
#
#
#
# Elastic Constant Matrix: (Units=GPa)
#
#
# Indices 1 2 3 4 5 6 
#
# 1 49.5842 36.5673 28.2139 0.0000 -5.2685 0.0000
# 2 36.5673 109.9010 52.1391 0.0000 -11.3511 0.0000
# 3 28.2139 52.1391 137.7709 0.0000 -0.7569 0.0000
# 4 0.0000 0.0000 0.0000 41.1172 0.0000 -2.7743
# 5 -5.2685 -11.3511 -0.7569 0.0000 29.3352 0.0000
# 6 0.0000 0.0000 0.0000 -2.7743 0.0000 4.2636
#
#
#
# Elastic Compliance Matrix: (Units=1/GPa)
#
#
# Indices 1 2 3 4 5 6 
#
# 1 0.027595 -0.007689 -0.002731 0.000000 0.001910 0.000000
# 2 -0.007689 0.013771 -0.003616 0.000000 0.003854 0.000000
# 3 -0.002731 -0.003616 0.009177 0.000000 -0.001653 0.000000
# 4 0.000000 0.000000 0.000000 0.025438 0.000000 0.016552
# 5 0.001910 0.003854 -0.001653 0.000000 0.035881 0.000000
# 6 0.000000 0.000000 0.000000 0.016552 0.000000 0.245315
#
#
# Mechanical properties :
#
#
# Convention : Reuss Voigt Hill
#
# Bulk Modulus (GPa) = 44.49995 59.01075 51.75535
# Shear Modulus (GPa) = 12.73117 26.96559 19.84838
#
# Velocity S-wave (km/s) = 2.56406 3.73163 3.20152
# Velocity P-wave (km/s) = 5.63434 7.00286 6.35554
#
# Compressibility (1/GPa) = 0.02247193
#
# Stress axis : x y z
#
# Youngs Moduli (GPa) = 36.23861 72.61694 108.96827
#
# Poissons Ratio (x) = 0.55834 0.29757
# Poissons Ratio (y) = 0.27863 0.39401
# Poissons Ratio (z) = 0.09896 0.26257
#
# Static dielectric constant tensor:
#      x y z
#    x 3.123710 0.000000 0.183880 
#    y 0.000000 3.472060 0.000000 
#    z 0.183880 0.000000 4.052860 
# 
# 
# High freq. dielectric constant tensor:
#      x y z
#    x 1.695960 0.000000 0.020600 
#    y 0.000000 1.741380 0.000000 
#    z 0.020600 0.000000 1.788090 
# 
# From -- ./inp_files/51847.got.cif
#   From: 2010.06.25/outbox.cif.g09.slc.cpg/sg10_26_cif.got.tgz:51847.got - 2010.06.27 22:07:45.
