data_PCOD8062300
_publ_section_title
;
Structure prediction by ZEFSAII (Michael W. Deem and Ramdas Pophale) SiO2 
 PCOD8062300
Probable space group: P 2/M
;
_chemical_formula_sum "Si O2"
_cell_formula_units_Z 24
_cell_length_a 15.086880
_cell_length_b 8.995940
_cell_length_c 14.611109
_cell_angle_alpha 90.000000
_cell_angle_beta 39.387109
_cell_angle_gamma 90.000000
_cell_volume 1258.344512
_symmetry_space_group_name_H-M "P 2/M"
_symmetry_group_IT_number 10
_symmetry_cell_setting 'monoclinic'
loop_
_space_group_symop_operation_xyz
x,y,z
-x,y,-z
-x,-y,-z
x,-y,z
loop_
_atom_site_type_symbol
_atom_site_label
_atom_site_fract_x
_atom_site_fract_y
_atom_site_fract_z
Si Si1 0.754314 0.828644 0.661221
Si Si2 0.932882 0.174089 0.340079
Si Si3 0.421588 0.176272 0.696267
Si Si4 0.294242 0.823720 0.615780
Si Si5 0.569294 0.826106 0.108674
Si Si6 0.797857 0.324609 0.811127
O O1 0.838999 0.789202 0.502828
O O2 0.593231 0.790869 0.773346
O O3 0.817440 0.729969 0.691842
O O4 0.774589 0.000000 0.672475
O O5 0.848506 0.231532 0.317599
O O6 0.076355 0.263957 0.227178
O O7 0.967924 0.000000 0.306123
O O8 0.571350 0.241813 0.545142
O O9 0.303471 0.223761 0.715834
O O10 0.382913 0.232048 0.828775
O O11 0.435627 0.000000 0.689042
O O12 0.300079 0.000000 0.602071
O O13 0.600677 0.000000 0.070015
O O14 0.651869 0.735551 0.966412
O O15 0.797511 0.500000 0.814032
#
# Coordination Sequence:
#
# PCOD8062300 Si02
#       6
#     4   4   4   4   4   4
#     4  10  20  36  59  83 103 132 178 225 267 314
#     4  10  19  35  58  83 108 137 173 216 266 317
#     4   8  13  25  51  86 113 129 158 212 269 315
#     4   8  13  25  51  86 113 129 158 212 269 315
#     4  10  19  35  58  83 108 137 173 216 266 317
#     4  12  26  38  49  72 109 150 184 218 261 308
#
# _framework density 19.072678
#
# number of rings (size 3 to 8) (size 9 to 14) (size 15 to 20)
#    0.000    2.333    1.667    3.500    0.000    5.333 
#    0.000    0.833    0.000    6.000    0.000    2.333 
#    0.000    0.000    0.000    0.000    0.000    0.000 
#
# Total GULP energy -297531.886167 kJ/mol
# GULP energy per Si atom -12397.161924 kJ/mol
# Density = 1.902927 g / cm^3
# Si number density = 19.072678 Si / 1000 Ang^3
#
#
#
# Elastic Constant Matrix: (Units=GPa)
#
#
# Indices 1 2 3 4 5 6 
#
# 1 112.2323 26.5838 6.4195 0.0000 1.1722 0.0000
# 2 26.5838 51.9565 15.5496 0.0000 -6.0355 0.0000
# 3 6.4195 15.5496 39.3992 0.0000 -10.1522 0.0000
# 4 0.0000 0.0000 0.0000 -0.3145 0.0000 0.1222
# 5 1.1722 -6.0355 -10.1522 0.0000 26.9357 0.0000
# 6 0.0000 0.0000 0.0000 0.1222 0.0000 0.1219
#
#
#
# Elastic Compliance Matrix: (Units=1/GPa)
#
#
# Indices 1 2 3 4 5 6 
#
# 1 0.010211 -0.005432 0.000058 0.000000 -0.001640 0.000000
# 2 -0.005432 0.024795 -0.008205 0.000000 0.002700 0.000000
# 3 0.000058 -0.008205 0.031162 0.000000 0.009904 0.000000
# 4 0.000000 0.000000 0.000000 -2.287793 0.000000 2.294852
# 5 -0.001640 0.002700 0.009904 0.000000 0.041535 0.000000
# 6 0.000000 0.000000 0.000000 2.294852 0.000000 5.904804
#
#
# Mechanical properties :
#
#
# Convention : Reuss Voigt Hill
#
# Bulk Modulus (GPa) = 25.63508 33.41042 29.52275
# Shear Modulus (GPa) = 1.32806 15.68428 8.50617
#
# Velocity S-wave (km/s) = 0.83536 2.87076 2.11413
# Velocity P-wave (km/s) = 3.79478 5.34264 4.63380
#
# Compressibility (1/GPa) = 0.03900904
#
# Stress axis : x y z
#
# Youngs Moduli (GPa) = 97.93773 40.32997 32.09005
#
# Poissons Ratio (x) = 0.21907 -0.00185
# Poissons Ratio (y) = 0.53200 0.26331
# Poissons Ratio (z) = -0.00565 0.33092
#
# Static dielectric constant tensor:
#      x y z
#    x 3.969540 0.000000 0.103500 
#    y 0.000000 2.974260 0.000000 
#    z 0.103500 0.000000 3.387700 
# 
# 
# High freq. dielectric constant tensor:
#      x y z
#    x 1.763190 0.000000 0.004060 
#    y 0.000000 1.684830 0.000000 
#    z 0.004060 0.000000 1.727510 
# 
# From -- ./inp_files/66300.got.cif
#   From: 2010.06.25/outbox.cif.g09.slc.cpg/sg10_34_cif.got.tgz:66300.got - 2010.06.27 22:07:45.
