data_PCOD8062181
_publ_section_title
;
Structure prediction by ZEFSAII (Michael W. Deem and Ramdas Pophale) SiO2 
 PCOD8062181
Probable space group: P 2/M
;
_chemical_formula_sum "Si O2"
_cell_formula_units_Z 32
_cell_length_a 23.554845
_cell_length_b 8.921765
_cell_length_c 17.236511
_cell_angle_alpha 90.000000
_cell_angle_beta 152.158066
_cell_angle_gamma 90.000000
_cell_volume 1691.721321
_symmetry_space_group_name_H-M "P 2/M"
_symmetry_group_IT_number 10
_symmetry_cell_setting 'monoclinic'
loop_
_space_group_symop_operation_xyz
x,y,z
-x,y,-z
-x,-y,-z
x,-y,z
loop_
_atom_site_type_symbol
_atom_site_label
_atom_site_fract_x
_atom_site_fract_y
_atom_site_fract_z
Si Si1 0.357171 0.334895 0.841052
Si Si2 0.307169 0.171542 0.092415
Si Si3 0.797111 0.328573 0.762868
Si Si4 0.887663 0.323658 0.040761
Si Si5 0.516509 0.671927 0.431997
Si Si6 0.868003 0.823111 0.698625
Si Si7 0.658694 0.322897 0.348750
Si Si8 0.597201 0.171370 0.956756
O O1 0.308048 0.500000 0.804259
O O2 0.300028 0.282577 0.689727
O O3 0.500000 0.342959 0.000000
O O4 0.328015 0.221377 0.875916
O O5 0.437248 0.222282 0.282095
O O6 0.311186 0.190418 0.004468
O O7 0.284409 0.000000 0.088962
O O8 0.199069 0.272728 0.994462
O O9 0.838021 0.500000 0.800331
O O10 0.655094 0.308926 0.573775
O O11 0.872928 0.228214 0.794395
O O12 0.825690 0.276183 0.884680
O O13 0.907698 0.500000 0.070640
O O14 0.016340 0.242705 0.206599
O O15 0.500000 0.725274 0.500000
O O16 0.472250 0.500000 0.370077
O O17 0.746072 0.762077 0.512783
O O18 0.870448 0.000000 0.696662
O O19 0.666206 0.500000 0.373014
O O20 0.521153 0.272814 0.199308
O O21 0.555122 0.000000 0.915788
#
# Coordination Sequence:
#
# PCOD8062181 Si02
#       8
#     4   4   4   4   4   4   4   4
#     4   8  16  31  53  81 111 143 179 218 263 318
#     4  11  23  36  52  80 114 146 180 222 273 324
#     4  10  21  38  59  80 105 140 185 229 269 321
#     4  11  23  41  60  76 100 143 191 229 270 319
#     4  10  19  35  55  78 105 140 183 222 265 317
#     4  12  25  38  55  81 110 140 179 227 278 325
#     4  10  20  36  57  82 112 146 183 222 265 318
#     4  10  20  33  53  85 119 147 176 216 271 328
#
# _framework density 18.915645000000001
#
# number of rings (size 3 to 8) (size 9 to 14) (size 15 to 20)
#    0.000    1.750    1.250    4.500    0.000   10.000 
#    0.000    0.000    0.000    0.750    0.000    5.250 
#    0.000    0.000    0.000    0.000    0.000    0.000 
#
# Total GULP energy -396883.494083 kJ/mol
# GULP energy per Si atom -12402.609190 kJ/mol
# Density = 1.887259 g / cm^3
# Si number density = 18.915645 Si / 1000 Ang^3
#
#
#
# Elastic Constant Matrix: (Units=GPa)
#
#
# Indices 1 2 3 4 5 6 
#
# 1 103.9071 53.3385 29.8940 0.0000 -7.1602 0.0000
# 2 53.3385 109.7168 28.6696 0.0000 -4.6285 0.0000
# 3 29.8940 28.6696 37.1797 0.0000 1.8388 0.0000
# 4 0.0000 0.0000 0.0000 10.1943 0.0000 -0.3818
# 5 -7.1602 -4.6285 1.8388 0.0000 26.8388 0.0000
# 6 0.0000 0.0000 0.0000 -0.3818 0.0000 32.5637
#
#
#
# Elastic Compliance Matrix: (Units=1/GPa)
#
#
# Indices 1 2 3 4 5 6 
#
# 1 0.014755 -0.004848 -0.008307 0.000000 0.003670 0.000000
# 2 -0.004848 0.013188 -0.006342 0.000000 0.001415 0.000000
# 3 -0.008307 -0.006342 0.038761 0.000000 -0.005965 0.000000
# 4 0.000000 0.000000 0.000000 0.098137 0.000000 0.001151
# 5 0.003670 0.001415 -0.005965 0.000000 0.038891 0.000000
# 6 0.000000 0.000000 0.000000 0.001151 0.000000 0.030723
#
#
# Mechanical properties :
#
#
# Convention : Reuss Voigt Hill
#
# Bulk Modulus (GPa) = 36.08672 52.73420 44.41046
# Shear Modulus (GPa) = 17.68756 23.17946 20.43351
#
# Velocity S-wave (km/s) = 3.06122 3.50439 3.29027
# Velocity P-wave (km/s) = 5.62262 6.65683 6.16146
#
# Compressibility (1/GPa) = 0.02771102
#
# Stress axis : x y z
#
# Youngs Moduli (GPa) = 67.77215 75.82730 25.79923
#
# Poissons Ratio (x) = 0.36759 0.21432
# Poissons Ratio (y) = 0.32854 0.16361
# Poissons Ratio (z) = 0.56300 0.48086
#
# Static dielectric constant tensor:
#      x y z
#    x 3.594300 0.000000 -0.231670 
#    y 0.000000 3.483630 0.000000 
#    z -0.231670 0.000000 3.391880 
# 
# 
# High freq. dielectric constant tensor:
#      x y z
#    x 1.736710 0.000000 -0.011720 
#    y 0.000000 1.738660 0.000000 
#    z -0.011720 0.000000 1.711160 
# 
# From -- ./inp_files/79981.got.cif
#   From: 2010.06.25/outbox.cif.g09.slc.cpg/sg10_40_cif.got.tgz:79981.got - 2010.06.27 22:07:45.
