data_PCOD8062781
_publ_section_title
;
Structure prediction by ZEFSAII (Michael W. Deem and Ramdas Pophale) SiO2 
 PCOD8062781
Probable space group: P 2/M
;
_chemical_formula_sum "Si O2"
_cell_formula_units_Z 32
_cell_length_a 11.809871
_cell_length_b 18.132793
_cell_length_c 14.626736
_cell_angle_alpha 90.000000
_cell_angle_beta 29.614835
_cell_angle_gamma 90.000000
_cell_volume 1547.857595
_symmetry_space_group_name_H-M "P 2/M"
_symmetry_group_IT_number 10
_symmetry_cell_setting 'monoclinic'
loop_
_space_group_symop_operation_xyz
x,y,z
-x,y,-z
-x,-y,-z
x,-y,z
loop_
_atom_site_type_symbol
_atom_site_label
_atom_site_fract_x
_atom_site_fract_y
_atom_site_fract_z
Si Si1 0.938070 0.317332 0.438184
Si Si2 0.260865 0.647321 0.712968
Si Si3 0.977681 0.786240 0.913074
Si Si4 0.912913 0.846969 0.686304
Si Si5 0.810207 0.916350 0.934814
Si Si6 0.604529 0.328434 0.178830
Si Si7 0.110148 0.584586 0.151686
Si Si8 0.308993 0.083624 0.327553
O O1 0.663965 0.316134 0.619933
O O2 0.000000 0.336322 0.500000
O O3 0.045294 0.239872 0.330671
O O4 0.041896 0.376824 0.295239
O O5 0.500000 0.630299 0.500000
O O6 0.278422 0.638525 0.810480
O O7 0.178489 0.729841 0.743962
O O8 0.082800 0.590992 0.791999
O O9 0.003897 0.861975 0.838566
O O10 0.728817 0.749120 0.069755
O O11 0.000000 0.811863 0.000000
O O12 0.752781 0.884028 0.875323
O O13 0.775737 0.858992 0.689410
O O14 0.157505 0.891058 0.520621
O O15 0.901523 0.000000 0.868251
O O16 0.578799 0.910145 0.157543
O O17 0.656030 0.382558 0.056934
O O18 0.152721 0.500000 0.146198
O O19 0.249578 0.000000 0.339656
#
# Coordination Sequence:
#
# PCOD8062781 Si02
#       8
#     4   4   4   4   4   4   4   4
#     4  12  25  42  64  96 124 171 222 253 299 379
#     4  10  19  40  70 100 123 156 205 266 320 371
#     4   9  20  37  60  87 120 164 202 255 310 363
#     4  11  20  36  58  85 116 156 206 260 299 350
#     4  11  22  35  56  85 123 164 203 250 311 374
#     4  10  22  42  66  95 130 159 208 263 316 366
#     4  11  25  44  67  98 131 162 200 254 318 382
#     4  10  20  35  54  85 121 154 196 257 316 348
#
# _framework density 20.673736999999999
#
# number of rings (size 3 to 8) (size 9 to 14) (size 15 to 20)
#    0.000    1.500    2.500    5.250    0.000    3.750 
#    2.250    0.625    0.000    0.375    0.000    0.000 
#    0.000    0.000    0.000    0.000    0.000    0.000 
#
# Total GULP energy -396620.299927 kJ/mol
# GULP energy per Si atom -12394.384373 kJ/mol
# Density = 2.062668 g / cm^3
# Si number density = 20.673737 Si / 1000 Ang^3
#
#
#
# Elastic Constant Matrix: (Units=GPa)
#
#
# Indices 1 2 3 4 5 6 
#
# 1 61.2267 33.6896 4.8127 0.0000 8.4736 0.0000
# 2 33.6896 145.9980 28.5781 0.0000 10.2431 0.0000
# 3 4.8127 28.5781 64.1596 0.0000 8.4355 0.0000
# 4 0.0000 0.0000 0.0000 22.0935 0.0000 7.3955
# 5 8.4736 10.2431 8.4355 0.0000 26.6504 0.0000
# 6 0.0000 0.0000 0.0000 7.3955 0.0000 21.9575
#
#
#
# Elastic Compliance Matrix: (Units=1/GPa)
#
#
# Indices 1 2 3 4 5 6 
#
# 1 0.019297 -0.004333 0.001117 0.000000 -0.004824 0.000000
# 2 -0.004333 0.008570 -0.003381 0.000000 -0.000846 0.000000
# 3 0.001117 -0.003381 0.017617 0.000000 -0.004632 0.000000
# 4 0.000000 0.000000 0.000000 0.051013 0.000000 -0.017182
# 5 -0.004824 -0.000846 -0.004632 0.000000 0.040848 0.000000
# 6 0.000000 0.000000 0.000000 -0.017182 0.000000 0.051329
#
#
# Mechanical properties :
#
#
# Convention : Reuss Voigt Hill
#
# Bulk Modulus (GPa) = 30.96964 45.06057 38.01511
# Shear Modulus (GPa) = 23.51463 27.76055 25.63759
#
# Velocity S-wave (km/s) = 3.37622 3.66839 3.52533
# Velocity P-wave (km/s) = 5.49647 6.30763 5.91597
#
# Compressibility (1/GPa) = 0.03228968
#
# Stress axis : x y z
#
# Youngs Moduli (GPa) = 51.82232 116.67967 56.76202
#
# Poissons Ratio (x) = 0.50557 -0.06339
# Poissons Ratio (y) = 0.22454 0.19192
# Poissons Ratio (z) = -0.05787 0.39452
#
# Static dielectric constant tensor:
#      x y z
#    x 3.655160 0.000000 0.189310 
#    y 0.000000 3.618430 0.000000 
#    z 0.189310 0.000000 4.032530 
# 
# 
# High freq. dielectric constant tensor:
#      x y z
#    x 1.789180 0.000000 0.012040 
#    y 0.000000 1.801070 0.000000 
#    z 0.012040 0.000000 1.817310 
# 
# From -- ./inp_files/65369.got.cif
#   From: 2010.06.25/outbox.cif.g09.slc.cpg/sg10_33_cif.got.tgz:65369.got - 2010.06.27 22:07:45.
