data_PCOD8062815
_publ_section_title
;
Structure prediction by ZEFSAII (Michael W. Deem and Ramdas Pophale) SiO2 
 PCOD8062815
Probable space group: P 2/M
;
_chemical_formula_sum "Si O2"
_cell_formula_units_Z 32
_cell_length_a 21.703851
_cell_length_b 9.097259
_cell_length_c 30.439092
_cell_angle_alpha 90.000000
_cell_angle_beta 19.459530
_cell_angle_gamma 90.000000
_cell_volume 2002.198257
_symmetry_space_group_name_H-M "P 2/M"
_symmetry_group_IT_number 10
_symmetry_cell_setting 'monoclinic'
loop_
_space_group_symop_operation_xyz
x,y,z
-x,y,-z
-x,-y,-z
x,-y,z
loop_
_atom_site_type_symbol
_atom_site_label
_atom_site_fract_x
_atom_site_fract_y
_atom_site_fract_z
Si Si1 0.260630 0.331030 0.433669
Si Si2 0.190626 0.835002 0.969527
Si Si3 0.889838 0.171128 0.697769
Si Si4 0.483062 0.331028 0.822547
Si Si5 0.549917 0.835005 0.289835
Si Si6 0.539055 0.828875 0.873238
Si Si7 0.119016 0.174613 0.881027
Si Si8 0.321943 0.666156 0.089068
O O1 0.211057 0.500000 0.475391
O O2 0.373894 0.308203 0.313005
O O3 0.378943 0.273230 0.395744
O O4 0.074990 0.238301 0.553097
O O5 0.279814 0.726772 0.945377
O O6 0.308704 0.833942 0.845671
O O7 0.187693 0.000000 0.991267
O O8 0.979852 0.780964 0.098871
O O9 0.730359 0.199811 0.769589
O O10 0.843769 0.250153 0.774835
O O11 0.916629 0.000000 0.689374
O O12 0.464846 0.500000 0.848594
O O13 0.562150 0.238296 0.809629
O O14 0.664750 0.780958 0.256398
O O15 0.471706 0.000000 0.349208
O O16 0.492224 0.000000 0.901675
O O17 0.369047 0.749830 0.012299
O O18 0.106538 0.000000 0.893502
O O19 0.000000 0.248560 0.000000
O O20 0.259814 0.500000 0.120147
O O21 0.500000 0.668282 0.000000
#
# Coordination Sequence:
#
# PCOD8062815 Si02
#       8
#     4   4   4   4   4   4   4   4
#     4  10  20  31  42  60  89 122 152 182 219 262
#     4   8  13  23  39  57  79 109 144 179 214 254
#     4  10  20  33  49  67  86 111 146 185 221 259
#     4  10  20  31  42  60  89 122 152 182 219 262
#     4   8  13  23  39  57  79 109 144 179 214 254
#     4  10  20  33  49  67  86 111 146 185 221 259
#     4   7  10  18  35  57  77 102 139 178 213 251
#     4   9  17  31  51  71  89 108 133 172 223 269
#
# _framework density 15.982433
#
# number of rings (size 3 to 8) (size 9 to 14) (size 15 to 20)
#    0.000    3.000    0.000    3.375    0.000    5.000 
#    0.000    3.125    0.000    3.750    0.000    0.000 
#    0.000    1.000    0.000   10.750    0.000    7.750 
#
# Total GULP energy -396542.702267 kJ/mol
# GULP energy per Si atom -12391.959446 kJ/mol
# Density = 1.594606 g / cm^3
# Si number density = 15.982433 Si / 1000 Ang^3
#
#
#
# Elastic Constant Matrix: (Units=GPa)
#
#
# Indices 1 2 3 4 5 6 
#
# 1 60.7779 51.1489 47.0358 0.0000 -15.5556 0.0000
# 2 51.1489 106.4698 43.7043 0.0000 -11.0385 0.0000
# 3 47.0358 43.7043 44.9910 0.0000 -7.8977 0.0000
# 4 0.0000 0.0000 0.0000 22.2803 0.0000 2.2804
# 5 -15.5556 -11.0385 -7.8977 0.0000 13.1251 0.0000
# 6 0.0000 0.0000 0.0000 2.2804 0.0000 20.7723
#
#
#
# Elastic Compliance Matrix: (Units=1/GPa)
#
#
# Indices 1 2 3 4 5 6 
#
# 1 0.145215 -0.007750 -0.128827 0.000000 0.088070 0.000000
# 2 -0.007750 0.016274 -0.007733 0.000000 -0.000151 0.000000
# 3 -0.128827 -0.007733 0.152595 0.000000 -0.067367 0.000000
# 4 0.000000 0.000000 0.000000 0.045393 0.000000 -0.004983
# 5 0.088070 -0.000151 -0.067367 0.000000 0.139905 0.000000
# 6 0.000000 0.000000 0.000000 -0.004983 0.000000 0.048688
#
#
# Mechanical properties :
#
#
# Convention : Reuss Voigt Hill
#
# Bulk Modulus (GPa) = 39.27064 55.11297 47.19180
# Shear Modulus (GPa) = 5.91591 15.92551 10.92071
#
# Velocity S-wave (km/s) = 1.92602 3.16007 2.61683
# Velocity P-wave (km/s) = 5.43788 6.91903 6.22268
#
# Compressibility (1/GPa) = 0.02546431
#
# Stress axis : x y z
#
# Youngs Moduli (GPa) = 6.88632 61.44742 6.55328
#
# Poissons Ratio (x) = 0.47622 0.84424
# Poissons Ratio (y) = 0.05337 0.05068
# Poissons Ratio (z) = 0.88715 0.47517
#
# Static dielectric constant tensor:
#      x y z
#    x 3.072850 0.000000 -0.299620 
#    y 0.000000 3.081350 0.000000 
#    z -0.299620 0.000000 2.872850 
# 
# 
# High freq. dielectric constant tensor:
#      x y z
#    x 1.596210 0.000000 -0.026060 
#    y 0.000000 1.615210 0.000000 
#    z -0.026060 0.000000 1.578790 
# 
# From -- ./inp_files/52809.got.cif
#   From: 2010.06.25/outbox.cif.g09.slc.cpg/sg10_27_cif.got.tgz:52809.got - 2010.06.27 22:07:45.
