data_PCOD8062915
_publ_section_title
;
Structure prediction by ZEFSAII (Michael W. Deem and Ramdas Pophale) SiO2 
 PCOD8062915
Probable space group: P 2/M
;
_chemical_formula_sum "Si O2"
_cell_formula_units_Z 28
_cell_length_a 17.474353
_cell_length_b 9.567573
_cell_length_c 21.406998
_cell_angle_alpha 90.000000
_cell_angle_beta 26.442661
_cell_angle_gamma 90.000000
_cell_volume 1593.724629
_symmetry_space_group_name_H-M "P 2/M"
_symmetry_group_IT_number 10
_symmetry_cell_setting 'monoclinic'
loop_
_space_group_symop_operation_xyz
x,y,z
-x,y,-z
-x,-y,-z
x,-y,z
loop_
_atom_site_type_symbol
_atom_site_label
_atom_site_fract_x
_atom_site_fract_y
_atom_site_fract_z
Si Si1 0.258164 0.158319 0.934078
Si Si2 0.128222 0.839911 0.764951
Si Si3 0.324874 0.840948 0.745125
Si Si4 0.309376 0.347418 0.113739
Si Si5 0.601461 0.656877 0.490331
Si Si6 0.172029 0.333228 0.340332
Si Si7 0.539901 0.333069 0.120572
O O1 0.237820 0.183463 0.875286
O O2 0.397617 0.262603 0.861314
O O3 0.317231 0.000000 0.904870
O O4 0.071898 0.188656 0.098607
O O5 0.185326 0.804232 0.794064
O O6 0.220022 0.738126 0.648688
O O7 0.176131 0.000000 0.714452
O O8 0.488753 0.739165 0.623161
O O9 0.389783 0.000000 0.689425
O O10 0.227905 0.500000 0.161403
O O11 0.192701 0.272928 0.253343
O O12 0.500000 0.367013 0.000000
O O13 0.335502 0.273587 0.026874
O O14 0.500000 0.656139 0.500000
O O15 0.638230 0.500000 0.487341
O O16 0.162865 0.500000 0.342562
O O17 0.340852 0.288978 0.256073
O O18 0.000000 0.273667 0.500000
O O19 0.555622 0.500000 0.113690
#
# Coordination Sequence:
#
# PCOD8062915 Si02
#       7
#     4   4   4   4   4   4   4
#     4  10  20  32  47  68  95 125 158 200 242 277
#     4   9  17  31  50  68  87 120 167 205 232 274
#     4   9  17  31  50  68  88 122 166 203 234 274
#     4   7  11  22  41  63  86 113 143 174 211 260
#     4   9  17  29  46  69  93 114 143 191 246 289
#     4   8  13  24  46  72  91 111 148 192 223 258
#     4   9  17  29  45  66  93 122 149 182 231 283
#
# _framework density 17.568906999999999
#
# number of rings (size 3 to 8) (size 9 to 14) (size 15 to 20)
#    0.000    3.286    0.000    2.571    0.000    4.571 
#    0.000    1.429    0.000   10.286    0.000    0.000 
#    0.000    0.000    0.000    0.000    0.000    0.000 
#
# Total GULP energy -346879.565774 kJ/mol
# GULP energy per Si atom -12388.555921 kJ/mol
# Density = 1.752892 g / cm^3
# Si number density = 17.568907 Si / 1000 Ang^3
#
#
#
# Elastic Constant Matrix: (Units=GPa)
#
#
# Indices 1 2 3 4 5 6 
#
# 1 46.7186 17.6622 23.9602 0.0000 -6.5904 0.0000
# 2 17.6622 59.8041 34.5153 0.0000 -3.9194 0.0000
# 3 23.9602 34.5153 105.2555 0.0000 4.1949 0.0000
# 4 0.0000 0.0000 0.0000 16.6810 0.0000 -1.5870
# 5 -6.5904 -3.9194 4.1949 0.0000 17.5612 0.0000
# 6 0.0000 0.0000 0.0000 -1.5870 0.0000 17.9482
#
#
#
# Elastic Compliance Matrix: (Units=1/GPa)
#
#
# Indices 1 2 3 4 5 6 
#
# 1 0.027182 -0.004354 -0.005177 0.000000 0.010466 0.000000
# 2 -0.004354 0.022031 -0.006425 0.000000 0.004818 0.000000
# 3 -0.005177 -0.006425 0.013045 0.000000 -0.006493 0.000000
# 4 0.000000 0.000000 0.000000 0.060457 0.000000 0.005346
# 5 0.010466 0.004818 -0.006493 0.000000 0.063498 0.000000
# 6 0.000000 0.000000 0.000000 0.005346 0.000000 0.056189
#
#
# Mechanical properties :
#
#
# Convention : Reuss Voigt Hill
#
# Bulk Modulus (GPa) = 32.95374 40.45040 36.70207
# Shear Modulus (GPa) = 17.57901 19.48077 18.52989
#
# Velocity S-wave (km/s) = 3.16662 3.33351 3.25113
# Velocity P-wave (km/s) = 5.67164 6.15550 5.91852
#
# Compressibility (1/GPa) = 0.03034557
#
# Stress axis : x y z
#
# Youngs Moduli (GPa) = 36.78866 45.39006 76.65793
#
# Poissons Ratio (x) = 0.19763 0.39686
# Poissons Ratio (y) = 0.16018 0.49255
# Poissons Ratio (z) = 0.19046 0.29165
#
# Static dielectric constant tensor:
#      x y z
#    x 3.102350 0.000000 0.245750 
#    y 0.000000 3.019780 0.000000 
#    z 0.245750 0.000000 3.416620 
# 
# 
# High freq. dielectric constant tensor:
#      x y z
#    x 1.654900 0.000000 0.015160 
#    y 0.000000 1.642560 0.000000 
#    z 0.015160 0.000000 1.679110 
# 
# From -- ./inp_files/84895.got.cif
#   From: 2010.06.25/outbox.cif.g09.slc.cpg/sg10_43_cif.got.tgz:84895.got - 2010.06.27 22:07:45.
