data_PCOD8062881
_publ_section_title
;
Structure prediction by ZEFSAII (Michael W. Deem and Ramdas Pophale) SiO2 
 PCOD8062881
Probable space group: P 2/M
;
_chemical_formula_sum "Si O2"
_cell_formula_units_Z 28
_cell_length_a 12.165827
_cell_length_b 9.078279
_cell_length_c 18.943883
_cell_angle_alpha 90.000000
_cell_angle_beta 50.043678
_cell_angle_gamma 90.000000
_cell_volume 1603.783423
_symmetry_space_group_name_H-M "P 2/M"
_symmetry_group_IT_number 10
_symmetry_cell_setting 'monoclinic'
loop_
_space_group_symop_operation_xyz
x,y,z
-x,y,-z
-x,-y,-z
x,-y,z
loop_
_atom_site_type_symbol
_atom_site_label
_atom_site_fract_x
_atom_site_fract_y
_atom_site_fract_z
Si Si1 0.870823 0.336757 0.000000
Si Si2 0.072086 0.674009 0.252140
Si Si3 0.423634 0.674009 0.252140
Si Si4 0.057894 0.173496 0.816445
Si Si5 0.603937 0.674261 0.896063
Si Si6 0.309216 0.173496 0.816445
Si Si7 0.102190 0.674408 0.397810
O O1 0.815419 0.500000 0.000000
O O2 0.745087 0.246702 0.088826
O O3 0.000000 0.355015 0.000000
O O4 0.922740 0.246702 0.911174
O O5 0.050500 0.500000 0.251521
O O6 0.231011 0.723527 0.160727
O O7 0.049019 0.723840 0.342499
O O8 0.948811 0.760045 0.259382
O O9 0.446458 0.500000 0.251521
O O10 0.447534 0.723527 0.160727
O O11 0.532425 0.760045 0.259382
O O12 0.265982 0.723840 0.342499
O O13 0.208480 0.215983 0.791520
O O14 0.036181 0.000000 0.825063
O O15 0.598063 0.500000 0.901937
O O16 0.500000 0.742161 0.000000
O O17 0.313693 0.000000 0.825063
O O18 0.095813 0.500000 0.404187
O O19 0.000000 0.745395 0.500000
#
# Coordination Sequence:
#
# PCOD8062881 Si02
#       7
#     4   4   4   4   4   4   4
#     4   9  17  29  45  64  87 124 173 209 229 265
#     4   9  17  29  49  74  94 123 164 198 238 293
#     4   9  17  29  49  74  94 123 164 198 238 293
#     4  10  20  32  45  65  99 136 164 198 244 285
#     4   8  15  27  42  64  94 122 150 192 240 280
#     4  10  20  32  45  65  99 136 164 198 244 285
#     4   8  15  31  54  78 101 121 150 201 258 301
#
# _framework density 17.458715999999999
#
# number of rings (size 3 to 8) (size 9 to 14) (size 15 to 20)
#    0.000    3.000    0.000    3.000    2.000    3.429 
#    0.000    2.857    0.000    3.429    0.000    6.000 
#    0.000    0.000    0.000    0.000    0.000    0.000 
#
# Total GULP energy -347023.675685 kJ/mol
# GULP energy per Si atom -12393.702703 kJ/mol
# Density = 1.741898 g / cm^3
# Si number density = 17.458716 Si / 1000 Ang^3
#
#
#
# Elastic Constant Matrix: (Units=GPa)
#
#
# Indices 1 2 3 4 5 6 
#
# 1 128.7790 50.0710 60.4225 0.0000 -1.6614 0.0000
# 2 50.0710 63.8573 28.7353 0.0000 -1.0539 0.0000
# 3 60.4225 28.7353 122.0504 0.0000 1.3290 0.0000
# 4 0.0000 0.0000 0.0000 9.8541 0.0000 -0.6587
# 5 -1.6614 -1.0539 1.3290 0.0000 17.5092 0.0000
# 6 0.0000 0.0000 0.0000 -0.6587 0.0000 23.1889
#
#
#
# Elastic Compliance Matrix: (Units=1/GPa)
#
#
# Indices 1 2 3 4 5 6 
#
# 1 0.013117 -0.008209 -0.004573 0.000000 0.001098 0.000000
# 2 -0.008209 0.022686 -0.001285 0.000000 0.000684 0.000000
# 3 -0.004573 -0.001285 0.010774 0.000000 -0.001329 0.000000
# 4 0.000000 0.000000 0.000000 0.101674 0.000000 0.002888
# 5 0.001098 0.000684 -0.001329 0.000000 0.057359 0.000000
# 6 0.000000 0.000000 0.000000 0.002888 0.000000 0.043206
#
#
# Mechanical properties :
#
#
# Convention : Reuss Voigt Hill
#
# Bulk Modulus (GPa) = 54.21855 65.90493 60.06174
# Shear Modulus (GPa) = 17.66180 21.80763 19.73472
#
# Velocity S-wave (km/s) = 3.18407 3.53809 3.36574
# Velocity P-wave (km/s) = 6.68135 7.38388 7.04138
#
# Compressibility (1/GPa) = 0.01844387
#
# Stress axis : x y z
#
# Youngs Moduli (GPa) = 76.23838 44.07992 92.81530
#
# Poissons Ratio (x) = 0.36186 0.42443
# Poissons Ratio (y) = 0.62585 0.11923
# Poissons Ratio (z) = 0.34863 0.05663
#
# Static dielectric constant tensor:
#      x y z
#    x 3.298160 0.000000 0.007200 
#    y 0.000000 2.948660 0.000000 
#    z 0.007200 0.000000 3.443990 
# 
# 
# High freq. dielectric constant tensor:
#      x y z
#    x 1.679740 0.000000 -0.001790 
#    y 0.000000 1.647490 0.000000 
#    z -0.001790 0.000000 1.643450 
# 
# From -- ./inp_files/55004.got.cif
#   From: 2010.06.25/outbox.cif.g09.slc.cpg/sg10_28_cif.got.tgz:55004.got - 2010.06.27 22:07:45.
