data_PCOD8062272
_publ_section_title
;
Structure prediction by ZEFSAII (Michael W. Deem and Ramdas Pophale) SiO2 
 PCOD8062272
Probable space group: P 2/M
;
_chemical_formula_sum "Si O2"
_cell_formula_units_Z 28
_cell_length_a 14.677296
_cell_length_b 8.695888
_cell_length_c 12.700581
_cell_angle_alpha 90.000000
_cell_angle_beta 59.414979
_cell_angle_gamma 90.000000
_cell_volume 1395.480314
_symmetry_space_group_name_H-M "P 2/M"
_symmetry_group_IT_number 10
_symmetry_cell_setting 'monoclinic'
loop_
_space_group_symop_operation_xyz
x,y,z
-x,y,-z
-x,-y,-z
x,-y,z
loop_
_atom_site_type_symbol
_atom_site_label
_atom_site_fract_x
_atom_site_fract_y
_atom_site_fract_z
Si Si1 0.882002 0.183423 0.088792
Si Si2 0.487382 0.817605 0.188349
Si Si3 0.195329 0.819428 0.643588
Si Si4 0.113509 0.819649 0.470522
Si Si5 0.716969 0.681351 0.783475
Si Si6 0.423898 0.816558 0.454830
Si Si7 0.274943 0.182360 0.002229
O O1 0.846397 0.252304 0.222742
O O2 0.881702 0.000000 0.091190
O O3 0.802119 0.242450 0.045292
O O4 0.000000 0.246367 0.000000
O O5 0.402230 0.744958 0.159215
O O6 0.463295 0.755843 0.319374
O O7 0.476793 0.000000 0.186094
O O8 0.605386 0.763079 0.090854
O O9 0.116727 0.783438 0.593236
O O10 0.308660 0.748229 0.547157
O O11 0.208485 0.000000 0.652555
O O12 0.208390 0.735194 0.355411
O O13 0.000000 0.757925 0.500000
O O14 0.127523 0.000000 0.439574
O O15 0.713751 0.500000 0.787756
O O16 0.764031 0.744138 0.865554
O O17 0.500000 0.751348 0.500000
O O18 0.423399 0.000000 0.454194
O O19 0.267569 0.000000 0.015883
#
# Coordination Sequence:
#
# PCOD8062272 Si02
#       7
#     4   4   4   4   4   4   4
#     4   9  18  31  52  86 121 147 179 234 295 345
#     4  10  19  35  57  85 115 148 192 243 292 340
#     4   9  16  29  50  82 115 140 174 225 285 340
#     4  10  21  37  62  90 114 145 189 238 288 339
#     4  12  25  39  57  82 117 157 196 236 288 346
#     4   9  15  25  48  80 113 142 175 225 285 341
#     4  10  21  36  58  86 117 151 194 242 290 340
#
# _framework density 20.064775000000001
#
# number of rings (size 3 to 8) (size 9 to 14) (size 15 to 20)
#    0.000    2.143    1.429    2.571    2.000    6.000 
#    0.000    0.000    0.000    1.714    0.000    0.000 
#    0.000    0.000    0.000    0.000    0.000    0.000 
#
# Total GULP energy -347208.898868 kJ/mol
# GULP energy per Si atom -12400.317817 kJ/mol
# Density = 2.001911 g / cm^3
# Si number density = 20.064775 Si / 1000 Ang^3
#
#
#
# Elastic Constant Matrix: (Units=GPa)
#
#
# Indices 1 2 3 4 5 6 
#
# 1 151.4851 23.5060 49.9783 0.0000 9.2138 0.0000
# 2 23.5060 30.6342 19.2381 0.0000 1.0430 0.0000
# 3 49.9783 19.2381 126.7111 0.0000 15.1219 0.0000
# 4 0.0000 0.0000 0.0000 7.5617 0.0000 -0.9059
# 5 9.2138 1.0430 15.1219 0.0000 39.9778 0.0000
# 6 0.0000 0.0000 0.0000 -0.9059 0.0000 1.0775
#
#
#
# Elastic Compliance Matrix: (Units=1/GPa)
#
#
# Indices 1 2 3 4 5 6 
#
# 1 0.008182 -0.004738 -0.002406 0.000000 -0.000852 0.000000
# 2 -0.004738 0.038881 -0.004235 0.000000 0.001679 0.000000
# 3 -0.002406 -0.004235 0.009849 0.000000 -0.003060 0.000000
# 4 0.000000 0.000000 0.000000 0.147059 0.000000 0.123642
# 5 -0.000852 0.001679 -0.003060 0.000000 0.026324 0.000000
# 6 0.000000 0.000000 0.000000 0.123642 0.000000 1.032001
#
#
# Mechanical properties :
#
#
# Convention : Reuss Voigt Hill
#
# Bulk Modulus (GPa) = 29.27891 54.91944 42.09918
# Shear Modulus (GPa) = 3.85672 24.13061 13.99366
#
# Velocity S-wave (km/s) = 1.38791 3.47167 2.64374
# Velocity P-wave (km/s) = 4.14636 6.59549 5.50875
#
# Compressibility (1/GPa) = 0.03415427
#
# Stress axis : x y z
#
# Youngs Moduli (GPa) = 122.21607 25.71941 101.53067
#
# Poissons Ratio (x) = 0.12186 0.24431
# Poissons Ratio (y) = 0.57909 0.42995
# Poissons Ratio (z) = 0.29408 0.10891
#
# Static dielectric constant tensor:
#      x y z
#    x 3.875120 0.000000 0.053090 
#    y 0.000000 2.974720 0.000000 
#    z 0.053090 0.000000 3.863540 
# 
# 
# High freq. dielectric constant tensor:
#      x y z
#    x 1.797680 0.000000 0.006590 
#    y 0.000000 1.715070 0.000000 
#    z 0.006590 0.000000 1.798770 
# 
# From -- ./inp_files/49128.got.cif
#   From: 2010.06.25/outbox.cif.g09.slc.cpg/sg10_25_cif.got.tgz:49128.got - 2010.06.27 22:07:45.
