data_PCOD8062088
_publ_section_title
;
Structure prediction by ZEFSAII (Michael W. Deem and Ramdas Pophale) SiO2 
 PCOD8062088
Probable space group: P 2/M
;
_chemical_formula_sum "Si O2"
_cell_formula_units_Z 32
_cell_length_a 27.142544
_cell_length_b 9.069669
_cell_length_c 21.270037
_cell_angle_alpha 90.000000
_cell_angle_beta 161.262621
_cell_angle_gamma 90.000000
_cell_volume 1682.005870
_symmetry_space_group_name_H-M "P 2/M"
_symmetry_group_IT_number 10
_symmetry_cell_setting 'monoclinic'
loop_
_space_group_symop_operation_xyz
x,y,z
-x,y,-z
-x,-y,-z
x,-y,z
loop_
_atom_site_type_symbol
_atom_site_label
_atom_site_fract_x
_atom_site_fract_y
_atom_site_fract_z
Si Si1 0.129023 0.169926 0.555676
Si Si2 0.182038 0.669512 0.837619
Si Si3 0.333477 0.830672 0.685733
Si Si4 0.844440 0.326799 0.781531
Si Si5 0.641689 0.330486 0.075493
Si Si6 0.528968 0.327191 0.463745
Si Si7 0.616048 0.828109 0.823072
Si Si8 0.295227 0.829850 0.498636
O O1 0.190125 0.187449 0.558662
O O2 0.251396 0.232118 0.752010
O O3 0.973633 0.259949 0.375934
O O4 0.097752 0.000000 0.534458
O O5 0.151909 0.500000 0.818211
O O6 0.309062 0.686262 0.937198
O O7 0.238341 0.752924 0.968023
O O8 0.276595 0.780129 0.548243
O O9 0.392507 0.000000 0.754755
O O10 0.469346 0.727590 0.874641
O O11 0.856741 0.500000 0.787834
O O12 0.701996 0.282314 0.653919
O O13 0.825111 0.259975 0.688767
O O14 0.000000 0.262959 0.000000
O O15 0.649469 0.500000 0.107031
O O16 0.500000 0.278352 0.500000
O O17 0.500842 0.500000 0.419916
O O18 0.406800 0.240654 0.273466
O O19 0.467808 0.794225 0.686071
O O20 0.650370 0.000000 0.857660
O O21 0.255977 0.000000 0.441744
#
# Coordination Sequence:
#
# PCOD8062088 Si02
#       8
#     4   4   4   4   4   4   4   4
#     4  11  24  39  57  82 115 150 184 229 285 334
#     4  11  23  39  58  82 113 147 187 233 281 333
#     4  10  21  39  59  82 113 147 186 229 278 334
#     4   9  18  33  53  78 108 140 179 221 262 318
#     4  11  23  38  60  85 110 144 189 233 278 334
#     4   9  18  34  55  78 110 146 180 221 272 324
#     4  10  19  34  59  84 108 143 188 231 272 325
#     4   9  18  34  57  81 107 141 182 225 267 320
#
# _framework density 19.024902999999998
#
# number of rings (size 3 to 8) (size 9 to 14) (size 15 to 20)
#    0.000    2.000    1.250    2.250    0.000    7.000 
#    2.250    0.000    0.000    0.000    0.000    0.000 
#    0.000    0.000    0.000    0.000    0.000    0.000 
#
# Total GULP energy -396955.445924 kJ/mol
# GULP energy per Si atom -12404.857685 kJ/mol
# Density = 1.898160 g / cm^3
# Si number density = 19.024903 Si / 1000 Ang^3
#
#
#
# Elastic Constant Matrix: (Units=GPa)
#
#
# Indices 1 2 3 4 5 6 
#
# 1 68.9522 32.6184 17.0873 0.0000 -20.0516 0.0000
# 2 32.6184 79.8446 32.7941 0.0000 -10.5789 0.0000
# 3 17.0873 32.7941 86.8307 0.0000 -18.1285 0.0000
# 4 0.0000 0.0000 0.0000 34.2776 0.0000 -7.5188
# 5 -20.0516 -10.5789 -18.1285 0.0000 31.0687 0.0000
# 6 0.0000 0.0000 0.0000 -7.5188 0.0000 27.7727
#
#
#
# Elastic Compliance Matrix: (Units=1/GPa)
#
#
# Indices 1 2 3 4 5 6 
#
# 1 0.021235 -0.007584 0.001147 0.000000 0.011792 0.000000
# 2 -0.007584 0.017645 -0.005625 0.000000 -0.002168 0.000000
# 3 0.001147 -0.005625 0.014997 0.000000 0.007576 0.000000
# 4 0.000000 0.000000 0.000000 0.031015 0.000000 0.008397
# 5 0.011792 -0.002168 0.007576 0.000000 0.043480 0.000000
# 6 0.000000 0.000000 0.000000 0.008397 0.000000 0.038280
#
#
# Mechanical properties :
#
#
# Convention : Reuss Voigt Hill
#
# Bulk Modulus (GPa) = 33.60733 44.51414 39.06073
# Shear Modulus (GPa) = 24.91361 28.83231 26.87296
#
# Velocity S-wave (km/s) = 3.62266 3.89717 3.76242
# Velocity P-wave (km/s) = 5.93309 6.61054 6.28095
#
# Compressibility (1/GPa) = 0.02975541
#
# Stress axis : x y z
#
# Youngs Moduli (GPa) = 47.09107 56.67184 66.68066
#
# Poissons Ratio (x) = 0.42980 -0.07651
# Poissons Ratio (y) = 0.35714 0.37505
# Poissons Ratio (z) = -0.05404 0.31875
#
# Static dielectric constant tensor:
#      x y z
#    x 3.521100 0.000000 -0.088980 
#    y 0.000000 3.499780 0.000000 
#    z -0.088980 0.000000 3.432830 
# 
# 
# High freq. dielectric constant tensor:
#      x y z
#    x 1.737380 0.000000 -0.012480 
#    y 0.000000 1.743150 0.000000 
#    z -0.012480 0.000000 1.735260 
# 
# From -- ./inp_files/86928.got.cif
#   From: 2010.06.25/outbox.cif.g09.slc.cpg/sg10_44_cif.got.tgz:86928.got - 2010.06.27 22:07:45.
