data_PCOD8062891
_publ_section_title
;
Structure prediction by ZEFSAII (Michael W. Deem and Ramdas Pophale) SiO2 
 PCOD8062891
Probable space group: P 2/M
;
_chemical_formula_sum "Si O2"
_cell_formula_units_Z 26
_cell_length_a 12.582391
_cell_length_b 9.299597
_cell_length_c 27.951404
_cell_angle_alpha 90.000000
_cell_angle_beta 26.661878
_cell_angle_gamma 90.000000
_cell_volume 1467.610148
_symmetry_space_group_name_H-M "P 2/M"
_symmetry_group_IT_number 10
_symmetry_cell_setting 'monoclinic'
loop_
_space_group_symop_operation_xyz
x,y,z
-x,y,-z
-x,-y,-z
x,-y,z
loop_
_atom_site_type_symbol
_atom_site_label
_atom_site_fract_x
_atom_site_fract_y
_atom_site_fract_z
Si Si1 0.177606 0.170800 0.256325
Si Si2 0.367349 0.330422 0.362391
Si Si3 0.033439 0.658799 0.225897
Si Si4 0.311972 0.841503 0.981172
Si Si5 0.054473 0.670200 0.401209
Si Si6 0.500000 0.748947 0.000000
Si Si7 0.877332 0.329576 0.185644
O O1 0.019130 0.230377 0.275817
O O2 0.456520 0.214593 0.140974
O O3 0.072426 0.240185 0.345913
O O4 0.148396 0.000000 0.268656
O O5 0.378122 0.500000 0.361682
O O6 0.272994 0.286658 0.347954
O O7 0.629404 0.266976 0.265451
O O8 0.187607 0.278544 0.475925
O O9 0.944241 0.500000 0.277713
O O10 0.889132 0.714232 0.237181
O O11 0.306168 0.643500 0.100567
O O12 0.387440 0.854155 0.006078
O O13 0.237503 0.000000 0.993052
O O14 0.086374 0.736055 0.068369
O O15 0.055177 0.500000 0.389952
O O16 0.899701 0.500000 0.171427
#
# Coordination Sequence:
#
# PCOD8062891 Si02
#       7
#     4   4   4   4   4   2   4
#     4  10  20  32  46  68 100 130 158 194 230 270
#     4   8  16  33  55  76  92 113 152 201 245 279
#     4   9  16  26  44  69  95 125 157 189 229 277
#     4   9  17  28  43  65  95 130 160 187 227 275
#     4   9  17  33  57  74  88 117 158 199 237 282
#     4   8  14  24  42  64  90 122 162 200 224 258
#     4   9  17  30  49  73  99 122 152 195 236 278
#
# _framework density 17.715876999999999
#
# number of rings (size 3 to 8) (size 9 to 14) (size 15 to 20)
#    0.000    3.077    0.000    1.846    0.000    8.000 
#    0.000    4.615    0.000    9.231    0.000    0.000 
#    0.000    0.000    0.000    0.000    0.000    0.000 
#
# Total GULP energy -322149.025320 kJ/mol
# GULP energy per Si atom -12390.347128 kJ/mol
# Density = 1.767555 g / cm^3
# Si number density = 17.715877 Si / 1000 Ang^3
#
#
#
# Elastic Constant Matrix: (Units=GPa)
#
#
# Indices 1 2 3 4 5 6 
#
# 1 26.3603 5.2828 -9.0293 0.0000 -3.3456 0.0000
# 2 5.2828 47.2583 4.1420 0.0000 4.2186 0.0000
# 3 -9.0293 4.1420 22.5110 0.0000 -3.9568 0.0000
# 4 0.0000 0.0000 0.0000 18.3935 0.0000 3.3440
# 5 -3.3456 4.2186 -3.9568 0.0000 33.8353 0.0000
# 6 0.0000 0.0000 0.0000 3.3440 0.0000 10.3808
#
#
#
# Elastic Compliance Matrix: (Units=1/GPa)
#
#
# Indices 1 2 3 4 5 6 
#
# 1 0.048274 -0.008103 0.022329 0.000000 0.008395 0.000000
# 2 -0.008103 0.023214 -0.008342 0.000000 -0.004671 0.000000
# 3 0.022329 -0.008342 0.056650 0.000000 0.009873 0.000000
# 4 0.000000 0.000000 0.000000 0.057749 0.000000 -0.018603
# 5 0.008395 -0.004671 0.009873 0.000000 0.032122 0.000000
# 6 0.000000 0.000000 0.000000 -0.018603 0.000000 0.102324
#
#
# Mechanical properties :
#
#
# Convention : Reuss Voigt Hill
#
# Bulk Modulus (GPa) = 7.14768 10.76895 8.95832
# Shear Modulus (GPa) = 14.07658 18.90419 16.49039
#
# Velocity S-wave (km/s) = 2.82188 3.27016 3.05425
# Velocity P-wave (km/s) = 3.82893 4.51115 4.18397
#
# Compressibility (1/GPa) = 0.13990549
#
# Stress axis : x y z
#
# Youngs Moduli (GPa) = 20.71527 43.07706 17.65240
#
# Poissons Ratio (x) = 0.34904 -0.39416
# Poissons Ratio (y) = 0.16785 0.14726
# Poissons Ratio (z) = -0.46256 0.35937
#
# Static dielectric constant tensor:
#      x y z
#    x 3.402010 0.000000 -0.237750 
#    y 0.000000 2.993530 0.000000 
#    z -0.237750 0.000000 3.379320 
# 
# 
# High freq. dielectric constant tensor:
#      x y z
#    x 1.672480 0.000000 -0.001610 
#    y 0.000000 1.663980 0.000000 
#    z -0.001610 0.000000 1.670880 
# 
# From -- ./inp_files/92644.got.cif
#   From: 2010.06.25/outbox.cif.g09.slc.cpg/sg10_47_cif.got.tgz:92644.got - 2010.06.27 22:07:45.
