data_PCOD8062355
_publ_section_title
;
Structure prediction by ZEFSAII (Michael W. Deem and Ramdas Pophale) SiO2 
 PCOD8062355
Probable space group: P 2/M
;
_chemical_formula_sum "Si O2"
_cell_formula_units_Z 24
_cell_length_a 9.860580
_cell_length_b 8.755559
_cell_length_c 14.366060
_cell_angle_alpha 90.000000
_cell_angle_beta 80.666017
_cell_angle_gamma 90.000000
_cell_volume 1223.870360
_symmetry_space_group_name_H-M "P 2/M"
_symmetry_group_IT_number 10
_symmetry_cell_setting 'monoclinic'
loop_
_space_group_symop_operation_xyz
x,y,z
-x,y,-z
-x,-y,-z
x,-y,z
loop_
_atom_site_type_symbol
_atom_site_label
_atom_site_fract_x
_atom_site_fract_y
_atom_site_fract_z
Si Si1 0.384470 0.678762 0.079623
Si Si2 0.912616 0.680952 0.371168
Si Si3 0.259697 0.820238 0.768187
Si Si4 0.846184 0.678630 0.033225
Si Si5 0.449799 0.317847 0.275756
Si Si6 0.197434 0.319270 0.421683
O O1 0.413228 0.500000 0.083520
O O2 0.398029 0.746407 0.181644
O O3 0.500000 0.753379 0.000000
O O4 0.234549 0.712130 0.053720
O O5 0.904893 0.500000 0.355176
O O6 0.862723 0.766337 0.284854
O O7 0.817913 0.731775 0.469352
O O8 0.068076 0.736568 0.374277
O O9 0.227858 0.767667 0.876050
O O10 0.401693 0.748205 0.716060
O O11 0.272833 0.000000 0.764351
O O12 0.843976 0.500000 0.059127
O O13 0.000000 0.738807 0.000000
O O14 0.458787 0.500000 0.276519
O O15 0.340178 0.256352 0.363902
O O16 0.194813 0.500000 0.417693
#
# Coordination Sequence:
#
# PCOD8062355 Si02
#       6
#     4   4   4   4   4   4
#     4   9  16  30  54  83 109 134 173 226 278 325
#     4   9  18  37  61  86 113 141 182 236 289 337
#     4  12  25  38  52  79 118 157 189 223 273 332
#     4  10  21  37  60  86 109 141 185 233 282 328
#     4  10  19  35  59  84 111 144 187 235 279 330
#     4   8  17  34  62  91 109 135 183 242 292 330
#
# _framework density 19.609919999999999
#
# number of rings (size 3 to 8) (size 9 to 14) (size 15 to 20)
#    0.000    2.333    1.667    2.500    2.333    1.000 
#    0.000    8.333    0.000    0.000    0.000    0.000 
#    0.000    0.000    0.000    0.000    0.000    0.000 
#
# Total GULP energy -297567.508893 kJ/mol
# GULP energy per Si atom -12398.646204 kJ/mol
# Density = 1.956529 g / cm^3
# Si number density = 19.609920 Si / 1000 Ang^3
#
#
#
# Elastic Constant Matrix: (Units=GPa)
#
#
# Indices 1 2 3 4 5 6 
#
# 1 95.9629 17.8242 6.6200 0.0000 -11.9412 0.0000
# 2 17.8242 43.9294 15.8452 0.0000 -2.5811 0.0000
# 3 6.6200 15.8452 49.1694 0.0000 -0.6236 0.0000
# 4 0.0000 0.0000 0.0000 6.7776 0.0000 1.7408
# 5 -11.9412 -2.5811 -0.6236 0.0000 39.9029 0.0000
# 6 0.0000 0.0000 0.0000 1.7408 0.0000 2.8408
#
#
#
# Elastic Compliance Matrix: (Units=1/GPa)
#
#
# Indices 1 2 3 4 5 6 
#
# 1 0.011663 -0.004518 -0.000074 0.000000 0.003197 0.000000
# 2 -0.004518 0.027602 -0.008283 0.000000 0.000304 0.000000
# 3 -0.000074 -0.008283 0.023015 0.000000 -0.000198 0.000000
# 4 0.000000 0.000000 0.000000 0.175104 0.000000 -0.107302
# 5 0.003197 0.000304 -0.000198 0.000000 0.026034 0.000000
# 6 0.000000 0.000000 0.000000 -0.107302 0.000000 0.417772
#
#
# Mechanical properties :
#
#
# Convention : Reuss Voigt Hill
#
# Bulk Modulus (GPa) = 27.37426 29.96005 28.66716
# Shear Modulus (GPa) = 6.95299 19.82241 13.38770
#
# Velocity S-wave (km/s) = 1.88503 3.18281 2.61569
# Velocity P-wave (km/s) = 4.32753 5.36826 4.87574
#
# Compressibility (1/GPa) = 0.03653067
#
# Stress axis : x y z
#
# Youngs Moduli (GPa) = 85.74352 36.22887 43.45083
#
# Poissons Ratio (x) = 0.16367 0.00321
# Poissons Ratio (y) = 0.38736 0.35990
# Poissons Ratio (z) = 0.00633 0.30008
#
# Static dielectric constant tensor:
#      x y z
#    x 3.817120 0.000000 -0.139340 
#    y 0.000000 3.044860 0.000000 
#    z -0.139340 0.000000 3.770530 
# 
# 
# High freq. dielectric constant tensor:
#      x y z
#    x 1.775810 0.000000 0.000930 
#    y 0.000000 1.708650 0.000000 
#    z 0.000930 0.000000 1.769700 
# 
# From -- ./inp_files/60269.got.cif
#   From: 2010.06.25/outbox.cif.g09.slc.cpg/sg10_31_cif.got.tgz:60269.got - 2010.06.27 22:07:45.
