data_PCOD8062194
_publ_section_title
;
Structure prediction by ZEFSAII (Michael W. Deem and Ramdas Pophale) SiO2 
 PCOD8062194
Probable space group: P 2/M
;
_chemical_formula_sum "Si O2"
_cell_formula_units_Z 32
_cell_length_a 7.150484
_cell_length_b 9.128647
_cell_length_c 28.320175
_cell_angle_alpha 90.000000
_cell_angle_beta 74.397997
_cell_angle_gamma 90.000000
_cell_volume 1780.463773
_symmetry_space_group_name_H-M "P 2/M"
_symmetry_group_IT_number 10
_symmetry_cell_setting 'monoclinic'
loop_
_space_group_symop_operation_xyz
x,y,z
-x,y,-z
-x,-y,-z
x,-y,z
loop_
_atom_site_type_symbol
_atom_site_label
_atom_site_fract_x
_atom_site_fract_y
_atom_site_fract_z
Si Si1 0.526428 0.829987 0.944196
Si Si2 0.310897 0.331952 0.304482
Si Si3 0.311309 0.328084 0.878282
Si Si4 0.901550 0.336279 0.363792
Si Si5 0.710496 0.330904 0.802204
Si Si6 0.925518 0.171745 0.867461
Si Si7 0.442118 0.666047 0.554214
Si Si8 0.567097 0.829062 0.354594
O O1 0.372427 0.735633 0.924938
O O2 0.748654 0.795214 0.915246
O O3 0.477596 0.000000 0.938869
O O4 0.500000 0.784250 0.000000
O O5 0.379811 0.500000 0.303895
O O6 0.258675 0.292075 0.254536
O O7 0.477168 0.226056 0.311833
O O8 0.127146 0.297990 0.350845
O O9 0.270043 0.500000 0.886056
O O10 0.487364 0.294903 0.830288
O O11 0.117855 0.250804 0.872819
O O12 0.877564 0.500000 0.343781
O O13 0.794165 0.330269 0.422580
O O14 0.792557 0.220572 0.336996
O O15 0.757091 0.500000 0.810041
O O16 0.863551 0.233146 0.820561
O O17 0.968675 0.000000 0.860138
O O18 0.500000 0.737882 0.500000
O O19 0.522663 0.500000 0.550729
O O20 0.535343 0.755072 0.592048
O O21 0.544960 0.000000 0.360632
#
# Coordination Sequence:
#
# PCOD8062194 Si02
#       8
#     4   4   4   4   4   4   4   4
#     4   9  19  36  56  78 105 138 176 216 256 301
#     4  10  19  35  56  74  98 133 175 215 251 300
#     4  10  20  35  54  77 107 138 173 214 257 308
#     4   8  17  33  52  73  96 128 169 209 247 291
#     4   9  20  36  54  75  99 133 174 217 258 298
#     4  10  20  35  55  77 104 137 172 212 258 308
#     4   8  15  32  55  75  98 131 171 210 249 297
#     4  10  20  32  49  75 107 134 160 202 256 309
#
# _framework density 17.972845
#
# number of rings (size 3 to 8) (size 9 to 14) (size 15 to 20)
#    0.750    2.000    0.000    1.500    0.000    4.000 
#    0.000    8.125    0.000    3.750    0.000    0.000 
#    0.000    0.000    0.000    0.000    0.000    0.000 
#
# Total GULP energy -396550.614931 kJ/mol
# GULP energy per Si atom -12392.206717 kJ/mol
# Density = 1.793194 g / cm^3
# Si number density = 17.972845 Si / 1000 Ang^3
#
#
#
# Elastic Constant Matrix: (Units=GPa)
#
#
# Indices 1 2 3 4 5 6 
#
# 1 82.2341 43.5013 19.3947 0.0000 13.1186 0.0000
# 2 43.5013 97.2693 33.1681 0.0000 15.7371 0.0000
# 3 19.3947 33.1681 70.0073 0.0000 4.8581 0.0000
# 4 0.0000 0.0000 0.0000 21.2949 0.0000 4.0727
# 5 13.1186 15.7371 4.8581 0.0000 21.9068 0.0000
# 6 0.0000 0.0000 0.0000 4.0727 0.0000 25.2826
#
#
#
# Elastic Compliance Matrix: (Units=1/GPa)
#
#
# Indices 1 2 3 4 5 6 
#
# 1 0.016532 -0.006094 -0.001330 0.000000 -0.005227 0.000000
# 2 -0.006094 0.015910 -0.005393 0.000000 -0.006584 0.000000
# 3 -0.001330 -0.005393 0.017147 0.000000 0.000868 0.000000
# 4 0.000000 0.000000 0.000000 0.048452 0.000000 -0.007805
# 5 -0.005227 -0.006584 0.000868 0.000000 0.053315 0.000000
# 6 0.000000 0.000000 0.000000 -0.007805 0.000000 0.040810
#
#
# Mechanical properties :
#
#
# Convention : Reuss Voigt Hill
#
# Bulk Modulus (GPa) = 41.74367 49.07098 45.40733
# Shear Modulus (GPa) = 22.14482 23.92664 23.03573
#
# Velocity S-wave (km/s) = 3.51397 3.65261 3.58396
# Velocity P-wave (km/s) = 6.30400 6.71944 6.51503
#
# Compressibility (1/GPa) = 0.02395573
#
# Stress axis : x y z
#
# Youngs Moduli (GPa) = 60.48980 62.85202 58.31776
#
# Poissons Ratio (x) = 0.38304 0.07755
# Poissons Ratio (y) = 0.36864 0.31450
# Poissons Ratio (z) = 0.08044 0.33895
#
# Static dielectric constant tensor:
#      x y z
#    x 3.191380 0.000000 -0.110570 
#    y 0.000000 3.267330 0.000000 
#    z -0.110570 0.000000 3.302230 
# 
# 
# High freq. dielectric constant tensor:
#      x y z
#    x 1.684020 0.000000 -0.003510 
#    y 0.000000 1.692910 0.000000 
#    z -0.003510 0.000000 1.686980 
# 
# From -- ./inp_files/94337.got.cif
#   From: 2010.06.25/outbox.cif.g09.slc.cpg/sg10_48_cif.got.tgz:94337.got - 2010.06.27 22:07:45.
