data_PCOD8062588
_publ_section_title
;
Structure prediction by ZEFSAII (Michael W. Deem and Ramdas Pophale) SiO2 
 PCOD8062588
Probable space group: P 2/M
;
_chemical_formula_sum "Si O2"
_cell_formula_units_Z 28
_cell_length_a 21.188291
_cell_length_b 8.655624
_cell_length_c 15.686180
_cell_angle_alpha 90.000000
_cell_angle_beta 28.722478
_cell_angle_gamma 90.000000
_cell_volume 1382.502652
_symmetry_space_group_name_H-M "P 2/M"
_symmetry_group_IT_number 10
_symmetry_cell_setting 'monoclinic'
loop_
_space_group_symop_operation_xyz
x,y,z
-x,y,-z
-x,-y,-z
x,-y,z
loop_
_atom_site_type_symbol
_atom_site_label
_atom_site_fract_x
_atom_site_fract_y
_atom_site_fract_z
Si Si1 0.024275 0.178737 0.592997
Si Si2 0.898079 0.820149 0.045593
Si Si3 0.658094 0.180017 0.563247
Si Si4 0.465178 0.180525 0.944331
Si Si5 0.920296 0.321385 0.299376
Si Si6 0.391214 0.181503 0.564979
Si Si7 0.808105 0.679287 0.750451
O O1 0.087762 0.217673 0.607362
O O2 0.135129 0.217165 0.392636
O O3 0.891790 0.278929 0.735695
O O4 0.987455 0.000000 0.630779
O O5 0.754092 0.756337 0.240187
O O6 0.894621 0.000000 0.024652
O O7 0.000000 0.789474 0.000000
O O8 0.947257 0.720995 0.907381
O O9 0.580136 0.223318 0.741752
O O10 0.790603 0.279124 0.399666
O O11 0.576721 0.219262 0.572739
O O12 0.696991 0.000000 0.516865
O O13 0.431221 0.000000 0.980125
O O14 0.500000 0.229274 0.000000
O O15 0.342745 0.279224 0.056760
O O16 0.921211 0.500000 0.322700
O O17 0.500000 0.256624 0.500000
O O18 0.391098 0.000000 0.579798
O O19 0.824183 0.500000 0.709304
#
# Coordination Sequence:
#
# PCOD8062588 Si02
#       7
#     4   4   4   4   4   4   4
#     4  11  22  39  62  85 114 155 204 247 294 355
#     4  10  19  36  61  86 115 152 198 244 296 360
#     4  10  20  37  59  83 115 156 204 251 297 355
#     4  10  21  36  57  85 117 158 206 247 288 353
#     4  12  24  37  58  89 121 151 196 248 311 364
#     4   9  18  34  58  87 116 150 198 252 301 353
#     4  11  22  38  59  86 124 157 192 245 307 359
#
# _framework density 20.253126999999999
#
# number of rings (size 3 to 8) (size 9 to 14) (size 15 to 20)
#    0.000    1.571    1.429    5.571    0.000    3.429 
#    0.000    2.857    0.000    1.714    0.000    0.000 
#    0.000    0.000    0.000    0.000    0.000    0.000 
#
# Total GULP energy -347225.603862 kJ/mol
# GULP energy per Si atom -12400.914424 kJ/mol
# Density = 2.020703 g / cm^3
# Si number density = 20.253127 Si / 1000 Ang^3
#
#
#
# Elastic Constant Matrix: (Units=GPa)
#
#
# Indices 1 2 3 4 5 6 
#
# 1 118.2109 22.2737 55.7210 0.0000 1.3366 0.0000
# 2 22.2737 69.8932 29.6608 0.0000 0.5030 0.0000
# 3 55.7210 29.6608 114.0520 0.0000 -5.7115 0.0000
# 4 0.0000 0.0000 0.0000 7.6171 0.0000 -3.7197
# 5 1.3366 0.5030 -5.7115 0.0000 34.9255 0.0000
# 6 0.0000 0.0000 0.0000 -3.7197 0.0000 16.8158
#
#
#
# Elastic Compliance Matrix: (Units=1/GPa)
#
#
# Indices 1 2 3 4 5 6 
#
# 1 0.011163 -0.001357 -0.005164 0.000000 -0.001252 0.000000
# 2 -0.001357 0.016277 -0.003609 0.000000 -0.000773 0.000000
# 3 -0.005164 -0.003609 0.012343 0.000000 0.002268 0.000000
# 4 0.000000 0.000000 0.000000 0.147182 0.000000 0.032557
# 5 -0.001252 -0.000773 0.002268 0.000000 0.029062 0.000000
# 6 0.000000 0.000000 0.000000 0.032557 0.000000 0.066670
#
#
# Mechanical properties :
#
#
# Convention : Reuss Voigt Hill
#
# Bulk Modulus (GPa) = 51.21905 57.49635 54.35770
# Shear Modulus (GPa) = 16.15696 24.83839 20.49767
#
# Velocity S-wave (km/s) = 2.82751 3.50580 3.18476
# Velocity P-wave (km/s) = 6.00034 6.69612 6.35776
#
# Compressibility (1/GPa) = 0.01952399
#
# Stress axis : x y z
#
# Youngs Moduli (GPa) = 89.57888 61.43617 81.01922
#
# Poissons Ratio (x) = 0.08338 0.41836
# Poissons Ratio (y) = 0.12158 0.29237
# Poissons Ratio (z) = 0.46256 0.22170
#
# Static dielectric constant tensor:
#      x y z
#    x 3.895080 0.000000 -0.028860 
#    y 0.000000 3.384410 0.000000 
#    z -0.028860 0.000000 3.694350 
# 
# 
# High freq. dielectric constant tensor:
#      x y z
#    x 1.798090 0.000000 0.000900 
#    y 0.000000 1.768360 0.000000 
#    z 0.000900 0.000000 1.789020 
# 
# From -- ./inp_files/70163.got.cif
#   From: 2010.06.25/outbox.cif.g09.slc.cpg/sg10_36_cif.got.tgz:70163.got - 2010.06.27 22:07:45.
