data_PCOD8062608
_publ_section_title
;
Structure prediction by ZEFSAII (Michael W. Deem and Ramdas Pophale) SiO2 
 PCOD8062608
Probable space group: P 2/M
;
_chemical_formula_sum "Si O2"
_cell_formula_units_Z 28
_cell_length_a 9.782199
_cell_length_b 9.088121
_cell_length_c 25.819935
_cell_angle_alpha 90.000000
_cell_angle_beta 140.430945
_cell_angle_gamma 90.000000
_cell_volume 1462.212371
_symmetry_space_group_name_H-M "P 2/M"
_symmetry_group_IT_number 10
_symmetry_cell_setting 'monoclinic'
loop_
_space_group_symop_operation_xyz
x,y,z
-x,y,-z
-x,-y,-z
x,-y,z
loop_
_atom_site_type_symbol
_atom_site_label
_atom_site_fract_x
_atom_site_fract_y
_atom_site_fract_z
Si Si1 0.167978 0.327842 0.505634
Si Si2 0.439782 0.326176 0.924570
Si Si3 0.639943 0.332541 0.681820
Si Si4 0.043181 0.826863 0.757994
Si Si5 0.506693 0.330756 0.756020
Si Si6 0.919921 0.173379 0.349952
Si Si7 0.760437 0.674645 0.929715
O O1 0.139713 0.500000 0.487029
O O2 0.406030 0.287832 0.593222
O O3 0.000000 0.274171 0.500000
O O4 0.123118 0.242380 0.439046
O O5 0.406471 0.500000 0.910668
O O6 0.217237 0.251249 0.844773
O O7 0.629573 0.271731 0.941892
O O8 0.500000 0.277477 0.000000
O O9 0.695776 0.500000 0.682171
O O10 0.650919 0.316251 0.747040
O O11 0.807274 0.221189 0.706001
O O12 0.076062 0.777300 0.708508
O O13 0.067329 0.000000 0.771859
O O14 0.437331 0.500000 0.744772
O O15 0.294760 0.235009 0.686565
O O16 0.641978 0.267914 0.843705
O O17 0.928408 0.000000 0.358580
O O18 0.774870 0.500000 0.932861
O O19 0.000000 0.742526 0.000000
#
# Coordination Sequence:
#
# PCOD8062608 Si02
#       7
#     4   4   4   4   4   4   4
#     4  10  20  38  62  89 118 148 193 249 300 347
#     4  10  21  37  62  90 116 151 197 245 293 348
#     4  10  22  38  61  90 116 149 198 249 294 349
#     4  11  25  42  58  82 123 165 198 235 288 355
#     4  10  19  36  62  87 116 153 194 245 295 344
#     4  11  23  38  59  85 118 160 199 236 286 354
#     4   9  18  32  56  90 119 144 183 240 295 340
#
# _framework density 19.149066000000001
#
# number of rings (size 3 to 8) (size 9 to 14) (size 15 to 20)
#    0.000    1.857    2.857    0.857    2.000    4.000 
#    0.000    2.857    0.000    0.857    0.000    0.000 
#    0.000    0.000    0.000    0.000    0.000    0.000 
#
# Total GULP energy -347313.925580 kJ/mol
# GULP energy per Si atom -12404.068771 kJ/mol
# Density = 1.910548 g / cm^3
# Si number density = 19.149066 Si / 1000 Ang^3
#
#
#
# Elastic Constant Matrix: (Units=GPa)
#
#
# Indices 1 2 3 4 5 6 
#
# 1 78.8501 34.2236 49.0819 0.0000 5.0106 0.0000
# 2 34.2236 43.6874 41.1626 0.0000 -6.1267 0.0000
# 3 49.0819 41.1626 135.0338 0.0000 -6.2263 0.0000
# 4 0.0000 0.0000 0.0000 17.8757 0.0000 -4.8473
# 5 5.0106 -6.1267 -6.2263 0.0000 36.6353 0.0000
# 6 0.0000 0.0000 0.0000 -4.8473 0.0000 22.1901
#
#
#
# Elastic Compliance Matrix: (Units=1/GPa)
#
#
# Indices 1 2 3 4 5 6 
#
# 1 0.021570 -0.014152 -0.003801 0.000000 -0.005963 0.000000
# 2 -0.014152 0.041914 -0.007277 0.000000 0.007708 0.000000
# 3 -0.003801 -0.007277 0.011060 0.000000 0.001183 0.000000
# 4 0.000000 0.000000 0.000000 0.059464 0.000000 0.012989
# 5 -0.005963 0.007708 0.001183 0.000000 0.029602 0.000000
# 6 0.000000 0.000000 0.000000 0.012989 0.000000 0.047903
#
#
# Mechanical properties :
#
#
# Convention : Reuss Voigt Hill
#
# Bulk Modulus (GPa) = 41.52324 56.27862 48.90093
# Shear Modulus (GPa) = 18.51847 24.21375 21.36611
#
# Velocity S-wave (km/s) = 3.11315 3.55982 3.34395
# Velocity P-wave (km/s) = 5.88673 6.80808 6.36410
#
# Compressibility (1/GPa) = 0.02408290
#
# Stress axis : x y z
#
# Youngs Moduli (GPa) = 46.36125 23.85841 90.41538
#
# Poissons Ratio (x) = 0.33764 0.34368
# Poissons Ratio (y) = 0.65610 0.65798
# Poissons Ratio (z) = 0.17622 0.17363
#
# Static dielectric constant tensor:
#      x y z
#    x 3.562990 0.000000 -0.105160 
#    y 0.000000 3.217830 0.000000 
#    z -0.105160 0.000000 3.660530 
# 
# 
# High freq. dielectric constant tensor:
#      x y z
#    x 1.747810 0.000000 -0.006540 
#    y 0.000000 1.719060 0.000000 
#    z -0.006540 0.000000 1.758420 
# 
# From -- ./inp_files/37002.got.cif
#   From: 2010.06.25/outbox.cif.g09.slc.cpg/sg10_19_cif.got.tgz:37002.got - 2010.06.27 22:07:45.
