data_PCOD8062676
_publ_section_title
;
Structure prediction by ZEFSAII (Michael W. Deem and Ramdas Pophale) SiO2 
 PCOD8062676
Probable space group: P 2/M
;
_chemical_formula_sum "Si O2"
_cell_formula_units_Z 32
_cell_length_a 14.880490
_cell_length_b 8.486185
_cell_length_c 14.758103
_cell_angle_alpha 90.000000
_cell_angle_beta 59.344030
_cell_angle_gamma 90.000000
_cell_volume 1603.179295
_symmetry_space_group_name_H-M "P 2/M"
_symmetry_group_IT_number 10
_symmetry_cell_setting 'monoclinic'
loop_
_space_group_symop_operation_xyz
x,y,z
-x,y,-z
-x,-y,-z
x,-y,z
loop_
_atom_site_type_symbol
_atom_site_label
_atom_site_fract_x
_atom_site_fract_y
_atom_site_fract_z
Si Si1 0.898816 0.687185 0.608095
Si Si2 0.446819 0.316089 0.939960
Si Si3 0.056617 0.685556 0.213853
Si Si4 0.773574 0.688046 0.012799
Si Si5 0.270052 0.817281 0.434164
Si Si6 0.821151 0.316594 0.340810
Si Si7 0.489545 0.317499 0.287956
Si Si8 0.705524 0.183219 0.232737
O O1 0.889417 0.500000 0.609256
O O2 0.909577 0.751793 0.705144
O O3 0.793952 0.759292 0.620116
O O4 0.000000 0.744196 0.500000
O O5 0.436698 0.500000 0.964225
O O6 0.517334 0.281358 0.815779
O O7 0.500000 0.233264 0.000000
O O8 0.330325 0.250556 0.984731
O O9 0.071841 0.500000 0.209491
O O10 0.129228 0.752589 0.095894
O O11 0.938136 0.731778 0.251258
O O12 0.773944 0.500000 0.024676
O O13 0.775506 0.763709 0.111370
O O14 0.205005 0.784699 0.557746
O O15 0.379665 0.726996 0.388118
O O16 0.294197 0.000000 0.411190
O O17 0.815611 0.500000 0.370365
O O18 0.742581 0.280466 0.300476
O O19 0.515203 0.500000 0.292480
O O20 0.582924 0.217205 0.283406
O O21 0.722688 0.000000 0.242332
#
# Coordination Sequence:
#
# PCOD8062676 Si02
#       8
#     4   4   4   4   4   4   4   4
#     4  10  19  37  62  87 118 159 205 249 290 339
#     4   8  15  28  52  85 113 141 186 241 288 332
#     4   9  19  35  61  91 116 151 204 256 289 332
#     4   9  18  35  58  85 117 154 198 242 290 345
#     4  12  25  39  57  89 127 160 193 239 302 362
#     4  11  22  41  64  87 113 152 207 254 292 345
#     4  10  21  39  63  87 114 154 201 245 290 347
#     4  11  23  41  61  86 121 155 189 243 307 359
#
# _framework density 19.960338
#
# number of rings (size 3 to 8) (size 9 to 14) (size 15 to 20)
#    0.000    2.000    1.250    3.750    1.750    1.250 
#    0.000    6.875    0.000    1.875    0.000    0.000 
#    0.000    0.000    0.000    0.000    0.000    0.000 
#
# Total GULP energy -396842.045708 kJ/mol
# GULP energy per Si atom -12401.313928 kJ/mol
# Density = 1.991491 g / cm^3
# Si number density = 19.960338 Si / 1000 Ang^3
#
#
#
# Elastic Constant Matrix: (Units=GPa)
#
#
# Indices 1 2 3 4 5 6 
#
# 1 89.6465 18.6855 31.7956 0.0000 5.6313 0.0000
# 2 18.6855 40.1083 18.6439 0.0000 -1.6883 0.0000
# 3 31.7956 18.6439 64.7828 0.0000 -14.9620 0.0000
# 4 0.0000 0.0000 0.0000 13.3663 0.0000 0.4274
# 5 5.6313 -1.6883 -14.9620 0.0000 39.7156 0.0000
# 6 0.0000 0.0000 0.0000 0.4274 0.0000 16.8980
#
#
#
# Elastic Compliance Matrix: (Units=1/GPa)
#
#
# Indices 1 2 3 4 5 6 
#
# 1 0.014868 -0.003700 -0.007399 0.000000 -0.005053 0.000000
# 2 -0.003700 0.029861 -0.006970 0.000000 -0.000832 0.000000
# 3 -0.007399 -0.006970 0.023273 0.000000 0.009520 0.000000
# 4 0.000000 0.000000 0.000000 0.074876 0.000000 -0.001894
# 5 -0.005053 -0.000832 0.009520 0.000000 0.029447 0.000000
# 6 0.000000 0.000000 0.000000 -0.001894 0.000000 0.059226
#
#
# Mechanical properties :
#
#
# Convention : Reuss Voigt Hill
#
# Bulk Modulus (GPa) = 31.38433 36.97642 34.18037
# Shear Modulus (GPa) = 17.96557 22.35681 20.16119
#
# Velocity S-wave (km/s) = 3.00336 3.35036 3.18160
# Velocity P-wave (km/s) = 5.27109 5.79066 5.53697
#
# Compressibility (1/GPa) = 0.03186304
#
# Stress axis : x y z
#
# Youngs Moduli (GPa) = 67.25886 33.48842 42.96901
#
# Poissons Ratio (x) = 0.12390 0.31795
# Poissons Ratio (y) = 0.24884 0.29950
# Poissons Ratio (z) = 0.49768 0.23342
#
# Static dielectric constant tensor:
#      x y z
#    x 3.736100 0.000000 0.026290 
#    y 0.000000 3.291840 0.000000 
#    z 0.026290 0.000000 3.767520 
# 
# 
# High freq. dielectric constant tensor:
#      x y z
#    x 1.785250 0.000000 -0.000090 
#    y 0.000000 1.749680 0.000000 
#    z -0.000090 0.000000 1.783200 
# 
# From -- ./inp_files/66496.got.cif
#   From: 2010.06.25/outbox.cif.g09.slc.cpg/sg10_34_cif.got.tgz:66496.got - 2010.06.27 22:07:45.
