data_PCOD8062599
_publ_section_title
;
Structure prediction by ZEFSAII (Michael W. Deem and Ramdas Pophale) SiO2 
 PCOD8062599
Probable space group: P 2/M
;
_chemical_formula_sum "Si O2"
_cell_formula_units_Z 14
_cell_length_a 4.993987
_cell_length_b 13.237465
_cell_length_c 10.376494
_cell_angle_alpha 90.000000
_cell_angle_beta 102.587132
_cell_angle_gamma 90.000000
_cell_volume 669.479741
_symmetry_space_group_name_H-M "P 2/M"
_symmetry_group_IT_number 10
_symmetry_cell_setting 'monoclinic'
loop_
_space_group_symop_operation_xyz
x,y,z
-x,y,-z
-x,-y,-z
x,-y,z
loop_
_atom_site_type_symbol
_atom_site_label
_atom_site_fract_x
_atom_site_fract_y
_atom_site_fract_z
Si Si1 0.000000 0.744277 0.500000
Si Si2 0.773224 0.206323 0.726466
Si Si3 0.664378 0.116989 0.143651
Si Si4 0.445172 0.611168 0.644280
O O1 0.191590 0.812055 0.425604
O O2 0.163680 0.675089 0.621190
O O3 0.524049 0.136594 0.750737
O O4 0.684900 0.324044 0.739185
O O5 0.055292 0.180792 0.828459
O O6 0.746699 0.000000 0.147541
O O7 0.500000 0.151074 0.000000
O O8 0.500000 0.597166 0.500000
O O9 0.418551 0.500000 0.706702
#
# Coordination Sequence:
#
# PCOD8062599 Si02
#       4
#     2   4   4   4
#     4  10  19  36  61  92 132 154 189 236 301 360
#     4  11  21  39  62  93 123 150 196 250 298 349
#     4  11  24  43  65  85 110 157 213 253 290 345
#     4   9  18  33  60  91 124 160 195 231 286 358
#
# _framework density 20.911760999999998
#
# number of rings (size 3 to 8) (size 9 to 14) (size 15 to 20)
#    0.000    1.714    2.857    2.143    0.000    3.429 
#    0.000    4.286    0.000    5.143    0.000    0.000 
#    0.000    0.000    0.000    0.000    0.000    0.000 
#
# Total GULP energy -173458.529023 kJ/mol
# GULP energy per Si atom -12389.894930 kJ/mol
# Density = 2.086417 g / cm^3
# Si number density = 20.911761 Si / 1000 Ang^3
#
#
#
# Elastic Constant Matrix: (Units=GPa)
#
#
# Indices 1 2 3 4 5 6 
#
# 1 127.4838 46.9285 35.4888 0.0000 25.0640 0.0000
# 2 46.9285 105.9938 60.0341 0.0000 28.1640 0.0000
# 3 35.4888 60.0341 57.1862 0.0000 16.8667 0.0000
# 4 0.0000 0.0000 0.0000 19.6219 0.0000 16.2042
# 5 25.0640 28.1640 16.8667 0.0000 43.7380 0.0000
# 6 0.0000 0.0000 0.0000 16.2042 0.0000 22.6088
#
#
#
# Elastic Compliance Matrix: (Units=1/GPa)
#
#
# Indices 1 2 3 4 5 6 
#
# 1 0.010086 -0.001441 -0.003741 0.000000 -0.003409 0.000000
# 2 -0.001441 0.025113 -0.023631 0.000000 -0.006232 0.000000
# 3 -0.003741 -0.023631 0.044565 0.000000 0.000175 0.000000
# 4 0.000000 0.000000 0.000000 0.124876 0.000000 -0.089502
# 5 -0.003409 -0.006232 0.000175 0.000000 0.028763 0.000000
# 6 0.000000 0.000000 0.000000 -0.089502 0.000000 0.108378
#
#
# Mechanical properties :
#
#
# Convention : Reuss Voigt Hill
#
# Bulk Modulus (GPa) = 45.17206 63.95185 54.56195
# Shear Modulus (GPa) = 12.29141 27.07456 19.68298
#
# Velocity S-wave (km/s) = 2.42704 3.60210 3.07129
# Velocity P-wave (km/s) = 5.43159 6.92448 6.22296
#
# Compressibility (1/GPa) = 0.02213758
#
# Stress axis : x y z
#
# Youngs Moduli (GPa) = 99.14431 39.81990 22.43898
#
# Poissons Ratio (x) = 0.05737 0.08395
# Poissons Ratio (y) = 0.14283 0.53027
# Poissons Ratio (z) = 0.37094 0.94100
#
# Static dielectric constant tensor:
#      x y z
#    x 4.127920 0.000000 0.006450 
#    y 0.000000 4.007760 0.000000 
#    z 0.006450 0.000000 3.534840 
# 
# 
# High freq. dielectric constant tensor:
#      x y z
#    x 1.844580 0.000000 0.004540 
#    y 0.000000 1.801090 0.000000 
#    z 0.004540 0.000000 1.775170 
# 
# From -- ./inp_files/38523.got.cif
#   From: 2010.06.25/outbox.cif.g09.slc.cpg/sg10_20_cif.got.tgz:38523.got - 2010.06.27 22:07:45.
