data_PCOD8062318
_publ_section_title
;
Structure prediction by ZEFSAII (Michael W. Deem and Ramdas Pophale) SiO2 
 PCOD8062318
Probable space group: P 2/M
;
_chemical_formula_sum "Si O2"
_cell_formula_units_Z 28
_cell_length_a 15.025815
_cell_length_b 8.878782
_cell_length_c 11.151280
_cell_angle_alpha 90.000000
_cell_angle_beta 112.946051
_cell_angle_gamma 90.000000
_cell_volume 1369.984286
_symmetry_space_group_name_H-M "P 2/M"
_symmetry_group_IT_number 10
_symmetry_cell_setting 'monoclinic'
loop_
_space_group_symop_operation_xyz
x,y,z
-x,y,-z
-x,-y,-z
x,-y,z
loop_
_atom_site_type_symbol
_atom_site_label
_atom_site_fract_x
_atom_site_fract_y
_atom_site_fract_z
Si Si1 0.160625 0.824681 0.429432
Si Si2 0.238269 0.673695 0.675355
Si Si3 0.088362 0.180297 0.970542
Si Si4 0.460984 0.820339 0.348184
Si Si5 0.753081 0.175511 0.776139
Si Si6 0.943718 0.178001 0.306763
Si Si7 0.548548 0.677509 0.151855
O O1 0.243035 0.723597 0.538476
O O2 0.176836 0.792062 0.298501
O O3 0.050778 0.773629 0.407305
O O4 0.177864 0.000000 0.468486
O O5 0.214333 0.500000 0.678379
O O6 0.144677 0.770663 0.659517
O O7 0.336743 0.715037 0.796897
O O8 0.078337 0.249234 0.834035
O O9 0.085337 0.000000 0.969885
O O10 0.190194 0.238288 0.078171
O O11 0.000000 0.245757 0.000000
O O12 0.500000 0.767470 0.500000
O O13 0.352672 0.752103 0.288231
O O14 0.511993 0.755066 0.255183
O O15 0.469123 0.000000 0.343384
O O16 0.734344 0.000000 0.779301
O O17 0.943495 0.000000 0.299523
O O18 0.531066 0.500000 0.157172
O O19 0.500000 0.734663 0.000000
#
# Coordination Sequence:
#
# PCOD8062318 Si02
#       7
#     4   4   4   4   4   4   4
#     4  10  19  35  58  85 116 148 181 220 271 334
#     4  11  24  39  56  77 108 149 189 232 283 329
#     4   9  15  28  50  80 112 141 176 218 265 322
#     4  10  21  37  60  92 121 145 184 242 301 349
#     4   9  17  30  53  83 115 144 173 220 278 330
#     4  10  20  33  56  86 113 145 185 224 267 329
#     4  10  24  45  62  79 111 156 204 248 291 345
#
# _framework density 20.438192000000001
#
# number of rings (size 3 to 8) (size 9 to 14) (size 15 to 20)
#    0.000    2.143    1.429    1.714    2.000    5.143 
#    0.000    0.714    0.000    1.286    0.000    0.000 
#    0.000    0.000    0.000    0.000    0.000    0.000 
#
# Total GULP energy -346878.211104 kJ/mol
# GULP energy per Si atom -12388.507539 kJ/mol
# Density = 2.039167 g / cm^3
# Si number density = 20.438192 Si / 1000 Ang^3
#
#
#
# Elastic Constant Matrix: (Units=GPa)
#
#
# Indices 1 2 3 4 5 6 
#
# 1 99.8869 20.2563 48.3100 0.0000 17.4240 0.0000
# 2 20.2563 14.5221 30.8248 0.0000 7.1998 0.0000
# 3 48.3100 30.8248 165.7450 0.0000 20.5798 0.0000
# 4 0.0000 0.0000 0.0000 17.2842 0.0000 6.8541
# 5 17.4240 7.1998 20.5798 0.0000 36.4700 0.0000
# 6 0.0000 0.0000 0.0000 6.8541 0.0000 10.1445
#
#
#
# Elastic Compliance Matrix: (Units=1/GPa)
#
#
# Indices 1 2 3 4 5 6 
#
# 1 0.014326 -0.017175 -0.000594 0.000000 -0.003118 0.000000
# 2 -0.017175 0.138877 -0.019826 0.000000 -0.008024 0.000000
# 3 -0.000594 -0.019826 0.010079 0.000000 -0.001489 0.000000
# 4 0.000000 0.000000 0.000000 0.079031 0.000000 -0.053397
# 5 -0.003118 -0.008024 -0.001489 0.000000 0.031334 0.000000
# 6 0.000000 0.000000 0.000000 -0.053397 0.000000 0.134653
#
#
# Mechanical properties :
#
#
# Convention : Reuss Voigt Hill
#
# Bulk Modulus (GPa) = 11.35180 53.21513 32.28347
# Shear Modulus (GPa) = 9.74940 24.83061 17.29000
#
# Velocity S-wave (km/s) = 2.18645 3.48934 2.91170
# Velocity P-wave (km/s) = 3.45548 6.50597 5.20903
#
# Compressibility (1/GPa) = 0.08809175
#
# Stress axis : x y z
#
# Youngs Moduli (GPa) = 69.80529 7.20062 99.21994
#
# Poissons Ratio (x) = 0.12367 0.05895
# Poissons Ratio (y) = 1.19889 1.96710
# Poissons Ratio (z) = 0.04148 0.14276
#
# Static dielectric constant tensor:
#      x y z
#    x 3.788320 0.000000 0.110080 
#    y 0.000000 3.230190 0.000000 
#    z 0.110080 0.000000 4.375820 
# 
# 
# High freq. dielectric constant tensor:
#      x y z
#    x 1.804020 0.000000 0.005870 
#    y 0.000000 1.743320 0.000000 
#    z 0.005870 0.000000 1.826560 
# 
# From -- ./inp_files/50041.got.cif
#   From: 2010.06.25/outbox.cif.g09.slc.cpg/sg10_26_cif.got.tgz:50041.got - 2010.06.27 22:07:45.
