data_PCOD8062452
_publ_section_title
;
Structure prediction by ZEFSAII (Michael W. Deem and Ramdas Pophale) SiO2 
 PCOD8062452
Probable space group: P 2/M
;
_chemical_formula_sum "Si O2"
_cell_formula_units_Z 32
_cell_length_a 15.487265
_cell_length_b 14.456622
_cell_length_c 22.223663
_cell_angle_alpha 90.000000
_cell_angle_beta 19.822440
_cell_angle_gamma 90.000000
_cell_volume 1687.303370
_symmetry_space_group_name_H-M "P 2/M"
_symmetry_group_IT_number 10
_symmetry_cell_setting 'monoclinic'
loop_
_space_group_symop_operation_xyz
x,y,z
-x,y,-z
-x,-y,-z
x,-y,z
loop_
_atom_site_type_symbol
_atom_site_label
_atom_site_fract_x
_atom_site_fract_y
_atom_site_fract_z
Si Si1 0.725469 0.391909 0.964491
Si Si2 0.116807 0.701176 0.018353
Si Si3 0.917705 0.897552 0.914374
Si Si4 0.026391 0.898499 0.710208
Si Si5 0.864645 0.607809 0.651124
Si Si6 0.040677 0.704370 0.653826
Si Si7 0.622743 0.289502 0.270680
Si Si8 0.398120 0.098459 0.673113
O O1 0.764275 0.500000 0.931603
O O2 0.861152 0.345539 0.819037
O O3 0.848877 0.360917 0.945857
O O4 0.430021 0.364787 0.158909
O O5 0.298588 0.666101 0.844886
O O6 0.202601 0.807929 0.974274
O O7 0.822498 0.683635 0.192165
O O8 0.871548 0.884166 0.873426
O O9 0.216574 0.893472 0.734290
O O10 0.807308 0.000000 0.005849
O O11 0.972803 0.814274 0.699322
O O12 0.319055 0.895242 0.538331
O O13 0.958769 0.000000 0.725880
O O14 0.901796 0.500000 0.642168
O O15 0.000000 0.633673 0.500000
O O16 0.994416 0.668623 0.617376
O O17 0.335896 0.682669 0.477033
O O18 0.649348 0.178069 0.246446
O O19 0.353100 0.000000 0.736098
#
# Coordination Sequence:
#
# PCOD8062452 Si02
#       8
#     4   4   4   4   4   4   4   4
#     4  11  23  39  60  83 107 136 179 230 275 320
#     4  10  19  36  51  78 114 152 184 222 267 322
#     4   9  15  25  45  73 106 144 185 223 262 309
#     4   9  16  27  46  76 110 143 178 216 264 318
#     4  10  22  41  65  88 107 132 173 226 280 329
#     4  11  20  36  58  85 111 143 178 227 275 318
#     4   9  20  32  52  77 115 152 185 217 267 328
#     4   8  14  24  42  70 105 145 186 226 261 300
#
# _framework density 18.965173
#
# number of rings (size 3 to 8) (size 9 to 14) (size 15 to 20)
#    0.000    2.375    1.250    1.875    0.000    3.500 
#    0.000    6.250    0.000    2.625    0.000    0.000 
#    0.000    0.000    0.000    0.000    0.000    0.000 
#
# Total GULP energy -396468.968989 kJ/mol
# GULP energy per Si atom -12389.655281 kJ/mol
# Density = 1.892201 g / cm^3
# Si number density = 18.965173 Si / 1000 Ang^3
#
#
#
# Elastic Constant Matrix: (Units=GPa)
#
#
# Indices 1 2 3 4 5 6 
#
# 1 100.0882 48.2568 39.4361 0.0000 6.2818 0.0000
# 2 48.2568 83.4083 42.5452 0.0000 -2.0670 0.0000
# 3 39.4361 42.5452 99.7275 0.0000 2.3473 0.0000
# 4 0.0000 0.0000 0.0000 17.2134 0.0000 -1.4119
# 5 6.2818 -2.0670 2.3473 0.0000 23.6961 0.0000
# 6 0.0000 0.0000 0.0000 -1.4119 0.0000 28.6330
#
#
#
# Elastic Compliance Matrix: (Units=1/GPa)
#
#
# Indices 1 2 3 4 5 6 
#
# 1 0.014844 -0.007353 -0.002631 0.000000 -0.004316 0.000000
# 2 -0.007353 0.019060 -0.005321 0.000000 0.004139 0.000000
# 3 -0.002631 -0.005321 0.013364 0.000000 -0.001090 0.000000
# 4 0.000000 0.000000 0.000000 0.058330 0.000000 0.002876
# 5 -0.004316 0.004139 -0.001090 0.000000 0.043814 0.000000
# 6 0.000000 0.000000 0.000000 0.002876 0.000000 0.035067
#
#
# Mechanical properties :
#
#
# Convention : Reuss Voigt Hill
#
# Bulk Modulus (GPa) = 60.03543 60.41113 60.22328
# Shear Modulus (GPa) = 22.66118 24.10758 23.38438
#
# Velocity S-wave (km/s) = 3.46046 3.56919 3.51524
# Velocity P-wave (km/s) = 6.90585 6.99345 6.94979
#
# Compressibility (1/GPa) = 0.01665683
#
# Stress axis : x y z
#
# Youngs Moduli (GPa) = 67.36716 52.46570 74.82995
#
# Poissons Ratio (x) = 0.38577 0.19691
# Poissons Ratio (y) = 0.49534 0.39818
# Poissons Ratio (z) = 0.17728 0.27918
#
# Static dielectric constant tensor:
#      x y z
#    x 3.232450 0.000000 -0.003870 
#    y 0.000000 3.662870 0.000000 
#    z -0.003870 0.000000 3.360920 
# 
# 
# High freq. dielectric constant tensor:
#      x y z
#    x 1.716880 0.000000 0.009510 
#    y 0.000000 1.737520 0.000000 
#    z 0.009510 0.000000 1.722620 
# 
# From -- ./inp_files/82844.got.cif
#   From: 2010.06.25/outbox.cif.g09.slc.cpg/sg10_42_cif.got.tgz:82844.got - 2010.06.27 22:07:45.
