data_PCOD8062769
_publ_section_title
;
Structure prediction by ZEFSAII (Michael W. Deem and Ramdas Pophale) SiO2 
 PCOD8062769
Probable space group: P 2/M
;
_chemical_formula_sum "Si O2"
_cell_formula_units_Z 28
_cell_length_a 10.718504
_cell_length_b 13.980738
_cell_length_c 9.930904
_cell_angle_alpha 90.000000
_cell_angle_beta 113.313730
_cell_angle_gamma 90.000000
_cell_volume 1366.664859
_symmetry_space_group_name_H-M "P 2/M"
_symmetry_group_IT_number 10
_symmetry_cell_setting 'monoclinic'
loop_
_space_group_symop_operation_xyz
x,y,z
-x,y,-z
-x,-y,-z
x,-y,z
loop_
_atom_site_type_symbol
_atom_site_label
_atom_site_fract_x
_atom_site_fract_y
_atom_site_fract_z
Si Si1 0.798977 0.608939 0.958948
Si Si2 0.495077 0.608136 0.851820
Si Si3 0.881568 0.717852 0.258824
Si Si4 0.174363 0.720696 0.286010
Si Si5 0.250612 0.612891 0.573303
Si Si6 0.842803 0.893825 0.391879
Si Si7 0.660661 0.108951 0.576290
O O1 0.853957 0.500000 0.994921
O O2 0.642167 0.610208 0.846705
O O3 0.872464 0.664796 0.869237
O O4 0.813551 0.662337 0.106430
O O5 0.443456 0.500000 0.855564
O O6 0.386808 0.654237 0.703939
O O7 0.500000 0.660461 0.000000
O O8 0.874453 0.650354 0.388500
O O9 0.804913 0.817827 0.259065
O O10 0.034866 0.749371 0.296834
O O11 0.253973 0.652340 0.423279
O O12 0.266135 0.814848 0.291952
O O13 0.243544 0.500000 0.558334
O O14 0.736994 0.875102 0.467452
O O15 0.000000 0.879266 0.500000
O O16 0.820869 0.000000 0.324421
O O17 0.500000 0.130674 0.500000
O O18 0.683611 0.000000 0.637798
#
# Coordination Sequence:
#
# PCOD8062769 Si02
#       7
#     4   4   4   4   4   4   4
#     4  11  25  41  59  84 131 181 214 262 325 380
#     4   9  18  37  59  81 109 159 218 259 312 374
#     4  12  22  39  60  90 123 171 218 252 319 392
#     4  12  25  38  59  94 124 162 219 266 319 383
#     4  11  22  36  60  89 122 161 217 275 310 368
#     4  10  19  38  67  95 123 157 207 271 328 380
#     4  10  22  41  66  96 128 161 201 263 339 394
#
# _framework density 20.487832000000001
#
# number of rings (size 3 to 8) (size 9 to 14) (size 15 to 20)
#    0.000    1.286    4.286    1.714    2.000    3.429 
#    0.000    2.857    0.000    1.714    0.000    4.000 
#    0.000    0.000    0.000    0.000    0.000    0.000 
#
# Total GULP energy -347050.853523 kJ/mol
# GULP energy per Si atom -12394.673340 kJ/mol
# Density = 2.044120 g / cm^3
# Si number density = 20.487832 Si / 1000 Ang^3
#
#
#
# Elastic Constant Matrix: (Units=GPa)
#
#
# Indices 1 2 3 4 5 6 
#
# 1 92.9774 27.8074 5.9989 0.0000 5.6843 0.0000
# 2 27.8074 149.0596 52.7299 0.0000 -4.9456 0.0000
# 3 5.9989 52.7299 88.8871 0.0000 -10.5714 0.0000
# 4 0.0000 0.0000 0.0000 32.6934 0.0000 -1.9659
# 5 5.6843 -4.9456 -10.5714 0.0000 28.5597 0.0000
# 6 0.0000 0.0000 0.0000 -1.9659 0.0000 27.9398
#
#
#
# Elastic Compliance Matrix: (Units=1/GPa)
#
#
# Indices 1 2 3 4 5 6 
#
# 1 0.011600 -0.002359 0.000307 0.000000 -0.002604 0.000000
# 2 -0.002359 0.008975 -0.005151 0.000000 0.000117 0.000000
# 3 0.000307 -0.005151 0.014824 0.000000 0.004534 0.000000
# 4 0.000000 0.000000 0.000000 0.030717 0.000000 0.002161
# 5 -0.002604 0.000117 0.004534 0.000000 0.037231 0.000000
# 6 0.000000 0.000000 0.000000 0.002161 0.000000 0.035943
#
#
# Mechanical properties :
#
#
# Convention : Reuss Voigt Hill
#
# Bulk Modulus (GPa) = 47.63424 55.99963 51.81694
# Shear Modulus (GPa) = 31.11482 34.13111 32.62296
#
# Velocity S-wave (km/s) = 3.90127 4.08600 3.99470
# Velocity P-wave (km/s) = 6.60256 7.04649 6.82813
#
# Compressibility (1/GPa) = 0.02099330
#
# Stress axis : x y z
#
# Youngs Moduli (GPa) = 86.20544 111.42270 67.45619
#
# Poissons Ratio (x) = 0.26284 -0.02070
# Poissons Ratio (y) = 0.20336 0.34746
# Poissons Ratio (z) = -0.02645 0.57393
#
# Static dielectric constant tensor:
#      x y z
#    x 3.847160 0.000000 0.037900 
#    y 0.000000 3.866670 0.000000 
#    z 0.037900 0.000000 3.540920 
# 
# 
# High freq. dielectric constant tensor:
#      x y z
#    x 1.815810 0.000000 -0.000270 
#    y 0.000000 1.797000 0.000000 
#    z -0.000270 0.000000 1.774420 
# 
# From -- ./inp_files/25392.got.cif
#   From: 2010.06.25/outbox.cif.g09.slc.cpg/sg10_13_cif.got.tgz:25392.got - 2010.06.27 22:07:45.
