data_PCOD8062334
_publ_section_title
;
Structure prediction by ZEFSAII (Michael W. Deem and Ramdas Pophale) SiO2 
 PCOD8062334
Probable space group: P 2/M
;
_chemical_formula_sum "Si O2"
_cell_formula_units_Z 32
_cell_length_a 28.032449
_cell_length_b 8.799859
_cell_length_c 21.676937
_cell_angle_alpha 90.000000
_cell_angle_beta 18.721971
_cell_angle_gamma 90.000000
_cell_volume 1716.356455
_symmetry_space_group_name_H-M "P 2/M"
_symmetry_group_IT_number 10
_symmetry_cell_setting 'monoclinic'
loop_
_space_group_symop_operation_xyz
x,y,z
-x,y,-z
-x,-y,-z
x,-y,z
loop_
_atom_site_type_symbol
_atom_site_label
_atom_site_fract_x
_atom_site_fract_y
_atom_site_fract_z
Si Si1 0.674296 0.176606 0.903669
Si Si2 0.601991 0.174982 0.191558
Si Si3 0.702896 0.824806 0.499642
Si Si4 0.166830 0.321330 0.778420
Si Si5 0.439100 0.181292 0.508944
Si Si6 0.807973 0.177746 0.606557
Si Si7 0.641170 0.678129 0.698921
Si Si8 0.858512 0.180474 0.794646
O O1 0.741116 0.209333 0.755211
O O2 0.797899 0.227551 0.801784
O O3 0.630120 0.000000 0.965883
O O4 0.530216 0.276980 0.090889
O O5 0.470716 0.196163 0.302996
O O6 0.553209 0.245948 0.317097
O O7 0.635218 0.000000 0.162781
O O8 0.750743 0.249721 0.980289
O O9 0.802980 0.738511 0.327235
O O10 0.730498 0.756656 0.533452
O O11 0.750554 0.000000 0.440531
O O12 0.192180 0.500000 0.748875
O O13 0.275813 0.246617 0.695606
O O14 0.000000 0.275204 0.000000
O O15 0.500000 0.237948 0.500000
O O16 0.427099 0.000000 0.520214
O O17 0.712508 0.271374 0.675428
O O18 0.975748 0.242639 0.399226
O O19 0.801167 0.000000 0.598317
O O20 0.656253 0.500000 0.672082
O O21 0.859672 0.000000 0.797392
#
# Coordination Sequence:
#
# PCOD8062334 Si02
#       8
#     4   4   4   4   4   4   4   4
#     4  10  19  35  59  82 104 138 188 237 277 330
#     4   8  14  28  54  81 105 133 171 228 277 317
#     4  10  19  36  62  85 107 141 189 235 272 318
#     4  10  21  37  57  84 120 153 182 221 275 333
#     4   9  18  33  54  82 114 146 189 236 272 314
#     4  10  21  35  54  81 111 143 181 231 286 332
#     4  12  24  37  54  78 113 150 184 224 277 333
#     4   9  16  31  56  83 107 133 178 233 285 326
#
# _framework density 18.644145999999999
#
# number of rings (size 3 to 8) (size 9 to 14) (size 15 to 20)
#    0.000    2.250    1.250    3.375    0.000    4.750 
#    2.250    0.625    0.000    1.500    0.000    0.000 
#    0.000    0.000    0.000    0.000    0.000    0.000 
#
# Total GULP energy -396768.814126 kJ/mol
# GULP energy per Si atom -12399.025441 kJ/mol
# Density = 1.860171 g / cm^3
# Si number density = 18.644146 Si / 1000 Ang^3
#
#
#
# Elastic Constant Matrix: (Units=GPa)
#
#
# Indices 1 2 3 4 5 6 
#
# 1 98.1001 24.9021 37.2159 0.0000 12.9468 0.0000
# 2 24.9021 41.6805 27.6797 0.0000 2.7319 0.0000
# 3 37.2159 27.6797 99.6590 0.0000 10.7149 0.0000
# 4 0.0000 0.0000 0.0000 20.0107 0.0000 5.4155
# 5 12.9468 2.7319 10.7149 0.0000 22.3574 0.0000
# 6 0.0000 0.0000 0.0000 5.4155 0.0000 8.1350
#
#
#
# Elastic Compliance Matrix: (Units=1/GPa)
#
#
# Indices 1 2 3 4 5 6 
#
# 1 0.013496 -0.005824 -0.002803 0.000000 -0.005760 0.000000
# 2 -0.005824 0.031934 -0.006998 0.000000 0.002825 0.000000
# 3 -0.002803 -0.006998 0.013451 0.000000 -0.003968 0.000000
# 4 0.000000 0.000000 0.000000 0.060955 0.000000 -0.040578
# 5 -0.005760 0.002825 -0.003968 0.000000 0.049620 0.000000
# 6 0.000000 0.000000 0.000000 -0.040578 0.000000 0.149938
#
#
# Mechanical properties :
#
#
# Convention : Reuss Voigt Hill
#
# Bulk Modulus (GPa) = 36.19178 46.55944 41.37561
# Shear Modulus (GPa) = 13.89448 20.07674 16.98561
#
# Velocity S-wave (km/s) = 2.73288 3.28508 3.02162
# Velocity P-wave (km/s) = 5.42330 6.27821 5.86635
#
# Compressibility (1/GPa) = 0.02763058
#
# Stress axis : x y z
#
# Youngs Moduli (GPa) = 74.09841 31.31456 74.34260
#
# Poissons Ratio (x) = 0.18238 0.20836
# Poissons Ratio (y) = 0.43156 0.52027
# Poissons Ratio (z) = 0.20768 0.21915
#
# Static dielectric constant tensor:
#      x y z
#    x 3.527470 0.000000 0.144790 
#    y 0.000000 3.141700 0.000000 
#    z 0.144790 0.000000 3.653660 
# 
# 
# High freq. dielectric constant tensor:
#      x y z
#    x 1.728430 0.000000 0.012490 
#    y 0.000000 1.693360 0.000000 
#    z 0.012490 0.000000 1.728030 
# 
# From -- ./inp_files/83372.got.cif
#   From: 2010.06.25/outbox.cif.g09.slc.cpg/sg10_42_cif.got.tgz:83372.got - 2010.06.27 22:07:45.
