data_PCOD8062256
_publ_section_title
;
Structure prediction by ZEFSAII (Michael W. Deem and Ramdas Pophale) SiO2 
 PCOD8062256
Probable space group: P 2/M
;
_chemical_formula_sum "Si O2"
_cell_formula_units_Z 28
_cell_length_a 9.182415
_cell_length_b 7.807040
_cell_length_c 27.371444
_cell_angle_alpha 90.000000
_cell_angle_beta 134.348188
_cell_angle_gamma 90.000000
_cell_volume 1403.171961
_symmetry_space_group_name_H-M "P 2/M"
_symmetry_group_IT_number 10
_symmetry_cell_setting 'monoclinic'
loop_
_space_group_symop_operation_xyz
x,y,z
-x,y,-z
-x,-y,-z
x,-y,z
loop_
_atom_site_type_symbol
_atom_site_label
_atom_site_fract_x
_atom_site_fract_y
_atom_site_fract_z
Si Si1 0.369471 0.308958 0.339352
Si Si2 0.451266 0.000000 0.567200
Si Si3 0.258382 0.193843 0.210354
Si Si4 0.464526 0.306896 0.807653
Si Si5 0.536036 0.797159 0.930756
Si Si6 0.005954 0.697020 0.680351
Si Si7 0.816840 0.203179 0.081901
Si Si8 0.170516 0.000000 0.416012
O O1 0.445096 0.500000 0.371374
O O2 0.535134 0.170995 0.396558
O O3 0.348424 0.301409 0.276171
O O4 0.150033 0.270602 0.311911
O O5 0.235582 0.000000 0.488221
O O6 0.630582 0.000000 0.570373
O O7 0.414295 0.189883 0.201909
O O8 0.043564 0.276681 0.142848
O O9 0.224375 0.000000 0.220606
O O10 0.492085 0.500000 0.795974
O O11 0.557315 0.288627 0.883199
O O12 0.227522 0.254902 0.752876
O O13 0.327263 0.734894 0.907613
O O14 0.536373 0.000000 0.924252
O O15 0.725463 0.734006 0.008558
O O16 0.994040 0.500000 0.658722
O O17 0.957060 0.826623 0.624398
O O18 0.819401 0.000000 0.081134
#
# Coordination Sequence:
#
# PCOD8062256 Si02
#       8
#     4   2   4   4   4   4   4   2
#     4  10  19  35  57  82 112 145 180 224 273 321
#     4   9  18  34  53  91 114 143 174 223 263 330
#     4  11  21  34  53  78 106 143 187 229 274 323
#     4  11  23  36  49  75 110 143 182 227 273 322
#     4   9  17  34  57  78 101 137 179 225 279 327
#     4   9  20  35  55  82 112 145 182 224 270 321
#     4   8  17  33  55  80 104 133 179 230 275 328
#     4   9  18  32  59  83 118 141 180 215 271 320
#
# _framework density 19.954789999999999
#
# number of rings (size 3 to 8) (size 9 to 14) (size 15 to 20)
#    0.000    2.429    0.714    2.571    2.000    1.143 
#    0.000    9.286    0.000    1.714    0.000    3.000 
#    0.000    0.000    0.000    0.000    0.000    0.000 
#
# Total GULP energy -347178.861282 kJ/mol
# GULP energy per Si atom -12399.245046 kJ/mol
# Density = 1.990937 g / cm^3
# Si number density = 19.954790 Si / 1000 Ang^3
#
#
#
# Elastic Constant Matrix: (Units=GPa)
#
#
# Indices 1 2 3 4 5 6 
#
# 1 70.1458 20.4143 41.8456 0.0000 -16.7308 0.0000
# 2 20.4143 85.1486 44.0078 0.0000 -7.0449 0.0000
# 3 41.8456 44.0078 129.3270 0.0000 -27.8363 0.0000
# 4 0.0000 0.0000 0.0000 18.5336 0.0000 -2.4090
# 5 -16.7308 -7.0449 -27.8363 0.0000 16.1538 0.0000
# 6 0.0000 0.0000 0.0000 -2.4090 0.0000 19.4770
#
#
#
# Elastic Compliance Matrix: (Units=1/GPa)
#
#
# Indices 1 2 3 4 5 6 
#
# 1 0.020076 -0.002314 -0.002305 0.000000 0.015811 0.000000
# 2 -0.002314 0.014636 -0.005363 0.000000 -0.005254 0.000000
# 3 -0.002305 -0.005363 0.014760 0.000000 0.020709 0.000000
# 4 0.000000 0.000000 0.000000 0.054838 0.000000 0.006783
# 5 0.015811 -0.005254 0.020709 0.000000 0.111675 0.000000
# 6 0.000000 0.000000 0.000000 0.006783 0.000000 0.052182
#
#
# Mechanical properties :
#
#
# Convention : Reuss Voigt Hill
#
# Bulk Modulus (GPa) = 33.88791 55.23964 44.56377
# Shear Modulus (GPa) = 16.78045 22.72312 19.75179
#
# Velocity S-wave (km/s) = 2.90301 3.37817 3.14956
# Velocity P-wave (km/s) = 5.31562 6.55427 5.96718
#
# Compressibility (1/GPa) = 0.02950905
#
# Stress axis : x y z
#
# Youngs Moduli (GPa) = 49.81110 68.32600 67.74874
#
# Poissons Ratio (x) = 0.15807 0.15618
# Poissons Ratio (y) = 0.11524 0.36331
# Poissons Ratio (z) = 0.11483 0.36641
#
# Static dielectric constant tensor:
#      x y z
#    x 3.307580 0.000000 0.055690 
#    y 0.000000 3.526750 0.000000 
#    z 0.055690 0.000000 3.835570 
# 
# 
# High freq. dielectric constant tensor:
#      x y z
#    x 1.750530 0.000000 -0.005160 
#    y 0.000000 1.776050 0.000000 
#    z -0.005160 0.000000 1.774030 
# 
# From -- ./inp_files/92150.got.cif
#   From: 2010.06.25/outbox.cif.g09.slc.cpg/sg10_47_cif.got.tgz:92150.got - 2010.06.27 22:07:45.
