data_PCOD8062420
_publ_section_title
;
Structure prediction by ZEFSAII (Michael W. Deem and Ramdas Pophale) SiO2 
 PCOD8062420
Probable space group: P 2/M
;
_chemical_formula_sum "Si O2"
_cell_formula_units_Z 32
_cell_length_a 20.149123
_cell_length_b 8.689988
_cell_length_c 26.014394
_cell_angle_alpha 90.000000
_cell_angle_beta 159.061481
_cell_angle_gamma 90.000000
_cell_volume 1627.804450
_symmetry_space_group_name_H-M "P 2/M"
_symmetry_group_IT_number 10
_symmetry_cell_setting 'monoclinic'
loop_
_space_group_symop_operation_xyz
x,y,z
-x,y,-z
-x,-y,-z
x,-y,z
loop_
_atom_site_type_symbol
_atom_site_label
_atom_site_fract_x
_atom_site_fract_y
_atom_site_fract_z
Si Si1 0.701287 0.180409 0.666278
Si Si2 0.865270 0.820276 0.285852
Si Si3 0.049658 0.319613 0.864882
Si Si4 0.259362 0.180525 0.617869
Si Si5 0.215463 0.180571 0.888992
Si Si6 0.615094 0.680030 0.189411
Si Si7 0.633198 0.182149 0.834893
Si Si8 0.792502 0.817384 0.844928
O O1 0.500000 0.221802 0.500000
O O2 0.706921 0.238323 0.729245
O O3 0.848157 0.271562 0.738615
O O4 0.746882 0.000000 0.695174
O O5 0.836805 0.771697 0.206487
O O6 0.720254 0.721192 0.213262
O O7 0.073775 0.777814 0.452846
O O8 0.822340 0.000000 0.263558
O O9 0.073316 0.500000 0.885605
O O10 0.069874 0.265141 0.820734
O O11 0.209122 0.243194 0.013860
O O12 0.257423 0.270309 0.670345
O O13 0.431477 0.238009 0.707654
O O14 0.271577 0.000000 0.638748
O O15 0.195696 0.000000 0.883244
O O16 0.423074 0.229044 0.053586
O O17 0.573408 0.500000 0.161104
O O18 0.667678 0.244740 0.801945
O O19 0.645731 0.000000 0.845076
O O20 0.799517 0.000000 0.852126
O O21 0.000000 0.749639 0.000000
#
# Coordination Sequence:
#
# PCOD8062420 Si02
#       8
#     4   4   4   4   4   4   4   4
#     4  10  21  38  62  90 119 154 198 243 289 348
#     4  10  23  41  61  88 119 154 203 254 302 354
#     4  12  24  38  59  87 122 157 195 242 299 361
#     4  10  21  38  62  89 118 156 201 250 299 352
#     4  11  23  41  65  89 117 156 205 254 297 351
#     4  12  24  38  60  90 123 160 200 241 299 365
#     4  10  19  35  61  86 114 153 199 245 293 346
#     4   9  16  30  57  89 115 144 191 243 287 333
#
# _framework density 19.658380999999999
#
# number of rings (size 3 to 8) (size 9 to 14) (size 15 to 20)
#    0.000    1.500    2.500    3.375    0.000    5.750 
#    0.000    5.000    0.000    1.500    0.000    0.000 
#    0.000    0.000    0.000    0.000    0.000    0.000 
#
# Total GULP energy -396940.452065 kJ/mol
# GULP energy per Si atom -12404.389127 kJ/mol
# Density = 1.961364 g / cm^3
# Si number density = 19.658381 Si / 1000 Ang^3
#
#
#
# Elastic Constant Matrix: (Units=GPa)
#
#
# Indices 1 2 3 4 5 6 
#
# 1 65.1247 -150.4065 -21.1696 0.0000 -7.1201 0.0000
# 2 -150.4065 -326.7834 -109.7098 0.0000 -5.7883 0.0000
# 3 -21.1696 -109.7098 35.5888 0.0000 -15.8144 0.0000
# 4 0.0000 0.0000 0.0000 -0.1672 0.0000 2.3946
# 5 -7.1201 -5.7883 -15.8144 0.0000 34.7532 0.0000
# 6 0.0000 0.0000 0.0000 2.3946 0.0000 8.5988
#
#
#
# Elastic Compliance Matrix: (Units=1/GPa)
#
#
# Indices 1 2 3 4 5 6 
#
# 1 0.008168 -0.002625 -0.003364 0.000000 -0.000294 0.000000
# 2 -0.002625 -0.000451 -0.004043 0.000000 -0.002453 0.000000
# 3 -0.003364 -0.004043 0.016333 0.000000 0.006070 0.000000
# 4 0.000000 0.000000 0.000000 -1.199011 0.000000 0.333894
# 5 -0.000294 -0.002453 0.006070 0.000000 0.031068 0.000000
# 6 0.000000 0.000000 0.000000 0.333894 0.000000 0.023314
#
#
# Mechanical properties :
#
#
# Convention : Reuss Voigt Hill
#
# Bulk Modulus (GPa) = 250.83255 -87.62685 81.60285
# Shear Modulus (GPa) = -4.54881 12.31804 3.88462
#
# Velocity S-wave (km/s) = -1.52281 2.50592 1.40725
# Velocity P-wave (km/s) = 11.17053 6.02484 6.65139
#
# Compressibility (1/GPa) = 0.00398672
#
# Stress axis : x y z
#
# Youngs Moduli (GPa) = 122.43450 -2215.35874 61.22662
#
# Poissons Ratio (x) = -5.81476 0.20595
# Poissons Ratio (y) = 0.32136 0.24752
# Poissons Ratio (z) = 0.41184 -8.95589
#
# Static dielectric constant tensor:
#      x y z
#    x 4.025990 0.000000 0.053510 
#    y 0.000000 3.332920 0.000000 
#    z 0.053510 0.000000 3.640790 
# 
# 
# High freq. dielectric constant tensor:
#      x y z
#    x 1.786200 0.000000 0.000490 
#    y 0.000000 1.742820 0.000000 
#    z 0.000490 0.000000 1.766930 
# 
# From -- ./inp_files/93789.got.cif
#   From: 2010.06.25/outbox.cif.g09.slc.cpg/sg10_47_cif.got.tgz:93789.got - 2010.06.27 22:07:45.
