data_PCOD8062949
_publ_section_title
;
Structure prediction by ZEFSAII (Michael W. Deem and Ramdas Pophale) SiO2 
 PCOD8062949
Probable space group: P 2/M
;
_chemical_formula_sum "Si O2"
_cell_formula_units_Z 32
_cell_length_a 11.399759
_cell_length_b 9.539669
_cell_length_c 18.820521
_cell_angle_alpha 90.000000
_cell_angle_beta 115.058090
_cell_angle_gamma 90.000000
_cell_volume 1854.089675
_symmetry_space_group_name_H-M "P 2/M"
_symmetry_group_IT_number 10
_symmetry_cell_setting 'monoclinic'
loop_
_space_group_symop_operation_xyz
x,y,z
-x,y,-z
-x,-y,-z
x,-y,z
loop_
_atom_site_type_symbol
_atom_site_label
_atom_site_fract_x
_atom_site_fract_y
_atom_site_fract_z
Si Si1 0.039291 0.335248 0.738396
Si Si2 0.275149 0.662194 0.700423
Si Si3 0.186114 0.162711 0.390576
Si Si4 0.432822 0.664085 0.213246
Si Si5 0.709748 0.161488 0.431014
Si Si6 0.585667 0.838941 0.655993
Si Si7 0.966089 0.333508 0.103531
Si Si8 0.196811 0.665508 0.065517
O O1 0.007781 0.500000 0.729139
O O2 0.177643 0.302352 0.738763
O O3 0.044987 0.272886 0.819735
O O4 0.929613 0.257367 0.666384
O O5 0.270127 0.500000 0.677730
O O6 0.418621 0.704671 0.764713
O O7 0.236324 0.748063 0.620459
O O8 0.208670 0.200854 0.478549
O O9 0.317495 0.198708 0.382534
O O10 0.149423 0.000000 0.371897
O O11 0.416909 0.500000 0.224684
O O12 0.378578 0.743684 0.267846
O O13 0.343694 0.709710 0.123053
O O14 0.559188 0.194196 0.407873
O O15 0.729154 0.000000 0.415456
O O16 0.599120 0.000000 0.682963
O O17 0.962236 0.500000 0.107824
O O18 0.099026 0.279472 0.101657
O O19 0.846237 0.278145 0.023421
O O20 0.182111 0.500000 0.059659
#
# Coordination Sequence:
#
# PCOD8062949 Si02
#       8
#     4   4   4   4   4   4   4   4
#     4  10  20  33  47  64  91 125 156 186 225 268
#     4   9  19  33  46  64  92 122 153 192 228 258
#     4  10  20  32  48  70  92 115 149 191 229 270
#     4   9  16  28  47  69  92 120 154 187 220 262
#     4   9  18  33  51  68  88 118 152 185 226 274
#     4   9  17  30  48  70  95 118 142 181 232 277
#     4   8  14  25  42  66  93 118 145 180 223 269
#     4   8  13  23  43  69  92 114 145 184 222 264
#
# _framework density 17.259143000000002
#
# number of rings (size 3 to 8) (size 9 to 14) (size 15 to 20)
#    0.000    3.000    0.000    1.875    0.000    4.500 
#    0.000    3.125    0.000    8.250    0.000    3.500 
#    0.000    5.000    0.000    0.000    0.000    0.000 
#
# Total GULP energy -396675.433705 kJ/mol
# GULP energy per Si atom -12396.107303 kJ/mol
# Density = 1.721986 g / cm^3
# Si number density = 17.259143 Si / 1000 Ang^3
#
#
#
# Elastic Constant Matrix: (Units=GPa)
#
#
# Indices 1 2 3 4 5 6 
#
# 1 88.0523 31.1044 67.7522 0.0000 -4.6495 0.0000
# 2 31.1044 32.6860 40.8523 0.0000 2.0541 0.0000
# 3 67.7522 40.8523 154.0298 0.0000 8.0220 0.0000
# 4 0.0000 0.0000 0.0000 7.4895 0.0000 1.6764
# 5 -4.6495 2.0541 8.0220 0.0000 14.3742 0.0000
# 6 0.0000 0.0000 0.0000 1.6764 0.0000 21.7079
#
#
#
# Elastic Compliance Matrix: (Units=1/GPa)
#
#
# Indices 1 2 3 4 5 6 
#
# 1 0.021923 -0.013135 -0.006825 0.000000 0.012777 0.000000
# 2 -0.013135 0.053635 -0.008062 0.000000 -0.007414 0.000000
# 3 -0.006825 -0.008062 0.012037 0.000000 -0.007773 0.000000
# 4 0.000000 0.000000 0.000000 0.135869 0.000000 -0.010492
# 5 0.012777 -0.007414 -0.007773 0.000000 0.079099 0.000000
# 6 0.000000 0.000000 0.000000 -0.010492 0.000000 0.046876
#
#
# Mechanical properties :
#
#
# Convention : Reuss Voigt Hill
#
# Bulk Modulus (GPa) = 31.69323 61.57620 46.63471
# Shear Modulus (GPa) = 12.01922 17.71827 14.86874
#
# Velocity S-wave (km/s) = 2.64180 3.20754 2.93832
# Velocity P-wave (km/s) = 5.26388 7.03368 6.21213
#
# Compressibility (1/GPa) = 0.03155248
#
# Stress axis : x y z
#
# Youngs Moduli (GPa) = 45.61440 18.64445 83.07598
#
# Poissons Ratio (x) = 0.24490 0.56698
# Poissons Ratio (y) = 0.59915 0.66972
# Poissons Ratio (z) = 0.31131 0.15030
#
# Static dielectric constant tensor:
#      x y z
#    x 3.224460 0.000000 0.061040 
#    y 0.000000 2.974830 0.000000 
#    z 0.061040 0.000000 3.527090 
# 
# 
# High freq. dielectric constant tensor:
#      x y z
#    x 1.659220 0.000000 0.006490 
#    y 0.000000 1.634400 0.000000 
#    z 0.006490 0.000000 1.672950 
# 
# From -- ./inp_files/83392.got.cif
#   From: 2010.06.25/outbox.cif.g09.slc.cpg/sg10_42_cif.got.tgz:83392.got - 2010.06.27 22:07:45.
