data_PCOD8062294
_publ_section_title
;
Structure prediction by ZEFSAII (Michael W. Deem and Ramdas Pophale) SiO2 
 PCOD8062294
Probable space group: P 2/M
;
_chemical_formula_sum "Si O2"
_cell_formula_units_Z 32
_cell_length_a 19.773921
_cell_length_b 9.126397
_cell_length_c 25.312274
_cell_angle_alpha 90.000000
_cell_angle_beta 21.721100
_cell_angle_gamma 90.000000
_cell_volume 1690.555265
_symmetry_space_group_name_H-M "P 2/M"
_symmetry_group_IT_number 10
_symmetry_cell_setting 'monoclinic'
loop_
_space_group_symop_operation_xyz
x,y,z
-x,y,-z
-x,-y,-z
x,-y,z
loop_
_atom_site_type_symbol
_atom_site_label
_atom_site_fract_x
_atom_site_fract_y
_atom_site_fract_z
Si Si1 0.435645 0.329855 0.407437
Si Si2 0.441771 0.667197 0.102518
Si Si3 0.323583 0.831755 0.592814
Si Si4 0.028054 0.672956 0.126004
Si Si5 0.182123 0.326247 0.124511
Si Si6 0.931762 0.827399 0.607331
Si Si7 0.168067 0.326812 0.912401
Si Si8 0.904388 0.330215 0.414940
O O1 0.444223 0.500000 0.417531
O O2 0.347906 0.241572 0.518638
O O3 0.636710 0.265238 0.248840
O O4 0.304959 0.309582 0.451488
O O5 0.390503 0.500000 0.154376
O O6 0.272611 0.770554 0.236780
O O7 0.500000 0.677661 0.000000
O O8 0.611909 0.725777 0.013622
O O9 0.500000 0.811580 0.500000
O O10 0.165335 0.751343 0.739934
O O11 0.272001 0.000000 0.621348
O O12 0.993668 0.500000 0.153589
O O13 0.128090 0.732564 0.105890
O O14 0.147528 0.716967 0.988517
O O15 0.170720 0.500000 0.134022
O O16 0.041731 0.266131 0.270554
O O17 0.000000 0.781725 0.500000
O O18 0.068836 0.757045 0.550337
O O19 0.933070 0.000000 0.614557
O O20 0.169401 0.500000 0.904664
O O21 0.000000 0.260452 0.000000
O O22 0.949853 0.500000 0.392813
#
# Coordination Sequence:
#
# PCOD8062294 Si02
#       8
#     4   4   4   4   4   4   4   4
#     4  10  20  36  60  87 112 146 191 234 284 345
#     4  10  19  35  60  85 111 145 187 235 285 335
#     4  11  23  36  52  80 115 150 192 235 276 332
#     4  10  19  35  58  82 111 145 184 235 285 331
#     4   9  17  32  56  87 114 137 177 238 290 331
#     4  11  25  41  56  82 120 156 192 231 275 334
#     4   9  18  32  53  84 116 144 181 230 282 334
#     4  10  19  36  60  86 114 144 187 238 287 341
#
# _framework density 18.928691000000001
#
# number of rings (size 3 to 8) (size 9 to 14) (size 15 to 20)
#    0.000    2.000    2.500    1.500    0.000    4.750 
#    0.000    3.750    0.000    2.250    0.000    0.000 
#    0.000    0.000    0.000    0.000    0.000    0.000 
#
# Total GULP energy -396845.555447 kJ/mol
# GULP energy per Si atom -12401.423608 kJ/mol
# Density = 1.888561 g / cm^3
# Si number density = 18.928691 Si / 1000 Ang^3
#
#
#
# Elastic Constant Matrix: (Units=GPa)
#
#
# Indices 1 2 3 4 5 6 
#
# 1 107.3665 32.1930 25.8539 0.0000 -2.3344 0.0000
# 2 32.1930 48.6486 22.3429 0.0000 1.5755 0.0000
# 3 25.8539 22.3429 86.7128 0.0000 -8.8454 0.0000
# 4 0.0000 0.0000 0.0000 16.4082 0.0000 -1.5153
# 5 -2.3344 1.5755 -8.8454 0.0000 29.3166 0.0000
# 6 0.0000 0.0000 0.0000 -1.5153 0.0000 22.7410
#
#
#
# Elastic Compliance Matrix: (Units=1/GPa)
#
#
# Indices 1 2 3 4 5 6 
#
# 1 0.011860 -0.007135 -0.001612 0.000000 0.000842 0.000000
# 2 -0.007135 0.027895 -0.005438 0.000000 -0.003708 0.000000
# 3 -0.001612 -0.005438 0.013857 0.000000 0.004345 0.000000
# 4 0.000000 0.000000 0.000000 0.061323 0.000000 0.004086
# 5 0.000842 -0.003708 0.004345 0.000000 0.035688 0.000000
# 6 0.000000 0.000000 0.000000 0.004086 0.000000 0.044246
#
#
# Mechanical properties :
#
#
# Convention : Reuss Voigt Hill
#
# Bulk Modulus (GPa) = 39.61733 44.83418 42.22576
# Shear Modulus (GPa) = 21.58402 24.51567 23.04985
#
# Velocity S-wave (km/s) = 3.38047 3.60274 3.49337
# Velocity P-wave (km/s) = 6.01764 6.40652 6.21512
#
# Compressibility (1/GPa) = 0.02524148
#
# Stress axis : x y z
#
# Youngs Moduli (GPa) = 84.31907 35.84862 72.16363
#
# Poissons Ratio (x) = 0.25579 0.11631
# Poissons Ratio (y) = 0.60163 0.39246
# Poissons Ratio (z) = 0.13590 0.19496
#
# Static dielectric constant tensor:
#      x y z
#    x 3.684420 0.000000 -0.128230 
#    y 0.000000 3.200580 0.000000 
#    z -0.128230 0.000000 3.460610 
# 
# 
# High freq. dielectric constant tensor:
#      x y z
#    x 1.748620 0.000000 -0.007780 
#    y 0.000000 1.699390 0.000000 
#    z -0.007780 0.000000 1.740990 
# 
# From -- ./inp_files/87042.got.cif
#   From: 2010.06.25/outbox.cif.g09.slc.cpg/sg10_44_cif.got.tgz:87042.got - 2010.06.27 22:07:45.
