data_PCOD8062148
_publ_section_title
;
Structure prediction by ZEFSAII (Michael W. Deem and Ramdas Pophale) SiO2 
 PCOD8062148
Probable space group: P 2/M
;
_chemical_formula_sum "Si O2"
_cell_formula_units_Z 32
_cell_length_a 30.770905
_cell_length_b 8.730391
_cell_length_c 15.012124
_cell_angle_alpha 90.000000
_cell_angle_beta 151.299942
_cell_angle_gamma 90.000000
_cell_volume 1936.690920
_symmetry_space_group_name_H-M "P 2/M"
_symmetry_group_IT_number 10
_symmetry_cell_setting 'monoclinic'
loop_
_space_group_symop_operation_xyz
x,y,z
-x,y,-z
-x,-y,-z
x,-y,z
loop_
_atom_site_type_symbol
_atom_site_label
_atom_site_fract_x
_atom_site_fract_y
_atom_site_fract_z
Si Si1 0.610433 0.818978 0.782532
Si Si2 0.413926 0.181432 0.461743
Si Si3 0.754295 0.680468 0.760420
Si Si4 0.196708 0.180567 0.816795
Si Si5 0.883051 0.319175 0.151566
Si Si6 0.879085 0.180698 0.845883
Si Si7 0.083615 0.677800 0.462746
Si Si8 0.932853 0.678691 0.767995
O O1 0.611284 0.760250 0.682537
O O2 0.518406 0.768743 0.668089
O O3 0.610234 0.000000 0.777673
O O4 0.699899 0.756288 0.992852
O O5 0.349996 0.271200 0.415415
O O6 0.399669 0.000000 0.447358
O O7 0.763441 0.500000 0.762951
O O8 0.789295 0.765870 0.735239
O O9 0.811923 0.737906 0.949411
O O10 0.137553 0.247348 0.790237
O O11 0.156120 0.228558 0.649586
O O12 0.195593 0.000000 0.824095
O O13 0.878394 0.500000 0.152465
O O14 0.982595 0.263788 0.302108
O O15 0.871566 0.230140 0.728834
O O16 0.891949 0.000000 0.875493
O O17 0.964117 0.263956 0.043979
O O18 0.092282 0.500000 0.502762
O O19 0.106728 0.708648 0.401160
O O20 0.932284 0.500000 0.790685
#
# Coordination Sequence:
#
# PCOD8062148 Si02
#       8
#     4   4   4   4   4   4   4   4
#     4   8  16  30  48  69  96 128 160 199 250 293
#     4   9  16  31  51  69  94 128 163 200 243 296
#     4  11  20  32  49  73 100 131 164 200 244 291
#     4  11  21  32  48  72  97 128 169 209 243 280
#     4  10  20  34  47  64  96 136 171 199 234 286
#     4  11  21  32  50  75 100 126 160 202 247 292
#     4  10  21  36  50  66  94 136 171 198 240 287
#     4  10  19  35  53  70  96 130 165 201 244 290
#
# _framework density 16.523029000000001
#
# number of rings (size 3 to 8) (size 9 to 14) (size 15 to 20)
#    0.000    2.000    2.500    4.125    0.000    3.500 
#    0.000    2.500    0.000    0.000    0.000    0.875 
#    0.000    7.000    0.000    0.000    0.000    0.000 
#
# Total GULP energy -396795.699610 kJ/mol
# GULP energy per Si atom -12399.865613 kJ/mol
# Density = 1.648542 g / cm^3
# Si number density = 16.523029 Si / 1000 Ang^3
#
#
#
# Elastic Constant Matrix: (Units=GPa)
#
#
# Indices 1 2 3 4 5 6 
#
# 1 105.3839 22.9158 45.6068 0.0000 7.2478 0.0000
# 2 22.9158 38.4430 20.5692 0.0000 0.6585 0.0000
# 3 45.6068 20.5692 85.3966 0.0000 7.4302 0.0000
# 4 0.0000 0.0000 0.0000 14.5944 0.0000 1.6557
# 5 7.2478 0.6585 7.4302 0.0000 22.9273 0.0000
# 6 0.0000 0.0000 0.0000 1.6557 0.0000 25.1986
#
#
#
# Elastic Compliance Matrix: (Units=1/GPa)
#
#
# Indices 1 2 3 4 5 6 
#
# 1 0.013129 -0.004751 -0.005678 0.000000 -0.002174 0.000000
# 2 -0.004751 0.031631 -0.005282 0.000000 0.002305 0.000000
# 3 -0.005678 -0.005282 0.016305 0.000000 -0.003337 0.000000
# 4 0.000000 0.000000 0.000000 0.069034 0.000000 -0.004536
# 5 -0.002174 0.002305 -0.003337 0.000000 0.045319 0.000000
# 6 0.000000 0.000000 0.000000 -0.004536 0.000000 0.039983
#
#
# Mechanical properties :
#
#
# Convention : Reuss Voigt Hill
#
# Bulk Modulus (GPa) = 33.73478 45.26747 39.50112
# Shear Modulus (GPa) = 19.47765 21.88619 20.68192
#
# Velocity S-wave (km/s) = 3.43712 3.64344 3.54178
# Velocity P-wave (km/s) = 6.01771 6.71979 6.37842
#
# Compressibility (1/GPa) = 0.02964300
#
# Stress axis : x y z
#
# Youngs Moduli (GPa) = 76.16701 31.61426 61.32978
#
# Poissons Ratio (x) = 0.15019 0.34825
# Poissons Ratio (y) = 0.36185 0.32396
# Poissons Ratio (z) = 0.43250 0.16700
#
# Static dielectric constant tensor:
#      x y z
#    x 3.127990 0.000000 0.112160 
#    y 0.000000 2.990730 0.000000 
#    z 0.112160 0.000000 3.183690 
# 
# 
# High freq. dielectric constant tensor:
#      x y z
#    x 1.631180 0.000000 0.009050 
#    y 0.000000 1.633100 0.000000 
#    z 0.009050 0.000000 1.612850 
# 
# From -- ./inp_files/66103.got.cif
#   From: 2010.06.25/outbox.cif.g09.slc.cpg/sg10_34_cif.got.tgz:66103.got - 2010.06.27 22:07:45.
