data_PCOD8062488
_publ_section_title
;
Structure prediction by ZEFSAII (Michael W. Deem and Ramdas Pophale) SiO2 
 PCOD8062488
Probable space group: P 2/M
;
_chemical_formula_sum "Si O2"
_cell_formula_units_Z 32
_cell_length_a 21.113557
_cell_length_b 9.035693
_cell_length_c 26.501928
_cell_angle_alpha 90.000000
_cell_angle_beta 160.118141
_cell_angle_gamma 90.000000
_cell_volume 1719.427056
_symmetry_space_group_name_H-M "P 2/M"
_symmetry_group_IT_number 10
_symmetry_cell_setting 'monoclinic'
loop_
_space_group_symop_operation_xyz
x,y,z
-x,y,-z
-x,-y,-z
x,-y,z
loop_
_atom_site_type_symbol
_atom_site_label
_atom_site_fract_x
_atom_site_fract_y
_atom_site_fract_z
Si Si1 0.996539 0.674387 0.775710
Si Si2 0.605622 0.175580 0.127369
Si Si3 0.617514 0.823521 0.942421
Si Si4 0.369804 0.324879 0.676524
Si Si5 0.202833 0.167332 0.290671
Si Si6 0.016077 0.832571 0.452492
Si Si7 0.635976 0.673308 0.442928
Si Si8 0.573141 0.834215 0.633597
O O1 0.033646 0.500000 0.802768
O O2 0.946757 0.723484 0.795773
O O3 0.832433 0.723329 0.614520
O O4 0.177952 0.761391 0.893414
O O5 0.513186 0.232913 0.109808
O O6 0.820049 0.224659 0.283467
O O7 0.591685 0.000000 0.116875
O O8 0.500000 0.244048 0.000000
O O9 0.537366 0.756508 0.830712
O O10 0.623078 0.000000 0.942507
O O11 0.395363 0.500000 0.700740
O O12 0.374923 0.271049 0.622523
O O13 0.171887 0.279995 0.551113
O O14 0.254254 0.221699 0.272205
O O15 0.388916 0.170401 0.462432
O O16 0.122457 0.000000 0.229141
O O17 0.000000 0.830885 0.500000
O O18 0.063342 0.000000 0.469788
O O19 0.618769 0.500000 0.433459
O O20 0.457959 0.736411 0.339927
O O21 0.615640 0.000000 0.683577
#
# Coordination Sequence:
#
# PCOD8062488 Si02
#       8
#     4   4   4   4   4   4   4   4
#     4  10  20  34  52  78 110 142 177 217 262 317
#     4   9  19  35  55  80 106 132 168 217 269 314
#     4  11  22  38  57  78 105 140 179 220 266 317
#     4  11  23  38  55  77 108 145 180 217 263 315
#     4   8  14  27  47  75 107 139 173 215 262 310
#     4  10  19  36  58  79 103 133 176 222 260 311
#     4   9  20  35  51  76 111 144 177 216 262 316
#     4   8  14  26  48  76 106 136 175 220 260 304
#
# _framework density 18.610849999999999
#
# number of rings (size 3 to 8) (size 9 to 14) (size 15 to 20)
#    0.000    2.500    1.250    1.875    1.750    2.250 
#    0.000    2.500    0.000    2.625    0.000    5.250 
#    0.000    0.000    0.000    0.000    0.000    0.000 
#
# Total GULP energy -396700.567366 kJ/mol
# GULP energy per Si atom -12396.892730 kJ/mol
# Density = 1.856849 g / cm^3
# Si number density = 18.610850 Si / 1000 Ang^3
#
#
#
# Elastic Constant Matrix: (Units=GPa)
#
#
# Indices 1 2 3 4 5 6 
#
# 1 106.9502 35.4999 25.7177 0.0000 -6.9026 0.0000
# 2 35.4999 54.2563 20.4288 0.0000 -3.0895 0.0000
# 3 25.7177 20.4288 55.9603 0.0000 -15.2872 0.0000
# 4 0.0000 0.0000 0.0000 25.2223 0.0000 5.3651
# 5 -6.9026 -3.0895 -15.2872 0.0000 21.9904 0.0000
# 6 0.0000 0.0000 0.0000 5.3651 0.0000 24.0122
#
#
#
# Elastic Compliance Matrix: (Units=1/GPa)
#
#
# Indices 1 2 3 4 5 6 
#
# 1 0.012427 -0.006981 -0.002919 0.000000 0.000890 0.000000
# 2 -0.006981 0.025450 -0.007042 0.000000 -0.003511 0.000000
# 3 -0.002919 -0.007042 0.026246 0.000000 0.016340 0.000000
# 4 0.000000 0.000000 0.000000 0.041626 0.000000 -0.009301
# 5 0.000890 -0.003511 0.016340 0.000000 0.056620 0.000000
# 6 0.000000 0.000000 0.000000 -0.009301 0.000000 0.043724
#
#
# Mechanical properties :
#
#
# Convention : Reuss Voigt Hill
#
# Bulk Modulus (GPa) = 33.06998 42.27330 37.67164
# Shear Modulus (GPa) = 19.99560 23.27968 21.63764
#
# Velocity S-wave (km/s) = 3.28137 3.54060 3.41344
# Velocity P-wave (km/s) = 5.67136 6.28316 5.98508
#
# Compressibility (1/GPa) = 0.03023890
#
# Stress axis : x y z
#
# Youngs Moduli (GPa) = 80.47135 39.29259 38.10140
#
# Poissons Ratio (x) = 0.27430 0.11123
# Poissons Ratio (y) = 0.56177 0.26830
# Poissons Ratio (z) = 0.23492 0.27668
#
# Static dielectric constant tensor:
#      x y z
#    x 3.821870 0.000000 0.086200 
#    y 0.000000 3.286530 0.000000 
#    z 0.086200 0.000000 3.410540 
# 
# 
# High freq. dielectric constant tensor:
#      x y z
#    x 1.730240 0.000000 0.009050 
#    y 0.000000 1.706880 0.000000 
#    z 0.009050 0.000000 1.701040 
# 
# From -- ./inp_files/93621.got.cif
#   From: 2010.06.25/outbox.cif.g09.slc.cpg/sg10_47_cif.got.tgz:93621.got - 2010.06.27 22:07:45.
