data_PCOD8062175
_publ_section_title
;
Structure prediction by ZEFSAII (Michael W. Deem and Ramdas Pophale) SiO2 
 PCOD8062175
Probable space group: P 2/M
;
_chemical_formula_sum "Si O2"
_cell_formula_units_Z 28
_cell_length_a 28.395680
_cell_length_b 7.864340
_cell_length_c 9.804892
_cell_angle_alpha 90.000000
_cell_angle_beta 40.636906
_cell_angle_gamma 90.000000
_cell_volume 1425.981450
_symmetry_space_group_name_H-M "P 2/M"
_symmetry_group_IT_number 10
_symmetry_cell_setting 'monoclinic'
loop_
_space_group_symop_operation_xyz
x,y,z
-x,y,-z
-x,-y,-z
x,-y,z
loop_
_atom_site_type_symbol
_atom_site_label
_atom_site_fract_x
_atom_site_fract_y
_atom_site_fract_z
Si Si1 0.061964 0.197834 0.763867
Si Si2 0.817033 0.803312 0.122369
Si Si3 0.410208 0.500000 0.555043
Si Si4 0.689752 0.193980 0.200193
Si Si5 0.332923 0.188808 0.061795
Si Si6 0.430160 0.500000 0.831712
Si Si7 0.027412 0.199338 0.299034
Si Si8 0.215395 0.688715 0.512078
O O1 0.134649 0.297798 0.632902
O O2 0.036154 0.235381 0.667962
O O3 0.076683 0.000000 0.759464
O O4 0.000000 0.266066 0.000000
O O5 0.766810 0.772848 0.101394
O O6 0.781456 0.719308 0.333166
O O7 0.826381 0.000000 0.137707
O O8 0.895768 0.721417 0.917534
O O9 0.367107 0.327794 0.611077
O O10 0.426054 0.500000 0.679205
O O11 0.485944 0.500000 0.306277
O O12 0.663219 0.000000 0.287205
O O13 0.699552 0.226629 0.017220
O O14 0.268132 0.187044 0.313357
O O15 0.368300 0.000000 0.986537
O O16 0.392732 0.328749 0.971232
O O17 0.000000 0.283107 0.500000
O O18 0.040778 0.000000 0.290536
O O19 0.243733 0.500000 0.420289
#
# Coordination Sequence:
#
# PCOD8062175 Si02
#       8
#     4   4   2   4   4   2   4   4
#     4  10  19  35  55  75 103 143 192 239 287 336
#     4  10  20  37  56  80 111 147 194 238 284 345
#     4   9  18  34  61  85 127 151 181 230 278 336
#     4   9  20  35  58  88 116 152 192 231 284 342
#     4  10  20  37  59  87 119 150 189 236 284 336
#     4   9  18  36  57  93 119 153 185 225 280 339
#     4   9  18  32  53  79 105 139 187 242 292 339
#     4  12  24  36  54  80 112 153 197 238 290 342
#
# _framework density 19.635598999999999
#
# number of rings (size 3 to 8) (size 9 to 14) (size 15 to 20)
#    0.000    2.143    2.143    1.286    3.000    0.857 
#    0.000    2.857    0.000    2.571    0.000    3.000 
#    0.000    0.000    0.000    0.000    0.000    0.000 
#
# Total GULP energy -347175.294687 kJ/mol
# GULP energy per Si atom -12399.117667 kJ/mol
# Density = 1.959091 g / cm^3
# Si number density = 19.635599 Si / 1000 Ang^3
#
#
#
# Elastic Constant Matrix: (Units=GPa)
#
#
# Indices 1 2 3 4 5 6 
#
# 1 57.9243 25.1185 39.2165 0.0000 2.1805 0.0000
# 2 25.1185 94.0140 34.7981 0.0000 -8.4354 0.0000
# 3 39.2165 34.7981 112.1464 0.0000 -1.0574 0.0000
# 4 0.0000 0.0000 0.0000 20.4406 0.0000 -3.4150
# 5 2.1805 -8.4354 -1.0574 0.0000 29.8053 0.0000
# 6 0.0000 0.0000 0.0000 -3.4150 0.0000 20.8663
#
#
#
# Elastic Compliance Matrix: (Units=1/GPa)
#
#
# Indices 1 2 3 4 5 6 
#
# 1 0.023984 -0.004039 -0.007163 0.000000 -0.003152 0.000000
# 2 -0.004039 0.013024 -0.002592 0.000000 0.003890 0.000000
# 3 -0.007163 -0.002592 0.012228 0.000000 0.000224 0.000000
# 4 0.000000 0.000000 0.000000 0.050297 0.000000 0.008232
# 5 -0.003152 0.003890 0.000224 0.000000 0.034891 0.000000
# 6 0.000000 0.000000 0.000000 0.008232 0.000000 0.049271
#
#
# Mechanical properties :
#
#
# Convention : Reuss Voigt Hill
#
# Bulk Modulus (GPa) = 46.19583 51.37234 48.78408
# Shear Modulus (GPa) = 22.88315 25.21921 24.05118
#
# Velocity S-wave (km/s) = 3.41749 3.58769 3.50362
# Velocity P-wave (km/s) = 6.25699 6.58648 6.42385
#
# Compressibility (1/GPa) = 0.02164698
#
# Stress axis : x y z
#
# Youngs Moduli (GPa) = 41.69449 76.77888 81.77756
#
# Poissons Ratio (x) = 0.31014 0.58580
# Poissons Ratio (y) = 0.16842 0.21198
# Poissons Ratio (z) = 0.29867 0.19902
#
# Static dielectric constant tensor:
#      x y z
#    x 3.443010 0.000000 -0.046290 
#    y 0.000000 3.540400 0.000000 
#    z -0.046290 0.000000 3.588170 
# 
# 
# High freq. dielectric constant tensor:
#      x y z
#    x 1.749700 0.000000 0.001380 
#    y 0.000000 1.759780 0.000000 
#    z 0.001380 0.000000 1.754740 
# 
# From -- ./inp_files/37160.got.cif
#   From: 2010.06.25/outbox.cif.g09.slc.cpg/sg10_19_cif.got.tgz:37160.got - 2010.06.27 22:07:45.
