data_PCOD8062003
_publ_section_title
;
Structure prediction by ZEFSAII (Michael W. Deem and Ramdas Pophale) SiO2 
 PCOD8062003
Probable space group: P 2/M
;
_chemical_formula_sum "Si O2"
_cell_formula_units_Z 20
_cell_length_a 8.672996
_cell_length_b 13.708652
_cell_length_c 12.774467
_cell_angle_alpha 90.000000
_cell_angle_beta 38.747667
_cell_angle_gamma 90.000000
_cell_volume 950.617686
_symmetry_space_group_name_H-M "P 2/M"
_symmetry_group_IT_number 10
_symmetry_cell_setting 'monoclinic'
loop_
_space_group_symop_operation_xyz
x,y,z
-x,y,-z
-x,-y,-z
x,-y,z
loop_
_atom_site_type_symbol
_atom_site_label
_atom_site_fract_x
_atom_site_fract_y
_atom_site_fract_z
Si Si1 0.057237 0.202333 0.121126
Si Si2 0.296602 0.206279 0.521434
Si Si3 0.356475 0.113067 0.802777
Si Si4 0.742783 0.389545 0.585118
Si Si5 0.648065 0.389116 0.025962
O O1 0.968007 0.176171 0.287242
O O2 0.830774 0.180416 0.163597
O O3 0.298128 0.139633 0.955985
O O4 0.119482 0.317495 0.084478
O O5 0.500000 0.183392 0.500000
O O6 0.365630 0.141972 0.381062
O O7 0.301215 0.320349 0.490667
O O8 0.306033 0.000000 0.808531
O O9 0.754276 0.500000 0.537085
O O10 0.527960 0.375018 0.782208
O O11 0.000000 0.358681 0.500000
O O12 0.747602 0.500000 0.966130
O O13 0.500000 0.361054 0.000000
#
# Coordination Sequence:
#
# PCOD8062003 Si02
#       5
#     4   4   4   4   4
#     4  10  19  34  57  84 112 147 186 231 284 333
#     4  10  21  35  57  87 115 149 190 234 286 339
#     4  10  21  38  59  83 111 146 194 239 287 338
#     4  10  20  36  57  83 117 155 192 229 280 343
#     4  10  20  35  57  85 116 152 192 230 277 342
#
# _framework density 21.038952999999999
#
# number of rings (size 3 to 8) (size 9 to 14) (size 15 to 20)
#    0.000    2.000    2.000    2.400    0.000    7.200 
#    0.000    5.000    0.000    3.000    0.000    0.000 
#    0.000    0.000    0.000    0.000    0.000    0.000 
#
# Total GULP energy -247811.592626 kJ/mol
# GULP energy per Si atom -12390.579631 kJ/mol
# Density = 2.099107 g / cm^3
# Si number density = 21.038953 Si / 1000 Ang^3
#
#
#
# Elastic Constant Matrix: (Units=GPa)
#
#
# Indices 1 2 3 4 5 6 
#
# 1 17.8655 33.6157 19.0525 0.0000 2.5344 0.0000
# 2 33.6157 134.8576 70.7382 0.0000 -2.8173 0.0000
# 3 19.0525 70.7382 207.5897 0.0000 15.9925 0.0000
# 4 0.0000 0.0000 0.0000 23.3333 0.0000 1.5176
# 5 2.5344 -2.8173 15.9925 0.0000 22.8335 0.0000
# 6 0.0000 0.0000 0.0000 1.5176 0.0000 8.0715
#
#
#
# Elastic Compliance Matrix: (Units=1/GPa)
#
#
# Indices 1 2 3 4 5 6 
#
# 1 0.110877 -0.028373 0.000750 0.000000 -0.016333 0.000000
# 2 -0.028373 0.016555 -0.003633 0.000000 0.007737 0.000000
# 3 0.000750 -0.003633 0.006371 0.000000 -0.004994 0.000000
# 4 0.000000 0.000000 0.000000 0.043388 0.000000 -0.008158
# 5 -0.016333 0.007737 -0.004994 0.000000 0.050060 0.000000
# 6 0.000000 0.000000 0.000000 -0.008158 0.000000 0.125426
#
#
# Mechanical properties :
#
#
# Convention : Reuss Voigt Hill
#
# Bulk Modulus (GPa) = 14.02689 67.45838 40.74264
# Shear Modulus (GPa) = 11.39074 26.64143 19.01609
#
# Velocity S-wave (km/s) = 2.32935 3.56236 3.00967
# Velocity P-wave (km/s) = 3.73043 7.00383 5.61114
#
# Compressibility (1/GPa) = 0.07129163
#
# Stress axis : x y z
#
# Youngs Moduli (GPa) = 9.01900 60.40429 156.95825
#
# Poissons Ratio (x) = 1.71385 -0.11778
# Poissons Ratio (y) = 0.25590 0.57027
# Poissons Ratio (z) = -0.00677 0.21947
#
# Static dielectric constant tensor:
#      x y z
#    x 3.276270 0.000000 0.285270 
#    y 0.000000 3.717030 0.000000 
#    z 0.285270 0.000000 5.319470 
# 
# 
# High freq. dielectric constant tensor:
#      x y z
#    x 1.759900 0.000000 0.012590 
#    y 0.000000 1.816440 0.000000 
#    z 0.012590 0.000000 1.865440 
# 
# From -- ./inp_files/41304.got.cif
#   From: 2010.06.25/outbox.cif.g09.slc.cpg/sg10_21_cif.got.tgz:41304.got - 2010.06.27 22:07:45.
