data_PCOD8062422
_publ_section_title
;
Structure prediction by ZEFSAII (Michael W. Deem and Ramdas Pophale) SiO2 
 PCOD8062422
Probable space group: P 2/M
;
_chemical_formula_sum "Si O2"
_cell_formula_units_Z 32
_cell_length_a 13.938835
_cell_length_b 17.916539
_cell_length_c 11.598872
_cell_angle_alpha 90.000000
_cell_angle_beta 147.534370
_cell_angle_gamma 90.000000
_cell_volume 1554.904322
_symmetry_space_group_name_H-M "P 2/M"
_symmetry_group_IT_number 10
_symmetry_cell_setting 'monoclinic'
loop_
_space_group_symop_operation_xyz
x,y,z
-x,y,-z
-x,-y,-z
x,-y,z
loop_
_atom_site_type_symbol
_atom_site_label
_atom_site_fract_x
_atom_site_fract_y
_atom_site_fract_z
Si Si1 0.794743 0.418089 0.758355
Si Si2 0.796951 0.087109 0.020387
Si Si3 0.502924 0.153536 0.873754
Si Si4 0.539494 0.329692 0.164463
Si Si5 0.874544 0.672779 0.628698
Si Si6 0.700034 0.806650 0.734480
Si Si7 0.168107 0.160601 0.383376
Si Si8 0.738624 0.659752 0.920115
O O1 0.731869 0.500000 0.650321
O O2 0.771075 0.352120 0.641002
O O3 0.685753 0.396238 0.763037
O O4 0.000000 0.421035 0.000000
O O5 0.008731 0.102435 0.241619
O O6 0.760894 0.000000 0.993976
O O7 0.694239 0.129108 0.018894
O O8 0.714781 0.115365 0.816632
O O9 0.489105 0.241686 0.867359
O O10 0.342843 0.126334 0.625375
O O11 0.500000 0.119073 0.000000
O O12 0.743081 0.356064 0.394669
O O13 0.409977 0.355590 0.135424
O O14 0.500000 0.365639 0.000000
O O15 0.885844 0.760771 0.617185
O O16 0.072872 0.638442 0.826954
O O17 0.500000 0.785720 0.500000
O O18 0.810786 0.819714 0.730469
O O19 0.767488 0.741895 0.891050
#
# Coordination Sequence:
#
# PCOD8062422 Si02
#       8
#     4   4   4   4   4   4   4   4
#     4   9  19  33  56  93 125 154 192 235 291 356
#     4  12  26  40  58  88 119 153 195 239 298 363
#     4  10  22  43  63  82 113 153 201 253 290 334
#     4  10  21  37  60  90 114 148 209 252 277 333
#     4  10  19  35  61  86 118 157 189 239 293 344
#     4  12  21  38  63  87 117 155 195 235 293 357
#     4  11  21  38  62  89 114 152 196 238 293 351
#     4  11  20  35  61  88 119 156 190 241 292 344
#
# _framework density 20.580044999999998
#
# number of rings (size 3 to 8) (size 9 to 14) (size 15 to 20)
#    0.000    1.375    5.000    1.125    0.000    3.000 
#    0.000    5.625    0.000    1.500    0.000    3.500 
#    0.000    0.000    0.000    0.000    0.000    0.000 
#
# Total GULP energy -396528.945000 kJ/mol
# GULP energy per Si atom -12391.529531 kJ/mol
# Density = 2.053320 g / cm^3
# Si number density = 20.580045 Si / 1000 Ang^3
#
#
#
# Elastic Constant Matrix: (Units=GPa)
#
#
# Indices 1 2 3 4 5 6 
#
# 1 85.3904 4.9772 35.3705 0.0000 -1.2501 0.0000
# 2 4.9772 53.7939 20.2433 0.0000 -1.9369 0.0000
# 3 35.3705 20.2433 107.0608 0.0000 -3.7099 0.0000
# 4 0.0000 0.0000 0.0000 7.4339 0.0000 2.8469
# 5 -1.2501 -1.9369 -3.7099 0.0000 30.5808 0.0000
# 6 0.0000 0.0000 0.0000 2.8469 0.0000 13.4495
#
#
#
# Elastic Compliance Matrix: (Units=1/GPa)
#
#
# Indices 1 2 3 4 5 6 
#
# 1 0.013578 0.000466 -0.004573 0.000000 0.000030 0.000000
# 2 0.000466 0.020050 -0.003917 0.000000 0.000814 0.000000
# 3 -0.004573 -0.003917 0.011626 0.000000 0.000975 0.000000
# 4 0.000000 0.000000 0.000000 0.146386 0.000000 -0.030987
# 5 0.000030 0.000814 0.000975 0.000000 0.032871 0.000000
# 6 0.000000 0.000000 0.000000 -0.030987 0.000000 0.080912
#
#
# Mechanical properties :
#
#
# Convention : Reuss Voigt Hill
#
# Bulk Modulus (GPa) = 34.23998 40.82523 37.53261
# Shear Modulus (GPa) = 15.09633 22.66976 18.88304
#
# Velocity S-wave (km/s) = 2.71134 3.32255 3.03238
# Velocity P-wave (km/s) = 5.14542 5.88213 5.52607
#
# Compressibility (1/GPa) = 0.02920562
#
# Stress axis : x y z
#
# Youngs Moduli (GPa) = 73.64599 49.87635 86.01643
#
# Poissons Ratio (x) = -0.02322 0.39336
# Poissons Ratio (y) = -0.03429 0.33690
# Poissons Ratio (z) = 0.33679 0.19535
#
# Static dielectric constant tensor:
#      x y z
#    x 3.862830 0.000000 -0.230140 
#    y 0.000000 3.484340 0.000000 
#    z -0.230140 0.000000 4.062460 
# 
# 
# High freq. dielectric constant tensor:
#      x y z
#    x 1.797380 0.000000 0.004440 
#    y 0.000000 1.768000 0.000000 
#    z 0.004440 0.000000 1.815810 
# 
# From -- ./inp_files/51997.got.cif
#   From: 2010.06.25/outbox.cif.g09.slc.cpg/sg10_26_cif.got.tgz:51997.got - 2010.06.27 22:07:45.
