data_PCOD8062636
_publ_section_title
;
Structure prediction by ZEFSAII (Michael W. Deem and Ramdas Pophale) SiO2 
 PCOD8062636
Probable space group: P 2/M
;
_chemical_formula_sum "Si O2"
_cell_formula_units_Z 32
_cell_length_a 19.917387
_cell_length_b 9.026261
_cell_length_c 25.636213
_cell_angle_alpha 90.000000
_cell_angle_beta 158.966996
_cell_angle_gamma 90.000000
_cell_volume 1654.148237
_symmetry_space_group_name_H-M "P 2/M"
_symmetry_group_IT_number 10
_symmetry_cell_setting 'monoclinic'
loop_
_space_group_symop_operation_xyz
x,y,z
-x,y,-z
-x,-y,-z
x,-y,z
loop_
_atom_site_type_symbol
_atom_site_label
_atom_site_fract_x
_atom_site_fract_y
_atom_site_fract_z
Si Si1 0.697644 0.170351 0.669233
Si Si2 0.920162 0.674761 0.330913
Si Si3 0.062171 0.173796 0.872204
Si Si4 0.274542 0.170492 0.630707
Si Si5 0.172346 0.172910 0.839844
Si Si6 0.605950 0.829812 0.166336
Si Si7 0.635219 0.173389 0.827323
Si Si8 0.787688 0.674740 0.839454
O O1 0.500000 0.199829 0.500000
O O2 0.711821 0.275872 0.728797
O O3 0.854647 0.213279 0.740761
O O4 0.721867 0.000000 0.704566
O O5 0.923530 0.500000 0.329577
O O6 0.933454 0.741518 0.282730
O O7 0.730120 0.725048 0.220626
O O8 0.095051 0.727934 0.492016
O O9 0.093000 0.238920 0.836724
O O10 0.101141 0.000000 0.896872
O O11 0.212665 0.240307 0.021961
O O12 0.364179 0.207985 0.751479
O O13 0.428105 0.205137 0.698144
O O14 0.210482 0.000000 0.581886
O O15 0.125376 0.000000 0.799925
O O16 0.392961 0.201975 0.996888
O O17 0.659181 0.000000 0.193178
O O18 0.655179 0.254854 0.786956
O O19 0.670430 0.000000 0.844117
O O20 0.775534 0.500000 0.835471
O O21 0.000000 0.731951 0.000000
#
# Coordination Sequence:
#
# PCOD8062636 Si02
#       8
#     4   4   4   4   4   4   4   4
#     4  10  21  37  60  90 120 152 193 242 294 342
#     4  12  26  39  53  83 125 161 190 227 287 355
#     4   9  17  34  61  88 113 142 188 247 295 338
#     4  10  21  39  63  89 112 143 195 248 296 344
#     4  10  20  38  63  87 112 149 197 249 297 340
#     4  10  20  38  64  88 109 144 198 251 296 341
#     4  10  19  36  64  90 111 145 195 251 295 332
#     4  11  23  37  56  86 122 160 195 229 280 346
#
# _framework density 19.345303999999999
#
# number of rings (size 3 to 8) (size 9 to 14) (size 15 to 20)
#    0.000    1.750    2.500    2.250    0.000    6.250 
#    0.000    3.750    0.000    0.000    0.000    0.000 
#    0.000    0.000    0.000    0.000    0.000    0.000 
#
# Total GULP energy -396953.682204 kJ/mol
# GULP energy per Si atom -12404.802569 kJ/mol
# Density = 1.930127 g / cm^3
# Si number density = 19.345304 Si / 1000 Ang^3
#
#
#
# Elastic Constant Matrix: (Units=GPa)
#
#
# Indices 1 2 3 4 5 6 
#
# 1 103.4248 36.4332 12.4921 0.0000 5.5651 0.0000
# 2 36.4332 64.2687 26.0807 0.0000 -1.2884 0.0000
# 3 12.4921 26.0807 68.4744 0.0000 0.6479 0.0000
# 4 0.0000 0.0000 0.0000 10.7141 0.0000 0.7483
# 5 5.5651 -1.2884 0.6479 0.0000 27.8303 0.0000
# 6 0.0000 0.0000 0.0000 0.7483 0.0000 -2.7006
#
#
#
# Elastic Compliance Matrix: (Units=1/GPa)
#
#
# Indices 1 2 3 4 5 6 
#
# 1 0.012310 -0.007256 0.000544 0.000000 -0.002810 0.000000
# 2 -0.007256 0.022710 -0.007351 0.000000 0.002673 0.000000
# 3 0.000544 -0.007351 0.017313 0.000000 -0.000852 0.000000
# 4 0.000000 0.000000 0.000000 0.091563 0.000000 0.025370
# 5 -0.002810 0.002673 -0.000852 0.000000 0.036638 0.000000
# 6 0.000000 0.000000 0.000000 0.025370 0.000000 -0.363255
#
#
# Mechanical properties :
#
#
# Convention : Reuss Voigt Hill
#
# Bulk Modulus (GPa) = 41.30995 42.90888 42.10942
# Shear Modulus (GPa) = -34.12329 17.91290 -8.10520
#
# Velocity S-wave (km/s) = -4.20444 3.04625 -2.04911
# Velocity P-wave (km/s) = 1.47290 5.88231 4.02692
#
# Compressibility (1/GPa) = 0.02420724
#
# Stress axis : x y z
#
# Youngs Moduli (GPa) = 81.23280 44.03405 57.76095
#
# Poissons Ratio (x) = 0.31950 -0.03144
# Poissons Ratio (y) = 0.58941 0.42462
# Poissons Ratio (z) = -0.04422 0.32371
#
# Static dielectric constant tensor:
#      x y z
#    x 3.637020 0.000000 -0.042380 
#    y 0.000000 3.254380 0.000000 
#    z -0.042380 0.000000 3.447640 
# 
# 
# High freq. dielectric constant tensor:
#      x y z
#    x 1.769040 0.000000 0.000010 
#    y 0.000000 1.723590 0.000000 
#    z 0.000010 0.000000 1.756420 
# 
# From -- ./inp_files/93788.got.cif
#   From: 2010.06.25/outbox.cif.g09.slc.cpg/sg10_47_cif.got.tgz:93788.got - 2010.06.27 22:07:45.
