data_PCOD8062666
_publ_section_title
;
Structure prediction by ZEFSAII (Michael W. Deem and Ramdas Pophale) SiO2 
 PCOD8062666
Probable space group: P 2/M
;
_chemical_formula_sum "Si O2"
_cell_formula_units_Z 24
_cell_length_a 17.030568
_cell_length_b 8.833523
_cell_length_c 24.331891
_cell_angle_alpha 90.000000
_cell_angle_beta 160.519125
_cell_angle_gamma 90.000000
_cell_volume 1220.744032
_symmetry_space_group_name_H-M "P 2/M"
_symmetry_group_IT_number 10
_symmetry_cell_setting 'monoclinic'
loop_
_space_group_symop_operation_xyz
x,y,z
-x,y,-z
-x,-y,-z
x,-y,z
loop_
_atom_site_type_symbol
_atom_site_label
_atom_site_fract_x
_atom_site_fract_y
_atom_site_fract_z
Si Si1 0.547919 0.819896 0.255274
Si Si2 0.231036 0.177033 0.316268
Si Si3 0.939605 0.821795 0.019576
Si Si4 0.969770 0.821208 0.609682
Si Si5 0.067515 0.321413 0.785564
Si Si6 0.450519 0.178811 0.868044
O O1 0.306053 0.753088 0.120609
O O2 0.765893 0.760507 0.434933
O O3 0.576027 0.761119 0.211671
O O4 0.544427 0.000000 0.252538
O O5 0.500000 0.229176 0.500000
O O6 0.068288 0.269168 0.249977
O O7 0.199780 0.000000 0.308902
O O8 0.149252 0.215347 0.200389
O O9 0.906959 0.000000 0.991441
O O10 0.000000 0.749538 0.000000
O O11 0.931695 0.741131 0.642808
O O12 0.218283 0.774515 0.747687
O O13 0.950270 0.000000 0.605487
O O14 0.074553 0.500000 0.788395
O O15 0.331419 0.258034 0.958668
O O16 0.494140 0.000000 0.898382
#
# Coordination Sequence:
#
# PCOD8062666 Si02
#       6
#     4   4   4   4   4   4
#     4   9  17  32  57  87 118 144 182 242 299 345
#     4  10  21  38  63  89 113 145 190 239 287 339
#     4   9  17  30  54  89 117 137 172 232 294 343
#     4  10  21  35  59  89 115 149 195 244 291 340
#     4  12  25  39  56  81 120 161 195 232 284 344
#     4  10  19  37  61  86 114 148 195 246 292 339
#
# _framework density 19.660142
#
# number of rings (size 3 to 8) (size 9 to 14) (size 15 to 20)
#    0.000    2.000    1.667    2.500    2.333    5.000 
#    0.000    0.833    0.000    2.500    0.000    0.000 
#    0.000    0.000    0.000    0.000    0.000    0.000 
#
# Total GULP energy -297667.401795 kJ/mol
# GULP energy per Si atom -12402.808408 kJ/mol
# Density = 1.961539 g / cm^3
# Si number density = 19.660142 Si / 1000 Ang^3
#
#
#
# Elastic Constant Matrix: (Units=GPa)
#
#
# Indices 1 2 3 4 5 6 
#
# 1 109.6877 21.1288 33.5360 0.0000 -10.9776 0.0000
# 2 21.1288 35.9865 24.7371 0.0000 0.5467 0.0000
# 3 33.5360 24.7371 130.0372 0.0000 -2.7525 0.0000
# 4 0.0000 0.0000 0.0000 0.2798 0.0000 0.8507
# 5 -10.9776 0.5467 -2.7525 0.0000 38.9528 0.0000
# 6 0.0000 0.0000 0.0000 0.8507 0.0000 8.8984
#
#
#
# Elastic Compliance Matrix: (Units=1/GPa)
#
#
# Indices 1 2 3 4 5 6 
#
# 1 0.010977 -0.005280 -0.001762 0.000000 0.003043 0.000000
# 2 -0.005280 0.034538 -0.005258 0.000000 -0.002344 0.000000
# 3 -0.001762 -0.005258 0.009150 0.000000 0.000224 0.000000
# 4 0.000000 0.000000 0.000000 5.038677 0.000000 -0.481731
# 5 0.003043 -0.002344 0.000224 0.000000 0.026578 0.000000
# 6 0.000000 0.000000 0.000000 -0.481731 0.000000 0.158436
#
#
# Mechanical properties :
#
#
# Convention : Reuss Voigt Hill
#
# Bulk Modulus (GPa) = 33.26186 48.27946 40.77066
# Shear Modulus (GPa) = 0.94109 22.71350 11.82729
#
# Velocity S-wave (km/s) = 0.69262 3.40267 2.45539
# Velocity P-wave (km/s) = 4.19461 6.32834 5.36855
#
# Compressibility (1/GPa) = 0.03006446
#
# Stress axis : x y z
#
# Youngs Moduli (GPa) = 91.09812 28.95330 109.29476
#
# Poissons Ratio (x) = 0.15287 0.19259
# Poissons Ratio (y) = 0.48100 0.57470
# Poissons Ratio (z) = 0.16053 0.15224
#
# Static dielectric constant tensor:
#      x y z
#    x 3.779830 0.000000 -0.050380 
#    y 0.000000 3.047170 0.000000 
#    z -0.050380 0.000000 3.822640 
# 
# 
# High freq. dielectric constant tensor:
#      x y z
#    x 1.780800 0.000000 -0.005240 
#    y 0.000000 1.709960 0.000000 
#    z -0.005240 0.000000 1.782430 
# 
# From -- ./inp_files/68774.got.cif
#   From: 2010.06.25/outbox.cif.g09.slc.cpg/sg10_35_cif.got.tgz:68774.got - 2010.06.27 22:07:45.
