data_PCOD8062716
_publ_section_title
;
Structure prediction by ZEFSAII (Michael W. Deem and Ramdas Pophale) SiO2 
 PCOD8062716
Probable space group: P 2/M
;
_chemical_formula_sum "Si O2"
_cell_formula_units_Z 24
_cell_length_a 11.240991
_cell_length_b 14.756567
_cell_length_c 13.192942
_cell_angle_alpha 90.000000
_cell_angle_beta 147.599599
_cell_angle_gamma 90.000000
_cell_volume 1172.629469
_symmetry_space_group_name_H-M "P 2/M"
_symmetry_group_IT_number 10
_symmetry_cell_setting 'monoclinic'
loop_
_space_group_symop_operation_xyz
x,y,z
-x,y,-z
-x,-y,-z
x,-y,z
loop_
_atom_site_type_symbol
_atom_site_label
_atom_site_fract_x
_atom_site_fract_y
_atom_site_fract_z
Si Si1 0.592704 0.766434 0.457611
Si Si2 0.284672 0.356714 0.785810
Si Si3 0.309365 0.145844 0.788253
Si Si4 0.604019 0.101196 0.831204
Si Si5 0.192047 0.399840 0.497342
Si Si6 0.998718 0.897509 0.731188
O O1 0.500000 0.740580 0.500000
O O2 0.402477 0.823129 0.261165
O O3 0.651364 0.672003 0.446067
O O4 0.805185 0.830103 0.621052
O O5 0.313480 0.252744 0.777376
O O6 0.260933 0.409869 0.664101
O O7 0.066155 0.370212 0.697862
O O8 0.500000 0.393588 0.000000
O O9 0.365018 0.103457 0.718145
O O10 0.075059 0.115056 0.668239
O O11 0.500000 0.109777 0.000000
O O12 0.637629 0.000000 0.809983
O O13 0.799077 0.127590 0.048615
O O14 0.222250 0.500000 0.470175
O O15 0.916411 0.000000 0.688862
#
# Coordination Sequence:
#
# PCOD8062716 Si02
#       6
#     4   4   4   4   4   4
#     4  12  26  42  58  79 113 159 207 247 282 327
#     4  10  19  37  65  93 122 149 177 230 302 362
#     4   9  16  31  59  90 118 149 179 218 289 357
#     4  10  21  38  61  89 120 153 190 236 290 348
#     4  11  24  40  61  90 117 149 193 237 294 356
#     4  10  21  38  61  89 120 153 190 236 290 348
#
# _framework density 20.466823999999999
#
# number of rings (size 3 to 8) (size 9 to 14) (size 15 to 20)
#    0.000    1.667    3.333    2.000    0.000    6.333 
#    0.000    3.333    0.000    0.000    0.000    4.667 
#    0.000    0.000    0.000    0.000    0.000    0.000 
#
# Total GULP energy -297567.255202 kJ/mol
# GULP energy per Si atom -12398.635633 kJ/mol
# Density = 2.042024 g / cm^3
# Si number density = 20.466824 Si / 1000 Ang^3
#
#
#
# Elastic Constant Matrix: (Units=GPa)
#
#
# Indices 1 2 3 4 5 6 
#
# 1 82.6693 23.1184 -0.0671 0.0000 -2.4050 0.0000
# 2 23.1184 110.6816 6.5837 0.0000 -0.9140 0.0000
# 3 -0.0671 6.5837 57.4139 0.0000 3.0509 0.0000
# 4 0.0000 0.0000 0.0000 6.0467 0.0000 -1.4891
# 5 -2.4050 -0.9140 3.0509 0.0000 20.2980 0.0000
# 6 0.0000 0.0000 0.0000 -1.4891 0.0000 8.5717
#
#
#
# Elastic Compliance Matrix: (Units=1/GPa)
#
#
# Indices 1 2 3 4 5 6 
#
# 1 0.012890 -0.002696 0.000252 0.000000 0.001368 0.000000
# 2 -0.002696 0.009667 -0.001127 0.000000 0.000285 0.000000
# 3 0.000252 -0.001127 0.017689 0.000000 -0.002680 0.000000
# 4 0.000000 0.000000 0.000000 0.172772 0.000000 0.030015
# 5 0.001368 0.000285 -0.002680 0.000000 0.049844 0.000000
# 6 0.000000 0.000000 0.000000 0.030015 0.000000 0.121877
#
#
# Mechanical properties :
#
#
# Convention : Reuss Voigt Hill
#
# Bulk Modulus (GPa) = 30.20764 34.44829 32.32797
# Shear Modulus (GPa) = 12.40947 21.72527 17.06737
#
# Velocity S-wave (km/s) = 2.46503 3.26158 2.89087
# Velocity P-wave (km/s) = 4.78468 5.57241 5.19350
#
# Compressibility (1/GPa) = 0.03310421
#
# Stress axis : x y z
#
# Youngs Moduli (GPa) = 77.57734 103.43981 56.53136
#
# Poissons Ratio (x) = 0.27889 -0.01422
# Poissons Ratio (y) = 0.20916 0.06370
# Poissons Ratio (z) = -0.01951 0.11656
#
# Static dielectric constant tensor:
#      x y z
#    x 3.477520 0.000000 -0.039000 
#    y 0.000000 3.648660 0.000000 
#    z -0.039000 0.000000 3.830820 
# 
# 
# High freq. dielectric constant tensor:
#      x y z
#    x 1.765470 0.000000 -0.001060 
#    y 0.000000 1.804270 0.000000 
#    z -0.001060 0.000000 1.803840 
# 
# From -- ./inp_files/51455.got.cif
#   From: 2010.06.25/outbox.cif.g09.slc.cpg/sg10_26_cif.got.tgz:51455.got - 2010.06.27 22:07:45.
