data_PCOD8062956
_publ_section_title
;
Structure prediction by ZEFSAII (Michael W. Deem and Ramdas Pophale) SiO2 
 PCOD8062956
Probable space group: P 2/M
;
_chemical_formula_sum "Si O2"
_cell_formula_units_Z 32
_cell_length_a 22.361175
_cell_length_b 9.029407
_cell_length_c 12.017541
_cell_angle_alpha 90.000000
_cell_angle_beta 47.877965
_cell_angle_gamma 90.000000
_cell_volume 1799.733714
_symmetry_space_group_name_H-M "P 2/M"
_symmetry_group_IT_number 10
_symmetry_cell_setting 'monoclinic'
loop_
_space_group_symop_operation_xyz
x,y,z
-x,y,-z
-x,-y,-z
x,-y,z
loop_
_atom_site_type_symbol
_atom_site_label
_atom_site_fract_x
_atom_site_fract_y
_atom_site_fract_z
Si Si1 0.991714 0.166186 0.180095
Si Si2 0.784395 0.674566 0.930864
Si Si3 0.505847 0.337359 0.861386
Si Si4 0.173797 0.328949 0.644894
Si Si5 0.064373 0.167624 0.332228
Si Si6 0.652324 0.824611 0.957229
Si Si7 0.679414 0.675674 0.689152
Si Si8 0.143462 0.330032 0.926995
O O1 0.906797 0.245984 0.286802
O O2 0.023576 0.171712 0.264436
O O3 0.979992 0.000000 0.151331
O O4 0.059090 0.242774 0.018342
O O5 0.771123 0.500000 0.934196
O O6 0.858158 0.725971 0.760460
O O7 0.704797 0.760794 0.992881
O O8 0.802564 0.722688 0.035900
O O9 0.489447 0.500000 0.828346
O O10 0.597495 0.283802 0.723154
O O11 0.500000 0.352044 0.000000
O O12 0.440090 0.220509 0.899960
O O13 0.159706 0.500000 0.635673
O O14 0.247432 0.267750 0.479080
O O15 0.194004 0.305699 0.750643
O O16 0.000000 0.230543 0.500000
O O17 0.090831 0.000000 0.330758
O O18 0.683731 0.757887 0.801828
O O19 0.659136 0.000000 0.944005
O O20 0.682499 0.500000 0.708393
O O21 0.119246 0.500000 0.975678
#
# Coordination Sequence:
#
# PCOD8062956 Si02
#       8
#     4   4   4   4   4   4   4   4
#     4  10  20  32  48  72 100 133 171 206 247 294
#     4  10  20  34  52  73  96 128 172 209 244 291
#     4   8  15  31  52  73 101 132 162 198 244 294
#     4  10  20  34  53  75 100 129 166 210 252 293
#     4   9  19  34  48  66  99 135 164 203 250 291
#     4  11  21  32  51  77 105 133 164 200 244 300
#     4   9  19  34  52  77 105 132 161 201 251 298
#     4   9  19  36  54  71  95 131 172 213 250 288
#
# _framework density 17.780408000000001
#
# number of rings (size 3 to 8) (size 9 to 14) (size 15 to 20)
#    0.000    2.500    0.000    3.000    1.750    6.000 
#    0.000    0.000    0.000    0.750    0.000    5.250 
#    0.000    0.000    0.000    0.000    0.000    0.000 
#
# Total GULP energy -396737.252767 kJ/mol
# GULP energy per Si atom -12398.039149 kJ/mol
# Density = 1.773994 g / cm^3
# Si number density = 17.780408 Si / 1000 Ang^3
#
#
#
# Elastic Constant Matrix: (Units=GPa)
#
#
# Indices 1 2 3 4 5 6 
#
# 1 96.0161 48.9926 41.3559 0.0000 -26.6225 0.0000
# 2 48.9926 82.8043 34.0059 0.0000 -11.3844 0.0000
# 3 41.3559 34.0059 80.9541 0.0000 -18.5826 0.0000
# 4 0.0000 0.0000 0.0000 13.2761 0.0000 0.9981
# 5 -26.6225 -11.3844 -18.5826 0.0000 19.2738 0.0000
# 6 0.0000 0.0000 0.0000 0.9981 0.0000 21.7835
#
#
#
# Elastic Compliance Matrix: (Units=1/GPa)
#
#
# Indices 1 2 3 4 5 6 
#
# 1 0.022659 -0.009221 -0.002270 0.000000 0.023663 0.000000
# 2 -0.009221 0.018531 -0.004475 0.000000 -0.006106 0.000000
# 3 -0.002270 -0.004475 0.018063 0.000000 0.011636 0.000000
# 4 0.000000 0.000000 0.000000 0.075583 0.000000 -0.003463
# 5 0.023663 -0.006106 0.011636 0.000000 0.092181 0.000000
# 6 0.000000 0.000000 0.000000 -0.003463 0.000000 0.046065
#
#
# Mechanical properties :
#
#
# Convention : Reuss Voigt Hill
#
# Bulk Modulus (GPa) = 36.60279 56.49815 46.55047
# Shear Modulus (GPa) = 15.91739 19.89469 17.90604
#
# Velocity S-wave (km/s) = 2.99527 3.34864 3.17687
# Velocity P-wave (km/s) = 5.70902 6.84074 6.30034
#
# Compressibility (1/GPa) = 0.02732032
#
# Stress axis : x y z
#
# Youngs Moduli (GPa) = 44.13309 53.96458 55.36058
#
# Poissons Ratio (x) = 0.49759 0.12569
# Poissons Ratio (y) = 0.40694 0.24774
# Poissons Ratio (z) = 0.10020 0.24150
#
# Static dielectric constant tensor:
#      x y z
#    x 3.390610 0.000000 -0.184610 
#    y 0.000000 3.353360 0.000000 
#    z -0.184610 0.000000 3.443420 
# 
# 
# High freq. dielectric constant tensor:
#      x y z
#    x 1.684080 0.000000 -0.007600 
#    y 0.000000 1.686360 0.000000 
#    z -0.007600 0.000000 1.672240 
# 
# From -- ./inp_files/55292.got.cif
#   From: 2010.06.25/outbox.cif.g09.slc.cpg/sg10_28_cif.got.tgz:55292.got - 2010.06.27 22:07:45.
