data_PCOD8062883
_publ_section_title
;
Structure prediction by ZEFSAII (Michael W. Deem and Ramdas Pophale) SiO2 
 PCOD8062883
Probable space group: P 2/M
;
_chemical_formula_sum "Si O2"
_cell_formula_units_Z 32
_cell_length_a 12.543080
_cell_length_b 9.100795
_cell_length_c 24.367309
_cell_angle_alpha 90.000000
_cell_angle_beta 46.561624
_cell_angle_gamma 90.000000
_cell_volume 2019.742888
_symmetry_space_group_name_H-M "P 2/M"
_symmetry_group_IT_number 10
_symmetry_cell_setting 'monoclinic'
loop_
_space_group_symop_operation_xyz
x,y,z
-x,y,-z
-x,-y,-z
x,-y,z
loop_
_atom_site_type_symbol
_atom_site_label
_atom_site_fract_x
_atom_site_fract_y
_atom_site_fract_z
Si Si1 0.161104 0.168207 0.950744
Si Si2 0.437057 0.166268 0.578482
Si Si3 0.429715 0.669301 0.136104
Si Si4 0.422181 0.670341 0.807274
Si Si5 0.686780 0.830551 0.989018
Si Si6 0.607272 0.327639 0.303124
Si Si7 0.155581 0.670483 0.165631
Si Si8 0.855074 0.167053 0.266676
O O1 0.269599 0.250882 0.872030
O O2 0.162937 0.000000 0.931462
O O3 0.205732 0.187244 0.997827
O O4 0.000000 0.236730 0.000000
O O5 0.500000 0.236176 0.500000
O O6 0.491899 0.259991 0.612199
O O7 0.257842 0.168418 0.641303
O O8 0.496401 0.000000 0.563904
O O9 0.476494 0.500000 0.110545
O O10 0.455856 0.717480 0.190556
O O11 0.258426 0.691798 0.182870
O O12 0.526409 0.767903 0.060736
O O13 0.388876 0.500000 0.824198
O O14 0.470883 0.708379 0.727607
O O15 0.758523 0.736773 0.915862
O O16 0.669213 0.000000 0.977430
O O17 0.625765 0.500000 0.306061
O O18 0.770357 0.252508 0.247217
O O19 0.122966 0.500000 0.165841
O O20 0.004236 0.753390 0.230913
O O21 0.890081 0.000000 0.235725
#
# Coordination Sequence:
#
# PCOD8062883 Si02
#       8
#     4   4   4   4   4   4   4   4
#     4   9  19  31  42  59  84 116 152 188 231 278
#     4   8  16  31  49  71 100 130 153 176 217 272
#     4   9  19  35  49  63  87 124 161 198 240 274
#     4   9  18  32  47  64  88 117 152 190 227 271
#     4  10  20  32  46  65  88 118 157 201 241 279
#     4   9  17  29  47  73  98 119 148 184 223 268
#     4  11  21  32  48  67  91 121 158 199 236 279
#     4   9  19  32  47  69  97 125 150 182 228 276
#
# _framework density 15.843601
#
# number of rings (size 3 to 8) (size 9 to 14) (size 15 to 20)
#    0.750    2.000    0.000    1.500    1.750    4.500 
#    0.000    0.000    0.000    0.000    0.000    0.875 
#    0.000    7.000    0.000    0.000    0.000    0.000 
#
# Total GULP energy -396525.269977 kJ/mol
# GULP energy per Si atom -12391.414687 kJ/mol
# Density = 1.580754 g / cm^3
# Si number density = 15.843601 Si / 1000 Ang^3
#
#
#
# Elastic Constant Matrix: (Units=GPa)
#
#
# Indices 1 2 3 4 5 6 
#
# 1 63.3543 33.5350 43.2541 0.0000 7.1893 0.0000
# 2 33.5350 78.5178 37.0536 0.0000 8.8878 0.0000
# 3 43.2541 37.0536 73.5240 0.0000 19.2484 0.0000
# 4 0.0000 0.0000 0.0000 21.5247 0.0000 2.4449
# 5 7.1893 8.8878 19.2484 0.0000 20.9898 0.0000
# 6 0.0000 0.0000 0.0000 2.4449 0.0000 16.3464
#
#
#
# Elastic Compliance Matrix: (Units=1/GPa)
#
#
# Indices 1 2 3 4 5 6 
#
# 1 0.028889 -0.005568 -0.016076 0.000000 0.007205 0.000000
# 2 -0.005568 0.017795 -0.005552 0.000000 -0.000536 0.000000
# 3 -0.016076 -0.005552 0.031318 0.000000 -0.020863 0.000000
# 4 0.000000 0.000000 0.000000 0.047261 0.000000 -0.007069
# 5 0.007205 -0.000536 -0.020863 0.000000 0.064534 0.000000
# 6 0.000000 0.000000 0.000000 -0.007069 0.000000 0.062233
#
#
# Mechanical properties :
#
#
# Convention : Reuss Voigt Hill
#
# Bulk Modulus (GPa) = 42.35272 49.23128 45.79200
# Shear Modulus (GPa) = 15.90880 18.54241 17.22560
#
# Velocity S-wave (km/s) = 3.17222 3.42474 3.30089
# Velocity P-wave (km/s) = 6.34090 6.83953 6.59493
#
# Compressibility (1/GPa) = 0.02361123
#
# Stress axis : x y z
#
# Youngs Moduli (GPa) = 34.61482 56.19633 31.93028
#
# Poissons Ratio (x) = 0.31289 0.51330
# Poissons Ratio (y) = 0.19273 0.17728
# Poissons Ratio (z) = 0.55646 0.31200
#
# Static dielectric constant tensor:
#      x y z
#    x 3.132250 0.000000 0.095750 
#    y 0.000000 3.111400 0.000000 
#    z 0.095750 0.000000 2.796640 
# 
# 
# High freq. dielectric constant tensor:
#      x y z
#    x 1.601670 0.000000 0.010180 
#    y 0.000000 1.619880 0.000000 
#    z 0.010180 0.000000 1.574250 
# 
# From -- ./inp_files/92448.got.cif
#   From: 2010.06.25/outbox.cif.g09.slc.cpg/sg10_47_cif.got.tgz:92448.got - 2010.06.27 22:07:45.
