data_PCOD8062880
_publ_section_title
;
Structure prediction by ZEFSAII (Michael W. Deem and Ramdas Pophale) SiO2 
 PCOD8062880
Probable space group: P 2/M
;
_chemical_formula_sum "Si O2"
_cell_formula_units_Z 28
_cell_length_a 14.093962
_cell_length_b 9.051748
_cell_length_c 14.093959
_cell_angle_alpha 90.000000
_cell_angle_beta 118.603871
_cell_angle_gamma 90.000000
_cell_volume 1578.587468
_symmetry_space_group_name_H-M "P 2/M"
_symmetry_group_IT_number 10
_symmetry_cell_setting 'monoclinic'
loop_
_space_group_symop_operation_xyz
x,y,z
-x,y,-z
-x,-y,-z
x,-y,z
loop_
_atom_site_type_symbol
_atom_site_label
_atom_site_fract_x
_atom_site_fract_y
_atom_site_fract_z
Si Si1 0.358796 0.174917 0.848216
Si Si2 0.599187 0.174430 0.922316
Si Si3 0.151784 0.174917 0.641204
Si Si4 0.564957 0.835851 0.435043
Si Si5 0.077684 0.174430 0.400813
Si Si6 0.622890 0.673869 0.749290
Si Si7 0.749290 0.673869 0.622891
O O1 0.474167 0.228332 0.863770
O O2 0.260723 0.244092 0.739277
O O3 0.355900 0.000000 0.841345
O O4 0.345239 0.221027 0.951959
O O5 0.662393 0.260488 0.868740
O O6 0.608044 0.000000 0.908764
O O7 0.136232 0.228331 0.525833
O O8 0.048040 0.221029 0.654760
O O9 0.158656 0.000000 0.644103
O O10 0.500000 0.851408 0.500000
O O11 0.493406 0.747381 0.325682
O O12 0.674317 0.747379 0.506594
O O13 0.592283 0.000000 0.407719
O O14 0.131260 0.260487 0.337607
O O15 0.091235 0.000000 0.391955
O O16 0.607009 0.500000 0.747203
O O17 0.709832 0.716185 0.709832
O O18 0.747205 0.500000 0.607010
#
# Coordination Sequence:
#
# PCOD8062880 Si02
#       7
#     4   4   4   4   4   4   4
#     4   8  15  29  48  71  98 123 153 199 246 281
#     4   9  17  29  49  74  94 122 163 196 231 286
#     4   8  15  29  48  71  98 123 153 199 246 281
#     4   9  17  29  45  65  89 121 161 195 224 271
#     4   9  17  29  49  74  94 122 163 196 231 286
#     4  10  20  32  45  65  98 132 157 191 240 285
#     4  10  20  32  45  65  98 132 157 191 240 285
#
# _framework density 17.737376999999999
#
# number of rings (size 3 to 8) (size 9 to 14) (size 15 to 20)
#    0.000    3.000    0.000    3.000    2.000    3.429 
#    0.000    2.857    0.000    3.429    0.000    6.000 
#    0.000    0.000    0.000    0.000    0.000    0.000 
#
# Total GULP energy -347044.655799 kJ/mol
# GULP energy per Si atom -12394.451993 kJ/mol
# Density = 1.769701 g / cm^3
# Si number density = 17.737377 Si / 1000 Ang^3
#
#
#
# Elastic Constant Matrix: (Units=GPa)
#
#
# Indices 1 2 3 4 5 6 
#
# 1 85.7749 28.3419 30.8917 0.0000 -6.5343 0.0000
# 2 28.3419 56.9185 16.7847 0.0000 -10.0090 0.0000
# 3 30.8917 16.7847 77.5868 0.0000 -0.5573 0.0000
# 4 0.0000 0.0000 0.0000 16.8181 0.0000 -3.7236
# 5 -6.5343 -10.0090 -0.5573 0.0000 28.8453 0.0000
# 6 0.0000 0.0000 0.0000 -3.7236 0.0000 21.1179
#
#
#
# Elastic Compliance Matrix: (Units=1/GPa)
#
#
# Indices 1 2 3 4 5 6 
#
# 1 0.015509 -0.006060 -0.004855 0.000000 0.001317 0.000000
# 2 -0.006060 0.022409 -0.002389 0.000000 0.006357 0.000000
# 3 -0.004855 -0.002389 0.015327 0.000000 -0.001633 0.000000
# 4 0.000000 0.000000 0.000000 0.061875 0.000000 0.010910
# 5 0.001317 0.006357 -0.001633 0.000000 0.037140 0.000000
# 6 0.000000 0.000000 0.000000 0.010910 0.000000 0.049277
#
#
# Mechanical properties :
#
#
# Convention : Reuss Voigt Hill
#
# Bulk Modulus (GPa) = 37.54116 41.36855 39.45486
# Shear Modulus (GPa) = 21.09489 22.97371 22.03430
#
# Velocity S-wave (km/s) = 3.45235 3.60281 3.52838
# Velocity P-wave (km/s) = 6.09119 6.37812 6.23631
#
# Compressibility (1/GPa) = 0.02663743
#
# Stress axis : x y z
#
# Youngs Moduli (GPa) = 64.47698 44.62549 65.24446
#
# Poissons Ratio (x) = 0.27041 0.31675
# Poissons Ratio (y) = 0.39070 0.15590
# Poissons Ratio (z) = 0.31303 0.10663
#
# Static dielectric constant tensor:
#      x y z
#    x 3.361640 0.000000 0.076110 
#    y 0.000000 2.983570 0.000000 
#    z 0.076110 0.000000 3.449500 
# 
# 
# High freq. dielectric constant tensor:
#      x y z
#    x 1.682260 0.000000 -0.014050 
#    y 0.000000 1.657770 0.000000 
#    z -0.014050 0.000000 1.666030 
# 
# From -- ./inp_files/66239.got.cif
#   From: 2010.06.25/outbox.cif.g09.slc.cpg/sg10_34_cif.got.tgz:66239.got - 2010.06.27 22:07:45.
