data_PCOD8062126
_publ_section_title
;
Structure prediction by ZEFSAII (Michael W. Deem and Ramdas Pophale) SiO2 
 PCOD8062126
Probable space group: P 2/M
;
_chemical_formula_sum "Si O2"
_cell_formula_units_Z 32
_cell_length_a 12.265816
_cell_length_b 14.208629
_cell_length_c 18.542763
_cell_angle_alpha 90.000000
_cell_angle_beta 150.567401
_cell_angle_gamma 90.000000
_cell_volume 1588.026166
_symmetry_space_group_name_H-M "P 2/M"
_symmetry_group_IT_number 10
_symmetry_cell_setting 'monoclinic'
loop_
_space_group_symop_operation_xyz
x,y,z
-x,y,-z
-x,-y,-z
x,-y,z
loop_
_atom_site_type_symbol
_atom_site_label
_atom_site_fract_x
_atom_site_fract_y
_atom_site_fract_z
Si Si1 0.098949 0.605801 0.901458
Si Si2 0.587646 0.605965 0.629481
Si Si3 0.343735 0.206161 0.840181
Si Si4 0.878882 0.111038 0.778309
Si Si5 0.090830 0.891018 0.370829
Si Si6 0.487590 0.789577 0.340743
Si Si7 0.248786 0.398571 0.831839
Si Si8 0.309177 0.212278 0.079552
O O1 0.185280 0.500000 0.967535
O O2 0.101923 0.625534 0.817617
O O3 0.850755 0.619476 0.785577
O O4 0.255866 0.678227 0.033965
O O5 0.500000 0.629626 0.500000
O O6 0.518769 0.500000 0.612103
O O7 0.481587 0.678842 0.624597
O O8 0.230304 0.310395 0.766533
O O9 0.486052 0.180042 0.852218
O O10 0.152939 0.128962 0.738311
O O11 0.500000 0.205372 0.000000
O O12 0.896324 0.140028 0.704965
O O13 0.661427 0.160988 0.684119
O O14 0.855902 0.000000 0.776255
O O15 0.098507 0.146662 0.944428
O O16 0.270074 0.835019 0.520942
O O17 0.143059 0.000000 0.409621
O O18 0.373646 0.803447 0.198636
O O19 0.170602 0.500000 0.753217
O O20 0.500000 0.410428 0.000000
#
# Coordination Sequence:
#
# PCOD8062126 Si02
#       8
#     4   4   4   4   4   4   4   4
#     4  10  19  34  59  91 125 161 205 253 303 365
#     4  10  22  38  61  92 127 169 212 254 308 371
#     4  11  21  39  66  91 126 158 217 264 307 360
#     4  11  23  42  68  93 118 156 209 261 312 372
#     4  11  25  45  69  92 116 162 215 264 317 373
#     4  12  26  40  62  90 136 166 200 251 321 383
#     4   9  16  29  55  91 118 147 196 251 295 343
#     4  12  24  40  60  97 129 167 201 256 317 373
#
# _framework density 20.150801999999999
#
# number of rings (size 3 to 8) (size 9 to 14) (size 15 to 20)
#    0.000    1.250    5.000    1.875    1.750    4.250 
#    0.000    1.875    0.000    0.000    0.000    2.625 
#    0.000    0.000    0.000    0.000    0.000    0.000 
#
# Total GULP energy -396853.461279 kJ/mol
# GULP energy per Si atom -12401.670665 kJ/mol
# Density = 2.010494 g / cm^3
# Si number density = 20.150802 Si / 1000 Ang^3
#
#
#
# Elastic Constant Matrix: (Units=GPa)
#
#
# Indices 1 2 3 4 5 6 
#
# 1 57.7249 26.5224 22.3953 0.0000 12.0121 0.0000
# 2 26.5224 85.7329 32.6054 0.0000 3.6377 0.0000
# 3 22.3953 32.6054 85.8842 0.0000 0.5607 0.0000
# 4 0.0000 0.0000 0.0000 27.4206 0.0000 6.5706
# 5 12.0121 3.6377 0.5607 0.0000 28.0350 0.0000
# 6 0.0000 0.0000 0.0000 6.5706 0.0000 21.5109
#
#
#
# Elastic Compliance Matrix: (Units=1/GPa)
#
#
# Indices 1 2 3 4 5 6 
#
# 1 0.023203 -0.005272 -0.003989 0.000000 -0.009178 0.000000
# 2 -0.005272 0.014908 -0.004288 0.000000 0.000410 0.000000
# 3 -0.003989 -0.004288 0.014299 0.000000 0.001980 0.000000
# 4 0.000000 0.000000 0.000000 0.039349 0.000000 -0.012019
# 5 -0.009178 0.000410 0.001980 0.000000 0.039509 0.000000
# 6 0.000000 0.000000 0.000000 -0.012019 0.000000 0.050159
#
#
# Mechanical properties :
#
#
# Convention : Reuss Voigt Hill
#
# Bulk Modulus (GPa) = 39.50568 43.59871 41.55219
# Shear Modulus (GPa) = 23.04539 25.24789 24.14664
#
# Velocity S-wave (km/s) = 3.38545 3.54354 3.46540
# Velocity P-wave (km/s) = 5.91010 6.19882 6.05618
#
# Compressibility (1/GPa) = 0.02531282
#
# Stress axis : x y z
#
# Youngs Moduli (GPa) = 43.09746 67.07673 69.93599
#
# Poissons Ratio (x) = 0.35360 0.27899
# Poissons Ratio (y) = 0.22719 0.29988
# Poissons Ratio (z) = 0.17193 0.28762
#
# Static dielectric constant tensor:
#      x y z
#    x 3.642470 0.000000 0.228630 
#    y 0.000000 4.039280 0.000000 
#    z 0.228630 0.000000 3.436540 
# 
# 
# High freq. dielectric constant tensor:
#      x y z
#    x 1.773540 0.000000 0.023600 
#    y 0.000000 1.804920 0.000000 
#    z 0.023600 0.000000 1.764870 
# 
# From -- ./inp_files/77054.got.cif
#   From: 2010.06.25/outbox.cif.g09.slc.cpg/sg10_39_cif.got.tgz:77054.got - 2010.06.27 22:07:45.
