data_PCOD8062161
_publ_section_title
;
Structure prediction by ZEFSAII (Michael W. Deem and Ramdas Pophale) SiO2 
 PCOD8062161
Probable space group: P 2/M
;
_chemical_formula_sum "Si O2"
_cell_formula_units_Z 28
_cell_length_a 11.754140
_cell_length_b 9.100278
_cell_length_c 15.839220
_cell_angle_alpha 90.000000
_cell_angle_beta 117.350771
_cell_angle_gamma 90.000000
_cell_volume 1504.856871
_symmetry_space_group_name_H-M "P 2/M"
_symmetry_group_IT_number 10
_symmetry_cell_setting 'monoclinic'
loop_
_space_group_symop_operation_xyz
x,y,z
-x,y,-z
-x,-y,-z
x,-y,z
loop_
_atom_site_type_symbol
_atom_site_label
_atom_site_fract_x
_atom_site_fract_y
_atom_site_fract_z
Si Si1 0.916990 0.330041 0.789086
Si Si2 0.024871 0.673768 0.376846
Si Si3 0.723724 0.825658 0.837012
Si Si4 0.431538 0.828599 0.740361
Si Si5 0.182565 0.669321 0.964351
Si Si6 0.367772 0.830413 0.908729
Si Si7 0.203291 0.326482 0.586739
O O1 0.875867 0.500000 0.767286
O O2 0.955967 0.264248 0.710915
O O3 0.797414 0.236644 0.781217
O O4 0.032640 0.312633 0.894296
O O5 0.013316 0.500000 0.370271
O O6 0.145204 0.719523 0.476204
O O7 0.892724 0.733414 0.372756
O O8 0.576933 0.774406 0.778882
O O9 0.735539 0.000000 0.844853
O O10 0.783963 0.763331 0.942823
O O11 0.383223 0.788012 0.816895
O O12 0.342062 0.746867 0.642547
O O13 0.421990 0.000000 0.719457
O O14 0.217863 0.500000 0.992952
O O15 0.258950 0.726403 0.909117
O O16 0.328467 0.000000 0.908222
O O17 0.500000 0.796704 0.000000
O O18 0.219821 0.500000 0.598880
#
# Coordination Sequence:
#
# PCOD8062161 Si02
#       7
#     4   4   4   4   4   4   4
#     4  10  21  37  55  78 108 139 177 227 272 310
#     4   8  16  34  58  83 111 136 167 217 271 319
#     4  11  23  39  54  72 106 150 187 217 260 321
#     4  10  21  36  53  76 109 144 176 219 267 308
#     4  11  22  35  55  83 109 136 177 229 273 311
#     4  10  19  35  54  74 107 146 177 211 261 317
#     4   9  17  33  60  86 106 137 174 211 265 328
#
# _framework density 18.606421000000001
#
# number of rings (size 3 to 8) (size 9 to 14) (size 15 to 20)
#    0.000    2.143    1.429    3.000    0.000    6.000 
#    0.000    3.571    0.000    4.286    0.000    0.000 
#    0.000    0.000    0.000    0.000    0.000    0.000 
#
# Total GULP energy -347245.949230 kJ/mol
# GULP energy per Si atom -12401.641044 kJ/mol
# Density = 1.856407 g / cm^3
# Si number density = 18.606421 Si / 1000 Ang^3
#
#
#
# Elastic Constant Matrix: (Units=GPa)
#
#
# Indices 1 2 3 4 5 6 
#
# 1 102.4056 39.7983 51.4996 0.0000 -3.1338 0.0000
# 2 39.7983 52.8770 33.1968 0.0000 2.8008 0.0000
# 3 51.4996 33.1968 106.8587 0.0000 9.5137 0.0000
# 4 0.0000 0.0000 0.0000 6.9004 0.0000 -1.5876
# 5 -3.1338 2.8008 9.5137 0.0000 24.2319 0.0000
# 6 0.0000 0.0000 0.0000 -1.5876 0.0000 33.6466
#
#
#
# Elastic Compliance Matrix: (Units=1/GPa)
#
#
# Indices 1 2 3 4 5 6 
#
# 1 0.016185 -0.009030 -0.005465 0.000000 0.005282 0.000000
# 2 -0.009030 0.028533 -0.004263 0.000000 -0.002792 0.000000
# 3 -0.005465 -0.004263 0.013818 0.000000 -0.005639 0.000000
# 4 0.000000 0.000000 0.000000 0.146511 0.000000 0.006913
# 5 0.005282 -0.002792 -0.005639 0.000000 0.044488 0.000000
# 6 0.000000 0.000000 0.000000 0.006913 0.000000 0.030047
#
#
# Mechanical properties :
#
#
# Convention : Reuss Voigt Hill
#
# Bulk Modulus (GPa) = 47.57663 56.79231 52.18447
# Shear Modulus (GPa) = 15.42711 22.13223 18.77967
#
# Velocity S-wave (km/s) = 2.88258 3.45265 3.18041
# Velocity P-wave (km/s) = 6.05843 6.81789 6.44935
#
# Compressibility (1/GPa) = 0.02101872
#
# Stress axis : x y z
#
# Youngs Moduli (GPa) = 61.78741 35.04705 72.36679
#
# Poissons Ratio (x) = 0.31648 0.39548
# Poissons Ratio (y) = 0.55796 0.30853
# Poissons Ratio (z) = 0.33766 0.14942
#
# Static dielectric constant tensor:
#      x y z
#    x 3.590870 0.000000 -0.078040 
#    y 0.000000 3.213600 0.000000 
#    z -0.078040 0.000000 3.494700 
# 
# 
# High freq. dielectric constant tensor:
#      x y z
#    x 1.722540 0.000000 0.003120 
#    y 0.000000 1.705180 0.000000 
#    z 0.003120 0.000000 1.723340 
# 
# From -- ./inp_files/49074.got.cif
#   From: 2010.06.25/outbox.cif.g09.slc.cpg/sg10_25_cif.got.tgz:49074.got - 2010.06.27 22:07:45.
