data_PCOD8062232
_publ_section_title
;
Structure prediction by ZEFSAII (Michael W. Deem and Ramdas Pophale) SiO2 
 PCOD8062232
Probable space group: P 2/M
;
_chemical_formula_sum "Si O2"
_cell_formula_units_Z 32
_cell_length_a 25.932594
_cell_length_b 9.286507
_cell_length_c 21.160838
_cell_angle_alpha 90.000000
_cell_angle_beta 160.076610
_cell_angle_gamma 90.000000
_cell_volume 1736.537349
_symmetry_space_group_name_H-M "P 2/M"
_symmetry_group_IT_number 10
_symmetry_cell_setting 'monoclinic'
loop_
_space_group_symop_operation_xyz
x,y,z
-x,y,-z
-x,-y,-z
x,-y,z
loop_
_atom_site_type_symbol
_atom_site_label
_atom_site_fract_x
_atom_site_fract_y
_atom_site_fract_z
Si Si1 0.667995 0.168670 0.494716
Si Si2 0.233923 0.331921 0.924650
Si Si3 0.172006 0.336451 0.217237
Si Si4 0.436087 0.331385 0.743017
Si Si5 0.664747 0.165847 0.842902
Si Si6 0.362441 0.671136 0.799398
Si Si7 0.960331 0.328333 0.523736
Si Si8 0.323981 0.158907 0.286741
O O1 0.800074 0.240690 0.688326
O O2 0.665036 0.241216 0.422442
O O3 0.512000 0.200838 0.351309
O O4 0.701382 0.000000 0.525792
O O5 0.217919 0.500000 0.918423
O O6 0.090800 0.271997 0.720993
O O7 0.386406 0.296244 0.061481
O O8 0.233002 0.257650 0.991843
O O9 0.222186 0.500000 0.289101
O O10 0.263426 0.280022 0.262778
O O11 0.000000 0.325481 0.000000
O O12 0.404092 0.500000 0.695674
O O13 0.386918 0.279194 0.755655
O O14 0.711990 0.206729 0.826401
O O15 0.695543 0.000000 0.893353
O O16 0.363111 0.500000 0.804371
O O17 0.202607 0.731619 0.641278
O O18 0.500000 0.733705 0.000000
O O19 0.958274 0.500000 0.520279
O O20 0.000000 0.268297 0.500000
O O21 0.500000 0.144710 0.500000
O O22 0.252397 0.000000 0.217943
#
# Coordination Sequence:
#
# PCOD8062232 Si02
#       8
#     4   4   4   4   4   4   4   4
#     4  10  19  35  57  77 102 139 180 217 261 318
#     4   9  17  29  47  72 101 132 166 207 254 305
#     4  11  24  39  54  79 111 141 176 223 274 319
#     4   9  17  30  49  74 102 132 170 213 257 307
#     4   9  18  33  54  78 103 133 171 217 258 307
#     4   9  16  27  46  72 102 136 170 208 255 305
#     4   9  16  27  45  71 102 133 166 206 252 303
#     4  10  19  36  59  81 105 137 181 224 264 316
#
# _framework density 18.427477
#
# number of rings (size 3 to 8) (size 9 to 14) (size 15 to 20)
#    0.000    2.500    1.250    1.500    0.000    5.250 
#    2.250    0.000    0.000    0.750    0.000    0.000 
#    0.000    0.000    0.000    0.000    0.000    0.000 
#
# Total GULP energy -396799.703402 kJ/mol
# GULP energy per Si atom -12399.990731 kJ/mol
# Density = 1.838554 g / cm^3
# Si number density = 18.427477 Si / 1000 Ang^3
#
#
#
# Elastic Constant Matrix: (Units=GPa)
#
#
# Indices 1 2 3 4 5 6 
#
# 1 129.8487 44.4814 70.0636 0.0000 -21.2287 0.0000
# 2 44.4814 63.9144 48.3142 0.0000 -14.7047 0.0000
# 3 70.0636 48.3142 119.0186 0.0000 -21.8824 0.0000
# 4 0.0000 0.0000 0.0000 12.3660 0.0000 -2.1841
# 5 -21.2287 -14.7047 -21.8824 0.0000 31.0833 0.0000
# 6 0.0000 0.0000 0.0000 -2.1841 0.0000 24.6377
#
#
#
# Elastic Compliance Matrix: (Units=1/GPa)
#
#
# Indices 1 2 3 4 5 6 
#
# 1 0.012298 -0.004069 -0.005051 0.000000 0.002918 0.000000
# 2 -0.004069 0.024576 -0.006839 0.000000 0.004032 0.000000
# 3 -0.005051 -0.006839 0.014844 0.000000 0.003765 0.000000
# 4 0.000000 0.000000 0.000000 0.082153 0.000000 0.007283
# 5 0.002918 0.004032 0.003765 0.000000 0.038722 0.000000
# 6 0.000000 0.000000 0.000000 0.007283 0.000000 0.041234
#
#
# Mechanical properties :
#
#
# Convention : Reuss Voigt Hill
#
# Bulk Modulus (GPa) = 50.50978 70.94444 60.72711
# Shear Modulus (GPa) = 19.81411 23.61223 21.71317
#
# Velocity S-wave (km/s) = 3.28266 3.58349 3.43637
# Velocity P-wave (km/s) = 6.46818 7.46356 6.98363
#
# Compressibility (1/GPa) = 0.01979815
#
# Stress axis : x y z
#
# Youngs Moduli (GPa) = 81.31597 40.69083 67.36670
#
# Poissons Ratio (x) = 0.16557 0.34028
# Poissons Ratio (y) = 0.33088 0.46075
# Poissons Ratio (z) = 0.41074 0.27830
#
# Static dielectric constant tensor:
#      x y z
#    x 3.407660 0.000000 -0.174230 
#    y 0.000000 3.173440 0.000000 
#    z -0.174230 0.000000 3.451050 
# 
# 
# High freq. dielectric constant tensor:
#      x y z
#    x 1.716140 0.000000 -0.015780 
#    y 0.000000 1.684000 0.000000 
#    z -0.015780 0.000000 1.714520 
# 
# From -- ./inp_files/87049.got.cif
#   From: 2010.06.25/outbox.cif.g09.slc.cpg/sg10_44_cif.got.tgz:87049.got - 2010.06.27 22:07:45.
