data_PCOD8062692
_publ_section_title
;
Structure prediction by ZEFSAII (Michael W. Deem and Ramdas Pophale) SiO2 
 PCOD8062692
Probable space group: P 2/M
;
_chemical_formula_sum "Si O2"
_cell_formula_units_Z 20
_cell_length_a 12.433523
_cell_length_b 8.850385
_cell_length_c 12.554367
_cell_angle_alpha 90.000000
_cell_angle_beta 48.417943
_cell_angle_gamma 90.000000
_cell_volume 1033.370955
_symmetry_space_group_name_H-M "P 2/M"
_symmetry_group_IT_number 10
_symmetry_cell_setting 'monoclinic'
loop_
_space_group_symop_operation_xyz
x,y,z
-x,y,-z
-x,-y,-z
x,-y,z
loop_
_atom_site_type_symbol
_atom_site_label
_atom_site_fract_x
_atom_site_fract_y
_atom_site_fract_z
Si Si1 0.218921 0.321545 0.167743
Si Si2 0.898438 0.321279 0.346171
Si Si3 0.159685 0.673557 0.852254
Si Si4 0.373347 0.177613 0.870909
Si Si5 0.324464 0.678461 0.332112
O O1 0.222301 0.500000 0.146815
O O2 0.271480 0.276739 0.250006
O O3 0.058705 0.254878 0.256384
O O4 0.327270 0.248671 0.013050
O O5 0.911323 0.500000 0.345818
O O6 0.834888 0.273229 0.273835
O O7 0.794205 0.260270 0.506827
O O8 0.209658 0.500000 0.832305
O O9 0.264411 0.780310 0.848812
O O10 0.000000 0.693892 0.000000
O O11 0.528587 0.238870 0.736300
O O12 0.378878 0.000000 0.880520
O O13 0.347328 0.500000 0.328520
#
# Coordination Sequence:
#
# PCOD8062692 Si02
#       5
#     4   4   4   4   4
#     4  10  19  37  63  88 113 146 192 239 284 336
#     4   9  18  35  62  92 114 140 184 242 294 334
#     4  10  19  37  64  87 111 143 189 241 285 336
#     4  12  25  38  55  82 120 158 193 231 277 337
#     4  10  21  37  60  88 117 148 187 236 288 339
#
# _framework density 19.354134999999999
#
# number of rings (size 3 to 8) (size 9 to 14) (size 15 to 20)
#    0.000    1.800    2.000    3.000    0.000    6.800 
#    0.000    6.000    0.000    2.400    0.000    0.000 
#    0.000    0.000    0.000    0.000    0.000    0.000 
#
# Total GULP energy -248074.792272 kJ/mol
# GULP energy per Si atom -12403.739614 kJ/mol
# Density = 1.931008 g / cm^3
# Si number density = 19.354135 Si / 1000 Ang^3
#
#
#
# Elastic Constant Matrix: (Units=GPa)
#
#
# Indices 1 2 3 4 5 6 
#
# 1 81.3754 25.6584 33.8716 0.0000 11.2633 0.0000
# 2 25.6584 34.2420 13.5039 0.0000 1.6699 0.0000
# 3 33.8716 13.5039 90.4602 0.0000 1.1839 0.0000
# 4 0.0000 0.0000 0.0000 -2.1140 0.0000 4.5969
# 5 11.2633 1.6699 1.1839 0.0000 29.2431 0.0000
# 6 0.0000 0.0000 0.0000 4.5969 0.0000 6.9861
#
#
#
# Elastic Compliance Matrix: (Units=1/GPa)
#
#
# Indices 1 2 3 4 5 6 
#
# 1 0.019163 -0.011950 -0.005306 0.000000 -0.006484 0.000000
# 2 -0.011950 0.038557 -0.001313 0.000000 0.002454 0.000000
# 3 -0.005306 -0.001313 0.013217 0.000000 0.001584 0.000000
# 4 0.000000 0.000000 0.000000 -0.194599 0.000000 0.128047
# 5 -0.006484 0.002454 0.001584 0.000000 0.036489 0.000000
# 6 0.000000 0.000000 0.000000 0.128047 0.000000 0.058885
#
#
# Mechanical properties :
#
#
# Convention : Reuss Voigt Hill
#
# Bulk Modulus (GPa) = 29.58895 39.12724 34.35810
# Shear Modulus (GPa) = 248.53962 15.69264 132.11613
#
# Velocity S-wave (km/s) = 11.34441 2.85057 8.27107
# Velocity P-wave (km/s) = 13.67170 5.57626 10.44055
#
# Compressibility (1/GPa) = 0.03379640
#
# Stress axis : x y z
#
# Youngs Moduli (GPa) = 52.18401 25.93578 75.66111
#
# Poissons Ratio (x) = 0.30994 0.40150
# Poissons Ratio (y) = 0.62362 0.09936
# Poissons Ratio (z) = 0.27691 0.03406
#
# Static dielectric constant tensor:
#      x y z
#    x 3.789190 0.000000 -0.046310 
#    y 0.000000 3.158420 0.000000 
#    z -0.046310 0.000000 3.831170 
# 
# 
# High freq. dielectric constant tensor:
#      x y z
#    x 1.767840 0.000000 0.002310 
#    y 0.000000 1.713870 0.000000 
#    z 0.002310 0.000000 1.767010 
# 
# From -- ./inp_files/22134.got.cif
#   From: 2010.06.25/outbox.cif.g09.slc.cpg/sg10_12_cif.got.tgz:22134.got - 2010.06.27 22:07:45.
