data_PCOD8062955
_publ_section_title
;
Structure prediction by ZEFSAII (Michael W. Deem and Ramdas Pophale) SiO2 
 PCOD8062955
Probable space group: P 2/M
;
_chemical_formula_sum "Si O2"
_cell_formula_units_Z 30
_cell_length_a 15.566289
_cell_length_b 21.956530
_cell_length_c 15.068588
_cell_angle_alpha 90.000000
_cell_angle_beta 18.582270
_cell_angle_gamma 90.000000
_cell_volume 1641.183326
_symmetry_space_group_name_H-M "P 2/M"
_symmetry_group_IT_number 10
_symmetry_cell_setting 'monoclinic'
loop_
_space_group_symop_operation_xyz
x,y,z
-x,y,-z
-x,-y,-z
x,-y,z
loop_
_atom_site_type_symbol
_atom_site_label
_atom_site_fract_x
_atom_site_fract_y
_atom_site_fract_z
Si Si1 0.579386 0.846685 0.140676
Si Si2 0.766743 0.000000 0.297686
Si Si3 0.111894 0.884296 0.703366
Si Si4 0.752804 0.431985 0.807037
Si Si5 0.241289 0.782596 0.199120
Si Si6 0.243306 0.772155 0.698218
Si Si7 0.087484 0.327699 0.222626
Si Si8 0.450077 0.287654 0.335118
O O1 0.298759 0.882111 0.431685
O O2 0.523403 0.780232 0.233979
O O3 0.670577 0.840025 0.948929
O O4 0.803078 0.885530 0.974927
O O5 0.500000 0.000000 0.500000
O O6 0.794685 0.941518 0.331857
O O7 0.000000 0.000000 0.000000
O O8 0.136007 0.824607 0.739851
O O9 0.679155 0.500000 0.913659
O O10 0.841019 0.392068 0.804402
O O11 0.000000 0.434639 0.500000
O O12 0.500000 0.403997 0.000000
O O13 0.148073 0.725925 0.232265
O O14 0.000000 0.803750 0.500000
O O15 0.500000 0.760558 0.000000
O O16 0.500000 0.797976 0.500000
O O17 0.347746 0.714493 0.537185
O O18 0.000000 0.750539 0.000000
O O19 0.774860 0.320998 0.504382
O O20 0.270980 0.323831 0.953685
#
# Coordination Sequence:
#
# PCOD8062955 Si02
#       8
#     4   2   4   4   4   4   4   4
#     4  10  20  35  50  71 102 135 166 200 252 307
#     4  12  24  38  56  84 106 128 172 212 238 288
#     4  11  21  36  53  73 103 137 163 197 246 300
#     4  10  20  33  49  72 103 141 180 211 243 290
#     4  11  19  29  48  75  99 126 166 209 249 292
#     4  11  19  31  49  71  99 130 158 193 247 303
#     4  11  19  32  48  70 105 137 165 207 253 295
#     4  10  20  32  48  71  99 133 168 203 247 307
#
# _framework density 18.279492999999999
#
# number of rings (size 3 to 8) (size 9 to 14) (size 15 to 20)
#    0.000    1.333    0.000   11.200    0.000    0.000 
#    0.000    0.000    0.000    0.000    0.000    9.333 
#    0.000   10.667    0.000    0.000    0.000    0.000 
#
# Total GULP energy -371820.438159 kJ/mol
# GULP energy per Si atom -12394.014605 kJ/mol
# Density = 1.823789 g / cm^3
# Si number density = 18.279493 Si / 1000 Ang^3
#
#
#
# Elastic Constant Matrix: (Units=GPa)
#
#
# Indices 1 2 3 4 5 6 
#
# 1 55.1427 16.3202 28.4247 0.0000 12.1336 0.0000
# 2 16.3202 58.3237 18.1509 0.0000 11.5347 0.0000
# 3 28.4247 18.1509 128.2587 0.0000 12.8909 0.0000
# 4 0.0000 0.0000 0.0000 21.9394 0.0000 -2.9953
# 5 12.1336 11.5347 12.8909 0.0000 49.4545 0.0000
# 6 0.0000 0.0000 0.0000 -2.9953 0.0000 24.1755
#
#
#
# Elastic Compliance Matrix: (Units=1/GPa)
#
#
# Indices 1 2 3 4 5 6 
#
# 1 0.022205 -0.004304 -0.003969 0.000000 -0.003409 0.000000
# 2 -0.004304 0.019423 -0.001485 0.000000 -0.003087 0.000000
# 3 -0.003969 -0.001485 0.008989 0.000000 -0.001023 0.000000
# 4 0.000000 0.000000 0.000000 0.046364 0.000000 0.005745
# 5 -0.003409 -0.003087 -0.001023 0.000000 0.022044 0.000000
# 6 0.000000 0.000000 0.000000 0.005745 0.000000 0.042076
#
#
# Mechanical properties :
#
#
# Convention : Reuss Voigt Hill
#
# Bulk Modulus (GPa) = 32.15287 40.83520 36.49403
# Shear Modulus (GPa) = 26.18030 31.03583 28.60807
#
# Velocity S-wave (km/s) = 3.78858 4.12497 3.96035
# Velocity P-wave (km/s) = 6.06346 6.71379 6.39689
#
# Compressibility (1/GPa) = 0.03110143
#
# Stress axis : x y z
#
# Youngs Moduli (GPa) = 45.03526 51.48657 111.24301
#
# Poissons Ratio (x) = 0.22159 0.44156
# Poissons Ratio (y) = 0.19382 0.16515
# Poissons Ratio (z) = 0.17876 0.07643
#
# Static dielectric constant tensor:
#      x y z
#    x 3.590550 0.000000 0.283430 
#    y 0.000000 3.505600 0.000000 
#    z 0.283430 0.000000 4.021410 
# 
# 
# High freq. dielectric constant tensor:
#      x y z
#    x 1.698700 0.000000 -0.000110 
#    y 0.000000 1.657410 0.000000 
#    z -0.000110 0.000000 1.744670 
# 
# From -- ./inp_files/67862.got.cif
#   From: 2010.06.25/outbox.cif.g09.slc.cpg/sg10_34_cif.got.tgz:67862.got - 2010.06.27 22:07:45.
