data_PCOD8062004
_publ_section_title
;
Structure prediction by ZEFSAII (Michael W. Deem and Ramdas Pophale) SiO2 
 PCOD8062004
Probable space group: P 2/M
;
_chemical_formula_sum "Si O2"
_cell_formula_units_Z 28
_cell_length_a 14.194524
_cell_length_b 8.983019
_cell_length_c 17.525628
_cell_angle_alpha 90.000000
_cell_angle_beta 137.488601
_cell_angle_gamma 90.000000
_cell_volume 1510.060544
_symmetry_space_group_name_H-M "P 2/M"
_symmetry_group_IT_number 10
_symmetry_cell_setting 'monoclinic'
loop_
_space_group_symop_operation_xyz
x,y,z
-x,y,-z
-x,-y,-z
x,-y,z
loop_
_atom_site_type_symbol
_atom_site_label
_atom_site_fract_x
_atom_site_fract_y
_atom_site_fract_z
Si Si1 0.355321 0.323694 0.375377
Si Si2 0.876373 0.825006 0.660450
Si Si3 0.266167 0.827650 0.579269
Si Si4 0.417769 0.824793 0.258712
Si Si5 0.704451 0.325238 0.251988
Si Si6 0.610217 0.326513 0.910629
Si Si7 0.164911 0.674925 0.827343
O O1 0.500000 0.272364 0.500000
O O2 0.343384 0.500000 0.363557
O O3 0.229100 0.260839 0.348653
O O4 0.342583 0.256231 0.283596
O O5 0.841907 0.787293 0.551841
O O6 0.029976 0.767533 0.770560
O O7 0.863746 0.000000 0.668990
O O8 0.419768 0.778477 0.643627
O O9 0.221028 0.742239 0.628894
O O10 0.265245 0.000000 0.599193
O O11 0.347353 0.767212 0.138690
O O12 0.395676 0.000000 0.253586
O O13 0.718858 0.500000 0.265794
O O14 0.542640 0.277252 0.151717
O O15 0.780908 0.266658 0.222008
O O16 0.612552 0.500000 0.890588
O O17 0.717189 0.287779 0.040937
O O18 0.130086 0.500000 0.804819
#
# Coordination Sequence:
#
# PCOD8062004 Si02
#       7
#     4   4   4   4   4   4   4
#     4  11  22  36  59  87 111 139 179 224 272 327
#     4  11  23  38  55  78 113 151 184 221 272 332
#     4   9  19  34  52  78 111 145 179 222 273 324
#     4  10  19  34  57  84 113 142 179 225 273 324
#     4   9  18  33  57  83 107 142 187 231 274 321
#     4   9  18  35  58  82 110 144 186 231 275 321
#     4  10  21  37  55  79 112 148 186 231 276 321
#
# _framework density 18.542303
#
# number of rings (size 3 to 8) (size 9 to 14) (size 15 to 20)
#    0.000    2.143    1.429    1.714    0.000    5.714 
#    0.000    3.571    0.000    8.571    0.000    0.000 
#    0.000    0.000    0.000    0.000    0.000    0.000 
#
# Total GULP energy -347304.069716 kJ/mol
# GULP energy per Si atom -12403.716776 kJ/mol
# Density = 1.850010 g / cm^3
# Si number density = 18.542303 Si / 1000 Ang^3
#
#
#
# Elastic Constant Matrix: (Units=GPa)
#
#
# Indices 1 2 3 4 5 6 
#
# 1 119.8275 46.3299 40.5412 0.0000 -11.0993 0.0000
# 2 46.3299 55.6503 25.4416 0.0000 -6.7443 0.0000
# 3 40.5412 25.4416 49.0403 0.0000 -4.4017 0.0000
# 4 0.0000 0.0000 0.0000 29.8286 0.0000 -3.4041
# 5 -11.0993 -6.7443 -4.4017 0.0000 27.0549 0.0000
# 6 0.0000 0.0000 0.0000 -3.4041 0.0000 18.1000
#
#
#
# Elastic Compliance Matrix: (Units=1/GPa)
#
#
# Indices 1 2 3 4 5 6 
#
# 1 0.014213 -0.008196 -0.007264 0.000000 0.002606 0.000000
# 2 -0.008196 0.028704 -0.007891 0.000000 0.002509 0.000000
# 3 -0.007264 -0.007891 0.030491 0.000000 0.000014 0.000000
# 4 0.000000 0.000000 0.000000 0.034260 0.000000 0.006443
# 5 0.002606 0.002509 0.000014 0.000000 0.038659 0.000000
# 6 0.000000 0.000000 0.000000 0.006443 0.000000 0.056460
#
#
# Mechanical properties :
#
#
# Convention : Reuss Voigt Hill
#
# Bulk Modulus (GPa) = 37.44287 49.90484 43.67385
# Shear Modulus (GPa) = 19.35045 22.47706 20.91375
#
# Velocity S-wave (km/s) = 3.23396 3.48545 3.36206
# Velocity P-wave (km/s) = 5.84651 6.57041 6.21900
#
# Compressibility (1/GPa) = 0.02670735
#
# Stress axis : x y z
#
# Youngs Moduli (GPa) = 70.35662 34.83810 32.79626
#
# Poissons Ratio (x) = 0.28554 0.23823
# Poissons Ratio (y) = 0.57665 0.25878
# Poissons Ratio (z) = 0.51107 0.27489
#
# Static dielectric constant tensor:
#      x y z
#    x 3.433490 0.000000 -0.129730 
#    y 0.000000 3.349160 0.000000 
#    z -0.129730 0.000000 3.388380 
# 
# 
# High freq. dielectric constant tensor:
#      x y z
#    x 1.718780 0.000000 -0.013410 
#    y 0.000000 1.718840 0.000000 
#    z -0.013410 0.000000 1.713850 
# 
# From -- ./inp_files/49178.got.cif
#   From: 2010.06.25/outbox.cif.g09.slc.cpg/sg10_25_cif.got.tgz:49178.got - 2010.06.27 22:07:45.
