data_PCOD8062872
_publ_section_title
;
Structure prediction by ZEFSAII (Michael W. Deem and Ramdas Pophale) SiO2 
 PCOD8062872
Probable space group: P 2/M
;
_chemical_formula_sum "Si O2"
_cell_formula_units_Z 32
_cell_length_a 20.074000
_cell_length_b 18.622679
_cell_length_c 17.030263
_cell_angle_alpha 90.000000
_cell_angle_beta 21.230434
_cell_angle_gamma 90.000000
_cell_volume 2305.417777
_symmetry_space_group_name_H-M "P 2/M"
_symmetry_group_IT_number 10
_symmetry_cell_setting 'monoclinic'
loop_
_space_group_symop_operation_xyz
x,y,z
-x,y,-z
-x,-y,-z
x,-y,z
loop_
_atom_site_type_symbol
_atom_site_label
_atom_site_fract_x
_atom_site_fract_y
_atom_site_fract_z
Si Si1 0.755488 0.579468 0.340320
Si Si2 0.936671 0.914513 0.686490
Si Si3 0.500315 0.845590 0.406566
Si Si4 0.148603 0.084551 0.048471
Si Si5 0.120530 0.084208 0.791409
Si Si6 0.544615 0.683125 0.359451
Si Si7 0.296347 0.085282 0.203506
Si Si8 0.847298 0.579887 0.056760
O O1 0.678450 0.500000 0.445171
O O2 0.607383 0.640202 0.523825
O O3 0.801168 0.582558 0.198747
O O4 0.936868 0.595334 0.192344
O O5 0.890561 0.881830 0.822691
O O6 0.777657 0.888440 0.800503
O O7 0.142033 0.888775 0.435898
O O8 0.935276 0.000000 0.689233
O O9 0.500000 0.855590 0.500000
O O10 0.302923 0.868250 0.590776
O O11 0.549321 0.764881 0.325682
O O12 0.650407 0.896311 0.202930
O O13 0.993521 0.111295 0.158438
O O14 0.138774 0.000000 0.064582
O O15 0.171476 0.000000 0.732114
O O16 0.000000 0.101634 0.000000
O O17 0.500000 0.680915 0.500000
O O18 0.737183 0.642226 0.132033
O O19 0.310528 0.000000 0.189064
O O20 0.500000 0.117614 0.000000
O O21 0.796704 0.500000 0.080342
#
# Coordination Sequence:
#
# PCOD8062872 Si02
#       8
#     4   4   4   4   4   4   4   4
#     4   8  13  22  35  51  68  87 109 136 173 221
#     4   8  15  26  39  60  80  95 116 143 184 233
#     4  11  21  31  41  55  71  95 129 168 213 246
#     4  10  20  32  45  57  73  96 129 172 206 242
#     4  10  20  33  46  54  63  89 130 176 218 247
#     4   9  17  25  34  51  69  89 112 148 191 234
#     4   8  13  23  41  61  83 100 108 130 174 232
#     4   8  13  22  36  51  67  87 109 135 175 226
#
# _framework density 13.880348
#
# number of rings (size 3 to 8) (size 9 to 14) (size 15 to 20)
#    0.000    3.000    1.250    2.250    0.000    4.000 
#    2.250    3.750    0.000    0.000    0.000    0.000 
#    0.000    0.000    0.000    0.000    0.000    0.000 
#
# Total GULP energy -396543.239053 kJ/mol
# GULP energy per Si atom -12391.976220 kJ/mol
# Density = 1.384876 g / cm^3
# Si number density = 13.880348 Si / 1000 Ang^3
#
#
#
# Elastic Constant Matrix: (Units=GPa)
#
#
# Indices 1 2 3 4 5 6 
#
# 1 81.1696 19.3947 53.0738 0.0000 -6.1186 0.0000
# 2 19.3947 22.0333 15.9268 0.0000 -8.2862 0.0000
# 3 53.0738 15.9268 81.7258 0.0000 -17.9335 0.0000
# 4 0.0000 0.0000 0.0000 7.8618 0.0000 -5.7661
# 5 -6.1186 -8.2862 -17.9335 0.0000 26.1554 0.0000
# 6 0.0000 0.0000 0.0000 -5.7661 0.0000 6.7712
#
#
#
# Elastic Compliance Matrix: (Units=1/GPa)
#
#
# Indices 1 2 3 4 5 6 
#
# 1 0.025339 -0.014504 -0.015699 0.000000 -0.009431 0.000000
# 2 -0.014504 0.064179 0.000740 0.000000 0.017447 0.000000
# 3 -0.015699 0.000740 0.025346 0.000000 0.013940 0.000000
# 4 0.000000 0.000000 0.000000 0.338793 0.000000 0.288504
# 5 -0.009431 0.017447 0.013940 0.000000 0.051112 0.000000
# 6 0.000000 0.000000 0.000000 0.288504 0.000000 0.393364
#
#
# Mechanical properties :
#
#
# Convention : Reuss Voigt Hill
#
# Bulk Modulus (GPa) = 17.87641 40.19104 29.03373
# Shear Modulus (GPa) = 5.12450 14.59325 9.85887
#
# Velocity S-wave (km/s) = 1.92352 3.24599 2.66799
# Velocity P-wave (km/s) = 4.22376 6.56253 5.51846
#
# Compressibility (1/GPa) = 0.05593964
#
# Stress axis : x y z
#
# Youngs Moduli (GPa) = 39.46440 15.58135 39.45443
#
# Poissons Ratio (x) = 0.22599 0.61938
# Poissons Ratio (y) = 0.57239 -0.02920
# Poissons Ratio (z) = 0.61954 -0.01153
#
# Static dielectric constant tensor:
#      x y z
#    x 2.763580 0.000000 -0.249610 
#    y 0.000000 2.602580 0.000000 
#    z -0.249610 0.000000 2.836750 
# 
# 
# High freq. dielectric constant tensor:
#      x y z
#    x 1.498830 0.000000 -0.034310 
#    y 0.000000 1.495800 0.000000 
#    z -0.034310 0.000000 1.525950 
# 
# From -- ./inp_files/79779.got.cif
#   From: 2010.06.25/outbox.cif.g09.slc.cpg/sg10_40_cif.got.tgz:79779.got - 2010.06.27 22:07:45.
