data_PCOD8062385
_publ_section_title
;
Structure prediction by ZEFSAII (Michael W. Deem and Ramdas Pophale) SiO2 
 PCOD8062385
Probable space group: P 2/M
;
_chemical_formula_sum "Si O2"
_cell_formula_units_Z 28
_cell_length_a 14.163890
_cell_length_b 8.886348
_cell_length_c 16.903267
_cell_angle_alpha 90.000000
_cell_angle_beta 41.416636
_cell_angle_gamma 90.000000
_cell_volume 1407.426803
_symmetry_space_group_name_H-M "P 2/M"
_symmetry_group_IT_number 10
_symmetry_cell_setting 'monoclinic'
loop_
_space_group_symop_operation_xyz
x,y,z
-x,y,-z
-x,-y,-z
x,-y,z
loop_
_atom_site_type_symbol
_atom_site_label
_atom_site_fract_x
_atom_site_fract_y
_atom_site_fract_z
Si Si1 0.934180 0.825898 0.291984
Si Si2 0.319028 0.177468 0.809420
Si Si3 0.173639 0.321661 0.040825
Si Si4 0.452130 0.673373 0.948971
Si Si5 0.402041 0.673520 0.300282
Si Si6 0.653881 0.176940 0.383783
Si Si7 0.897693 0.174962 0.492800
O O1 0.770191 0.778071 0.377208
O O2 0.971263 0.796316 0.361009
O O3 0.029814 0.726910 0.173890
O O4 0.958468 0.000000 0.255015
O O5 0.478476 0.231493 0.729750
O O6 0.289377 0.227615 0.737908
O O7 0.311555 0.000000 0.826446
O O8 0.194157 0.253099 0.940337
O O9 0.179172 0.500000 0.028829
O O10 0.305167 0.255480 0.009662
O O11 0.419590 0.500000 0.987482
O O12 0.577611 0.693182 0.806588
O O13 0.500000 0.755469 0.000000
O O14 0.418315 0.500000 0.315231
O O15 0.245659 0.730263 0.418133
O O16 0.500000 0.253017 0.500000
O O17 0.631330 0.000000 0.396957
O O18 0.000000 0.229887 0.500000
O O19 0.859432 0.000000 0.527758
#
# Coordination Sequence:
#
# PCOD8062385 Si02
#       7
#     4   4   4   4   4   4   4
#     4  10  21  38  58  81 113 148 189 235 278 335
#     4  10  19  35  60  84 111 146 187 233 280 329
#     4  10  21  36  55  81 116 149 185 231 282 337
#     4   8  16  31  51  74 101 138 181 223 264 317
#     4  10  20  34  55  82 111 144 184 229 279 335
#     4   9  18  34  59  86 108 144 193 233 273 328
#     4  10  22  38  56  80 113 150 186 232 286 335
#
# _framework density 19.894462999999998
#
# number of rings (size 3 to 8) (size 9 to 14) (size 15 to 20)
#    0.000    2.429    0.000    3.000    2.000    3.714 
#    0.000    4.286    0.000    5.571    0.000    0.000 
#    0.000    0.000    0.000    0.000    0.000    0.000 
#
# Total GULP energy -347123.218058 kJ/mol
# GULP energy per Si atom -12397.257788 kJ/mol
# Density = 1.984918 g / cm^3
# Si number density = 19.894463 Si / 1000 Ang^3
#
#
#
# Elastic Constant Matrix: (Units=GPa)
#
#
# Indices 1 2 3 4 5 6 
#
# 1 99.6062 22.2751 44.2915 0.0000 23.5421 0.0000
# 2 22.2751 60.8253 33.6554 0.0000 5.9894 0.0000
# 3 44.2915 33.6554 116.6970 0.0000 4.1282 0.0000
# 4 0.0000 0.0000 0.0000 28.7180 0.0000 -4.1398
# 5 23.5421 5.9894 4.1282 0.0000 27.4734 0.0000
# 6 0.0000 0.0000 0.0000 -4.1398 0.0000 16.2194
#
#
#
# Elastic Compliance Matrix: (Units=1/GPa)
#
#
# Indices 1 2 3 4 5 6 
#
# 1 0.015506 -0.001740 -0.004953 0.000000 -0.012164 0.000000
# 2 -0.001740 0.020085 -0.005057 0.000000 -0.002128 0.000000
# 3 -0.004953 -0.005057 0.011781 0.000000 0.003576 0.000000
# 4 0.000000 0.000000 0.000000 0.036151 0.000000 0.009227
# 5 -0.012164 -0.002128 0.003576 0.000000 0.046748 0.000000
# 6 0.000000 0.000000 0.000000 0.009227 0.000000 0.064010
#
#
# Mechanical properties :
#
#
# Convention : Reuss Voigt Hill
#
# Bulk Modulus (GPa) = 41.88983 53.06361 47.47672
# Shear Modulus (GPa) = 22.14941 26.27592 24.21267
#
# Velocity S-wave (km/s) = 3.34030 3.63818 3.49242
# Velocity P-wave (km/s) = 5.99821 6.66175 6.33867
#
# Compressibility (1/GPa) = 0.02387214
#
# Stress axis : x y z
#
# Youngs Moduli (GPa) = 64.49100 49.78749 84.88274
#
# Poissons Ratio (x) = 0.08664 0.42043
# Poissons Ratio (y) = 0.11223 0.42924
# Poissons Ratio (z) = 0.31943 0.25177
#
# Static dielectric constant tensor:
#      x y z
#    x 3.889820 0.000000 0.180750 
#    y 0.000000 3.324740 0.000000 
#    z 0.180750 0.000000 3.627700 
# 
# 
# High freq. dielectric constant tensor:
#      x y z
#    x 1.779070 0.000000 0.010050 
#    y 0.000000 1.747970 0.000000 
#    z 0.010050 0.000000 1.781600 
# 
# From -- ./inp_files/77705.got.cif
#   From: 2010.06.25/outbox.cif.g09.slc.cpg/sg10_39_cif.got.tgz:77705.got - 2010.06.27 22:07:45.
