data_PCOD8062473
_publ_section_title
;
Structure prediction by ZEFSAII (Michael W. Deem and Ramdas Pophale) SiO2 
 PCOD8062473
Probable space group: P 2/M
;
_chemical_formula_sum "Si O2"
_cell_formula_units_Z 28
_cell_length_a 9.798906
_cell_length_b 7.665053
_cell_length_c 28.819210
_cell_angle_alpha 90.000000
_cell_angle_beta 139.331718
_cell_angle_gamma 90.000000
_cell_volume 1410.614338
_symmetry_space_group_name_H-M "P 2/M"
_symmetry_group_IT_number 10
_symmetry_cell_setting 'monoclinic'
loop_
_space_group_symop_operation_xyz
x,y,z
-x,y,-z
-x,-y,-z
x,-y,z
loop_
_atom_site_type_symbol
_atom_site_label
_atom_site_fract_x
_atom_site_fract_y
_atom_site_fract_z
Si Si1 0.810718 0.796863 0.181500
Si Si2 0.513557 0.799591 0.823452
Si Si3 0.413267 0.206768 0.693334
Si Si4 0.469705 0.695701 0.542796
Si Si5 0.718311 0.197601 0.694520
Si Si6 0.245537 0.500000 0.067474
Si Si7 0.564229 0.500000 0.069628
Si Si8 0.974078 0.803904 0.547728
O O1 0.701301 0.773826 0.203397
O O2 0.696052 0.675473 0.114195
O O3 0.047706 0.723874 0.247935
O O4 0.797967 0.000000 0.162281
O O5 0.477058 0.740382 0.761373
O O6 0.692780 0.675368 0.889416
O O7 0.591029 0.000000 0.846250
O O8 0.578672 0.288967 0.698927
O O9 0.181559 0.281823 0.623781
O O10 0.402219 0.000000 0.683142
O O11 0.500000 0.783251 0.500000
O O12 0.559082 0.500000 0.565427
O O13 0.601412 0.798908 0.615118
O O14 0.224502 0.688550 0.490645
O O15 0.749182 0.000000 0.717555
O O16 0.351313 0.500000 0.044323
O O17 0.000000 0.500000 0.000000
O O18 0.500000 0.500000 0.000000
O O19 0.000000 0.806481 0.500000
O O20 0.936133 0.000000 0.556713
#
# Coordination Sequence:
#
# PCOD8062473 Si02
#       8
#     4   4   4   4   4   2   2   4
#     4   9  20  37  59  86 116 152 191 229 279 338
#     4   9  19  38  58  84 118 150 185 229 279 332
#     4   9  18  34  56  81 109 142 186 234 284 338
#     4  11  25  39  49  76 114 151 194 244 291 341
#     4  10  20  37  58  80 108 146 191 238 283 335
#     4  10  22  40  60  90 118 144 188 224 270 342
#     4  10  22  40  62  88 118 154 182 229 278 328
#     4  10  19  36  57  77 106 144 188 241 289 333
#
# _framework density 19.849509000000001
#
# number of rings (size 3 to 8) (size 9 to 14) (size 15 to 20)
#    0.000    2.286    1.429    0.429    3.000    3.143 
#    2.571    0.000    0.000    0.000    0.000    0.000 
#    0.000    0.000    0.000    0.000    0.000    0.000 
#
# Total GULP energy -347143.095233 kJ/mol
# GULP energy per Si atom -12397.967687 kJ/mol
# Density = 1.980433 g / cm^3
# Si number density = 19.849509 Si / 1000 Ang^3
#
#
#
# Elastic Constant Matrix: (Units=GPa)
#
#
# Indices 1 2 3 4 5 6 
#
# 1 122.3904 30.7611 96.7579 0.0000 0.6141 0.0000
# 2 30.7611 65.1590 43.0313 0.0000 0.1960 0.0000
# 3 96.7579 43.0313 167.0103 0.0000 5.6344 0.0000
# 4 0.0000 0.0000 0.0000 19.8494 0.0000 2.8133
# 5 0.6141 0.1960 5.6344 0.0000 45.7831 0.0000
# 6 0.0000 0.0000 0.0000 2.8133 0.0000 14.4365
#
#
#
# Elastic Compliance Matrix: (Units=1/GPa)
#
#
# Indices 1 2 3 4 5 6 
#
# 1 0.015252 -0.001625 -0.008446 0.000000 0.000842 0.000000
# 2 -0.001625 0.018679 -0.003885 0.000000 0.000420 0.000000
# 3 -0.008446 -0.003885 0.011927 0.000000 -0.001338 0.000000
# 4 0.000000 0.000000 0.000000 0.051810 0.000000 -0.010096
# 5 0.000842 0.000420 -0.001338 0.000000 0.021994 0.000000
# 6 0.000000 0.000000 0.000000 -0.010096 0.000000 0.071236
#
#
# Mechanical properties :
#
#
# Convention : Reuss Voigt Hill
#
# Bulk Modulus (GPa) = 55.72579 77.29559 66.51069
# Shear Modulus (GPa) = 22.24273 28.28110 25.26192
#
# Velocity S-wave (km/s) = 3.35112 3.77872 3.57132
# Velocity P-wave (km/s) = 6.56570 7.61995 7.11238
#
# Compressibility (1/GPa) = 0.01794501
#
# Stress axis : x y z
#
# Youngs Moduli (GPa) = 65.56584 53.53622 83.84320
#
# Poissons Ratio (x) = 0.08700 0.70813
# Poissons Ratio (y) = 0.10655 0.32576
# Poissons Ratio (z) = 0.55376 0.20801
#
# Static dielectric constant tensor:
#      x y z
#    x 3.775860 0.000000 0.080450 
#    y 0.000000 3.551220 0.000000 
#    z 0.080450 0.000000 3.415550 
# 
# 
# High freq. dielectric constant tensor:
#      x y z
#    x 1.780830 0.000000 0.003780 
#    y 0.000000 1.765540 0.000000 
#    z 0.003780 0.000000 1.761840 
# 
# From -- ./inp_files/92141.got.cif
#   From: 2010.06.25/outbox.cif.g09.slc.cpg/sg10_47_cif.got.tgz:92141.got - 2010.06.27 22:07:45.
