data_PCOD8062969
_publ_section_title
;
Structure prediction by ZEFSAII (Michael W. Deem and Ramdas Pophale) SiO2 
 PCOD8062969
Probable space group: P 2/M
;
_chemical_formula_sum "Si O2"
_cell_formula_units_Z 32
_cell_length_a 12.898404
_cell_length_b 9.581497
_cell_length_c 29.918614
_cell_angle_alpha 90.000000
_cell_angle_beta 152.476412
_cell_angle_gamma 90.000000
_cell_volume 1708.675930
_symmetry_space_group_name_H-M "P 2/M"
_symmetry_group_IT_number 10
_symmetry_cell_setting 'monoclinic'
loop_
_space_group_symop_operation_xyz
x,y,z
-x,y,-z
-x,-y,-z
x,-y,z
loop_
_atom_site_type_symbol
_atom_site_label
_atom_site_fract_x
_atom_site_fract_y
_atom_site_fract_z
Si Si1 0.227045 0.333406 0.062278
Si Si2 0.606637 0.334734 0.274331
Si Si3 0.378785 0.154140 0.496121
Si Si4 0.104964 0.337765 0.450251
Si Si5 0.782324 0.155296 0.716374
Si Si6 0.504989 0.662645 0.670233
Si Si7 0.823528 0.664902 0.149849
Si Si8 0.364523 0.664112 0.017396
O O1 0.219678 0.500000 0.058478
O O2 0.440662 0.278884 0.172345
O O3 0.261103 0.274069 0.024354
O O4 0.000000 0.277867 0.000000
O O5 0.615751 0.500000 0.276657
O O6 0.517719 0.284874 0.288030
O O7 0.858615 0.276925 0.365853
O O8 0.500000 0.222304 0.500000
O O9 0.181931 0.257041 0.435388
O O10 0.556257 0.138913 0.602946
O O11 0.281547 0.000000 0.447022
O O12 0.098622 0.500000 0.435786
O O13 0.269718 0.309186 0.554948
O O14 0.716854 0.249166 0.733950
O O15 0.964072 0.239754 0.756069
O O16 0.870093 0.000000 0.763294
O O17 0.569882 0.500000 0.691421
O O18 0.876429 0.500000 0.173380
O O19 0.624323 0.706477 0.107878
O O20 0.771615 0.710179 0.078633
O O21 0.354369 0.500000 0.017489
#
# Coordination Sequence:
#
# PCOD8062969 Si02
#       8
#     4   4   4   4   4   4   4   4
#     4   9  17  27  42  70 104 131 159 199 245 291
#     4   9  17  28  45  71  99 130 161 197 245 290
#     4   9  19  35  50  66  95 132 163 193 235 290
#     4   9  17  30  48  73 101 124 156 203 245 284
#     4  10  20  32  48  73  99 123 160 204 241 284
#     4   9  17  30  49  71  98 131 163 195 239 293
#     4   9  17  31  52  73  96 128 162 202 247 290
#     4   8  16  30  46  69 100 128 161 203 245 290
#
# _framework density 18.727951000000001
#
# number of rings (size 3 to 8) (size 9 to 14) (size 15 to 20)
#    0.000    3.000    0.000    1.500    1.750    3.250 
#    0.000    3.125    0.000    3.000    0.000    3.500 
#    0.000    0.000    0.000    0.000    0.000    0.000 
#
# Total GULP energy -396529.966329 kJ/mol
# GULP energy per Si atom -12391.561448 kJ/mol
# Density = 1.868533 g / cm^3
# Si number density = 18.727951 Si / 1000 Ang^3
#
#
#
# Elastic Constant Matrix: (Units=GPa)
#
#
# Indices 1 2 3 4 5 6 
#
# 1 140.0245 28.5038 22.8715 0.0000 8.4584 0.0000
# 2 28.5038 51.0236 18.2087 0.0000 12.3994 0.0000
# 3 22.8715 18.2087 46.8870 0.0000 16.2044 0.0000
# 4 0.0000 0.0000 0.0000 4.3250 0.0000 -4.8322
# 5 8.4584 12.3994 16.2044 0.0000 29.1701 0.0000
# 6 0.0000 0.0000 0.0000 -4.8322 0.0000 8.6123
#
#
#
# Elastic Compliance Matrix: (Units=1/GPa)
#
#
# Indices 1 2 3 4 5 6 
#
# 1 0.008340 -0.003834 -0.002855 0.000000 0.000797 0.000000
# 2 -0.003834 0.025364 -0.005740 0.000000 -0.006481 0.000000
# 3 -0.002855 -0.005740 0.029480 0.000000 -0.013109 0.000000
# 4 0.000000 0.000000 0.000000 0.619669 0.000000 0.347684
# 5 0.000797 -0.006481 -0.013109 0.000000 0.044088 0.000000
# 6 0.000000 0.000000 0.000000 0.347684 0.000000 0.311192
#
#
# Mechanical properties :
#
#
# Convention : Reuss Voigt Hill
#
# Bulk Modulus (GPa) = 26.09171 41.90034 33.99602
# Shear Modulus (GPa) = 4.64785 19.64488 12.14637
#
# Velocity S-wave (km/s) = 1.57707 3.24228 2.54946
# Velocity P-wave (km/s) = 4.15673 6.03641 5.18250
#
# Compressibility (1/GPa) = 0.03832636
#
# Stress axis : x y z
#
# Youngs Moduli (GPa) = 119.90042 39.42581 33.92121
#
# Poissons Ratio (x) = 0.15116 0.09684
# Poissons Ratio (y) = 0.45971 0.19471
# Poissons Ratio (z) = 0.34231 0.22630
#
# Static dielectric constant tensor:
#      x y z
#    x 3.770870 0.000000 0.058580 
#    y 0.000000 3.213790 0.000000 
#    z 0.058580 0.000000 3.427600 
# 
# 
# High freq. dielectric constant tensor:
#      x y z
#    x 1.736400 0.000000 0.010480 
#    y 0.000000 1.676070 0.000000 
#    z 0.010480 0.000000 1.719960 
# 
# From -- ./inp_files/95066.got.cif
#   From: 2010.06.25/outbox.cif.g09.slc.cpg/sg10_48_cif.got.tgz:95066.got - 2010.06.27 22:07:45.
