data_PCOD8062830
_publ_section_title
;
Structure prediction by ZEFSAII (Michael W. Deem and Ramdas Pophale) SiO2 
 PCOD8062830
Probable space group: P 2/M
;
_chemical_formula_sum "Si O2"
_cell_formula_units_Z 28
_cell_length_a 26.136945
_cell_length_b 9.369669
_cell_length_c 9.455073
_cell_angle_alpha 90.000000
_cell_angle_beta 136.344388
_cell_angle_gamma 90.000000
_cell_volume 1598.437803
_symmetry_space_group_name_H-M "P 2/M"
_symmetry_group_IT_number 10
_symmetry_cell_setting 'monoclinic'
loop_
_space_group_symop_operation_xyz
x,y,z
-x,y,-z
-x,-y,-z
x,-y,z
loop_
_atom_site_type_symbol
_atom_site_label
_atom_site_fract_x
_atom_site_fract_y
_atom_site_fract_z
Si Si1 0.085957 0.164279 0.010534
Si Si2 0.202967 0.331305 0.068425
Si Si3 0.658848 0.329319 0.476600
Si Si4 0.914044 0.164279 0.666709
Si Si5 0.500000 0.343817 0.832185
Si Si6 0.797033 0.331305 0.256558
Si Si7 0.658849 0.329319 0.158796
O O1 0.131385 0.262610 0.995767
O O2 0.000000 0.190618 0.806119
O O3 0.106834 0.000000 0.025865
O O4 0.104176 0.207093 0.208353
O O5 0.196254 0.500000 0.073247
O O6 0.206400 0.284981 0.912800
O O7 0.277436 0.272522 0.292092
O O8 0.654054 0.500000 0.469593
O O9 0.577999 0.266698 0.365914
O O10 0.677570 0.276641 0.355141
O O11 0.868615 0.262610 0.470227
O O12 0.893167 0.000000 0.598530
O O13 0.500000 0.500000 0.760454
O O14 0.500000 0.361376 0.000000
O O15 0.578000 0.266698 0.946084
O O16 0.803747 0.500000 0.288234
O O17 0.722565 0.272522 0.182351
O O18 0.654054 0.500000 0.146624
#
# Coordination Sequence:
#
# PCOD8062830 Si02
#       7
#     4   4   4   4   4   4   4
#     4   9  19  36  55  72  89 113 151 196 236 276
#     4  10  20  31  44  68 101 130 155 185 224 273
#     4   8  13  23  40  61  87 120 156 192 228 265
#     4   9  19  36  55  72  89 113 151 196 236 276
#     4   7  10  18  35  59  84 113 152 193 228 262
#     4  10  20  31  44  68 101 130 155 185 224 273
#     4   8  13  23  40  61  87 120 156 192 228 265
#
# _framework density 17.517102999999999
#
# number of rings (size 3 to 8) (size 9 to 14) (size 15 to 20)
#    0.000    3.286    0.000    3.429    0.000    3.429 
#    0.000    5.000    0.000    4.286    0.000    1.000 
#    0.000    8.000    0.000    0.000    0.000    0.000 
#
# Total GULP energy -346935.450402 kJ/mol
# GULP energy per Si atom -12390.551800 kJ/mol
# Density = 1.747723 g / cm^3
# Si number density = 17.517103 Si / 1000 Ang^3
#
#
#
# Elastic Constant Matrix: (Units=GPa)
#
#
# Indices 1 2 3 4 5 6 
#
# 1 112.2938 30.5941 95.6935 0.0000 3.8261 0.0000
# 2 30.5941 18.7994 30.6083 0.0000 0.3491 0.0000
# 3 95.6935 30.6083 112.6163 0.0000 4.3724 0.0000
# 4 0.0000 0.0000 0.0000 9.1419 0.0000 -9.9354
# 5 3.8261 0.3491 4.3724 0.0000 22.4317 0.0000
# 6 0.0000 0.0000 0.0000 -9.9354 0.0000 9.5282
#
#
#
# Elastic Compliance Matrix: (Units=1/GPa)
#
#
# Indices 1 2 3 4 5 6 
#
# 1 0.034526 -0.015165 -0.025187 0.000000 -0.000744 0.000000
# 2 -0.015165 0.102368 -0.015089 0.000000 0.003935 0.000000
# 3 -0.025187 -0.015089 0.034468 0.000000 -0.002188 0.000000
# 4 0.000000 0.000000 0.000000 -0.821023 0.000000 -0.856106
# 5 -0.000744 0.003935 -0.002188 0.000000 0.045072 0.000000
# 6 0.000000 0.000000 0.000000 -0.856106 0.000000 -0.787736
#
#
# Mechanical properties :
#
#
# Convention : Reuss Voigt Hill
#
# Bulk Modulus (GPa) = 16.53475 61.94458 39.23967
# Shear Modulus (GPa) = -3.96422 14.00794 5.02186
#
# Velocity S-wave (km/s) = -1.50598 2.83091 1.69501
# Velocity P-wave (km/s) = 2.53688 6.79151 5.12642
#
# Compressibility (1/GPa) = 0.06047867
#
# Stress axis : x y z
#
# Youngs Moduli (GPa) = 28.96372 9.76869 29.01250
#
# Poissons Ratio (x) = 0.14815 0.73074
# Poissons Ratio (y) = 0.43925 0.43777
# Poissons Ratio (z) = 0.72951 0.14740
#
# Static dielectric constant tensor:
#      x y z
#    x 3.401790 0.000000 0.248850 
#    y 0.000000 2.720710 0.000000 
#    z 0.248850 0.000000 3.411470 
# 
# 
# High freq. dielectric constant tensor:
#      x y z
#    x 1.680010 0.000000 0.020050 
#    y 0.000000 1.618100 0.000000 
#    z 0.020050 0.000000 1.680790 
# 
# From -- ./inp_files/37293.got.cif
#   From: 2010.06.25/outbox.cif.g09.slc.cpg/sg10_19_cif.got.tgz:37293.got - 2010.06.27 22:07:45.
