data_PCOD8062308
_publ_section_title
;
Structure prediction by ZEFSAII (Michael W. Deem and Ramdas Pophale) SiO2 
 PCOD8062308
Probable space group: P 2/M
;
_chemical_formula_sum "Si O2"
_cell_formula_units_Z 32
_cell_length_a 15.258274
_cell_length_b 9.134854
_cell_length_c 21.956327
_cell_angle_alpha 90.000000
_cell_angle_beta 148.127104
_cell_angle_gamma 90.000000
_cell_volume 1615.960685
_symmetry_space_group_name_H-M "P 2/M"
_symmetry_group_IT_number 10
_symmetry_cell_setting 'monoclinic'
loop_
_space_group_symop_operation_xyz
x,y,z
-x,y,-z
-x,-y,-z
x,-y,z
loop_
_atom_site_type_symbol
_atom_site_label
_atom_site_fract_x
_atom_site_fract_y
_atom_site_fract_z
Si Si1 0.811655 0.333837 0.765823
Si Si2 0.366695 0.332334 0.798110
Si Si3 0.502348 0.827260 0.374683
Si Si4 0.506827 0.667601 0.255731
Si Si5 0.671967 0.827390 0.026918
Si Si6 0.875207 0.667618 0.245412
Si Si7 0.821528 0.665989 0.005991
Si Si8 0.217665 0.668394 0.392688
O O1 0.748724 0.500000 0.739051
O O2 0.683439 0.223755 0.720542
O O3 0.834206 0.301761 0.707406
O O4 0.989058 0.308945 0.903871
O O5 0.428545 0.500000 0.837769
O O6 0.380217 0.283050 0.735475
O O7 0.488510 0.237728 0.911836
O O8 0.180417 0.316446 0.716098
O O9 0.559952 0.768866 0.342972
O O10 0.624470 0.767262 0.498659
O O11 0.509381 0.000000 0.378874
O O12 0.543616 0.500000 0.295270
O O13 0.310207 0.690143 0.126138
O O14 0.786535 0.780340 0.038453
O O15 0.658003 0.000000 0.021544
O O16 0.752825 0.770862 0.136293
O O17 0.853584 0.500000 0.210432
O O18 0.065942 0.714251 0.347743
O O19 0.803326 0.500000 0.020719
O O20 0.267896 0.500000 0.432394
#
# Coordination Sequence:
#
# PCOD8062308 Si02
#       8
#     4   4   4   4   4   4   4   4
#     4  10  20  38  64  89 112 141 184 236 289 337
#     4   9  19  35  58  83 110 147 191 236 277 324
#     4  12  26  40  56  80 114 154 191 231 283 341
#     4   9  19  38  61  83 111 148 193 235 275 327
#     4  11  20  29  48  82 124 158 182 217 275 341
#     4  10  19  35  58  84 111 144 189 237 281 329
#     4   9  18  36  61  87 113 146 188 235 283 330
#     4  10  21  39  63  86 111 144 188 238 284 332
#
# _framework density 19.802462999999999
#
# number of rings (size 3 to 8) (size 9 to 14) (size 15 to 20)
#    0.000    2.000    1.250    3.750    0.000    7.500 
#    0.000    3.125    0.000    3.750    0.000    0.000 
#    0.000    0.000    0.000    0.000    0.000    0.000 
#
# Total GULP energy -396768.725439 kJ/mol
# GULP energy per Si atom -12399.022670 kJ/mol
# Density = 1.975739 g / cm^3
# Si number density = 19.802463 Si / 1000 Ang^3
#
#
#
# Elastic Constant Matrix: (Units=GPa)
#
#
# Indices 1 2 3 4 5 6 
#
# 1 65.8284 24.1756 10.4656 0.0000 11.6746 0.0000
# 2 24.1756 88.0482 11.8583 0.0000 -1.6480 0.0000
# 3 10.4656 11.8583 26.3330 0.0000 -0.4219 0.0000
# 4 0.0000 0.0000 0.0000 4.5668 0.0000 -0.2607
# 5 11.6746 -1.6480 -0.4219 0.0000 26.8784 0.0000
# 6 0.0000 0.0000 0.0000 -0.2607 0.0000 16.2857
#
#
#
# Elastic Compliance Matrix: (Units=1/GPa)
#
#
# Indices 1 2 3 4 5 6 
#
# 1 0.019396 -0.004719 -0.005724 0.000000 -0.008804 0.000000
# 2 -0.004719 0.013251 -0.004047 0.000000 0.002799 0.000000
# 3 -0.005724 -0.004047 0.042119 0.000000 0.002899 0.000000
# 4 0.000000 0.000000 0.000000 0.219172 0.000000 0.003508
# 5 -0.008804 0.002799 0.002899 0.000000 0.041246 0.000000
# 6 0.000000 0.000000 0.000000 0.003508 0.000000 0.061460
#
#
# Mechanical properties :
#
#
# Convention : Reuss Voigt Hill
#
# Bulk Modulus (GPa) = 21.84136 30.35650 26.09893
# Shear Modulus (GPa) = 11.34085 18.46020 14.90052
#
# Velocity S-wave (km/s) = 2.39571 3.05654 2.74607
# Velocity P-wave (km/s) = 4.32506 5.27442 4.82315
#
# Compressibility (1/GPa) = 0.04578469
#
# Stress axis : x y z
#
# Youngs Moduli (GPa) = 51.55817 75.46841 23.74237
#
# Poissons Ratio (x) = 0.35616 0.13591
# Poissons Ratio (y) = 0.24332 0.09607
# Poissons Ratio (z) = 0.29513 0.30539
#
# Static dielectric constant tensor:
#      x y z
#    x 3.665470 0.000000 0.143900 
#    y 0.000000 3.391710 0.000000 
#    z 0.143900 0.000000 3.447360 
# 
# 
# High freq. dielectric constant tensor:
#      x y z
#    x 1.776740 0.000000 0.011520 
#    y 0.000000 1.752370 0.000000 
#    z 0.011520 0.000000 1.754340 
# 
# From -- ./inp_files/58320.got.cif
#   From: 2010.06.25/outbox.cif.g09.slc.cpg/sg10_30_cif.got.tgz:58320.got - 2010.06.27 22:07:45.
