data_PCOD8062741
_publ_section_title
;
Structure prediction by ZEFSAII (Michael W. Deem and Ramdas Pophale) SiO2 
 PCOD8062741
Probable space group: P 2/M
;
_chemical_formula_sum "Si O2"
_cell_formula_units_Z 32
_cell_length_a 15.591087
_cell_length_b 9.103569
_cell_length_c 24.174910
_cell_angle_alpha 90.000000
_cell_angle_beta 27.920406
_cell_angle_gamma 90.000000
_cell_volume 1606.666249
_symmetry_space_group_name_H-M "P 2/M"
_symmetry_group_IT_number 10
_symmetry_cell_setting 'monoclinic'
loop_
_space_group_symop_operation_xyz
x,y,z
-x,y,-z
-x,-y,-z
x,-y,z
loop_
_atom_site_type_symbol
_atom_site_label
_atom_site_fract_x
_atom_site_fract_y
_atom_site_fract_z
Si Si1 0.802710 0.325701 0.096076
Si Si2 0.602133 0.173049 0.810460
Si Si3 0.754010 0.329777 0.999704
Si Si4 0.684178 0.667468 0.865962
Si Si5 0.978646 0.335379 0.245143
Si Si6 0.207996 0.671374 0.395712
Si Si7 0.554640 0.672569 0.635355
Si Si8 0.372449 0.827375 0.522127
O O1 0.809644 0.500000 0.095245
O O2 0.635908 0.269097 0.229405
O O3 0.769552 0.272701 0.052978
O O4 0.000000 0.258443 0.000000
O O5 0.732655 0.233514 0.784835
O O6 0.658948 0.237305 0.719123
O O7 0.611332 0.000000 0.802657
O O8 0.399727 0.230249 0.941579
O O9 0.693695 0.500000 0.030150
O O10 0.949077 0.307575 0.858299
O O11 0.657860 0.500000 0.861200
O O12 0.850594 0.683179 0.812355
O O13 0.500000 0.725459 0.000000
O O14 0.895097 0.500000 0.298095
O O15 0.832173 0.213850 0.344177
O O16 0.236921 0.500000 0.366637
O O17 0.272402 0.706157 0.422130
O O18 0.000000 0.718901 0.500000
O O19 0.544330 0.500000 0.629684
O O20 0.576455 0.751574 0.564546
O O21 0.500000 0.773308 0.500000
O O22 0.388553 0.000000 0.504031
#
# Coordination Sequence:
#
# PCOD8062741 Si02
#       8
#     4   4   4   4   4   4   4   4
#     4   9  18  33  61  96 121 143 183 250 317 358
#     4  12  24  36  56  88 127 164 198 242 301 370
#     4  10  19  38  63  89 122 157 200 253 308 364
#     4  10  20  38  61  86 119 159 202 250 303 360
#     4  10  22  39  66  94 116 157 215 265 305 355
#     4  10  22  41  64  88 118 160 205 254 307 363
#     4  10  21  40  67  95 121 155 208 262 302 357
#     4  11  27  47  63  84 127 176 209 253 317 375
#
# _framework density 19.917017000000001
#
# number of rings (size 3 to 8) (size 9 to 14) (size 15 to 20)
#    0.000    1.750    2.500    1.500    3.500    3.000 
#    0.000    0.000    0.000    0.750    0.000    0.000 
#    0.000    0.000    0.000    0.000    0.000    0.000 
#
# Total GULP energy -396782.601605 kJ/mol
# GULP energy per Si atom -12399.456300 kJ/mol
# Density = 1.987168 g / cm^3
# Si number density = 19.917017 Si / 1000 Ang^3
#
#
#
# Elastic Constant Matrix: (Units=GPa)
#
#
# Indices 1 2 3 4 5 6 
#
# 1 129.2529 49.1263 67.6154 0.0000 14.2031 0.0000
# 2 49.1263 64.7671 36.6879 0.0000 10.3182 0.0000
# 3 67.6154 36.6879 118.0585 0.0000 4.6682 0.0000
# 4 0.0000 0.0000 0.0000 11.6499 0.0000 -1.8925
# 5 14.2031 10.3182 4.6682 0.0000 38.1049 0.0000
# 6 0.0000 0.0000 0.0000 -1.8925 0.0000 19.9531
#
#
#
# Elastic Compliance Matrix: (Units=1/GPa)
#
#
# Indices 1 2 3 4 5 6 
#
# 1 0.013436 -0.006658 -0.005526 0.000000 -0.002528 0.000000
# 2 -0.006658 0.022796 -0.003140 0.000000 -0.003306 0.000000
# 3 -0.005526 -0.003140 0.012557 0.000000 0.001372 0.000000
# 4 0.000000 0.000000 0.000000 0.087181 0.000000 0.008269
# 5 -0.002528 -0.003306 0.001372 0.000000 0.027913 0.000000
# 6 0.000000 0.000000 0.000000 0.008269 0.000000 0.050902
#
#
# Mechanical properties :
#
#
# Convention : Reuss Voigt Hill
#
# Bulk Modulus (GPa) = 55.12671 68.77085 61.94878
# Shear Modulus (GPa) = 19.88232 24.51817 22.20024
#
# Velocity S-wave (km/s) = 3.16295 3.51239 3.34224
# Velocity P-wave (km/s) = 6.40916 7.14513 6.78712
#
# Compressibility (1/GPa) = 0.01814003
#
# Stress axis : x y z
#
# Youngs Moduli (GPa) = 74.42629 43.86805 79.63772
#
# Poissons Ratio (x) = 0.29209 0.44009
# Poissons Ratio (y) = 0.49555 0.25005
# Poissons Ratio (z) = 0.41129 0.13774
#
# Static dielectric constant tensor:
#      x y z
#    x 3.860440 0.000000 0.000690 
#    y 0.000000 3.315440 0.000000 
#    z 0.000690 0.000000 3.991600 
# 
# 
# High freq. dielectric constant tensor:
#      x y z
#    x 1.791740 0.000000 0.004620 
#    y 0.000000 1.743200 0.000000 
#    z 0.004620 0.000000 1.779470 
# 
# From -- ./inp_files/71400.got.cif
#   From: 2010.06.25/outbox.cif.g09.slc.cpg/sg10_36_cif.got.tgz:71400.got - 2010.06.27 22:07:45.
