data_PCOD8062342
_publ_section_title
;
Structure prediction by ZEFSAII (Michael W. Deem and Ramdas Pophale) SiO2 
 PCOD8062342
Probable space group: P 2/M
;
_chemical_formula_sum "Si O2"
_cell_formula_units_Z 20
_cell_length_a 5.197267
_cell_length_b 13.028539
_cell_length_c 15.308518
_cell_angle_alpha 90.000000
_cell_angle_beta 90.041933
_cell_angle_gamma 90.000000
_cell_volume 1036.582276
_symmetry_space_group_name_H-M "P 2/M"
_symmetry_group_IT_number 10
_symmetry_cell_setting 'monoclinic'
loop_
_space_group_symop_operation_xyz
x,y,z
-x,y,-z
-x,-y,-z
x,-y,z
loop_
_atom_site_type_symbol
_atom_site_label
_atom_site_fract_x
_atom_site_fract_y
_atom_site_fract_z
Si Si1 0.017482 0.772782 0.598713
Si Si2 0.475633 0.709459 0.323086
Si Si3 0.046225 0.261435 0.097127
Si Si4 0.186208 0.882095 0.248188
Si Si5 0.458157 0.382976 0.853168
O O1 0.782597 0.693590 0.618974
O O2 0.000079 0.868300 0.666754
O O3 0.000000 0.814428 0.500000
O O4 0.282497 0.712177 0.612407
O O5 0.447101 0.817570 0.268683
O O6 0.502414 0.619841 0.251891
O O7 0.049934 0.164509 0.162338
O O8 0.315232 0.322579 0.097560
O O9 0.819819 0.337498 0.124953
O O10 0.000000 0.218384 0.000000
O O11 0.254556 0.000000 0.232004
O O12 0.465682 0.500000 0.884719
#
# Coordination Sequence:
#
# PCOD8062342 Si02
#       5
#     4   4   4   4   4
#     4  10  19  35  59  82 113 148 186 233 281 324
#     4   9  19  37  53  84 114 147 184 232 274 339
#     4  11  23  39  57  87 117 146 191 232 276 338
#     4   9  21  37  58  82 116 153 187 228 279 329
#     4  11  21  39  63  84 113 149 186 235 290 331
#
# _framework density 19.294174999999999
#
# number of rings (size 3 to 8) (size 9 to 14) (size 15 to 20)
#    1.200    0.800    2.000    1.800    0.000    4.000 
#    0.000    1.000    0.000    7.200    0.000    0.000 
#    0.000    0.000    0.000    0.000    0.000    0.000 
#
# Total GULP energy -247828.759042 kJ/mol
# GULP energy per Si atom -12391.437952 kJ/mol
# Density = 1.925026 g / cm^3
# Si number density = 19.294175 Si / 1000 Ang^3
#
#
#
# Elastic Constant Matrix: (Units=GPa)
#
#
# Indices 1 2 3 4 5 6 
#
# 1 118.5105 7.7778 21.4866 0.0000 12.2580 0.0000
# 2 7.7778 44.5626 25.5944 0.0000 3.0640 0.0000
# 3 21.4866 25.5944 141.9529 0.0000 13.7489 0.0000
# 4 0.0000 0.0000 0.0000 5.7204 0.0000 0.9786
# 5 12.2580 3.0640 13.7489 0.0000 31.0810 0.0000
# 6 0.0000 0.0000 0.0000 0.9786 0.0000 15.9998
#
#
#
# Elastic Compliance Matrix: (Units=1/GPa)
#
#
# Indices 1 2 3 4 5 6 
#
# 1 0.008974 -0.000832 -0.000913 0.000000 -0.003054 0.000000
# 2 -0.000832 0.025117 -0.004382 0.000000 -0.000209 0.000000
# 3 -0.000913 -0.004382 0.008250 0.000000 -0.002857 0.000000
# 4 0.000000 0.000000 0.000000 0.176660 0.000000 -0.010805
# 5 -0.003054 -0.000209 -0.002857 0.000000 0.034663 0.000000
# 6 0.000000 0.000000 0.000000 -0.010805 0.000000 0.063162
#
#
# Mechanical properties :
#
#
# Convention : Reuss Voigt Hill
#
# Bulk Modulus (GPa) = 33.23773 46.08262 39.66017
# Shear Modulus (GPa) = 14.74456 27.23806 20.99131
#
# Velocity S-wave (km/s) = 2.76741 3.76137 3.30200
# Velocity P-wave (km/s) = 5.24172 6.54216 5.92771
#
# Compressibility (1/GPa) = 0.03008629
#
# Stress axis : x y z
#
# Youngs Moduli (GPa) = 111.43330 39.81363 121.21766
#
# Poissons Ratio (x) = 0.03313 0.11062
# Poissons Ratio (y) = 0.09274 0.53123
# Poissons Ratio (z) = 0.10169 0.17448
#
# Static dielectric constant tensor:
#      x y z
#    x 3.544760 0.000000 0.032580 
#    y 0.000000 3.013280 0.000000 
#    z 0.032580 0.000000 3.555290 
# 
# 
# High freq. dielectric constant tensor:
#      x y z
#    x 1.761930 0.000000 0.004300 
#    y 0.000000 1.700500 0.000000 
#    z 0.004300 0.000000 1.756720 
# 
# From -- ./inp_files/58860.got.cif
#   From: 2010.06.25/outbox.cif.g09.slc.cpg/sg10_30_cif.got.tgz:58860.got - 2010.06.27 22:07:45.
