data_PCOD8062680
_publ_section_title
;
Structure prediction by ZEFSAII (Michael W. Deem and Ramdas Pophale) SiO2 
 PCOD8062680
Probable space group: P 2/M
;
_chemical_formula_sum "Si O2"
_cell_formula_units_Z 32
_cell_length_a 23.903082
_cell_length_b 8.789714
_cell_length_c 18.561852
_cell_angle_alpha 90.000000
_cell_angle_beta 24.384676
_cell_angle_gamma 90.000000
_cell_volume 1610.102974
_symmetry_space_group_name_H-M "P 2/M"
_symmetry_group_IT_number 10
_symmetry_cell_setting 'monoclinic'
loop_
_space_group_symop_operation_xyz
x,y,z
-x,y,-z
-x,-y,-z
x,-y,z
loop_
_atom_site_type_symbol
_atom_site_label
_atom_site_fract_x
_atom_site_fract_y
_atom_site_fract_z
Si Si1 0.155167 0.681252 0.656218
Si Si2 0.890952 0.171953 0.797474
Si Si3 0.373686 0.821062 0.966458
Si Si4 0.356054 0.333906 0.136815
Si Si5 0.590984 0.325579 0.323278
Si Si6 0.872078 0.827272 0.988874
Si Si7 0.162563 0.678506 0.484785
Si Si8 0.423754 0.819365 0.390425
O O1 0.149202 0.500000 0.666754
O O2 0.184523 0.742204 0.540184
O O3 0.275143 0.742281 0.566962
O O4 0.010278 0.745318 0.853592
O O5 0.014734 0.278410 0.629930
O O6 0.921298 0.000000 0.736044
O O7 0.761731 0.246238 0.910440
O O8 0.863471 0.175983 0.913688
O O9 0.504559 0.764409 0.768175
O O10 0.367450 0.000000 0.966689
O O11 0.375790 0.775088 0.046412
O O12 0.295083 0.500000 0.185625
O O13 0.266104 0.252440 0.304480
O O14 0.500000 0.365127 0.000000
O O15 0.500000 0.312332 0.500000
O O16 0.608316 0.500000 0.278028
O O17 0.737760 0.258827 0.173545
O O18 0.517873 0.231935 0.345928
O O19 0.872187 0.000000 0.018227
O O20 0.183038 0.500000 0.463162
O O21 0.406165 0.000000 0.414948
#
# Coordination Sequence:
#
# PCOD8062680 Si02
#       8
#     4   4   4   4   4   4   4   4
#     4  10  20  36  60  89 119 156 199 244 293 344
#     4   9  18  34  54  78 108 143 184 232 283 336
#     4  10  21  36  54  79 109 143 189 238 285 339
#     4  10  21  36  51  71 104 145 188 236 290 343
#     4  11  24  41  63  92 123 154 189 234 288 345
#     4  10  19  37  62  88 120 157 195 236 285 345
#     4   9  19  34  52  77 110 146 191 238 285 342
#     4  11  22  39  61  88 119 152 196 244 289 347
#
# _framework density 19.874506
#
# number of rings (size 3 to 8) (size 9 to 14) (size 15 to 20)
#    0.000    2.000    1.250    2.250    0.000    5.750 
#    0.000    3.125    0.000    3.750    0.000    0.000 
#    0.000    0.000    0.000    0.000    0.000    0.000 
#
# Total GULP energy -396717.014860 kJ/mol
# GULP energy per Si atom -12397.406714 kJ/mol
# Density = 1.982927 g / cm^3
# Si number density = 19.874506 Si / 1000 Ang^3
#
#
#
# Elastic Constant Matrix: (Units=GPa)
#
#
# Indices 1 2 3 4 5 6 
#
# 1 40.0923 19.7977 32.0375 0.0000 -13.5549 0.0000
# 2 19.7977 62.5504 40.2496 0.0000 -3.7755 0.0000
# 3 32.0375 40.2496 131.4896 0.0000 -14.9080 0.0000
# 4 0.0000 0.0000 0.0000 33.0334 0.0000 -4.9836
# 5 -13.5549 -3.7755 -14.9080 0.0000 32.3210 0.0000
# 6 0.0000 0.0000 0.0000 -4.9836 0.0000 28.4236
#
#
#
# Elastic Compliance Matrix: (Units=1/GPa)
#
#
# Indices 1 2 3 4 5 6 
#
# 1 0.037063 -0.007563 -0.005332 0.000000 0.012201 0.000000
# 2 -0.007563 0.021460 -0.005067 0.000000 -0.003002 0.000000
# 3 -0.005332 -0.005067 0.010694 0.000000 0.002105 0.000000
# 4 0.000000 0.000000 0.000000 0.031095 0.000000 0.005452
# 5 0.012201 -0.003002 0.002105 0.000000 0.036677 0.000000
# 6 0.000000 0.000000 0.000000 0.005452 0.000000 0.036138
#
#
# Mechanical properties :
#
#
# Convention : Reuss Voigt Hill
#
# Bulk Modulus (GPa) = 30.03631 46.47800 38.25716
# Shear Modulus (GPa) = 22.71207 28.22542 25.46875
#
# Velocity S-wave (km/s) = 3.38416 3.77262 3.58366
# Velocity P-wave (km/s) = 5.51506 6.51256 6.03445
#
# Compressibility (1/GPa) = 0.03329304
#
# Stress axis : x y z
#
# Youngs Moduli (GPa) = 26.98117 46.59839 93.51211
#
# Poissons Ratio (x) = 0.35244 0.49860
# Poissons Ratio (y) = 0.20407 0.47379
# Poissons Ratio (z) = 0.14386 0.23609
#
# Static dielectric constant tensor:
#      x y z
#    x 3.478040 0.000000 -0.098240 
#    y 0.000000 3.610840 0.000000 
#    z -0.098240 0.000000 3.861580 
# 
# 
# High freq. dielectric constant tensor:
#      x y z
#    x 1.757140 0.000000 -0.012120 
#    y 0.000000 1.770950 0.000000 
#    z -0.012120 0.000000 1.786700 
# 
# From -- ./inp_files/86729.got.cif
#   From: 2010.06.25/outbox.cif.g09.slc.cpg/sg10_44_cif.got.tgz:86729.got - 2010.06.27 22:07:45.
