data_PCOD8062380
_publ_section_title
;
Structure prediction by ZEFSAII (Michael W. Deem and Ramdas Pophale) SiO2 
 PCOD8062380
Probable space group: P 2/M
;
_chemical_formula_sum "Si O2"
_cell_formula_units_Z 32
_cell_length_a 19.999007
_cell_length_b 8.977067
_cell_length_c 25.862779
_cell_angle_alpha 90.000000
_cell_angle_beta 158.889142
_cell_angle_gamma 90.000000
_cell_volume 1672.360760
_symmetry_space_group_name_H-M "P 2/M"
_symmetry_group_IT_number 10
_symmetry_cell_setting 'monoclinic'
loop_
_space_group_symop_operation_xyz
x,y,z
-x,y,-z
-x,-y,-z
x,-y,z
loop_
_atom_site_type_symbol
_atom_site_label
_atom_site_fract_x
_atom_site_fract_y
_atom_site_fract_z
Si Si1 0.706761 0.176344 0.654383
Si Si2 0.122782 0.675417 0.688713
Si Si3 0.805902 0.823107 0.837889
Si Si4 0.617559 0.824508 0.203763
Si Si5 0.700686 0.329335 0.367634
Si Si6 0.857838 0.174036 0.655380
Si Si7 0.541566 0.328479 0.362805
Si Si8 0.762841 0.826623 0.124895
O O1 0.500000 0.243610 0.500000
O O2 0.794351 0.236675 0.770727
O O3 0.831555 0.226483 0.695786
O O4 0.694672 0.000000 0.648235
O O5 0.150393 0.500000 0.707665
O O6 0.214031 0.744731 0.703714
O O7 0.222222 0.737435 0.811287
O O8 0.907286 0.721400 0.532944
O O9 0.641988 0.758461 0.754069
O O10 0.790383 0.000000 0.829426
O O11 0.000000 0.764698 0.000000
O O12 0.618857 0.774654 0.264071
O O13 0.646453 0.000000 0.221409
O O14 0.423192 0.775795 0.038187
O O15 0.704161 0.500000 0.350920
O O16 0.566307 0.308768 0.319452
O O17 0.721150 0.264661 0.520558
O O18 0.067682 0.211050 0.791041
O O19 0.810387 0.000000 0.614965
O O20 0.521556 0.500000 0.364026
O O21 0.758038 0.000000 0.135849
#
# Coordination Sequence:
#
# PCOD8062380 Si02
#       8
#     4   4   4   4   4   4   4   4
#     4   9  16  30  55  84 111 140 182 232 276 323
#     4  11  22  39  62  85 114 156 200 237 286 353
#     4  10  21  37  59  87 116 151 193 233 279 341
#     4  11  24  39  57  87 121 150 191 246 298 346
#     4  10  23  41  59  83 115 154 197 240 288 349
#     4  10  19  35  60  83 110 150 192 234 285 339
#     4  11  22  38  59  84 117 150 188 238 287 338
#     4  10  22  38  58  87 119 149 189 244 295 343
#
# _framework density 19.134626999999998
#
# number of rings (size 3 to 8) (size 9 to 14) (size 15 to 20)
#    0.000    1.750    2.500    1.875    0.000    7.250 
#    0.000    3.750    0.000    0.000    0.000    0.000 
#    0.000    0.000    0.000    0.000    0.000    0.000 
#
# Total GULP energy -396926.517689 kJ/mol
# GULP energy per Si atom -12403.953678 kJ/mol
# Density = 1.909108 g / cm^3
# Si number density = 19.134627 Si / 1000 Ang^3
#
#
#
# Elastic Constant Matrix: (Units=GPa)
#
#
# Indices 1 2 3 4 5 6 
#
# 1 111.6872 26.1514 31.9320 0.0000 -11.1512 0.0000
# 2 26.1514 44.3068 31.5485 0.0000 -8.8775 0.0000
# 3 31.9320 31.5485 92.7224 0.0000 -18.1585 0.0000
# 4 0.0000 0.0000 0.0000 6.0732 0.0000 -4.9976
# 5 -11.1512 -8.8775 -18.1585 0.0000 33.3754 0.0000
# 6 0.0000 0.0000 0.0000 -4.9976 0.0000 27.4320
#
#
#
# Elastic Compliance Matrix: (Units=1/GPa)
#
#
# Indices 1 2 3 4 5 6 
#
# 1 0.010721 -0.004775 -0.001807 0.000000 0.001329 0.000000
# 2 -0.004775 0.032131 -0.008872 0.000000 0.002124 0.000000
# 3 -0.001807 -0.008872 0.015497 0.000000 0.005468 0.000000
# 4 0.000000 0.000000 0.000000 0.193695 0.000000 0.035288
# 5 0.001329 0.002124 0.005468 0.000000 0.033946 0.000000
# 6 0.000000 0.000000 0.000000 0.035288 0.000000 0.042883
#
#
# Mechanical properties :
#
#
# Convention : Reuss Voigt Hill
#
# Bulk Modulus (GPa) = 36.44270 47.55335 41.99803
# Shear Modulus (GPa) = 13.55278 23.98175 18.76727
#
# Velocity S-wave (km/s) = 2.66425 3.54406 3.13517
# Velocity P-wave (km/s) = 5.34332 6.45392 5.92470
#
# Compressibility (1/GPa) = 0.02744034
#
# Stress axis : x y z
#
# Youngs Moduli (GPa) = 93.27526 31.12250 64.52959
#
# Poissons Ratio (x) = 0.14860 0.11663
# Poissons Ratio (y) = 0.44537 0.57252
# Poissons Ratio (z) = 0.16858 0.27612
#
# Static dielectric constant tensor:
#      x y z
#    x 3.731250 0.000000 -0.005920 
#    y 0.000000 3.341530 0.000000 
#    z -0.005920 0.000000 3.623240 
# 
# 
# High freq. dielectric constant tensor:
#      x y z
#    x 1.760560 0.000000 0.001070 
#    y 0.000000 1.728870 0.000000 
#    z 0.001070 0.000000 1.746230 
# 
# From -- ./inp_files/93700.got.cif
#   From: 2010.06.25/outbox.cif.g09.slc.cpg/sg10_47_cif.got.tgz:93700.got - 2010.06.27 22:07:45.
