data_PCOD8062384
_publ_section_title
;
Structure prediction by ZEFSAII (Michael W. Deem and Ramdas Pophale) SiO2 
 PCOD8062384
Probable space group: P 2/M
;
_chemical_formula_sum "Si O2"
_cell_formula_units_Z 28
_cell_length_a 11.260500
_cell_length_b 8.624935
_cell_length_c 16.486771
_cell_angle_alpha 90.000000
_cell_angle_beta 60.818196
_cell_angle_gamma 90.000000
_cell_volume 1397.982204
_symmetry_space_group_name_H-M "P 2/M"
_symmetry_group_IT_number 10
_symmetry_cell_setting 'monoclinic'
loop_
_space_group_symop_operation_xyz
x,y,z
-x,y,-z
-x,-y,-z
x,-y,z
loop_
_atom_site_type_symbol
_atom_site_label
_atom_site_fract_x
_atom_site_fract_y
_atom_site_fract_z
Si Si1 0.101696 0.680351 0.333799
Si Si2 0.611435 0.816721 0.024486
Si Si3 0.683877 0.178526 0.621689
Si Si4 0.163493 0.319220 0.762517
Si Si5 0.876164 0.182327 0.844289
Si Si6 0.396828 0.817661 0.789838
Si Si7 0.818258 0.821406 0.412688
O O1 0.066469 0.500000 0.344126
O O2 0.213384 0.713057 0.364230
O O3 0.158948 0.732200 0.227794
O O4 0.963863 0.772222 0.400675
O O5 0.762626 0.766713 0.947034
O O6 0.595942 0.000000 0.028563
O O7 0.500000 0.743998 0.000000
O O8 0.584177 0.756962 0.124573
O O9 0.530727 0.225248 0.694445
O O10 0.703741 0.206278 0.519064
O O11 0.713188 0.000000 0.635431
O O12 0.133319 0.500000 0.776129
O O13 0.271431 0.273766 0.794086
O O14 0.219362 0.276149 0.654587
O O15 0.023513 0.230093 0.828583
O O16 0.871760 0.000000 0.829339
O O17 0.365365 0.000000 0.797147
O O18 0.825181 0.000000 0.384159
#
# Coordination Sequence:
#
# PCOD8062384 Si02
#       7
#     4   4   4   4   4   4   4
#     4  11  21  33  53  83 117 149 181 223 277 331
#     4   9  18  34  60  90 113 137 176 226 275 321
#     4  10  21  36  57  82 109 145 186 230 276 324
#     4  11  23  39  56  79 112 147 185 227 276 328
#     4  10  19  35  60  84 109 145 187 229 272 320
#     4  10  21  39  60  82 110 143 184 230 273 324
#     4  10  20  36  58  82 108 143 188 231 273 323
#
# _framework density 20.028867999999999
#
# number of rings (size 3 to 8) (size 9 to 14) (size 15 to 20)
#    0.000    1.857    0.000    6.429    0.000    6.857 
#    0.000    7.143    0.000    3.000    0.000    0.000 
#    0.000    0.000    0.000    0.000    0.000    0.000 
#
# Total GULP energy -347288.723349 kJ/mol
# GULP energy per Si atom -12403.168691 kJ/mol
# Density = 1.998328 g / cm^3
# Si number density = 20.028868 Si / 1000 Ang^3
#
#
#
# Elastic Constant Matrix: (Units=GPa)
#
#
# Indices 1 2 3 4 5 6 
#
# 1 112.0263 13.8494 58.6531 0.0000 9.2411 0.0000
# 2 13.8494 46.8675 19.0019 0.0000 3.0284 0.0000
# 3 58.6531 19.0019 136.6992 0.0000 -17.5479 0.0000
# 4 0.0000 0.0000 0.0000 5.5515 0.0000 8.9350
# 5 9.2411 3.0284 -17.5479 0.0000 26.0361 0.0000
# 6 0.0000 0.0000 0.0000 8.9350 0.0000 16.8147
#
#
#
# Elastic Compliance Matrix: (Units=1/GPa)
#
#
# Indices 1 2 3 4 5 6 
#
# 1 0.013341 -0.000572 -0.006836 0.000000 -0.009276 0.000000
# 2 -0.000572 0.023297 -0.003629 0.000000 -0.004953 0.000000
# 3 -0.006836 -0.003629 0.012171 0.000000 0.011052 0.000000
# 4 0.000000 0.000000 0.000000 1.244412 0.000000 -0.661256
# 5 -0.009276 -0.004953 0.011052 0.000000 0.049725 0.000000
# 6 0.000000 0.000000 0.000000 -0.661256 0.000000 0.410850
#
#
# Mechanical properties :
#
#
# Convention : Reuss Voigt Hill
#
# Bulk Modulus (GPa) = 37.40079 53.17798 45.28939
# Shear Modulus (GPa) = 2.80146 23.28637 13.04392
#
# Velocity S-wave (km/s) = 1.18396 3.41345 2.55474
# Velocity P-wave (km/s) = 4.53685 6.49183 5.60030
#
# Compressibility (1/GPa) = 0.02673740
#
# Stress axis : x y z
#
# Youngs Moduli (GPa) = 74.95612 42.92403 82.16015
#
# Poissons Ratio (x) = 0.02453 0.56161
# Poissons Ratio (y) = 0.04284 0.29815
# Poissons Ratio (z) = 0.51236 0.15577
#
# Static dielectric constant tensor:
#      x y z
#    x 3.528220 0.000000 -0.040430 
#    y 0.000000 3.487340 0.000000 
#    z -0.040430 0.000000 3.804800 
# 
# 
# High freq. dielectric constant tensor:
#      x y z
#    x 1.777160 0.000000 -0.002690 
#    y 0.000000 1.766510 0.000000 
#    z -0.002690 0.000000 1.789970 
# 
# From -- ./inp_files/63584.got.cif
#   From: 2010.06.25/outbox.cif.g09.slc.cpg/sg10_32_cif.got.tgz:63584.got - 2010.06.27 22:07:45.
