data_PCOD8062118
_publ_section_title
;
Structure prediction by ZEFSAII (Michael W. Deem and Ramdas Pophale) SiO2 
 PCOD8062118
Probable space group: P 2/M
;
_chemical_formula_sum "Si O2"
_cell_formula_units_Z 24
_cell_length_a 11.385881
_cell_length_b 7.608355
_cell_length_c 22.551718
_cell_angle_alpha 90.000000
_cell_angle_beta 35.385554
_cell_angle_gamma 90.000000
_cell_volume 1131.285794
_symmetry_space_group_name_H-M "P 2/M"
_symmetry_group_IT_number 10
_symmetry_cell_setting 'monoclinic'
loop_
_space_group_symop_operation_xyz
x,y,z
-x,y,-z
-x,-y,-z
x,-y,z
loop_
_atom_site_type_symbol
_atom_site_label
_atom_site_fract_x
_atom_site_fract_y
_atom_site_fract_z
Si Si1 0.904229 0.805293 0.211107
Si Si2 0.461351 0.300324 0.186992
Si Si3 0.795867 0.000000 0.656460
Si Si4 0.837021 0.300862 0.112777
Si Si5 0.726052 0.000000 0.546695
Si Si6 0.358222 0.297380 0.009057
Si Si7 0.505626 0.698903 0.429700
O O1 0.835900 0.817752 0.171132
O O2 0.742353 0.691889 0.314094
O O3 0.904883 0.000000 0.237897
O O4 0.127134 0.725553 0.123305
O O5 0.380479 0.500000 0.210389
O O6 0.275495 0.174286 0.279469
O O7 0.612952 0.297124 0.179512
O O8 0.583451 0.222896 0.079745
O O9 0.707218 0.000000 0.625936
O O10 0.036358 0.000000 0.564256
O O11 0.904013 0.500000 0.102215
O O12 0.000000 0.221827 0.000000
O O13 0.621470 0.172490 0.561070
O O14 0.411399 0.500000 0.984186
O O15 0.500000 0.204599 0.000000
O O16 0.500000 0.764507 0.500000
O O17 0.418507 0.500000 0.459729
#
# Coordination Sequence:
#
# PCOD8062118 Si02
#       7
#     4   4   2   4   2   4   4
#     4  12  24  37  62  97 130 164 210 266 323 383
#     4  10  22  40  62  94 132 175 220 263 317 387
#     4  11  26  42  67  95 136 175 213 272 337 401
#     4  10  19  34  59  88 127 170 210 259 310 369
#     4  11  25  48  67 100 131 165 220 281 338 392
#     4  10  22  41  61  87 132 178 219 260 309 387
#     4  11  25  47  74  97 126 170 222 280 337 387
#
# _framework density 21.214797999999998
#
# number of rings (size 3 to 8) (size 9 to 14) (size 15 to 20)
#    0.000    1.333    2.500    2.750    2.333    4.667 
#    0.000    5.000    0.000    0.000    0.000    0.000 
#    0.000    0.000    0.000    0.000    0.000    0.000 
#
# Total GULP energy -297552.768453 kJ/mol
# GULP energy per Si atom -12398.032019 kJ/mol
# Density = 2.116651 g / cm^3
# Si number density = 21.214798 Si / 1000 Ang^3
#
#
#
# Elastic Constant Matrix: (Units=GPa)
#
#
# Indices 1 2 3 4 5 6 
#
# 1 118.7502 27.7493 54.9227 0.0000 -4.0486 0.0000
# 2 27.7493 93.9088 35.0349 0.0000 -2.2283 0.0000
# 3 54.9227 35.0349 151.3510 0.0000 -2.2020 0.0000
# 4 0.0000 0.0000 0.0000 38.2291 0.0000 5.9909
# 5 -4.0486 -2.2283 -2.2020 0.0000 29.3762 0.0000
# 6 0.0000 0.0000 0.0000 5.9909 0.0000 14.8213
#
#
#
# Elastic Compliance Matrix: (Units=1/GPa)
#
#
# Indices 1 2 3 4 5 6 
#
# 1 0.010429 -0.001807 -0.003351 0.000000 0.001049 0.000000
# 2 -0.001807 0.011982 -0.002111 0.000000 0.000502 0.000000
# 3 -0.003351 -0.002111 0.008312 0.000000 0.000001 0.000000
# 4 0.000000 0.000000 0.000000 0.027927 0.000000 -0.011288
# 5 0.001049 0.000502 0.000001 0.000000 0.034224 0.000000
# 6 0.000000 0.000000 0.000000 -0.011288 0.000000 0.072033
#
#
# Mechanical properties :
#
#
# Convention : Reuss Voigt Hill
#
# Bulk Modulus (GPa) = 61.78221 66.60266 64.19244
# Shear Modulus (GPa) = 27.05064 32.90553 29.97809
#
# Velocity S-wave (km/s) = 3.57470 3.94263 3.76317
# Velocity P-wave (km/s) = 6.79878 7.22415 7.01469
#
# Compressibility (1/GPa) = 0.01618589
#
# Stress axis : x y z
#
# Youngs Moduli (GPa) = 95.88815 83.45986 120.31126
#
# Poissons Ratio (x) = 0.15078 0.40316
# Poissons Ratio (y) = 0.17323 0.25394
# Poissons Ratio (z) = 0.32132 0.17616
#
# Static dielectric constant tensor:
#      x y z
#    x 3.930750 0.000000 0.180240 
#    y 0.000000 3.796600 0.000000 
#    z 0.180240 0.000000 3.874000 
# 
# 
# High freq. dielectric constant tensor:
#      x y z
#    x 1.827550 0.000000 0.007940 
#    y 0.000000 1.830700 0.000000 
#    z 0.007940 0.000000 1.834870 
# 
# From -- ./inp_files/88635.got.cif
#   From: 2010.06.25/outbox.cif.g09.slc.cpg/sg10_45_cif.got.tgz:88635.got - 2010.06.27 22:07:45.
