data_PCOD8062975
_publ_section_title
;
Structure prediction by ZEFSAII (Michael W. Deem and Ramdas Pophale) SiO2 
 PCOD8062975
Probable space group: P 2/M
;
_chemical_formula_sum "Si O2"
_cell_formula_units_Z 32
_cell_length_a 21.126734
_cell_length_b 9.151789
_cell_length_c 23.122947
_cell_angle_alpha 90.000000
_cell_angle_beta 156.458299
_cell_angle_gamma 90.000000
_cell_volume 1785.695725
_symmetry_space_group_name_H-M "P 2/M"
_symmetry_group_IT_number 10
_symmetry_cell_setting 'monoclinic'
loop_
_space_group_symop_operation_xyz
x,y,z
-x,y,-z
-x,-y,-z
x,-y,z
loop_
_atom_site_type_symbol
_atom_site_label
_atom_site_fract_x
_atom_site_fract_y
_atom_site_fract_z
Si Si1 0.321051 0.666643 0.950504
Si Si2 0.318861 0.665980 0.726345
Si Si3 0.119946 0.164664 0.476016
Si Si4 0.835855 0.838297 0.896284
Si Si5 0.678190 0.671886 0.667206
Si Si6 0.949581 0.827646 0.825057
Si Si7 0.954579 0.170080 0.221874
Si Si8 0.222307 0.167825 0.758538
O O1 0.269016 0.500000 0.896096
O O2 0.493546 0.677478 0.122447
O O3 0.203519 0.739713 0.897849
O O4 0.325677 0.747754 0.892776
O O5 0.264690 0.500000 0.692018
O O6 0.250314 0.722920 0.608156
O O7 0.250116 0.765640 0.719293
O O8 0.085972 0.202906 0.380698
O O9 0.961597 0.183389 0.380774
O O10 0.185080 0.000000 0.536394
O O11 0.712808 0.730718 0.761294
O O12 0.758362 0.000000 0.833418
O O13 0.000000 0.844130 0.000000
O O14 0.887914 0.785047 0.004207
O O15 0.500000 0.713175 0.500000
O O16 0.706378 0.500000 0.690881
O O17 0.796342 0.743552 0.720047
O O18 0.973471 0.781070 0.778881
O O19 0.917042 0.000000 0.804924
O O20 0.906913 0.000000 0.182681
O O21 0.276725 0.000000 0.804243
#
# Coordination Sequence:
#
# PCOD8062975 Si02
#       8
#     4   4   4   4   4   4   4   4
#     4  10  21  35  50  72 101 130 163 204 249 299
#     4  11  22  33  48  73 102 130 162 203 252 303
#     4   9  19  34  51  72  98 128 164 205 248 297
#     4   8  15  29  50  75 100 128 164 203 242 285
#     4  10  20  32  48  76 111 140 166 199 242 291
#     4   9  18  34  56  78  99 128 169 210 246 291
#     4   9  19  37  57  75  96 127 169 210 247 293
#     4  10  20  34  53  75  97 126 166 208 252 303
#
# _framework density 17.920186000000001
#
# number of rings (size 3 to 8) (size 9 to 14) (size 15 to 20)
#    0.000    2.500    0.000    3.750    0.000   11.250 
#    0.000    1.250    0.000    7.500    0.000    0.000 
#    0.000    0.000    0.000    0.000    0.000    0.000 
#
# Total GULP energy -396794.580895 kJ/mol
# GULP energy per Si atom -12399.830653 kJ/mol
# Density = 1.787940 g / cm^3
# Si number density = 17.920186 Si / 1000 Ang^3
#
#
#
# Elastic Constant Matrix: (Units=GPa)
#
#
# Indices 1 2 3 4 5 6 
#
# 1 102.3960 52.1682 55.9299 0.0000 -23.4802 0.0000
# 2 52.1682 111.3191 69.1375 0.0000 -8.4497 0.0000
# 3 55.9299 69.1375 120.5892 0.0000 -16.8281 0.0000
# 4 0.0000 0.0000 0.0000 32.2169 0.0000 -3.4217
# 5 -23.4802 -8.4497 -16.8281 0.0000 16.7699 0.0000
# 6 0.0000 0.0000 0.0000 -3.4217 0.0000 -1.7533
#
#
#
# Elastic Compliance Matrix: (Units=1/GPa)
#
#
# Indices 1 2 3 4 5 6 
#
# 1 0.018862 -0.005640 -0.002588 0.000000 0.020970 0.000000
# 2 -0.005640 0.015657 -0.007398 0.000000 -0.007431 0.000000
# 3 -0.002588 -0.007398 0.014778 0.000000 0.007478 0.000000
# 4 0.000000 0.000000 0.000000 0.025711 0.000000 -0.050175
# 5 0.020970 -0.007431 0.007478 0.000000 0.092751 0.000000
# 6 0.000000 0.000000 0.000000 -0.050175 0.000000 -0.472422
#
#
# Mechanical properties :
#
#
# Convention : Reuss Voigt Hill
#
# Bulk Modulus (GPa) = 55.41840 76.53061 65.97450
# Shear Modulus (GPa) = -18.69881 19.91794 0.60957
#
# Velocity S-wave (km/s) = -3.23375 3.33750 0.58386
# Velocity P-wave (km/s) = 4.12909 7.59283 6.11148
#
# Compressibility (1/GPa) = 0.01804455
#
# Stress axis : x y z
#
# Youngs Moduli (GPa) = 53.01711 63.87021 67.66883
#
# Poissons Ratio (x) = 0.36024 0.17514
# Poissons Ratio (y) = 0.29902 0.50059
# Poissons Ratio (z) = 0.13722 0.47249
#
# Static dielectric constant tensor:
#      x y z
#    x 3.240480 0.000000 -0.321630 
#    y 0.000000 3.407660 0.000000 
#    z -0.321630 0.000000 3.423650 
# 
# 
# High freq. dielectric constant tensor:
#      x y z
#    x 1.671420 0.000000 -0.017450 
#    y 0.000000 1.699330 0.000000 
#    z -0.017450 0.000000 1.694350 
# 
# From -- ./inp_files/90652.got.cif
#   From: 2010.06.25/outbox.cif.g09.slc.cpg/sg10_46_cif.got.tgz:90652.got - 2010.06.27 22:07:45.
