data_PCOD8062852
_publ_section_title
;
Structure prediction by ZEFSAII (Michael W. Deem and Ramdas Pophale) SiO2 
 PCOD8062852
Probable space group: P 2/M
;
_chemical_formula_sum "Si O2"
_cell_formula_units_Z 32
_cell_length_a 22.017387
_cell_length_b 9.277028
_cell_length_c 14.400979
_cell_angle_alpha 90.000000
_cell_angle_beta 31.134655
_cell_angle_gamma 90.000000
_cell_volume 1520.898258
_symmetry_space_group_name_H-M "P 2/M"
_symmetry_group_IT_number 10
_symmetry_cell_setting 'monoclinic'
loop_
_space_group_symop_operation_xyz
x,y,z
-x,y,-z
-x,-y,-z
x,-y,z
loop_
_atom_site_type_symbol
_atom_site_label
_atom_site_fract_x
_atom_site_fract_y
_atom_site_fract_z
Si Si1 0.110301 0.838481 0.726760
Si Si2 0.092332 0.670406 0.244514
Si Si3 0.390582 0.167245 0.086023
Si Si4 0.862664 0.835086 0.527261
Si Si5 0.725309 0.660428 0.367322
Si Si6 0.317086 0.168198 0.982800
Si Si7 0.892735 0.663541 0.988015
Si Si8 0.530164 0.665024 0.357942
O O1 0.127972 0.828919 0.594733
O O2 0.224181 0.772156 0.625770
O O3 0.991927 0.756149 0.910414
O O4 0.097339 0.000000 0.779488
O O5 0.093006 0.500000 0.264800
O O6 0.123827 0.708512 0.096720
O O7 0.965087 0.735808 0.438157
O O8 0.194018 0.752489 0.168949
O O9 0.264322 0.232340 0.280993
O O10 0.387207 0.000000 0.117439
O O11 0.500000 0.239029 0.000000
O O12 0.404054 0.190080 0.957347
O O13 0.876024 0.000000 0.546193
O O14 0.763593 0.500000 0.347752
O O15 0.585998 0.675402 0.552079
O O16 0.771238 0.689245 0.201972
O O17 0.372552 0.236713 0.817902
O O18 0.292525 0.000000 0.996851
O O19 0.936396 0.500000 0.935654
O O20 0.500000 0.723241 0.500000
O O21 0.577332 0.500000 0.301753
#
# Coordination Sequence:
#
# PCOD8062852 Si02
#       8
#     4   4   4   4   4   4   4   4
#     4  10  20  31  50  81 113 144 182 238 294 338
#     4  10  20  37  61  85 117 155 193 239 297 359
#     4   9  20  39  63  87 117 160 200 239 294 359
#     4   9  19  37  60  85 114 151 197 243 288 346
#     4  10  20  33  52  75 104 147 194 235 278 344
#     4  11  23  38  62  92 119 151 199 252 297 346
#     4   9  18  34  54  76 106 151 195 229 274 343
#     4  10  22  41  61  82 114 157 199 237 290 356
#
# _framework density 21.040198
#
# number of rings (size 3 to 8) (size 9 to 14) (size 15 to 20)
#    0.000    2.250    0.000    2.250    1.750    6.250 
#    0.000    5.000    0.000    1.875    0.000    0.000 
#    0.000    0.000    0.000    0.000    0.000    0.000 
#
# Total GULP energy -396803.240283 kJ/mol
# GULP energy per Si atom -12400.101259 kJ/mol
# Density = 2.099231 g / cm^3
# Si number density = 21.040198 Si / 1000 Ang^3
#
#
#
# Elastic Constant Matrix: (Units=GPa)
#
#
# Indices 1 2 3 4 5 6 
#
# 1 84.0407 41.1738 24.3973 0.0000 -21.9208 0.0000
# 2 41.1738 94.9994 39.0510 0.0000 -12.4296 0.0000
# 3 24.3973 39.0510 105.6828 0.0000 -20.4806 0.0000
# 4 0.0000 0.0000 0.0000 24.8602 0.0000 -4.8089
# 5 -21.9208 -12.4296 -20.4806 0.0000 24.1096 0.0000
# 6 0.0000 0.0000 0.0000 -4.8089 0.0000 28.7618
#
#
#
# Elastic Compliance Matrix: (Units=1/GPa)
#
#
# Indices 1 2 3 4 5 6 
#
# 1 0.018570 -0.006551 0.000899 0.000000 0.014270 0.000000
# 2 -0.006551 0.014906 -0.004382 0.000000 -0.001994 0.000000
# 3 0.000899 -0.004382 0.012682 0.000000 0.009332 0.000000
# 4 0.000000 0.000000 0.000000 0.041569 0.000000 0.006950
# 5 0.014270 -0.001994 0.009332 0.000000 0.061351 0.000000
# 6 0.000000 0.000000 0.000000 0.006950 0.000000 0.035930
#
#
# Mechanical properties :
#
#
# Convention : Reuss Voigt Hill
#
# Bulk Modulus (GPa) = 38.32778 54.88523 46.60650
# Shear Modulus (GPa) = 23.38929 27.55306 25.47118
#
# Velocity S-wave (km/s) = 3.33776 3.62269 3.48314
# Velocity P-wave (km/s) = 5.75414 6.60613 6.19480
#
# Compressibility (1/GPa) = 0.02609074
#
# Stress axis : x y z
#
# Youngs Moduli (GPa) = 53.85154 67.08712 78.84985
#
# Poissons Ratio (x) = 0.43947 -0.07090
# Poissons Ratio (y) = 0.35277 0.34552
# Poissons Ratio (z) = -0.04842 0.29398
#
# Static dielectric constant tensor:
#      x y z
#    x 3.803010 0.000000 -0.139650 
#    y 0.000000 3.686850 0.000000 
#    z -0.139650 0.000000 3.807590 
# 
# 
# High freq. dielectric constant tensor:
#      x y z
#    x 1.828010 0.000000 -0.004280 
#    y 0.000000 1.803440 0.000000 
#    z -0.004280 0.000000 1.826090 
# 
# From -- ./inp_files/71519.got.cif
#   From: 2010.06.25/outbox.cif.g09.slc.cpg/sg10_36_cif.got.tgz:71519.got - 2010.06.27 22:07:45.
