data_PCOD8062185
_publ_section_title
;
Structure prediction by ZEFSAII (Michael W. Deem and Ramdas Pophale) SiO2 
 PCOD8062185
Probable space group: P 2/M
;
_chemical_formula_sum "Si O2"
_cell_formula_units_Z 30
_cell_length_a 24.327213
_cell_length_b 12.716180
_cell_length_c 24.327235
_cell_angle_alpha 90.000000
_cell_angle_beta 12.196347
_cell_angle_gamma 90.000000
_cell_volume 1589.879269
_symmetry_space_group_name_H-M "P 2/M"
_symmetry_group_IT_number 10
_symmetry_cell_setting 'monoclinic'
loop_
_space_group_symop_operation_xyz
x,y,z
-x,y,-z
-x,-y,-z
x,-y,z
loop_
_atom_site_type_symbol
_atom_site_label
_atom_site_fract_x
_atom_site_fract_y
_atom_site_fract_z
Si Si1 0.841172 0.375412 0.341118
Si Si2 0.309495 0.692412 0.809451
Si Si3 0.094889 0.675816 0.594920
Si Si4 0.467843 0.822836 0.967820
Si Si5 0.268560 0.500000 0.768557
Si Si6 0.064929 0.115661 0.564951
Si Si7 0.562076 0.384857 0.062114
Si Si8 0.268145 0.121730 0.768139
O O1 0.834953 0.500000 0.334894
O O2 0.578979 0.320140 0.577740
O O3 0.873319 0.351948 0.373291
O O4 0.077815 0.320141 0.078911
O O5 0.286109 0.604875 0.786091
O O6 0.295691 0.807509 0.795676
O O7 0.090151 0.801868 0.590169
O O8 0.829973 0.626093 0.832609
O O9 0.332569 0.626089 0.330012
O O10 0.463035 0.697287 0.962996
O O11 0.202998 0.873049 0.205625
O O12 0.500000 0.847727 0.000000
O O13 0.705647 0.873051 0.702977
O O14 0.500000 0.500000 0.500000
O O15 0.000000 0.500000 0.000000
O O16 0.078532 0.000000 0.578554
O O17 0.548333 0.500000 0.048355
O O18 0.500000 0.149274 0.500000
O O19 0.277604 0.000000 0.777593
O O20 0.000000 0.149271 0.000000
#
# Coordination Sequence:
#
# PCOD8062185 Si02
#       8
#     4   4   4   4   2   4   4   4
#     4  12  22  38  57  83 118 147 180 230 283 333
#     4  12  23  38  56  89 117 145 187 230 277 332
#     4  10  22  37  57  80 104 148 189 229 273 328
#     4  10  21  34  53  83 113 142 180 225 283 341
#     4  12  22  36  56  80 118 152 178 216 273 332
#     4  10  21  38  57  79 109 142 187 234 274 332
#     4  10  19  35  55  79 107 142 190 228 269 333
#     4  10  21  40  63  83 109 150 191 226 266 319
#
# _framework density 18.869356
#
# number of rings (size 3 to 8) (size 9 to 14) (size 15 to 20)
#    0.000    1.333    1.333    5.200    0.000    1.867 
#    0.000    1.333    0.000    4.800    0.000    0.000 
#    0.000    0.000    0.000    0.000    0.000    0.000 
#
# Total GULP energy -372108.990821 kJ/mol
# GULP energy per Si atom -12403.633027 kJ/mol
# Density = 1.882641 g / cm^3
# Si number density = 18.869356 Si / 1000 Ang^3
#
#
#
# Elastic Constant Matrix: (Units=GPa)
#
#
# Indices 1 2 3 4 5 6 
#
# 1 39.0369 7.4616 14.1639 0.0000 -2.0864 0.0000
# 2 7.4616 127.7039 16.2999 0.0000 -0.7773 0.0000
# 3 14.1639 16.2999 150.5764 0.0000 -7.7414 0.0000
# 4 0.0000 0.0000 0.0000 -8.0243 0.0000 2.1600
# 5 -2.0864 -0.7773 -7.7414 0.0000 24.7741 0.0000
# 6 0.0000 0.0000 0.0000 2.1600 0.0000 16.4615
#
#
#
# Elastic Compliance Matrix: (Units=1/GPa)
#
#
# Indices 1 2 3 4 5 6 
#
# 1 0.026774 -0.001261 -0.002305 0.000000 0.001495 0.000000
# 2 -0.001261 0.008000 -0.000752 0.000000 -0.000090 0.000000
# 3 -0.002305 -0.000752 0.007041 0.000000 0.001983 0.000000
# 4 0.000000 0.000000 0.000000 -0.120370 0.000000 0.015794
# 5 0.001495 -0.000090 0.001983 0.000000 0.041107 0.000000
# 6 0.000000 0.000000 0.000000 0.015794 0.000000 0.058675
#
#
# Mechanical properties :
#
#
# Convention : Reuss Voigt Hill
#
# Bulk Modulus (GPa) = 30.13970 43.68532 36.91251
# Shear Modulus (GPa) = 122.17872 25.26838 73.72355
#
# Velocity S-wave (km/s) = 8.05546 3.66337 6.25742
# Velocity P-wave (km/s) = 10.12561 6.41057 8.47418
#
# Compressibility (1/GPa) = 0.03317883
#
# Stress axis : x y z
#
# Youngs Moduli (GPa) = 37.34949 125.00423 142.01912
#
# Poissons Ratio (x) = 0.15764 0.32737
# Poissons Ratio (y) = 0.04710 0.10680
# Poissons Ratio (z) = 0.08610 0.09400
#
# Static dielectric constant tensor:
#      x y z
#    x 3.273710 0.000000 -0.045700 
#    y 0.000000 3.652450 0.000000 
#    z -0.045700 0.000000 3.792210 
# 
# 
# High freq. dielectric constant tensor:
#      x y z
#    x 1.717790 0.000000 -0.003950 
#    y 0.000000 1.744300 0.000000 
#    z -0.003950 0.000000 1.762610 
# 
# From -- ./inp_files/94084.got.cif
#   From: 2010.06.25/outbox.cif.g09.slc.cpg/sg10_48_cif.got.tgz:94084.got - 2010.06.27 22:07:45.
