data_PCOD8062127
_publ_section_title
;
Structure prediction by ZEFSAII (Michael W. Deem and Ramdas Pophale) SiO2 
 PCOD8062127
Probable space group: P 2/M
;
_chemical_formula_sum "Si O2"
_cell_formula_units_Z 24
_cell_length_a 12.276960
_cell_length_b 14.266452
_cell_length_c 10.273404
_cell_angle_alpha 90.000000
_cell_angle_beta 37.414714
_cell_angle_gamma 90.000000
_cell_volume 1093.262714
_symmetry_space_group_name_H-M "P 2/M"
_symmetry_group_IT_number 10
_symmetry_cell_setting 'monoclinic'
loop_
_space_group_symop_operation_xyz
x,y,z
-x,y,-z
-x,-y,-z
x,-y,z
loop_
_atom_site_type_symbol
_atom_site_label
_atom_site_fract_x
_atom_site_fract_y
_atom_site_fract_z
Si Si1 0.041271 0.103415 0.101337
Si Si2 0.459061 0.101576 0.688692
Si Si3 0.030321 0.752210 0.327007
Si Si4 0.400860 0.286919 0.858425
Si Si5 0.206764 0.393038 0.813592
Si Si6 0.263150 0.606302 0.463372
O O1 0.250812 0.094373 0.916193
O O2 0.950300 0.000000 0.198487
O O3 0.000000 0.148762 0.000000
O O4 0.963120 0.169744 0.288063
O O5 0.500000 0.121553 0.500000
O O6 0.517064 0.191450 0.718864
O O7 0.545566 0.000000 0.647117
O O8 0.912883 0.659288 0.418948
O O9 0.000000 0.792672 0.500000
O O10 0.241389 0.727719 0.113110
O O11 0.308209 0.323385 0.813872
O O12 0.550058 0.356550 0.775943
O O13 0.222419 0.500000 0.851145
O O14 0.293713 0.384363 0.589124
O O15 0.000000 0.362774 0.000000
O O16 0.233449 0.500000 0.447998
#
# Coordination Sequence:
#
# PCOD8062127 Si02
#       6
#     4   4   4   4   4   4
#     4   9  20  38  66  98 123 158 209 257 310 377
#     4   9  18  31  52  88 127 154 188 246 311 370
#     4  11  26  43  62  90 130 172 210 260 322 377
#     4  11  22  37  63  87 124 166 209 261 317 375
#     4  10  19  34  59  92 122 154 200 261 326 375
#     4  11  24  40  63  92 122 165 220 265 317 380
#
# _framework density 21.952635999999998
#
# number of rings (size 3 to 8) (size 9 to 14) (size 15 to 20)
#    0.000    1.833    1.667    2.000    7.000    3.333 
#    0.000    0.833    0.000    0.000    0.000    5.833 
#    0.000    0.000    0.000    0.000    0.000    0.000 
#
# Total GULP energy -297505.668417 kJ/mol
# GULP energy per Si atom -12396.069517 kJ/mol
# Density = 2.190267 g / cm^3
# Si number density = 21.952636 Si / 1000 Ang^3
#
#
#
# Elastic Constant Matrix: (Units=GPa)
#
#
# Indices 1 2 3 4 5 6 
#
# 1 39.3178 40.5891 37.1708 0.0000 2.7777 0.0000
# 2 40.5891 137.6946 58.6868 0.0000 6.9041 0.0000
# 3 37.1708 58.6868 116.3027 0.0000 3.0294 0.0000
# 4 0.0000 0.0000 0.0000 16.0015 0.0000 -7.4188
# 5 2.7777 6.9041 3.0294 0.0000 39.1363 0.0000
# 6 0.0000 0.0000 0.0000 -7.4188 0.0000 20.7531
#
#
#
# Elastic Compliance Matrix: (Units=1/GPa)
#
#
# Indices 1 2 3 4 5 6 
#
# 1 0.043452 -0.008737 -0.009457 0.000000 -0.000811 0.000000
# 2 -0.008737 0.011073 -0.002766 0.000000 -0.001119 0.000000
# 3 -0.009457 -0.002766 0.013013 0.000000 0.000152 0.000000
# 4 0.000000 0.000000 0.000000 0.074910 0.000000 0.026779
# 5 -0.000811 -0.001119 0.000152 0.000000 0.025795 0.000000
# 6 0.000000 0.000000 0.000000 0.026779 0.000000 0.057759
#
#
# Mechanical properties :
#
#
# Convention : Reuss Voigt Hill
#
# Bulk Modulus (GPa) = 39.03753 62.91206 50.97480
# Shear Modulus (GPa) = 18.08580 25.63607 21.86094
#
# Velocity S-wave (km/s) = 2.87340 3.42100 3.15909
# Velocity P-wave (km/s) = 5.36934 6.65768 6.04791
#
# Compressibility (1/GPa) = 0.02561637
#
# Stress axis : x y z
#
# Youngs Moduli (GPa) = 23.01413 90.31084 76.84848
#
# Poissons Ratio (x) = 0.78904 0.72679
# Poissons Ratio (y) = 0.20107 0.21255
# Poissons Ratio (z) = 0.21766 0.24979
#
# Static dielectric constant tensor:
#      x y z
#    x 3.627000 0.000000 -0.368770 
#    y 0.000000 4.875940 0.000000 
#    z -0.368770 0.000000 4.275450 
# 
# 
# High freq. dielectric constant tensor:
#      x y z
#    x 1.826810 0.000000 -0.027300 
#    y 0.000000 1.879900 0.000000 
#    z -0.027300 0.000000 1.857080 
# 
# From -- ./inp_files/29310.got.cif
#   From: 2010.06.25/outbox.cif.g09.slc.cpg/sg10_15_cif.got.tgz:29310.got - 2010.06.27 22:07:45.
