data_PCOD8062089
_publ_section_title
;
Structure prediction by ZEFSAII (Michael W. Deem and Ramdas Pophale) SiO2 
 PCOD8062089
Probable space group: P 2/M
;
_chemical_formula_sum "Si O2"
_cell_formula_units_Z 32
_cell_length_a 12.228511
_cell_length_b 8.931775
_cell_length_c 19.038717
_cell_angle_alpha 90.000000
_cell_angle_beta 53.063131
_cell_angle_gamma 90.000000
_cell_volume 1662.102600
_symmetry_space_group_name_H-M "P 2/M"
_symmetry_group_IT_number 10
_symmetry_cell_setting 'monoclinic'
loop_
_space_group_symop_operation_xyz
x,y,z
-x,y,-z
-x,-y,-z
x,-y,z
loop_
_atom_site_type_symbol
_atom_site_label
_atom_site_fract_x
_atom_site_fract_y
_atom_site_fract_z
Si Si1 0.165648 0.675926 0.234715
Si Si2 0.777729 0.173023 0.182050
Si Si3 0.303677 0.677191 0.528315
Si Si4 0.468493 0.323225 0.088906
Si Si5 0.068002 0.173861 0.136498
Si Si6 0.405546 0.323232 0.637638
Si Si7 0.971388 0.323790 0.434131
Si Si8 0.255473 0.676553 0.950351
O O1 0.154217 0.500000 0.221446
O O2 0.322569 0.732853 0.174345
O O3 0.080116 0.768411 0.210987
O O4 0.101613 0.712459 0.335218
O O5 0.649630 0.244306 0.271524
O O6 0.799716 0.247145 0.098170
O O7 0.912940 0.202854 0.174381
O O8 0.748106 0.000000 0.181534
O O9 0.292293 0.500000 0.537366
O O10 0.434998 0.721312 0.430879
O O11 0.323818 0.735845 0.600342
O O12 0.166906 0.746790 0.546306
O O13 0.465218 0.500000 0.082186
O O14 0.586658 0.276020 0.097790
O O15 0.500000 0.252394 0.000000
O O16 0.107686 0.000000 0.115256
O O17 0.168545 0.270204 0.049989
O O18 0.388051 0.500000 0.653375
O O19 0.948251 0.500000 0.450632
O O20 0.000000 0.253487 0.500000
O O21 0.238751 0.500000 0.949413
#
# Coordination Sequence:
#
# PCOD8062089 Si02
#       8
#     4   4   4   4   4   4   4   4
#     4  10  19  34  59  84 108 144 185 225 270 326
#     4  11  24  38  51  76 115 147 178 225 276 325
#     4   8  15  29  50  77 106 132 172 228 271 310
#     4   9  17  33  55  82 111 134 172 228 271 310
#     4  11  23  38  55  77 110 146 180 225 276 321
#     4   9  17  32  55  78 101 136 179 224 271 320
#     4   9  17  28  47  79 112 138 170 218 274 324
#     4  11  22  37  59  82 107 143 183 224 271 326
#
# _framework density 19.252721999999999
#
# number of rings (size 3 to 8) (size 9 to 14) (size 15 to 20)
#    0.000    2.250    1.250    3.000    0.000    5.500 
#    0.000    6.875    0.000    1.125    0.000    0.000 
#    0.000    0.000    0.000    0.000    0.000    0.000 
#
# Total GULP energy -396804.106510 kJ/mol
# GULP energy per Si atom -12400.128328 kJ/mol
# Density = 1.920890 g / cm^3
# Si number density = 19.252722 Si / 1000 Ang^3
#
#
#
# Elastic Constant Matrix: (Units=GPa)
#
#
# Indices 1 2 3 4 5 6 
#
# 1 60.1554 29.3453 46.6752 0.0000 -3.5277 0.0000
# 2 29.3453 49.3683 24.4658 0.0000 -1.9579 0.0000
# 3 46.6752 24.4658 118.2895 0.0000 -2.7775 0.0000
# 4 0.0000 0.0000 0.0000 6.9098 0.0000 -0.5918
# 5 -3.5277 -1.9579 -2.7775 0.0000 32.6929 0.0000
# 6 0.0000 0.0000 0.0000 -0.5918 0.0000 13.8357
#
#
#
# Elastic Compliance Matrix: (Units=1/GPa)
#
#
# Indices 1 2 3 4 5 6 
#
# 1 0.030409 -0.013461 -0.009175 0.000000 0.001696 0.000000
# 2 -0.013461 0.028558 -0.000590 0.000000 0.000208 0.000000
# 3 -0.009175 -0.000590 0.012196 0.000000 0.000011 0.000000
# 4 0.000000 0.000000 0.000000 0.145254 0.000000 0.006213
# 5 0.001696 0.000208 0.000011 0.000000 0.030784 0.000000
# 6 0.000000 0.000000 0.000000 0.006213 0.000000 0.072542
#
#
# Mechanical properties :
#
#
# Convention : Reuss Voigt Hill
#
# Bulk Modulus (GPa) = 40.46828 47.64285 44.05557
# Shear Modulus (GPa) = 13.35355 19.17616 16.26485
#
# Velocity S-wave (km/s) = 2.63647 3.15941 2.90971
# Velocity P-wave (km/s) = 5.50755 6.17324 5.84987
#
# Compressibility (1/GPa) = 0.02471071
#
# Stress axis : x y z
#
# Youngs Moduli (GPa) = 32.88549 35.01621 81.99156
#
# Poissons Ratio (x) = 0.47136 0.75225
# Poissons Ratio (y) = 0.44268 0.04839
# Poissons Ratio (z) = 0.30172 0.02067
#
# Static dielectric constant tensor:
#      x y z
#    x 3.832720 0.000000 -0.106360 
#    y 0.000000 3.119160 0.000000 
#    z -0.106360 0.000000 3.574220 
# 
# 
# High freq. dielectric constant tensor:
#      x y z
#    x 1.755940 0.000000 -0.005240 
#    y 0.000000 1.705820 0.000000 
#    z -0.005240 0.000000 1.758260 
# 
# From -- ./inp_files/83562.got.cif
#   From: 2010.06.25/outbox.cif.g09.slc.cpg/sg10_42_cif.got.tgz:83562.got - 2010.06.27 22:07:45.
