data_PCOD8062398
_publ_section_title
;
Structure prediction by ZEFSAII (Michael W. Deem and Ramdas Pophale) SiO2 
 PCOD8062398
Probable space group: P 2/M
;
_chemical_formula_sum "Si O2"
_cell_formula_units_Z 32
_cell_length_a 14.774259
_cell_length_b 8.835496
_cell_length_c 11.959535
_cell_angle_alpha 90.000000
_cell_angle_beta 94.005303
_cell_angle_gamma 90.000000
_cell_volume 1557.359635
_symmetry_space_group_name_H-M "P 2/M"
_symmetry_group_IT_number 10
_symmetry_cell_setting 'monoclinic'
loop_
_space_group_symop_operation_xyz
x,y,z
-x,y,-z
-x,-y,-z
x,-y,z
loop_
_atom_site_type_symbol
_atom_site_label
_atom_site_fract_x
_atom_site_fract_y
_atom_site_fract_z
Si Si1 0.501524 0.821456 0.372327
Si Si2 0.336932 0.321132 0.223959
Si Si3 0.173702 0.671947 0.574200
Si Si4 0.339043 0.673381 0.746219
Si Si5 0.186248 0.176760 0.352343
Si Si6 0.977449 0.176097 0.310027
Si Si7 0.718680 0.321293 0.020558
Si Si8 0.079307 0.324024 0.919482
O O1 0.500000 0.760300 0.500000
O O2 0.418564 0.754612 0.296296
O O3 0.594173 0.774685 0.320839
O O4 0.491954 0.000000 0.370893
O O5 0.347221 0.500000 0.233795
O O6 0.241697 0.271074 0.266860
O O7 0.335984 0.266930 0.094050
O O8 0.164491 0.500000 0.531843
O O9 0.238656 0.684163 0.686785
O O10 0.216441 0.771778 0.478531
O O11 0.074920 0.734359 0.597557
O O12 0.374300 0.500000 0.748085
O O13 0.331369 0.740007 0.871815
O O14 0.082221 0.220826 0.324789
O O15 0.206447 0.000000 0.339052
O O16 0.938422 0.219282 0.187277
O O17 0.962357 0.000000 0.331504
O O18 0.716887 0.500000 0.028605
O O19 0.824114 0.271408 0.021164
O O20 0.080883 0.500000 0.882919
O O21 0.000000 0.291907 0.000000
#
# Coordination Sequence:
#
# PCOD8062398 Si02
#       8
#     4   4   4   4   4   4   4   4
#     4  11  25  44  65  91 125 161 197 246 309 372
#     4  11  23  41  67  93 119 157 205 251 303 364
#     4  11  22  38  63  90 119 158 210 261 303 361
#     4  10  21  40  65  91 122 157 200 255 308 363
#     4  11  24  40  57  84 127 166 201 253 313 366
#     4  11  23  37  55  84 124 166 204 249 311 371
#     4   9  19  38  61  90 124 157 199 255 310 354
#     4  10  19  35  60  86 118 162 212 261 302 354
#
# _framework density 20.547598000000001
#
# number of rings (size 3 to 8) (size 9 to 14) (size 15 to 20)
#    0.000    1.500    1.250    3.750    0.000    9.250 
#    0.000    5.000    0.000    0.000    0.000    0.000 
#    0.000    0.000    0.000    0.000    0.000    0.000 
#
# Total GULP energy -396903.883238 kJ/mol
# GULP energy per Si atom -12403.246351 kJ/mol
# Density = 2.050083 g / cm^3
# Si number density = 20.547598 Si / 1000 Ang^3
#
#
#
# Elastic Constant Matrix: (Units=GPa)
#
#
# Indices 1 2 3 4 5 6 
#
# 1 106.4995 39.2431 53.0687 0.0000 -5.3695 0.0000
# 2 39.2431 49.5013 31.3984 0.0000 4.6242 0.0000
# 3 53.0687 31.3984 144.7574 0.0000 -1.5845 0.0000
# 4 0.0000 0.0000 0.0000 20.2276 0.0000 -1.2711
# 5 -5.3695 4.6242 -1.5845 0.0000 35.8674 0.0000
# 6 0.0000 0.0000 0.0000 -1.2711 0.0000 31.0999
#
#
#
# Elastic Compliance Matrix: (Units=1/GPa)
#
#
# Indices 1 2 3 4 5 6 
#
# 1 0.014879 -0.010059 -0.003236 0.000000 0.003381 0.000000
# 2 -0.010059 0.030609 -0.003013 0.000000 -0.005585 0.000000
# 3 -0.003236 -0.003013 0.008751 0.000000 0.000291 0.000000
# 4 0.000000 0.000000 0.000000 0.049565 0.000000 0.002026
# 5 0.003381 -0.005585 0.000291 0.000000 0.029120 0.000000
# 6 0.000000 0.000000 0.000000 0.002026 0.000000 0.032237
#
#
# Mechanical properties :
#
#
# Convention : Reuss Voigt Hill
#
# Bulk Modulus (GPa) = 46.24556 60.90876 53.57716
# Shear Modulus (GPa) = 24.39219 29.24218 26.81718
#
# Velocity S-wave (km/s) = 3.44918 3.77655 3.61657
# Velocity P-wave (km/s) = 6.19821 6.98023 6.60081
#
# Compressibility (1/GPa) = 0.02162370
#
# Stress axis : x y z
#
# Youngs Moduli (GPa) = 67.20744 32.67046 114.27236
#
# Poissons Ratio (x) = 0.32864 0.36978
# Poissons Ratio (y) = 0.67605 0.34425
# Poissons Ratio (z) = 0.21748 0.09842
#
# Static dielectric constant tensor:
#      x y z
#    x 3.772360 0.000000 -0.059560 
#    y 0.000000 3.607840 0.000000 
#    z -0.059560 0.000000 4.071850 
# 
# 
# High freq. dielectric constant tensor:
#      x y z
#    x 1.807720 0.000000 -0.002240 
#    y 0.000000 1.790150 0.000000 
#    z -0.002240 0.000000 1.818670 
# 
# From -- ./inp_files/49940.got.cif
#   From: 2010.06.25/outbox.cif.g09.slc.cpg/sg10_25_cif.got.tgz:49940.got - 2010.06.27 22:07:45.
