data_PCOD8062275
_publ_section_title
;
Structure prediction by ZEFSAII (Michael W. Deem and Ramdas Pophale) SiO2 
 PCOD8062275
Probable space group: P 2/M
;
_chemical_formula_sum "Si O2"
_cell_formula_units_Z 28
_cell_length_a 12.590968
_cell_length_b 8.748193
_cell_length_c 14.481512
_cell_angle_alpha 90.000000
_cell_angle_beta 118.919770
_cell_angle_gamma 90.000000
_cell_volume 1396.198543
_symmetry_space_group_name_H-M "P 2/M"
_symmetry_group_IT_number 10
_symmetry_cell_setting 'monoclinic'
loop_
_space_group_symop_operation_xyz
x,y,z
-x,y,-z
-x,-y,-z
x,-y,z
loop_
_atom_site_type_symbol
_atom_site_label
_atom_site_fract_x
_atom_site_fract_y
_atom_site_fract_z
Si Si1 0.544354 0.681727 0.290445
Si Si2 0.303752 0.678510 0.282907
Si Si3 0.600591 0.179360 0.116020
Si Si4 0.268838 0.321841 0.475176
Si Si5 0.957900 0.682118 0.883224
Si Si6 0.014876 0.825477 0.398915
Si Si7 0.852141 0.679228 0.188895
O O1 0.542124 0.500000 0.287770
O O2 0.413680 0.747931 0.268236
O O3 0.576594 0.741217 0.203412
O O4 0.644151 0.737297 0.406673
O O5 0.296894 0.500000 0.259711
O O6 0.332115 0.707637 0.402793
O O7 0.174601 0.751040 0.197618
O O8 0.726648 0.232291 0.125086
O O9 0.601308 0.000000 0.133557
O O10 0.500000 0.229510 0.000000
O O11 0.235998 0.500000 0.473244
O O12 0.147100 0.225002 0.423221
O O13 0.953015 0.500000 0.878789
O O14 0.056637 0.739973 0.851307
O O15 0.000000 0.744243 0.000000
O O16 0.000000 0.802872 0.500000
O O17 0.912166 0.718017 0.312036
O O18 0.993398 0.000000 0.359365
O O19 0.826351 0.500000 0.170674
#
# Coordination Sequence:
#
# PCOD8062275 Si02
#       7
#     4   4   4   4   4   4   4
#     4  10  21  36  62  92 118 154 201 250 293 347
#     4   9  17  33  57  88 124 154 187 241 303 352
#     4  11  26  45  61  81 119 163 199 241 296 353
#     4  10  19  35  57  88 122 153 195 243 297 350
#     4   9  18  32  56  91 121 147 184 241 304 352
#     4  11  23  37  56  83 119 162 199 237 292 353
#     4  11  22  39  65  92 117 149 196 250 296 345
#
# _framework density 20.054454
#
# number of rings (size 3 to 8) (size 9 to 14) (size 15 to 20)
#    0.000    1.857    1.429    2.571    2.000    6.857 
#    0.000    0.714    0.000    3.429    0.000    0.000 
#    0.000    0.000    0.000    0.000    0.000    0.000 
#
# Total GULP energy -347244.133867 kJ/mol
# GULP energy per Si atom -12401.576210 kJ/mol
# Density = 2.000881 g / cm^3
# Si number density = 20.054454 Si / 1000 Ang^3
#
#
#
# Elastic Constant Matrix: (Units=GPa)
#
#
# Indices 1 2 3 4 5 6 
#
# 1 107.3162 9.4792 44.8741 0.0000 19.4615 0.0000
# 2 9.4792 5.0623 17.6602 0.0000 -0.9212 0.0000
# 3 44.8741 17.6602 140.3820 0.0000 15.2453 0.0000
# 4 0.0000 0.0000 0.0000 18.7217 0.0000 10.3242
# 5 19.4615 -0.9212 15.2453 0.0000 34.4203 0.0000
# 6 0.0000 0.0000 0.0000 10.3242 0.0000 6.9405
#
#
#
# Elastic Compliance Matrix: (Units=1/GPa)
#
#
# Indices 1 2 3 4 5 6 
#
# 1 0.013079 -0.025699 -0.000074 0.000000 -0.008050 0.000000
# 2 -0.025699 0.435914 -0.051968 0.000000 0.049215 0.000000
# 3 -0.000074 -0.051968 0.014530 0.000000 -0.007785 0.000000
# 4 0.000000 0.000000 0.000000 0.297270 0.000000 -0.442201
# 5 -0.008050 0.049215 -0.007785 0.000000 0.038370 0.000000
# 6 0.000000 0.000000 0.000000 -0.442201 0.000000 0.801876
#
#
# Mechanical properties :
#
#
# Convention : Reuss Voigt Hill
#
# Bulk Modulus (GPa) = 3.24631 44.08749 23.66690
# Shear Modulus (GPa) = 2.68933 24.06627 13.37780
#
# Velocity S-wave (km/s) = 1.15928 3.46793 2.58558
# Velocity P-wave (km/s) = 1.84774 6.16984 4.55418
#
# Compressibility (1/GPa) = 0.30804215
#
# Stress axis : x y z
#
# Youngs Moduli (GPa) = 76.45935 2.29403 68.82286
#
# Poissons Ratio (x) = 0.05895 0.00507
# Poissons Ratio (y) = 1.96489 3.57661
# Poissons Ratio (z) = 0.00563 0.11922
#
# Static dielectric constant tensor:
#      x y z
#    x 4.020080 0.000000 -0.051370 
#    y 0.000000 3.323200 0.000000 
#    z -0.051370 0.000000 3.990150 
# 
# 
# High freq. dielectric constant tensor:
#      x y z
#    x 1.798470 0.000000 0.001580 
#    y 0.000000 1.746170 0.000000 
#    z 0.001580 0.000000 1.794830 
# 
# From -- ./inp_files/50042.got.cif
#   From: 2010.06.25/outbox.cif.g09.slc.cpg/sg10_26_cif.got.tgz:50042.got - 2010.06.27 22:07:45.
