data_PCOD8062789
_publ_section_title
;
Structure prediction by ZEFSAII (Michael W. Deem and Ramdas Pophale) SiO2 
 PCOD8062789
Probable space group: P 2/M
;
_chemical_formula_sum "Si O2"
_cell_formula_units_Z 32
_cell_length_a 20.351256
_cell_length_b 18.308530
_cell_length_c 8.859891
_cell_angle_alpha 90.000000
_cell_angle_beta 149.316111
_cell_angle_gamma 90.000000
_cell_volume 1684.610838
_symmetry_space_group_name_H-M "P 2/M"
_symmetry_group_IT_number 10
_symmetry_cell_setting 'monoclinic'
loop_
_space_group_symop_operation_xyz
x,y,z
-x,y,-z
-x,-y,-z
x,-y,z
loop_
_atom_site_type_symbol
_atom_site_label
_atom_site_fract_x
_atom_site_fract_y
_atom_site_fract_z
Si Si1 0.262933 0.232210 0.741248
Si Si2 0.633179 0.918888 0.568963
Si Si3 0.633872 0.797575 0.354989
Si Si4 0.483740 0.297910 0.636497
Si Si5 0.046650 0.583863 0.935890
Si Si6 0.885013 0.655076 0.378737
Si Si7 0.331831 0.916340 0.025673
Si Si8 0.283075 0.412850 0.205484
O O1 0.258225 0.230753 0.549294
O O2 0.142629 0.272501 0.577464
O O3 0.380992 0.286704 0.015099
O O4 0.264047 0.147848 0.797317
O O5 0.684082 0.872346 0.528499
O O6 0.481660 0.907046 0.289246
O O7 0.699809 0.901118 0.861006
O O8 0.667139 0.000000 0.587550
O O9 0.622723 0.745415 0.477970
O O10 0.500000 0.808834 0.000000
O O11 0.500000 0.265345 0.500000
O O12 0.426940 0.380875 0.519799
O O13 0.067520 0.500000 0.012617
O O14 0.935795 0.592378 0.591333
O O15 0.184253 0.612195 0.142907
O O16 0.000000 0.622871 0.000000
O O17 0.000000 0.680907 0.500000
O O18 0.764853 0.622461 0.047604
O O19 0.288550 0.000000 0.896976
O O20 0.291858 0.500000 0.207699
#
# Coordination Sequence:
#
# PCOD8062789 Si02
#       8
#     4   4   4   4   4   4   4   4
#     4  11  21  34  51  78 111 139 172 216 266 309
#     4   9  16  27  44  70 103 139 176 209 245 306
#     4  10  20  29  45  71 106 143 170 206 258 309
#     4  11  20  34  51  75 107 144 171 208 259 320
#     4   9  19  37  58  78 103 134 170 219 271 310
#     4  10  21  37  57  79 100 133 177 225 258 308
#     4   9  17  29  48  71 102 141 178 209 249 307
#     4  10  21  36  56  79 102 136 178 219 256 314
#
# _framework density 18.995486
#
# number of rings (size 3 to 8) (size 9 to 14) (size 15 to 20)
#    0.000    2.125    3.750    1.875    1.750    2.500 
#    0.000    0.000    0.000    3.750    0.000    0.000 
#    0.000    2.500    0.000    0.000    0.000    0.000 
#
# Total GULP energy -396423.602472 kJ/mol
# GULP energy per Si atom -12388.237577 kJ/mol
# Density = 1.895225 g / cm^3
# Si number density = 18.995486 Si / 1000 Ang^3
#
#
#
# Elastic Constant Matrix: (Units=GPa)
#
#
# Indices 1 2 3 4 5 6 
#
# 1 139.8627 54.5554 23.4622 0.0000 -28.3624 0.0000
# 2 54.5554 90.4190 19.3721 0.0000 -5.0768 0.0000
# 3 23.4622 19.3721 28.5202 0.0000 -2.7380 0.0000
# 4 0.0000 0.0000 0.0000 13.1516 0.0000 -4.3461
# 5 -28.3624 -5.0768 -2.7380 0.0000 19.9770 0.0000
# 6 0.0000 0.0000 0.0000 -4.3461 0.0000 28.8683
#
#
#
# Elastic Compliance Matrix: (Units=1/GPa)
#
#
# Indices 1 2 3 4 5 6 
#
# 1 0.014165 -0.006342 -0.005643 0.000000 0.017726 0.000000
# 2 -0.006342 0.015872 -0.006121 0.000000 -0.005810 0.000000
# 3 -0.005643 -0.006121 0.043517 0.000000 -0.003603 0.000000
# 4 0.000000 0.000000 0.000000 0.080017 0.000000 0.012047
# 5 0.017726 -0.005810 -0.003603 0.000000 0.073253 0.000000
# 6 0.000000 0.000000 0.000000 0.012047 0.000000 0.036454
#
#
# Mechanical properties :
#
#
# Convention : Reuss Voigt Hill
#
# Bulk Modulus (GPa) = 26.78046 50.39793 38.58919
# Shear Modulus (GPa) = 16.02887 23.16018 19.59453
#
# Velocity S-wave (km/s) = 2.90802 3.49556 3.21524
# Velocity P-wave (km/s) = 5.04027 6.54836 5.84318
#
# Compressibility (1/GPa) = 0.03734066
#
# Stress axis : x y z
#
# Youngs Moduli (GPa) = 70.59690 63.00602 22.97962
#
# Poissons Ratio (x) = 0.39960 0.12968
# Poissons Ratio (y) = 0.44775 0.14066
# Poissons Ratio (z) = 0.39839 0.38565
#
# Static dielectric constant tensor:
#      x y z
#    x 3.978460 0.000000 -0.271780 
#    y 0.000000 3.542720 0.000000 
#    z -0.271780 0.000000 3.071660 
# 
# 
# High freq. dielectric constant tensor:
#      x y z
#    x 1.751210 0.000000 -0.023610 
#    y 0.000000 1.734540 0.000000 
#    z -0.023610 0.000000 1.683960 
# 
# From -- ./inp_files/35443.got.cif
#   From: 2010.06.25/outbox.cif.g09.slc.cpg/sg10_18_cif.got.tgz:35443.got - 2010.06.27 22:07:45.
