data_PCOD8062584
_publ_section_title
;
Structure prediction by ZEFSAII (Michael W. Deem and Ramdas Pophale) SiO2 
 PCOD8062584
Probable space group: P 2/M
;
_chemical_formula_sum "Si O2"
_cell_formula_units_Z 28
_cell_length_a 21.164738
_cell_length_b 9.135782
_cell_length_c 9.708898
_cell_angle_alpha 90.000000
_cell_angle_beta 127.004169
_cell_angle_gamma 90.000000
_cell_volume 1499.178568
_symmetry_space_group_name_H-M "P 2/M"
_symmetry_group_IT_number 10
_symmetry_cell_setting 'monoclinic'
loop_
_space_group_symop_operation_xyz
x,y,z
-x,y,-z
-x,-y,-z
x,-y,z
loop_
_atom_site_type_symbol
_atom_site_label
_atom_site_fract_x
_atom_site_fract_y
_atom_site_fract_z
Si Si1 0.807949 0.164593 0.549637
Si Si2 0.043237 0.338777 0.199346
Si Si3 0.047367 0.828674 0.692219
Si Si4 0.370727 0.326328 0.979080
Si Si5 0.507776 0.170115 0.669959
Si Si6 0.788740 0.835119 0.209679
Si Si7 0.369582 0.829363 0.696073
O O1 0.870841 0.265780 0.709331
O O2 0.825784 0.171834 0.410616
O O3 0.718720 0.220785 0.462298
O O4 0.818119 0.000000 0.619103
O O5 0.056262 0.500000 0.280239
O O6 0.984567 0.245635 0.214344
O O7 0.000000 0.351401 0.000000
O O8 0.140860 0.793952 0.802091
O O9 0.000000 0.764650 0.500000
O O10 0.031625 0.000000 0.684974
O O11 0.376397 0.500000 0.976558
O O12 0.425627 0.269394 0.173878
O O13 0.281775 0.279587 0.900630
O O14 0.398363 0.258327 0.869129
O O15 0.500000 0.215047 0.500000
O O16 0.425337 0.202475 0.639473
O O17 0.531367 0.000000 0.715055
O O18 0.756874 0.000000 0.140000
O O19 0.368998 0.000000 0.737539
#
# Coordination Sequence:
#
# PCOD8062584 Si02
#       7
#     4   4   4   4   4   4   4
#     4   9  17  34  58  81 107 139 186 237 276 320
#     4  11  24  38  51  76 117 156 187 222 273 335
#     4  10  19  36  61  85 107 138 187 239 279 319
#     4  11  22  35  56  86 118 148 182 223 271 333
#     4  10  21  39  61  83 112 147 186 230 277 326
#     4   9  18  35  59  85 111 139 181 236 281 321
#     4   9  19  37  61  85 108 141 185 234 278 322
#
# _framework density 18.676894000000001
#
# number of rings (size 3 to 8) (size 9 to 14) (size 15 to 20)
#    0.000    2.143    1.429    3.000    0.000    6.857 
#    2.571    0.000    0.000    0.000    0.000    0.000 
#    0.000    0.000    0.000    0.000    0.000    0.000 
#
# Total GULP energy -347224.110113 kJ/mol
# GULP energy per Si atom -12400.861075 kJ/mol
# Density = 1.863439 g / cm^3
# Si number density = 18.676894 Si / 1000 Ang^3
#
#
#
# Elastic Constant Matrix: (Units=GPa)
#
#
# Indices 1 2 3 4 5 6 
#
# 1 111.1743 51.7006 55.5559 0.0000 -2.7373 0.0000
# 2 51.7006 89.5645 52.9200 0.0000 5.4975 0.0000
# 3 55.5559 52.9200 94.9544 0.0000 5.3551 0.0000
# 4 0.0000 0.0000 0.0000 12.5361 0.0000 -3.0853
# 5 -2.7373 5.4975 5.3551 0.0000 23.9657 0.0000
# 6 0.0000 0.0000 0.0000 -3.0853 0.0000 3.4986
#
#
#
# Elastic Compliance Matrix: (Units=1/GPa)
#
#
# Indices 1 2 3 4 5 6 
#
# 1 0.014371 -0.005133 -0.005779 0.000000 0.004110 0.000000
# 2 -0.005133 0.018555 -0.007155 0.000000 -0.003244 0.000000
# 3 -0.005779 -0.007155 0.018073 0.000000 -0.003057 0.000000
# 4 0.000000 0.000000 0.000000 0.101881 0.000000 0.089846
# 5 0.004110 -0.003244 -0.003057 0.000000 0.043623 0.000000
# 6 0.000000 0.000000 0.000000 0.089846 0.000000 0.365063
#
#
# Mechanical properties :
#
#
# Convention : Reuss Voigt Hill
#
# Bulk Modulus (GPa) = 67.27562 68.44959 67.86261
# Shear Modulus (GPa) = 8.29662 17.03451 12.66557
#
# Velocity S-wave (km/s) = 2.10994 3.02331 2.60694
# Velocity P-wave (km/s) = 6.48342 6.99401 6.74355
#
# Compressibility (1/GPa) = 0.01486422
#
# Stress axis : x y z
#
# Youngs Moduli (GPa) = 69.58306 53.89434 55.33253
#
# Poissons Ratio (x) = 0.27666 0.31978
# Poissons Ratio (y) = 0.35719 0.39588
# Poissons Ratio (z) = 0.40214 0.38559
#
# Static dielectric constant tensor:
#      x y z
#    x 3.515490 0.000000 0.099820 
#    y 0.000000 3.381880 0.000000 
#    z 0.099820 0.000000 3.309850 
# 
# 
# High freq. dielectric constant tensor:
#      x y z
#    x 1.732580 0.000000 0.014730 
#    y 0.000000 1.715390 0.000000 
#    z 0.014730 0.000000 1.709160 
# 
# From -- ./inp_files/34270.got.cif
#   From: 2010.06.25/outbox.cif.g09.slc.cpg/sg10_18_cif.got.tgz:34270.got - 2010.06.27 22:07:45.
