data_PCOD8062444
_publ_section_title
;
Structure prediction by ZEFSAII (Michael W. Deem and Ramdas Pophale) SiO2 
 PCOD8062444
Probable space group: P 2/M
;
_chemical_formula_sum "Si O2"
_cell_formula_units_Z 24
_cell_length_a 9.797233
_cell_length_b 7.811424
_cell_length_c 20.206870
_cell_angle_alpha 90.000000
_cell_angle_beta 128.012473
_cell_angle_gamma 90.000000
_cell_volume 1218.402995
_symmetry_space_group_name_H-M "P 2/M"
_symmetry_group_IT_number 10
_symmetry_cell_setting 'monoclinic'
loop_
_space_group_symop_operation_xyz
x,y,z
-x,y,-z
-x,-y,-z
x,-y,z
loop_
_atom_site_type_symbol
_atom_site_label
_atom_site_fract_x
_atom_site_fract_y
_atom_site_fract_z
Si Si1 0.925572 0.308718 0.165225
Si Si2 0.753272 0.305129 0.829980
Si Si3 0.202704 0.000000 0.063184
Si Si4 0.473269 0.301942 0.363949
Si Si5 0.146081 0.801407 0.495323
Si Si6 0.701925 0.000000 0.058416
Si Si7 0.157630 0.802540 0.350641
O O1 0.846723 0.500000 0.135415
O O2 0.774716 0.168807 0.116669
O O3 0.058200 0.272266 0.145109
O O4 0.028673 0.301689 0.265050
O O5 0.739203 0.500000 0.852714
O O6 0.607436 0.268801 0.731997
O O7 0.724583 0.171278 0.880216
O O8 0.000000 0.000000 0.000000
O O9 0.263487 0.000000 0.007707
O O10 0.481591 0.500000 0.384054
O O11 0.664289 0.224595 0.417927
O O12 0.356498 0.214003 0.385715
O O13 0.138431 0.723915 0.418758
O O14 0.000000 0.716903 0.500000
O O15 0.105563 0.000000 0.477086
O O16 0.500000 0.000000 0.000000
O O17 0.103601 0.000000 0.332119
#
# Coordination Sequence:
#
# PCOD8062444 Si02
#       7
#     4   4   2   4   4   2   4
#     4  10  20  39  65  90 121 157 197 248 297 353
#     4   9  20  37  61  95 121 146 197 252 295 346
#     4  12  22  38  68  91 112 159 193 240 305 354
#     4  10  21  36  57  86 119 154 196 245 290 345
#     4  10  22  38  55  84 120 160 199 241 292 347
#     4  12  26  44  60  91 124 157 199 240 301 366
#     4  10  19  35  62  88 115 154 202 246 290 345
#
# _framework density 19.697915999999999
#
# number of rings (size 3 to 8) (size 9 to 14) (size 15 to 20)
#    0.000    1.833    2.500    2.500    4.667    5.000 
#    3.000    0.000    0.000    0.000    0.000    0.000 
#    0.000    0.000    0.000    0.000    0.000    0.000 
#
# Total GULP energy -297599.315856 kJ/mol
# GULP energy per Si atom -12399.971494 kJ/mol
# Density = 1.965308 g / cm^3
# Si number density = 19.697916 Si / 1000 Ang^3
#
#
#
# Elastic Constant Matrix: (Units=GPa)
#
#
# Indices 1 2 3 4 5 6 
#
# 1 113.8321 30.7164 66.7914 0.0000 8.9142 0.0000
# 2 30.7164 94.9311 40.9630 0.0000 0.2959 0.0000
# 3 66.7914 40.9630 96.2186 0.0000 5.4826 0.0000
# 4 0.0000 0.0000 0.0000 18.2234 0.0000 0.9363
# 5 8.9142 0.2959 5.4826 0.0000 31.8464 0.0000
# 6 0.0000 0.0000 0.0000 0.9363 0.0000 4.2396
#
#
#
# Elastic Compliance Matrix: (Units=1/GPa)
#
#
# Indices 1 2 3 4 5 6 
#
# 1 0.015026 -0.000507 -0.010074 0.000000 -0.002467 0.000000
# 2 -0.000507 0.012944 -0.005211 0.000000 0.000919 0.000000
# 3 -0.010074 -0.005211 0.019633 0.000000 -0.000512 0.000000
# 4 0.000000 0.000000 0.000000 0.055504 0.000000 -0.012258
# 5 -0.002467 0.000919 -0.000512 0.000000 0.032171 0.000000
# 6 0.000000 0.000000 0.000000 -0.012258 0.000000 0.238578
#
#
# Mechanical properties :
#
#
# Convention : Reuss Voigt Hill
#
# Bulk Modulus (GPa) = 62.42492 64.65815 63.54153
# Shear Modulus (GPa) = 12.17199 21.96263 17.06731
#
# Velocity S-wave (km/s) = 2.48852 3.34274 2.94675
# Velocity P-wave (km/s) = 6.32589 6.91337 6.62615
#
# Compressibility (1/GPa) = 0.01601924
#
# Stress axis : x y z
#
# Youngs Moduli (GPa) = 66.55239 77.25784 50.93368
#
# Poissons Ratio (x) = 0.03919 0.51310
# Poissons Ratio (y) = 0.03376 0.26540
# Poissons Ratio (z) = 0.67044 0.40257
#
# Static dielectric constant tensor:
#      x y z
#    x 3.473000 0.000000 -0.104140 
#    y 0.000000 3.689300 0.000000 
#    z -0.104140 0.000000 3.661520 
# 
# 
# High freq. dielectric constant tensor:
#      x y z
#    x 1.740600 0.000000 -0.007720 
#    y 0.000000 1.775590 0.000000 
#    z -0.007720 0.000000 1.772930 
# 
# From -- ./inp_files/80149.got.cif
#   From: 2010.06.25/outbox.cif.g09.slc.cpg/sg10_41_cif.got.tgz:80149.got - 2010.06.27 22:07:45.
