data_PCOD8062166
_publ_section_title
;
Structure prediction by ZEFSAII (Michael W. Deem and Ramdas Pophale) SiO2 
 PCOD8062166
Probable space group: P 2/M
;
_chemical_formula_sum "Si O2"
_cell_formula_units_Z 26
_cell_length_a 8.405776
_cell_length_b 9.951066
_cell_length_c 19.651693
_cell_angle_alpha 90.000000
_cell_angle_beta 55.527917
_cell_angle_gamma 90.000000
_cell_volume 1355.147172
_symmetry_space_group_name_H-M "P 2/M"
_symmetry_group_IT_number 10
_symmetry_cell_setting 'monoclinic'
loop_
_space_group_symop_operation_xyz
x,y,z
-x,y,-z
-x,-y,-z
x,-y,z
loop_
_atom_site_type_symbol
_atom_site_label
_atom_site_fract_x
_atom_site_fract_y
_atom_site_fract_z
Si Si1 0.095777 0.655249 0.046427
Si Si2 0.959368 0.344339 0.587715
Si Si3 0.446825 0.645499 0.253483
Si Si4 0.059316 0.844274 0.678269
Si Si5 0.500000 0.751508 0.000000
Si Si6 0.159551 0.348958 0.767837
Si Si7 0.375015 0.854293 0.167729
O O1 0.046258 0.500000 0.054436
O O2 0.981924 0.711507 0.139844
O O3 0.327588 0.671972 0.002111
O O4 0.000000 0.719949 0.000000
O O5 0.013573 0.500000 0.591751
O O6 0.735845 0.313039 0.656853
O O7 0.000000 0.311564 0.500000
O O8 0.082161 0.236867 0.601884
O O9 0.408777 0.500000 0.228652
O O10 0.624997 0.638065 0.259415
O O11 0.496845 0.744966 0.179509
O O12 0.181296 0.758916 0.702523
O O13 0.844690 0.836416 0.758561
O O14 0.128988 0.000000 0.653936
O O15 0.604135 0.841082 0.918216
O O16 0.089487 0.500000 0.761268
O O17 0.452669 0.000000 0.170713
#
# Coordination Sequence:
#
# PCOD8062166 Si02
#       7
#     4   4   4   4   2   4   4
#     4  10  21  34  50  78 111 143 187 241 286 330
#     4   9  18  35  59  86 110 134 172 221 271 328
#     4   9  19  35  58  81 105 139 178 221 274 327
#     4  10  20  35  54  78 108 144 181 218 266 325
#     4  12  20  34  54  74 107 148 189 232 285 334
#     4  10  19  35  54  76 107 142 181 226 272 325
#     4  10  21  35  52  75 106 142 183 228 272 324
#
# _framework density 19.186108999999998
#
# number of rings (size 3 to 8) (size 9 to 14) (size 15 to 20)
#    0.000    2.154    1.538    1.846    0.000    4.000 
#    0.000    0.769    0.000    6.923    0.000    0.000 
#    0.000    0.000    0.000    0.000    0.000    0.000 
#
# Total GULP energy -322124.385269 kJ/mol
# GULP energy per Si atom -12389.399433 kJ/mol
# Density = 1.914244 g / cm^3
# Si number density = 19.186109 Si / 1000 Ang^3
#
#
#
# Elastic Constant Matrix: (Units=GPa)
#
#
# Indices 1 2 3 4 5 6 
#
# 1 90.0547 37.9017 28.4624 0.0000 13.4746 0.0000
# 2 37.9017 115.4788 47.1151 0.0000 26.4370 0.0000
# 3 28.4624 47.1151 91.7976 0.0000 27.4417 0.0000
# 4 0.0000 0.0000 0.0000 20.5620 0.0000 15.0978
# 5 13.4746 26.4370 27.4417 0.0000 29.8525 0.0000
# 6 0.0000 0.0000 0.0000 15.0978 0.0000 62.0497
#
#
#
# Elastic Compliance Matrix: (Units=1/GPa)
#
#
# Indices 1 2 3 4 5 6 
#
# 1 0.013312 -0.003233 -0.002107 0.000000 -0.001209 0.000000
# 2 -0.003233 0.012655 -0.003556 0.000000 -0.006479 0.000000
# 3 -0.002107 -0.003556 0.016749 0.000000 -0.011296 0.000000
# 4 0.000000 0.000000 0.000000 0.059212 0.000000 -0.014407
# 5 -0.001209 -0.006479 -0.011296 0.000000 0.050165 0.000000
# 6 0.000000 0.000000 0.000000 -0.014407 0.000000 0.019622
#
#
# Mechanical properties :
#
#
# Convention : Reuss Voigt Hill
#
# Bulk Modulus (GPa) = 40.12154 58.25437 49.18795
# Shear Modulus (GPa) = 25.27641 34.74963 30.01302
#
# Velocity S-wave (km/s) = 3.63358 4.26042 3.95943
# Velocity P-wave (km/s) = 6.20976 7.39123 6.82610
#
# Compressibility (1/GPa) = 0.02492427
#
# Stress axis : x y z
#
# Youngs Moduli (GPa) = 75.12186 79.02228 59.70643
#
# Poissons Ratio (x) = 0.25546 0.12579
# Poissons Ratio (y) = 0.24285 0.21231
# Poissons Ratio (z) = 0.15826 0.28099
#
# Static dielectric constant tensor:
#      x y z
#    x 3.419790 0.000000 0.159300 
#    y 0.000000 3.706110 0.000000 
#    z 0.159300 0.000000 3.475290 
# 
# 
# High freq. dielectric constant tensor:
#      x y z
#    x 1.735810 0.000000 0.009180 
#    y 0.000000 1.736800 0.000000 
#    z 0.009180 0.000000 1.739240 
# 
# From -- ./inp_files/31588.got.cif
#   From: 2010.06.25/outbox.cif.g09.slc.cpg/sg10_16_cif.got.tgz:31588.got - 2010.06.27 22:07:45.
