data_PCOD8062035
_publ_section_title
;
Structure prediction by ZEFSAII (Michael W. Deem and Ramdas Pophale) SiO2 
 PCOD8062035
Probable space group: P 2/M
;
_chemical_formula_sum "Si O2"
_cell_formula_units_Z 32
_cell_length_a 20.182847
_cell_length_b 8.503283
_cell_length_c 12.331550
_cell_angle_alpha 90.000000
_cell_angle_beta 54.424328
_cell_angle_gamma 90.000000
_cell_volume 1721.325717
_symmetry_space_group_name_H-M "P 2/M"
_symmetry_group_IT_number 10
_symmetry_cell_setting 'monoclinic'
loop_
_space_group_symop_operation_xyz
x,y,z
-x,y,-z
-x,-y,-z
x,-y,z
loop_
_atom_site_type_symbol
_atom_site_label
_atom_site_fract_x
_atom_site_fract_y
_atom_site_fract_z
Si Si1 0.740127 0.314251 0.679140
Si Si2 0.531705 0.685509 0.356102
Si Si3 0.119737 0.314996 0.614912
Si Si4 0.969417 0.816198 0.646637
Si Si5 0.712923 0.687795 0.150132
Si Si6 0.628814 0.685301 0.600228
Si Si7 0.793884 0.685631 0.854335
Si Si8 0.233481 0.184370 0.679068
O O1 0.743601 0.500000 0.683401
O O2 0.817411 0.255129 0.536721
O O3 0.657770 0.262319 0.693528
O O4 0.745599 0.243427 0.795236
O O5 0.500000 0.757374 0.500000
O O6 0.539630 0.500000 0.360887
O O7 0.620068 0.753214 0.241267
O O8 0.466080 0.729451 0.324932
O O9 0.103932 0.500000 0.624041
O O10 0.035679 0.224195 0.675190
O O11 0.156719 0.270246 0.696301
O O12 0.000000 0.755488 0.500000
O O13 0.888116 0.727337 0.757859
O O14 0.951374 0.000000 0.661012
O O15 0.715856 0.500000 0.154367
O O16 0.764424 0.759895 0.199051
O O17 0.753011 0.754071 0.001679
O O18 0.644031 0.500000 0.568475
O O19 0.681512 0.770968 0.458482
O O20 0.784729 0.500000 0.864299
O O21 0.219276 0.000000 0.685808
#
# Coordination Sequence:
#
# PCOD8062035 Si02
#       8
#     4   4   4   4   4   4   4   4
#     4   8  15  28  49  77 104 133 171 216 262 308
#     4   9  15  27  51  78 104 136 182 231 269 307
#     4  10  19  34  58  81 106 137 177 221 264 315
#     4  11  22  35  54  83 114 141 176 219 263 314
#     4  10  20  35  54  76 105 145 186 222 268 323
#     4   9  16  30  52  76 104 140 180 220 269 320
#     4  10  20  35  54  77 107 143 184 223 263 320
#     4  11  21  33  51  78 111 139 174 222 273 321
#
# _framework density 18.590320999999999
#
# number of rings (size 3 to 8) (size 9 to 14) (size 15 to 20)
#    0.000    2.250    2.500    2.625    0.000    1.000 
#    0.000    2.500    0.000    7.500    0.000    0.000 
#    0.000    4.250    0.000    0.000    0.000    0.000 
#
# Total GULP energy -396710.678902 kJ/mol
# GULP energy per Si atom -12397.208716 kJ/mol
# Density = 1.854801 g / cm^3
# Si number density = 18.590321 Si / 1000 Ang^3
#
#
#
# Elastic Constant Matrix: (Units=GPa)
#
#
# Indices 1 2 3 4 5 6 
#
# 1 149.7292 1.6719 69.1875 0.0000 16.9973 0.0000
# 2 1.6719 24.4366 7.4743 0.0000 6.2573 0.0000
# 3 69.1875 7.4743 120.7070 0.0000 13.3509 0.0000
# 4 0.0000 0.0000 0.0000 11.2407 0.0000 3.1500
# 5 16.9973 6.2573 13.3509 0.0000 29.4925 0.0000
# 6 0.0000 0.0000 0.0000 3.1500 0.0000 11.7957
#
#
#
# Elastic Compliance Matrix: (Units=1/GPa)
#
#
# Indices 1 2 3 4 5 6 
#
# 1 0.009425 0.001819 -0.005128 0.000000 -0.003496 0.000000
# 2 0.001819 0.043979 -0.002756 0.000000 -0.009132 0.000000
# 3 -0.005128 -0.002756 0.011583 0.000000 -0.001703 0.000000
# 4 0.000000 0.000000 0.000000 0.096158 0.000000 -0.025679
# 5 -0.003496 -0.009132 -0.001703 0.000000 0.038630 0.000000
# 6 0.000000 0.000000 0.000000 -0.025679 0.000000 0.091634
#
#
# Mechanical properties :
#
#
# Convention : Reuss Voigt Hill
#
# Bulk Modulus (GPa) = 18.91904 50.17113 34.54509
# Shear Modulus (GPa) = 15.56864 24.94174 20.25519
#
# Velocity S-wave (km/s) = 2.89703 3.66683 3.30442
# Velocity P-wave (km/s) = 4.62486 6.70626 5.76035
#
# Compressibility (1/GPa) = 0.05285679
#
# Stress axis : x y z
#
# Youngs Moduli (GPa) = 106.10117 22.73816 86.33381
#
# Poissons Ratio (x) = -0.04136 0.44273
# Poissons Ratio (y) = -0.19300 0.23792
# Poissons Ratio (z) = 0.54411 0.06266
#
# Static dielectric constant tensor:
#      x y z
#    x 3.762470 0.000000 0.192880 
#    y 0.000000 3.078210 0.000000 
#    z 0.192880 0.000000 3.412190 
# 
# 
# High freq. dielectric constant tensor:
#      x y z
#    x 1.741930 0.000000 0.009460 
#    y 0.000000 1.692100 0.000000 
#    z 0.009460 0.000000 1.690760 
# 
# From -- ./inp_files/52767.got.cif
#   From: 2010.06.25/outbox.cif.g09.slc.cpg/sg10_27_cif.got.tgz:52767.got - 2010.06.27 22:07:45.
