data_PCOD8062134
_publ_section_title
;
Structure prediction by ZEFSAII (Michael W. Deem and Ramdas Pophale) SiO2 
 PCOD8062134
Probable space group: P 2/M
;
_chemical_formula_sum "Si O2"
_cell_formula_units_Z 24
_cell_length_a 14.697347
_cell_length_b 9.160942
_cell_length_c 14.972012
_cell_angle_alpha 90.000000
_cell_angle_beta 39.598013
_cell_angle_gamma 90.000000
_cell_volume 1284.900345
_symmetry_space_group_name_H-M "P 2/M"
_symmetry_group_IT_number 10
_symmetry_cell_setting 'monoclinic'
loop_
_space_group_symop_operation_xyz
x,y,z
-x,y,-z
-x,-y,-z
x,-y,z
loop_
_atom_site_type_symbol
_atom_site_label
_atom_site_fract_x
_atom_site_fract_y
_atom_site_fract_z
Si Si1 0.631436 0.330972 0.192606
Si Si2 0.349602 0.327480 0.146314
Si Si3 0.317485 0.327280 0.370735
Si Si4 0.841206 0.669813 0.872742
Si Si5 0.133377 0.172541 0.651948
Si Si6 0.345735 0.171639 0.647874
O O1 0.638083 0.500000 0.211924
O O2 0.469515 0.281474 0.296809
O O3 0.696593 0.243636 0.226364
O O4 0.722937 0.295694 0.036170
O O5 0.369679 0.500000 0.135244
O O6 0.309577 0.270258 0.274878
O O7 0.223723 0.284517 0.173759
O O8 0.500000 0.258407 0.000000
O O9 0.292676 0.500000 0.395679
O O10 0.192341 0.246168 0.517776
O O11 0.885525 0.500000 0.840398
O O12 0.976175 0.769689 0.790915
O O13 0.230283 0.219469 0.662233
O O14 0.131531 0.000000 0.640048
O O15 0.500000 0.229940 0.500000
O O16 0.348541 0.000000 0.660384
#
# Coordination Sequence:
#
# PCOD8062134 Si02
#       6
#     4   4   4   4   4   4
#     4  10  20  34  59  90 113 139 182 237 285 326
#     4   9  16  32  60  88 113 144 184 227 274 334
#     4  10  19  34  60  89 112 142 186 232 279 329
#     4  10  21  38  59  86 118 147 181 230 283 333
#     4  11  24  40  56  79 115 154 189 230 279 332
#     4  10  21  38  58  79 108 151 195 229 272 334
#
# _framework density 18.678491999999999
#
# number of rings (size 3 to 8) (size 9 to 14) (size 15 to 20)
#    0.000    2.000    3.333    0.500    0.000    3.667 
#    0.000    7.500    0.000    1.000    0.000    0.000 
#    0.000    0.000    0.000    0.000    0.000    0.000 
#
# Total GULP energy -297679.864001 kJ/mol
# GULP energy per Si atom -12403.327667 kJ/mol
# Density = 1.863598 g / cm^3
# Si number density = 18.678492 Si / 1000 Ang^3
#
#
#
# Elastic Constant Matrix: (Units=GPa)
#
#
# Indices 1 2 3 4 5 6 
#
# 1 96.6945 31.0316 24.4767 0.0000 15.1129 0.0000
# 2 31.0316 36.4696 24.1304 0.0000 3.3448 0.0000
# 3 24.4767 24.1304 59.3692 0.0000 6.5074 0.0000
# 4 0.0000 0.0000 0.0000 12.7140 0.0000 -11.1753
# 5 15.1129 3.3448 6.5074 0.0000 39.4763 0.0000
# 6 0.0000 0.0000 0.0000 -11.1753 0.0000 17.2269
#
#
#
# Elastic Compliance Matrix: (Units=1/GPa)
#
#
# Indices 1 2 3 4 5 6 
#
# 1 0.015085 -0.011807 -0.000913 0.000000 -0.004624 0.000000
# 2 -0.011807 0.046766 -0.014463 0.000000 0.002942 0.000000
# 3 -0.000913 -0.014463 0.023348 0.000000 -0.002274 0.000000
# 4 0.000000 0.000000 0.000000 0.183001 0.000000 0.118715
# 5 -0.004624 0.002942 -0.002274 0.000000 0.027227 0.000000
# 6 0.000000 0.000000 0.000000 0.118715 0.000000 0.135060
#
#
# Mechanical properties :
#
#
# Convention : Reuss Voigt Hill
#
# Bulk Modulus (GPa) = 32.43310 39.09009 35.76160
# Shear Modulus (GPa) = 10.09831 21.40974 15.75403
#
# Velocity S-wave (km/s) = 2.32769 3.38927 2.90734
# Velocity P-wave (km/s) = 4.96243 6.02407 5.51884
#
# Compressibility (1/GPa) = 0.03083269
#
# Stress axis : x y z
#
# Youngs Moduli (GPa) = 66.29095 21.38292 42.83059
#
# Poissons Ratio (x) = 0.25247 0.03912
# Poissons Ratio (y) = 0.78271 0.61944
# Poissons Ratio (z) = 0.06055 0.30925
#
# Static dielectric constant tensor:
#      x y z
#    x 3.564220 0.000000 0.101800 
#    y 0.000000 3.133070 0.000000 
#    z 0.101800 0.000000 3.415210 
# 
# 
# High freq. dielectric constant tensor:
#      x y z
#    x 1.734820 0.000000 0.007590 
#    y 0.000000 1.697460 0.000000 
#    z 0.007590 0.000000 1.730840 
# 
# From -- ./inp_files/27319.got.cif
#   From: 2010.06.25/outbox.cif.g09.slc.cpg/sg10_14_cif.got.tgz:27319.got - 2010.06.27 22:07:45.
