data_PCOD8062319
_publ_section_title
;
Structure prediction by ZEFSAII (Michael W. Deem and Ramdas Pophale) SiO2 
 PCOD8062319
Probable space group: P 2/M
;
_chemical_formula_sum "Si O2"
_cell_formula_units_Z 22
_cell_length_a 11.512345
_cell_length_b 12.797002
_cell_length_c 14.581432
_cell_angle_alpha 90.000000
_cell_angle_beta 150.017104
_cell_angle_gamma 90.000000
_cell_volume 1073.538401
_symmetry_space_group_name_H-M "P 2/M"
_symmetry_group_IT_number 10
_symmetry_cell_setting 'monoclinic'
loop_
_space_group_symop_operation_xyz
x,y,z
-x,y,-z
-x,-y,-z
x,-y,z
loop_
_atom_site_type_symbol
_atom_site_label
_atom_site_fract_x
_atom_site_fract_y
_atom_site_fract_z
Si Si1 0.308225 0.118361 0.291280
Si Si2 0.000000 0.272095 0.500000
Si Si3 0.734784 0.618644 0.483174
Si Si4 0.239566 0.881125 0.789959
Si Si5 0.245689 0.299156 0.119938
Si Si6 0.993438 0.231516 0.206648
O O1 0.500000 0.131934 0.500000
O O2 0.349337 0.189572 0.230247
O O3 0.073892 0.157742 0.178218
O O4 0.287085 0.000000 0.242138
O O5 0.127452 0.343532 0.512740
O O6 0.197642 0.196473 0.676871
O O7 0.809771 0.500000 0.553406
O O8 0.454999 0.619795 0.280813
O O9 0.813917 0.687290 0.624875
O O10 0.076745 0.846383 0.761529
O O11 0.178711 0.000000 0.720608
O O12 0.500000 0.869585 0.000000
O O13 0.214108 0.293836 0.987215
O O14 0.000000 0.333902 0.000000
#
# Coordination Sequence:
#
# PCOD8062319 Si02
#       6
#     4   2   4   4   4   4
#     4  10  19  35  58  85 117 152 186 221 273 338
#     4  10  22  40  60  84 112 150 194 240 282 342
#     4  11  23  41  61  82 111 149 196 247 294 336
#     4  10  20  35  57  86 120 152 184 228 284 342
#     4  10  22  38  59  87 119 151 189 235 285 341
#     4  10  21  37  58  84 117 151 193 234 279 337
#
# _framework density 20.492978999999998
#
# number of rings (size 3 to 8) (size 9 to 14) (size 15 to 20)
#    0.000    1.818    1.818    2.182    0.000    5.091 
#    0.000    7.273    0.000    6.000    0.000    0.000 
#    0.000    0.000    0.000    0.000    0.000    0.000 
#
# Total GULP energy -272690.299419 kJ/mol
# GULP energy per Si atom -12395.013610 kJ/mol
# Density = 2.044634 g / cm^3
# Si number density = 20.492979 Si / 1000 Ang^3
#
#
#
# Elastic Constant Matrix: (Units=GPa)
#
#
# Indices 1 2 3 4 5 6 
#
# 1 42.9245 21.1221 11.3110 0.0000 -0.5339 0.0000
# 2 21.1221 101.9013 33.2435 0.0000 9.2546 0.0000
# 3 11.3110 33.2435 105.6692 0.0000 -1.3438 0.0000
# 4 0.0000 0.0000 0.0000 51.6679 0.0000 3.8198
# 5 -0.5339 9.2546 -1.3438 0.0000 30.1429 0.0000
# 6 0.0000 0.0000 0.0000 3.8198 0.0000 19.0409
#
#
#
# Elastic Compliance Matrix: (Units=1/GPa)
#
#
# Indices 1 2 3 4 5 6 
#
# 1 0.026201 -0.005247 -0.001128 0.000000 0.002025 0.000000
# 2 -0.005247 0.012371 -0.003382 0.000000 -0.004042 0.000000
# 3 -0.001128 -0.003382 0.010667 0.000000 0.001494 0.000000
# 4 0.000000 0.000000 0.000000 0.019646 0.000000 -0.003941
# 5 0.002025 -0.004042 0.001494 0.000000 0.034519 0.000000
# 6 0.000000 0.000000 0.000000 -0.003941 0.000000 0.053309
#
#
# Mechanical properties :
#
#
# Convention : Reuss Voigt Hill
#
# Bulk Modulus (GPa) = 33.64067 42.42758 38.03413
# Shear Modulus (GPa) = 26.86217 32.49155 29.67686
#
# Velocity S-wave (km/s) = 3.62442 3.98615 3.80958
# Velocity P-wave (km/s) = 5.82809 6.47567 6.16039
#
# Compressibility (1/GPa) = 0.02972592
#
# Stress axis : x y z
#
# Youngs Moduli (GPa) = 38.16651 80.83212 93.74553
#
# Poissons Ratio (x) = 0.42411 0.10576
# Poissons Ratio (y) = 0.20025 0.31703
# Poissons Ratio (z) = 0.04306 0.27336
#
# Static dielectric constant tensor:
#      x y z
#    x 3.406970 0.000000 -0.325900 
#    y 0.000000 3.588680 0.000000 
#    z -0.325900 0.000000 3.997980 
# 
# 
# High freq. dielectric constant tensor:
#      x y z
#    x 1.787760 0.000000 -0.009970 
#    y 0.000000 1.790390 0.000000 
#    z -0.009970 0.000000 1.820550 
# 
# From -- ./inp_files/64715.got.cif
#   From: 2010.06.25/outbox.cif.g09.slc.cpg/sg10_33_cif.got.tgz:64715.got - 2010.06.27 22:07:45.
