data_PCOD8062523
_publ_section_title
;
Structure prediction by ZEFSAII (Michael W. Deem and Ramdas Pophale) SiO2 
 PCOD8062523
Probable space group: P 2/M
;
_chemical_formula_sum "Si O2"
_cell_formula_units_Z 24
_cell_length_a 15.351787
_cell_length_b 7.548469
_cell_length_c 16.843354
_cell_angle_alpha 90.000000
_cell_angle_beta 141.872275
_cell_angle_gamma 90.000000
_cell_volume 1205.104440
_symmetry_space_group_name_H-M "P 2/M"
_symmetry_group_IT_number 10
_symmetry_cell_setting 'monoclinic'
loop_
_space_group_symop_operation_xyz
x,y,z
-x,y,-z
-x,-y,-z
x,-y,z
loop_
_atom_site_type_symbol
_atom_site_label
_atom_site_fract_x
_atom_site_fract_y
_atom_site_fract_z
Si Si1 0.627782 0.707030 0.854375
Si Si2 0.162288 0.704112 0.601982
Si Si3 0.309758 0.000000 0.803153
Si Si4 0.342185 0.711344 0.405275
Si Si5 0.370451 0.000000 0.019330
Si Si6 0.845861 0.706766 0.871988
Si Si7 0.668397 0.292330 0.426737
O O1 0.620422 0.500000 0.872873
O O2 0.665519 0.821639 0.958414
O O3 0.747923 0.744502 0.876654
O O4 0.479591 0.779562 0.713574
O O5 0.202183 0.500000 0.646116
O O6 0.245801 0.820033 0.723970
O O7 0.205127 0.758855 0.542603
O O8 0.000000 0.742716 0.500000
O O9 0.470836 0.000000 0.895746
O O10 0.276189 0.000000 0.872655
O O11 0.500000 0.780254 0.500000
O O12 0.340782 0.500000 0.399377
O O13 0.229872 0.788775 0.260786
O O14 0.299474 0.783750 0.462336
O O15 0.866009 0.500000 0.871306
O O16 0.000000 0.792918 0.000000
O O17 0.650382 0.500000 0.423203
#
# Coordination Sequence:
#
# PCOD8062523 Si02
#       7
#     4   4   2   4   2   4   4
#     4  10  19  36  59  82 114 152 193 241 287 344
#     4  10  21  39  62  87 116 150 190 244 305 354
#     4  11  23  40  60  83 115 151 193 247 298 355
#     4   9  14  24  47  79 111 143 185 230 275 340
#     4  11  24  38  59  86 111 153 199 243 298 345
#     4   9  17  30  51  81 116 153 189 232 289 346
#     4   9  16  29  53  82 109 143 188 234 282 338
#
# _framework density 19.915285999999998
#
# number of rings (size 3 to 8) (size 9 to 14) (size 15 to 20)
#    0.000    2.333    3.333    0.250    0.000    0.667 
#    3.000    2.083    0.000    3.000    0.000    0.000 
#    0.000    0.000    0.000    0.000    0.000    0.000 
#
# Total GULP energy -297504.683639 kJ/mol
# GULP energy per Si atom -12396.028485 kJ/mol
# Density = 1.986996 g / cm^3
# Si number density = 19.915286 Si / 1000 Ang^3
#
#
#
# Elastic Constant Matrix: (Units=GPa)
#
#
# Indices 1 2 3 4 5 6 
#
# 1 155.6318 30.9612 88.1065 0.0000 -9.7754 0.0000
# 2 30.9612 52.6334 26.0009 0.0000 -15.4659 0.0000
# 3 88.1065 26.0009 139.7689 0.0000 -21.6452 0.0000
# 4 0.0000 0.0000 0.0000 18.7395 0.0000 -7.5705
# 5 -9.7754 -15.4659 -21.6452 0.0000 43.8057 0.0000
# 6 0.0000 0.0000 0.0000 -7.5705 0.0000 16.8072
#
#
#
# Elastic Compliance Matrix: (Units=1/GPa)
#
#
# Indices 1 2 3 4 5 6 
#
# 1 0.010614 -0.003731 -0.006317 0.000000 -0.002070 0.000000
# 2 -0.003731 0.023752 -0.000971 0.000000 0.007073 0.000000
# 3 -0.006317 -0.000971 0.011961 0.000000 0.004158 0.000000
# 4 0.000000 0.000000 0.000000 0.065234 0.000000 0.029383
# 5 -0.002070 0.007073 0.004158 0.000000 0.026918 0.000000
# 6 0.000000 0.000000 0.000000 0.029383 0.000000 0.072733
#
#
# Mechanical properties :
#
#
# Convention : Reuss Voigt Hill
#
# Bulk Modulus (GPa) = 41.17149 70.90792 56.03971
# Shear Modulus (GPa) = 20.71694 29.40151 25.05923
#
# Velocity S-wave (km/s) = 3.22879 3.84647 3.55109
# Velocity P-wave (km/s) = 5.88374 7.44373 6.70923
#
# Compressibility (1/GPa) = 0.02428865
#
# Stress axis : x y z
#
# Youngs Moduli (GPa) = 94.21501 42.10100 83.60180
#
# Poissons Ratio (x) = 0.15709 0.52814
# Poissons Ratio (y) = 0.35153 0.08119
# Poissons Ratio (z) = 0.59518 0.04089
#
# Static dielectric constant tensor:
#      x y z
#    x 3.815690 0.000000 -0.113630 
#    y 0.000000 3.284410 0.000000 
#    z -0.113630 0.000000 3.929120 
# 
# 
# High freq. dielectric constant tensor:
#      x y z
#    x 1.784700 0.000000 -0.006750 
#    y 0.000000 1.756540 0.000000 
#    z -0.006750 0.000000 1.765240 
# 
# From -- ./inp_files/66706.got.cif
#   From: 2010.06.25/outbox.cif.g09.slc.cpg/sg10_34_cif.got.tgz:66706.got - 2010.06.27 22:07:45.
