data_PCOD8062720
_publ_section_title
;
Structure prediction by ZEFSAII (Michael W. Deem and Ramdas Pophale) SiO2 
 PCOD8062720
Probable space group: P 2/M
;
_chemical_formula_sum "Si O2"
_cell_formula_units_Z 32
_cell_length_a 11.170455
_cell_length_b 18.234292
_cell_length_c 13.936733
_cell_angle_alpha 90.000000
_cell_angle_beta 148.938296
_cell_angle_gamma 90.000000
_cell_volume 1464.662402
_symmetry_space_group_name_H-M "P 2/M"
_symmetry_group_IT_number 10
_symmetry_cell_setting 'monoclinic'
loop_
_space_group_symop_operation_xyz
x,y,z
-x,y,-z
-x,-y,-z
x,-y,z
loop_
_atom_site_type_symbol
_atom_site_label
_atom_site_fract_x
_atom_site_fract_y
_atom_site_fract_z
Si Si1 0.113988 0.416786 0.883561
Si Si2 0.480003 0.330168 0.234570
Si Si3 0.215910 0.083396 0.052816
Si Si4 0.014535 0.366296 0.405025
Si Si5 0.321606 0.235380 0.790608
Si Si6 0.729058 0.687138 0.708248
Si Si7 0.738325 0.145319 0.711982
Si Si8 0.381591 0.078468 0.818418
O O1 0.062419 0.500000 0.878886
O O2 0.108880 0.411222 0.764121
O O3 0.938429 0.363704 0.818390
O O4 0.371515 0.393814 0.093171
O O5 0.719451 0.358734 0.445008
O O6 0.538635 0.260196 0.208614
O O7 0.301056 0.312271 0.197121
O O8 0.273698 0.136289 0.181602
O O9 0.411785 0.096753 0.111103
O O10 0.209874 0.000000 0.086060
O O11 0.966721 0.102100 0.832483
O O12 0.000000 0.406106 0.500000
O O13 0.897544 0.286360 0.337179
O O14 0.222534 0.151761 0.708641
O O15 0.500000 0.237382 0.000000
O O16 0.500000 0.655900 0.500000
O O17 0.775708 0.770198 0.707285
O O18 0.500000 0.115257 0.500000
O O19 0.255362 0.000000 0.704875
O O20 0.500000 0.066267 0.000000
#
# Coordination Sequence:
#
# PCOD8062720 Si02
#       8
#     4   4   4   4   4   4   4   4
#     4  12  27  45  69  99 130 168 212 258 323 393
#     4  11  23  42  67  95 130 168 213 264 322 379
#     4  10  21  37  62  94 128 171 213 261 323 371
#     4  10  23  44  68  98 128 165 215 265 317 376
#     4  10  19  37  69  95 122 170 216 268 315 375
#     4  11  24  42  64  96 131 171 218 260 322 386
#     4  10  22  37  60  94 124 168 216 267 310 373
#     4   9  19  35  60  94 128 169 212 258 320 375
#
# _framework density 21.848039
#
# number of rings (size 3 to 8) (size 9 to 14) (size 15 to 20)
#    0.000    1.625    2.500    1.875    5.250    3.000 
#    0.000    4.375    0.000    3.375    0.000    0.000 
#    0.000    0.000    0.000    0.000    0.000    0.000 
#
# Total GULP energy -396592.907054 kJ/mol
# GULP energy per Si atom -12393.528345 kJ/mol
# Density = 2.179831 g / cm^3
# Si number density = 21.848039 Si / 1000 Ang^3
#
#
#
# Elastic Constant Matrix: (Units=GPa)
#
#
# Indices 1 2 3 4 5 6 
#
# 1 82.1475 24.4360 12.9194 0.0000 -6.1639 0.0000
# 2 24.4360 125.6451 38.7624 0.0000 3.5321 0.0000
# 3 12.9194 38.7624 112.5735 0.0000 -3.4450 0.0000
# 4 0.0000 0.0000 0.0000 3.7295 0.0000 4.0720
# 5 -6.1639 3.5321 -3.4450 0.0000 27.5661 0.0000
# 6 0.0000 0.0000 0.0000 4.0720 0.0000 26.8876
#
#
#
# Elastic Compliance Matrix: (Units=1/GPa)
#
#
# Indices 1 2 3 4 5 6 
#
# 1 0.013244 -0.002492 -0.000564 0.000000 0.003210 0.000000
# 2 -0.002492 0.009439 -0.003030 0.000000 -0.002145 0.000000
# 3 -0.000564 -0.003030 0.010037 0.000000 0.001517 0.000000
# 4 0.000000 0.000000 0.000000 0.321248 0.000000 -0.048651
# 5 0.003210 -0.002145 0.001517 0.000000 0.037459 0.000000
# 6 0.000000 0.000000 0.000000 -0.048651 0.000000 0.044560
#
#
# Mechanical properties :
#
#
# Convention : Reuss Voigt Hill
#
# Bulk Modulus (GPa) = 48.66346 52.51133 50.58739
# Shear Modulus (GPa) = 10.98885 27.91986 19.45436
#
# Velocity S-wave (km/s) = 2.24513 3.57867 2.98726
# Velocity P-wave (km/s) = 5.38913 6.41582 5.92476
#
# Compressibility (1/GPa) = 0.02054930
#
# Stress axis : x y z
#
# Youngs Moduli (GPa) = 75.50550 105.94813 99.62776
#
# Poissons Ratio (x) = 0.26404 0.05615
# Poissons Ratio (y) = 0.18817 0.30183
# Poissons Ratio (z) = 0.04255 0.32098
#
# Static dielectric constant tensor:
#      x y z
#    x 3.860210 0.000000 -0.122940 
#    y 0.000000 4.001070 0.000000 
#    z -0.122940 0.000000 4.018080 
# 
# 
# High freq. dielectric constant tensor:
#      x y z
#    x 1.860720 0.000000 -0.007810 
#    y 0.000000 1.851740 0.000000 
#    z -0.007810 0.000000 1.857450 
# 
# From -- ./inp_files/65415.got.cif
#   From: 2010.06.25/outbox.cif.g09.slc.cpg/sg10_33_cif.got.tgz:65415.got - 2010.06.27 22:07:45.
