data_PCOD8062889
_publ_section_title
;
Structure prediction by ZEFSAII (Michael W. Deem and Ramdas Pophale) SiO2 
 PCOD8062889
Probable space group: P 2/M
;
_chemical_formula_sum "Si O2"
_cell_formula_units_Z 20
_cell_length_a 25.833435
_cell_length_b 9.192007
_cell_length_c 13.960992
_cell_angle_alpha 90.000000
_cell_angle_beta 159.885006
_cell_angle_gamma 90.000000
_cell_volume 1140.112811
_symmetry_space_group_name_H-M "P 2/M"
_symmetry_group_IT_number 10
_symmetry_cell_setting 'monoclinic'
loop_
_space_group_symop_operation_xyz
x,y,z
-x,y,-z
-x,-y,-z
x,-y,z
loop_
_atom_site_type_symbol
_atom_site_label
_atom_site_fract_x
_atom_site_fract_y
_atom_site_fract_z
Si Si1 0.655761 0.832265 0.216533
Si Si2 0.066126 0.670897 0.216732
Si Si3 0.169513 0.163314 0.832697
Si Si4 0.926700 0.660703 0.165880
Si Si5 0.734243 0.336690 0.172067
O O1 0.782859 0.761004 0.503735
O O2 0.639748 0.751939 0.086667
O O3 0.697956 0.000000 0.271025
O O4 0.500000 0.815288 0.000000
O O5 0.106330 0.500000 0.292035
O O6 0.939724 0.709555 0.077441
O O7 0.000000 0.716864 0.000000
O O8 0.175765 0.229471 0.950888
O O9 0.277294 0.256622 0.950491
O O10 0.000000 0.165539 0.500000
O O11 0.232472 0.000000 0.946719
O O12 0.854842 0.500000 0.049426
O O13 0.093940 0.657623 0.497849
O O14 0.668619 0.500000 0.048429
#
# Coordination Sequence:
#
# PCOD8062889 Si02
#       5
#     4   4   4   4   4
#     4  10  20  32  46  67  95 124 154 189 228 271
#     4   9  18  32  49  69  93 122 156 192 228 268
#     4   9  15  22  35  57  85 114 143 178 222 270
#     4   8  14  24  38  58  85 114 144 180 221 265
#     4   9  16  26  41  60  84 115 149 185 225 268
#
# _framework density 17.542124000000001
#
# number of rings (size 3 to 8) (size 9 to 14) (size 15 to 20)
#    0.000    3.000    0.000    3.000    0.000    9.200 
#    0.000    0.000    0.000    0.000    0.000    1.400 
#    0.000   11.200    0.000    0.000    0.000    0.000 
#
# Total GULP energy -247929.221659 kJ/mol
# GULP energy per Si atom -12396.461083 kJ/mol
# Density = 1.750220 g / cm^3
# Si number density = 17.542124 Si / 1000 Ang^3
#
#
#
# Elastic Constant Matrix: (Units=GPa)
#
#
# Indices 1 2 3 4 5 6 
#
# 1 166.4464 87.2886 32.9338 0.0000 -9.5397 0.0000
# 2 87.2886 144.0785 30.5701 0.0000 2.1908 0.0000
# 3 32.9338 30.5701 24.6255 0.0000 -0.4901 0.0000
# 4 0.0000 0.0000 0.0000 9.4073 0.0000 5.4247
# 5 -9.5397 2.1908 -0.4901 0.0000 16.5424 0.0000
# 6 0.0000 0.0000 0.0000 5.4247 0.0000 33.9724
#
#
#
# Elastic Compliance Matrix: (Units=1/GPa)
#
#
# Indices 1 2 3 4 5 6 
#
# 1 0.010427 -0.004728 -0.007948 0.000000 0.006404 0.000000
# 2 -0.004728 0.011609 -0.008177 0.000000 -0.004506 0.000000
# 3 -0.007948 -0.008177 0.061356 0.000000 -0.001683 0.000000
# 4 0.000000 0.000000 0.000000 0.117081 0.000000 -0.018695
# 5 0.006404 -0.004506 -0.001683 0.000000 0.064691 0.000000
# 6 0.000000 0.000000 0.000000 -0.018695 0.000000 0.032421
#
#
# Mechanical properties :
#
#
# Convention : Reuss Voigt Hill
#
# Bulk Modulus (GPa) = 23.98980 70.74837 47.36909
# Shear Modulus (GPa) = 14.15683 24.27495 19.21589
#
# Velocity S-wave (km/s) = 2.84389 3.72399 3.31329
# Velocity P-wave (km/s) = 4.94862 7.67522 6.45747
#
# Compressibility (1/GPa) = 0.04168438
#
# Stress axis : x y z
#
# Youngs Moduli (GPa) = 95.90300 86.14187 16.29838
#
# Poissons Ratio (x) = 0.40730 0.12954
# Poissons Ratio (y) = 0.45345 0.13328
# Poissons Ratio (z) = 0.76225 0.70441
#
# Static dielectric constant tensor:
#      x y z
#    x 3.664480 0.000000 -0.065760 
#    y 0.000000 3.501780 0.000000 
#    z -0.065760 0.000000 2.531610 
# 
# 
# High freq. dielectric constant tensor:
#      x y z
#    x 1.699060 0.000000 0.001610 
#    y 0.000000 1.690700 0.000000 
#    z 0.001610 0.000000 1.593500 
# 
# From -- ./inp_files/26785.got.cif
#   From: 2010.06.25/outbox.cif.g09.slc.cpg/sg10_14_cif.got.tgz:26785.got - 2010.06.27 22:07:45.
