data_PCOD8062729
_publ_section_title
;
Structure prediction by ZEFSAII (Michael W. Deem and Ramdas Pophale) SiO2 
 PCOD8062729
Probable space group: P 2/M
;
_chemical_formula_sum "Si O2"
_cell_formula_units_Z 24
_cell_length_a 13.235719
_cell_length_b 14.969021
_cell_length_c 11.405699
_cell_angle_alpha 90.000000
_cell_angle_beta 148.019702
_cell_angle_gamma 90.000000
_cell_volume 1196.832756
_symmetry_space_group_name_H-M "P 2/M"
_symmetry_group_IT_number 10
_symmetry_cell_setting 'monoclinic'
loop_
_space_group_symop_operation_xyz
x,y,z
-x,y,-z
-x,-y,-z
x,-y,z
loop_
_atom_site_type_symbol
_atom_site_label
_atom_site_fract_x
_atom_site_fract_y
_atom_site_fract_z
Si Si1 0.670710 0.724473 0.937041
Si Si2 0.960570 0.680874 0.841108
Si Si3 0.530673 0.098899 0.717683
Si Si4 0.780659 0.399447 0.255296
Si Si5 0.652681 0.599554 0.387827
Si Si6 0.203519 0.137837 0.239341
O O1 0.719834 0.679793 0.109472
O O2 0.852664 0.725128 0.031926
O O3 0.584597 0.825287 0.867870
O O4 0.505415 0.665063 0.713827
O O5 0.860171 0.619934 0.645645
O O6 0.825026 0.759337 0.755112
O O7 0.000000 0.624159 0.000000
O O8 0.307338 0.096209 0.457021
O O9 0.654981 0.125213 0.728547
O O10 0.581882 0.000000 0.817192
O O11 0.747757 0.500000 0.169860
O O12 0.657777 0.389327 0.252443
O O13 0.000000 0.386201 0.500000
O O14 0.594864 0.500000 0.366128
O O15 0.000000 0.093554 0.000000
#
# Coordination Sequence:
#
# PCOD8062729 Si02
#       6
#     4   4   4   4   4   4
#     4  12  22  39  63  90 128 161 201 261 318 353
#     4  11  22  38  61  88 128 169 201 244 306 380
#     4  11  23  36  60  94 123 161 213 255 305 371
#     4  10  21  40  68  94 115 155 216 264 304 362
#     4  11  24  41  64  92 121 162 212 256 305 366
#     4  10  19  38  59  86 120 163 204 253 299 357
#
# _framework density 20.052928999999999
#
# number of rings (size 3 to 8) (size 9 to 14) (size 15 to 20)
#    0.000    1.167    6.667    2.000    0.000    4.333 
#    0.000    0.833    0.000    2.500    0.000    0.000 
#    0.000    0.000    0.000    0.000    0.000    0.000 
#
# Total GULP energy -297354.273237 kJ/mol
# GULP energy per Si atom -12389.761385 kJ/mol
# Density = 2.000729 g / cm^3
# Si number density = 20.052929 Si / 1000 Ang^3
#
#
#
# Elastic Constant Matrix: (Units=GPa)
#
#
# Indices 1 2 3 4 5 6 
#
# 1 40.5188 37.4266 30.1614 0.0000 -1.6656 0.0000
# 2 37.4266 164.4416 65.7480 0.0000 -8.5010 0.0000
# 3 30.1614 65.7480 118.1878 0.0000 -2.4022 0.0000
# 4 0.0000 0.0000 0.0000 13.5911 0.0000 -14.7365
# 5 -1.6656 -8.5010 -2.4022 0.0000 34.5817 0.0000
# 6 0.0000 0.0000 0.0000 -14.7365 0.0000 40.3179
#
#
#
# Elastic Compliance Matrix: (Units=1/GPa)
#
#
# Indices 1 2 3 4 5 6 
#
# 1 0.033913 -0.005482 -0.005607 0.000000 -0.000104 0.000000
# 2 -0.005482 0.008799 -0.003462 0.000000 0.001658 0.000000
# 3 -0.005607 -0.003462 0.011812 0.000000 -0.000301 0.000000
# 4 0.000000 0.000000 0.000000 0.121880 0.000000 0.044548
# 5 -0.000104 0.001658 -0.000301 0.000000 0.029299 0.000000
# 6 0.000000 0.000000 0.000000 0.044548 0.000000 0.041086
#
#
# Mechanical properties :
#
#
# Convention : Reuss Voigt Hill
#
# Bulk Modulus (GPa) = 39.33682 65.53556 52.43619
# Shear Modulus (GPa) = 17.58305 30.35230 23.96767
#
# Velocity S-wave (km/s) = 2.96435 3.89473 3.46095
# Velocity P-wave (km/s) = 5.60139 7.27857 6.49435
#
# Compressibility (1/GPa) = 0.02542147
#
# Stress axis : x y z
#
# Youngs Moduli (GPa) = 29.48714 113.65102 84.66066
#
# Poissons Ratio (x) = 0.62305 0.47469
# Poissons Ratio (y) = 0.16165 0.29310
# Poissons Ratio (z) = 0.16533 0.39347
#
# Static dielectric constant tensor:
#      x y z
#    x 3.432650 0.000000 0.151760 
#    y 0.000000 3.623810 0.000000 
#    z 0.151760 0.000000 4.205590 
# 
# 
# High freq. dielectric constant tensor:
#      x y z
#    x 1.755260 0.000000 0.021340 
#    y 0.000000 1.771290 0.000000 
#    z 0.021340 0.000000 1.802690 
# 
# From -- ./inp_files/51701.got.cif
#   From: 2010.06.25/outbox.cif.g09.slc.cpg/sg10_26_cif.got.tgz:51701.got - 2010.06.27 22:07:45.
