data_PCOD8062972
_publ_section_title
;
Structure prediction by ZEFSAII (Michael W. Deem and Ramdas Pophale) SiO2 
 PCOD8062972
Probable space group: P 2/M
;
_chemical_formula_sum "Si O2"
_cell_formula_units_Z 30
_cell_length_a 16.480519
_cell_length_b 9.074767
_cell_length_c 10.836763
_cell_angle_alpha 90.000000
_cell_angle_beta 79.246756
_cell_angle_gamma 90.000000
_cell_volume 1592.252379
_symmetry_space_group_name_H-M "P 2/M"
_symmetry_group_IT_number 10
_symmetry_cell_setting 'monoclinic'
loop_
_space_group_symop_operation_xyz
x,y,z
-x,y,-z
-x,-y,-z
x,-y,z
loop_
_atom_site_type_symbol
_atom_site_label
_atom_site_fract_x
_atom_site_fract_y
_atom_site_fract_z
Si Si1 0.690679 0.173613 0.835599
Si Si2 0.003513 0.837464 0.645992
Si Si3 0.844470 0.325497 0.704561
Si Si4 0.666978 0.163590 0.345877
Si Si5 0.818982 0.825401 0.452144
Si Si6 0.500000 0.251295 0.500000
Si Si7 0.400093 0.826017 0.886056
Si Si8 0.553029 0.665185 0.747893
O O1 0.780074 0.250106 0.816509
O O2 0.638045 0.243062 0.737600
O O3 0.699903 0.000000 0.811317
O O4 0.646415 0.212920 0.976052
O O5 0.937485 0.721209 0.718481
O O6 0.000000 0.838857 0.500000
O O7 0.098303 0.796328 0.653420
O O8 0.980929 0.000000 0.703562
O O9 0.836675 0.500000 0.712060
O O10 0.823174 0.266371 0.575688
O O11 0.740481 0.242388 0.400518
O O12 0.580427 0.155463 0.444358
O O13 0.654146 0.234595 0.214195
O O14 0.700070 0.000000 0.315906
O O15 0.810550 0.000000 0.486492
O O16 0.476195 0.346016 0.386249
O O17 0.487709 0.744770 0.856337
O O18 0.417743 0.000000 0.867523
O O19 0.567081 0.500000 0.792149
#
# Coordination Sequence:
#
# PCOD8062972 Si02
#       8
#     4   4   4   4   4   2   4   4
#     4  11  22  36  53  72  98 131 169 209 247 291
#     4   8  15  29  48  71 100 132 163 198 245 297
#     4  11  21  31  48  75 104 131 162 203 249 297
#     4   9  17  31  52  76  99 128 168 208 245 289
#     4   9  17  31  52  76 103 133 164 200 246 300
#     4  10  20  32  48  74 109 140 161 194 247 296
#     4   9  20  37  54  72  96 130 170 209 247 288
#     4  11  22  35  52  74 102 133 166 204 245 292
#
# _framework density 18.841235000000001
#
# number of rings (size 3 to 8) (size 9 to 14) (size 15 to 20)
#    0.000    2.267    0.000    4.400    0.000    7.733 
#    0.000    2.667    0.000    0.800    0.000    5.600 
#    0.000    0.000    0.000    0.000    0.000    0.000 
#
# Total GULP energy -371817.057023 kJ/mol
# GULP energy per Si atom -12393.901901 kJ/mol
# Density = 1.879835 g / cm^3
# Si number density = 18.841235 Si / 1000 Ang^3
#
#
#
# Elastic Constant Matrix: (Units=GPa)
#
#
# Indices 1 2 3 4 5 6 
#
# 1 121.8663 32.0137 38.5410 0.0000 -18.7492 0.0000
# 2 32.0137 100.9756 35.3258 0.0000 -14.2755 0.0000
# 3 38.5410 35.3258 77.8088 0.0000 -13.8367 0.0000
# 4 0.0000 0.0000 0.0000 14.3448 0.0000 -2.7093
# 5 -18.7492 -14.2755 -13.8367 0.0000 24.4314 0.0000
# 6 0.0000 0.0000 0.0000 -2.7093 0.0000 15.4756
#
#
#
# Elastic Compliance Matrix: (Units=1/GPa)
#
#
# Indices 1 2 3 4 5 6 
#
# 1 0.010519 -0.001306 -0.003689 0.000000 0.005220 0.000000
# 2 -0.001306 0.012353 -0.004288 0.000000 0.003787 0.000000
# 3 -0.003689 -0.004288 0.017433 0.000000 0.004537 0.000000
# 4 0.000000 0.000000 0.000000 0.072096 0.000000 0.012622
# 5 0.005220 0.003787 0.004537 0.000000 0.049719 0.000000
# 6 0.000000 0.000000 0.000000 0.012622 0.000000 0.066827
#
#
# Mechanical properties :
#
#
# Convention : Reuss Voigt Hill
#
# Bulk Modulus (GPa) = 46.00207 56.93464 51.46836
# Shear Modulus (GPa) = 19.62645 23.83504 21.73075
#
# Velocity S-wave (km/s) = 3.23100 3.56061 3.39980
# Velocity P-wave (km/s) = 6.19579 6.86932 6.54123
#
# Compressibility (1/GPa) = 0.02173815
#
# Stress axis : x y z
#
# Youngs Moduli (GPa) = 95.06997 80.95178 57.36365
#
# Poissons Ratio (x) = 0.10575 0.21160
# Poissons Ratio (y) = 0.12420 0.24597
# Poissons Ratio (z) = 0.35070 0.34711
#
# Static dielectric constant tensor:
#      x y z
#    x 3.930290 0.000000 -0.171280 
#    y 0.000000 3.219550 0.000000 
#    z -0.171280 0.000000 3.288690 
# 
# 
# High freq. dielectric constant tensor:
#      x y z
#    x 1.737980 0.000000 -0.015820 
#    y 0.000000 1.713890 0.000000 
#    z -0.015820 0.000000 1.706190 
# 
# From -- ./inp_files/53061.got.cif
#   From: 2010.06.25/outbox.cif.g09.slc.cpg/sg10_27_cif.got.tgz:53061.got - 2010.06.27 22:07:45.
