data_PCOD8062818
_publ_section_title
;
Structure prediction by ZEFSAII (Michael W. Deem and Ramdas Pophale) SiO2 
 PCOD8062818
Probable space group: P 2/M
;
_chemical_formula_sum "Si O2"
_cell_formula_units_Z 26
_cell_length_a 17.502945
_cell_length_b 21.363370
_cell_length_c 16.619250
_cell_angle_alpha 90.000000
_cell_angle_beta 163.169614
_cell_angle_gamma 90.000000
_cell_volume 1799.285445
_symmetry_space_group_name_H-M "P 2/M"
_symmetry_group_IT_number 10
_symmetry_cell_setting 'monoclinic'
loop_
_space_group_symop_operation_xyz
x,y,z
-x,y,-z
-x,-y,-z
x,-y,z
loop_
_atom_site_type_symbol
_atom_site_label
_atom_site_fract_x
_atom_site_fract_y
_atom_site_fract_z
Si Si1 0.167165 0.391609 0.843789
Si Si2 0.245219 0.067773 0.691092
Si Si3 0.253004 0.574513 0.300381
Si Si4 0.034719 0.739066 0.630728
Si Si5 0.659206 0.426868 0.431116
Si Si6 0.538814 0.810159 0.134189
Si Si7 0.254336 0.500000 0.810138
O O1 0.267163 0.438281 0.876359
O O2 0.120883 0.325309 0.756633
O O3 0.899592 0.416611 0.613034
O O4 0.401216 0.387716 0.145131
O O5 0.334416 0.121302 0.716283
O O6 0.000000 0.091507 0.500000
O O7 0.168830 0.000000 0.573662
O O8 0.500000 0.054842 0.000000
O O9 0.500000 0.600791 0.500000
O O10 0.246391 0.500000 0.292206
O O11 0.260024 0.597942 0.399295
O O12 0.000000 0.602536 0.000000
O O13 0.750637 0.759300 0.378946
O O14 0.000000 0.731521 0.500000
O O15 0.250484 0.791610 0.876861
O O16 0.582407 0.500000 0.355562
O O17 0.500000 0.808602 0.000000
O O18 0.000000 0.500000 0.500000
O O19 0.500000 0.500000 0.000000
#
# Coordination Sequence:
#
# PCOD8062818 Si02
#       7
#     4   4   4   4   4   4   2
#     4  12  22  35  46  61  78 104 136 175 218 251
#     4   9  15  23  37  57  77  95 117 150 200 255
#     4   9  17  29  47  69  86 101 118 140 183 252
#     4  10  20  31  43  55  73 102 139 176 207 244
#     4  11  20  34  49  64  84 103 123 160 211 255
#     4   9  16  28  41  55  73  97 126 163 206 243
#     4  12  24  36  46  56  72  98 136 180 220 254
#
# _framework density 14.450181000000001
#
# number of rings (size 3 to 8) (size 9 to 14) (size 15 to 20)
#    0.000    1.846    1.538    5.538    0.000    4.308 
#    0.000    0.000    0.000    0.000    0.000    0.000 
#    0.000    0.000    0.000    0.000    0.000    0.000 
#
# Total GULP energy -322148.824894 kJ/mol
# GULP energy per Si atom -12390.339419 kJ/mol
# Density = 1.441729 g / cm^3
# Si number density = 14.450181 Si / 1000 Ang^3
#
#
#
# Elastic Constant Matrix: (Units=GPa)
#
#
# Indices 1 2 3 4 5 6 
#
# 1 43.7612 21.5337 24.1213 0.0000 -0.3740 0.0000
# 2 21.5337 80.4260 25.8520 0.0000 -6.2999 0.0000
# 3 24.1213 25.8520 105.2137 0.0000 -0.3258 0.0000
# 4 0.0000 0.0000 0.0000 28.9826 0.0000 -1.9373
# 5 -0.3740 -6.2999 -0.3258 0.0000 23.0160 0.0000
# 6 0.0000 0.0000 0.0000 -1.9373 0.0000 9.0764
#
#
#
# Elastic Compliance Matrix: (Units=1/GPa)
#
#
# Indices 1 2 3 4 5 6 
#
# 1 0.028655 -0.006146 -0.005063 0.000000 -0.001288 0.000000
# 2 -0.006146 0.015132 -0.002297 0.000000 0.004009 0.000000
# 3 -0.005063 -0.002297 0.011228 0.000000 -0.000552 0.000000
# 4 0.000000 0.000000 0.000000 0.035003 0.000000 0.007471
# 5 -0.001288 0.004009 -0.000552 0.000000 0.044517 0.000000
# 6 0.000000 0.000000 0.000000 0.007471 0.000000 0.111770
#
#
# Mechanical properties :
#
#
# Convention : Reuss Voigt Hill
#
# Bulk Modulus (GPa) = 35.70997 41.37944 38.54470
# Shear Modulus (GPa) = 17.68967 22.74127 20.21547
#
# Velocity S-wave (km/s) = 3.50263 3.97138 3.74435
# Velocity P-wave (km/s) = 6.41280 7.05176 6.73985
#
# Compressibility (1/GPa) = 0.02800338
#
# Stress axis : x y z
#
# Youngs Moduli (GPa) = 34.89740 66.08712 89.06381
#
# Poissons Ratio (x) = 0.40615 0.45097
# Poissons Ratio (y) = 0.21447 0.20454
# Poissons Ratio (z) = 0.17670 0.15178
#
# Static dielectric constant tensor:
#      x y z
#    x 2.604170 0.000000 0.114560 
#    y 0.000000 3.050400 0.000000 
#    z 0.114560 0.000000 3.272800 
# 
# 
# High freq. dielectric constant tensor:
#      x y z
#    x 1.500150 0.000000 0.017000 
#    y 0.000000 1.530670 0.000000 
#    z 0.017000 0.000000 1.581670 
# 
# From -- ./inp_files/9896.got.cif
#   From: 2010.06.25/outbox.cif.g09.slc.cpg/sg10_5_cif.got.tgz:9896.got - 2010.06.27 22:07:45.
