data_PCOD8062260
_publ_section_title
;
Structure prediction by ZEFSAII (Michael W. Deem and Ramdas Pophale) SiO2 
 PCOD8062260
Probable space group: P 2/M
;
_chemical_formula_sum "Si O2"
_cell_formula_units_Z 28
_cell_length_a 15.548414
_cell_length_b 9.385130
_cell_length_c 11.698153
_cell_angle_alpha 90.000000
_cell_angle_beta 123.543416
_cell_angle_gamma 90.000000
_cell_volume 1422.762068
_symmetry_space_group_name_H-M "P 2/M"
_symmetry_group_IT_number 10
_symmetry_cell_setting 'monoclinic'
loop_
_space_group_symop_operation_xyz
x,y,z
-x,y,-z
-x,-y,-z
x,-y,z
loop_
_atom_site_type_symbol
_atom_site_label
_atom_site_fract_x
_atom_site_fract_y
_atom_site_fract_z
Si Si1 0.017342 0.332147 0.141409
Si Si2 0.386712 0.164349 0.389246
Si Si3 0.760820 0.833457 0.319816
Si Si4 0.823501 0.333087 0.151589
Si Si5 0.807260 0.161650 0.608587
Si Si6 0.355554 0.661752 0.149435
Si Si7 0.444933 0.662337 0.843264
O O1 0.033493 0.500000 0.153525
O O2 0.120072 0.265030 0.267518
O O3 0.920002 0.286224 0.145912
O O4 0.000000 0.276126 0.000000
O O5 0.500000 0.228558 0.500000
O O6 0.311757 0.187305 0.442278
O O7 0.334701 0.242605 0.243962
O O8 0.398133 0.000000 0.363558
O O9 0.827633 0.755320 0.271896
O O10 0.818455 0.807696 0.482188
O O11 0.647212 0.769331 0.247168
O O12 0.751665 0.000000 0.284372
O O13 0.826328 0.500000 0.183361
O O14 0.718798 0.290893 0.008621
O O15 0.839676 0.000000 0.660470
O O16 0.328120 0.500000 0.162843
O O17 0.474147 0.677479 0.200004
O O18 0.403024 0.500000 0.821954
O O19 0.500000 0.707387 0.000000
#
# Coordination Sequence:
#
# PCOD8062260 Si02
#       7
#     4   4   4   4   4   4   4
#     4  10  22  41  66  90 112 146 194 244 290 344
#     4  10  21  38  58  81 115 154 191 233 285 341
#     4  11  23  38  58  86 119 156 198 238 282 345
#     4  10  21  39  60  85 117 149 187 240 295 342
#     4  10  23  41  59  83 119 158 191 236 293 344
#     4  10  20  35  58  85 114 148 190 239 288 341
#     4  10  19  35  57  82 117 158 192 233 289 339
#
# _framework density 19.680029999999999
#
# number of rings (size 3 to 8) (size 9 to 14) (size 15 to 20)
#    0.000    1.857    1.429    2.143    0.000    7.143 
#    0.000    2.857    0.000    0.000    0.000    0.000 
#    0.000    0.000    0.000    0.000    0.000    0.000 
#
# Total GULP energy -347318.299469 kJ/mol
# GULP energy per Si atom -12404.224981 kJ/mol
# Density = 1.963524 g / cm^3
# Si number density = 19.680030 Si / 1000 Ang^3
#
#
#
# Elastic Constant Matrix: (Units=GPa)
#
#
# Indices 1 2 3 4 5 6 
#
# 1 111.9398 41.0679 50.2673 0.0000 -5.3488 0.0000
# 2 41.0679 65.2118 51.4878 0.0000 -5.7715 0.0000
# 3 50.2673 51.4878 108.1197 0.0000 -9.6655 0.0000
# 4 0.0000 0.0000 0.0000 38.8308 0.0000 -1.0073
# 5 -5.3488 -5.7715 -9.6655 0.0000 35.2242 0.0000
# 6 0.0000 0.0000 0.0000 -1.0073 0.0000 32.8681
#
#
#
# Elastic Compliance Matrix: (Units=1/GPa)
#
#
# Indices 1 2 3 4 5 6 
#
# 1 0.012292 -0.005171 -0.003241 0.000000 0.000130 0.000000
# 2 -0.005171 0.026773 -0.010276 0.000000 0.000782 0.000000
# 3 -0.003241 -0.010276 0.015843 0.000000 0.002172 0.000000
# 4 0.000000 0.000000 0.000000 0.025773 0.000000 0.000790
# 5 0.000130 0.000782 0.002172 0.000000 0.029133 0.000000
# 6 0.000000 0.000000 0.000000 0.000790 0.000000 0.030449
#
#
# Mechanical properties :
#
#
# Convention : Reuss Voigt Hill
#
# Bulk Modulus (GPa) = 57.03248 63.43526 60.23387
# Shear Modulus (GPa) = 27.25036 30.88115 29.06576
#
# Velocity S-wave (km/s) = 3.72515 3.96556 3.84724
# Velocity P-wave (km/s) = 6.89530 7.29869 7.09986
#
# Compressibility (1/GPa) = 0.01753387
#
# Stress axis : x y z
#
# Youngs Moduli (GPa) = 81.35451 37.35037 63.11773
#
# Poissons Ratio (x) = 0.19313 0.20455
# Poissons Ratio (y) = 0.42066 0.64860
# Poissons Ratio (z) = 0.26366 0.38381
#
# Static dielectric constant tensor:
#      x y z
#    x 3.676490 0.000000 -0.106880 
#    y 0.000000 3.476330 0.000000 
#    z -0.106880 0.000000 3.511710 
# 
# 
# High freq. dielectric constant tensor:
#      x y z
#    x 1.776930 0.000000 -0.008250 
#    y 0.000000 1.757950 0.000000 
#    z -0.008250 0.000000 1.765590 
# 
# From -- ./inp_files/50025.got.cif
#   From: 2010.06.25/outbox.cif.g09.slc.cpg/sg10_26_cif.got.tgz:50025.got - 2010.06.27 22:07:45.
