data_PCOD8062649
_publ_section_title
;
Structure prediction by ZEFSAII (Michael W. Deem and Ramdas Pophale) SiO2 
 PCOD8062649
Probable space group: P 2/M
;
_chemical_formula_sum "Si O2"
_cell_formula_units_Z 28
_cell_length_a 9.092996
_cell_length_b 13.896978
_cell_length_c 12.182446
_cell_angle_alpha 90.000000
_cell_angle_beta 105.187596
_cell_angle_gamma 90.000000
_cell_volume 1485.669253
_symmetry_space_group_name_H-M "P 2/M"
_symmetry_group_IT_number 10
_symmetry_cell_setting 'monoclinic'
loop_
_space_group_symop_operation_xyz
x,y,z
-x,y,-z
-x,-y,-z
x,-y,z
loop_
_atom_site_type_symbol
_atom_site_label
_atom_site_fract_x
_atom_site_fract_y
_atom_site_fract_z
Si Si1 0.533863 0.606947 0.348689
Si Si2 0.848010 0.887056 0.023178
Si Si3 0.634632 0.787872 0.598985
Si Si4 0.829973 0.721468 0.453103
Si Si5 0.415208 0.886032 0.189659
Si Si6 0.607362 0.607106 0.121724
Si Si7 0.742899 0.794037 0.213423
O O1 0.505047 0.500000 0.389612
O O2 0.413978 0.678752 0.379937
O O3 0.708620 0.636622 0.409237
O O4 0.506814 0.609494 0.212879
O O5 0.836143 0.860873 0.148908
O O6 0.860392 0.000000 0.015213
O O7 0.698462 0.852183 0.928703
O O8 0.000000 0.840050 0.000000
O O9 0.500000 0.835272 0.500000
O O10 0.786737 0.781585 0.554713
O O11 0.660768 0.854153 0.710004
O O12 0.827094 0.792779 0.347190
O O13 0.000000 0.679233 0.500000
O O14 0.572303 0.831702 0.200030
O O15 0.442827 0.000000 0.194612
O O16 0.679413 0.500000 0.120027
O O17 0.739180 0.687309 0.158113
O O18 0.500000 0.634273 0.000000
#
# Coordination Sequence:
#
# PCOD8062649 Si02
#       7
#     4   4   4   4   4   4   4
#     4   9  18  34  57  83 111 148 190 233 277 328
#     4  10  23  39  57  85 114 143 184 231 281 337
#     4  10  19  37  54  82 113 144 185 236 273 331
#     4  10  22  36  53  80 116 151 186 229 276 339
#     4  11  21  36  60  85 108 141 186 234 278 330
#     4   9  16  28  51  83 113 138 176 225 274 327
#     4  11  20  37  58  83 109 149 187 232 277 331
#
# _framework density 18.846723999999998
#
# number of rings (size 3 to 8) (size 9 to 14) (size 15 to 20)
#    0.000    2.000    4.286    1.714    2.000    4.286 
#    0.000    0.000    0.000    2.571    0.000    0.000 
#    0.000    0.000    0.000    0.000    0.000    0.000 
#
# Total GULP energy -347090.360573 kJ/mol
# GULP energy per Si atom -12396.084306 kJ/mol
# Density = 1.880383 g / cm^3
# Si number density = 18.846724 Si / 1000 Ang^3
#
#
#
# Elastic Constant Matrix: (Units=GPa)
#
#
# Indices 1 2 3 4 5 6 
#
# 1 81.1940 10.5206 45.4840 0.0000 -1.5160 0.0000
# 2 10.5206 40.7333 24.0564 0.0000 11.7871 0.0000
# 3 45.4840 24.0564 108.9889 0.0000 -15.2017 0.0000
# 4 0.0000 0.0000 0.0000 18.3895 0.0000 -4.7048
# 5 -1.5160 11.7871 -15.2017 0.0000 24.5331 0.0000
# 6 0.0000 0.0000 0.0000 -4.7048 0.0000 18.3060
#
#
#
# Elastic Compliance Matrix: (Units=1/GPa)
#
#
# Indices 1 2 3 4 5 6 
#
# 1 0.016430 0.001813 -0.007921 0.000000 -0.004764 0.000000
# 2 0.001813 0.039894 -0.013376 0.000000 -0.027344 0.000000
# 3 -0.007921 -0.013376 0.017800 0.000000 0.016967 0.000000
# 4 0.000000 0.000000 0.000000 0.058206 0.000000 0.014960
# 5 -0.004764 -0.027344 0.016967 0.000000 0.064118 0.000000
# 6 0.000000 0.000000 0.000000 0.014960 0.000000 0.058472
#
#
# Mechanical properties :
#
#
# Convention : Reuss Voigt Hill
#
# Bulk Modulus (GPa) = 28.44519 43.44867 35.94693
# Shear Modulus (GPa) = 16.36097 22.30274 19.33185
#
# Velocity S-wave (km/s) = 2.94956 3.44375 3.20619
# Velocity P-wave (km/s) = 5.16968 6.23830 5.72896
#
# Compressibility (1/GPa) = 0.03515533
#
# Stress axis : x y z
#
# Youngs Moduli (GPa) = 60.86533 25.06658 56.17980
#
# Poissons Ratio (x) = -0.04546 0.44502
# Poissons Ratio (y) = -0.11038 0.75147
# Poissons Ratio (z) = 0.48214 0.33529
#
# Static dielectric constant tensor:
#      x y z
#    x 3.232210 0.000000 -0.165190 
#    y 0.000000 3.457390 0.000000 
#    z -0.165190 0.000000 3.802940 
# 
# 
# High freq. dielectric constant tensor:
#      x y z
#    x 1.701300 0.000000 -0.018910 
#    y 0.000000 1.721410 0.000000 
#    z -0.018910 0.000000 1.752250 
# 
# From -- ./inp_files/24878.got.cif
#   From: 2010.06.25/outbox.cif.g09.slc.cpg/sg10_13_cif.got.tgz:24878.got - 2010.06.27 22:07:45.
