data_PCOD8062525
_publ_section_title
;
Structure prediction by ZEFSAII (Michael W. Deem and Ramdas Pophale) SiO2 
 PCOD8062525
Probable space group: P 2/M
;
_chemical_formula_sum "Si O2"
_cell_formula_units_Z 32
_cell_length_a 13.120814
_cell_length_b 9.077811
_cell_length_c 31.050800
_cell_angle_alpha 90.000000
_cell_angle_beta 24.850998
_cell_angle_gamma 90.000000
_cell_volume 1554.292231
_symmetry_space_group_name_H-M "P 2/M"
_symmetry_group_IT_number 10
_symmetry_cell_setting 'monoclinic'
loop_
_space_group_symop_operation_xyz
x,y,z
-x,y,-z
-x,-y,-z
x,-y,z
loop_
_atom_site_type_symbol
_atom_site_label
_atom_site_fract_x
_atom_site_fract_y
_atom_site_fract_z
Si Si1 0.422126 0.826849 0.900798
Si Si2 0.823792 0.674922 0.800906
Si Si3 0.921589 0.828695 0.222408
Si Si4 0.894604 0.172760 0.135307
Si Si5 0.233201 0.834488 0.593908
Si Si6 0.531822 0.174841 0.761889
Si Si7 0.995464 0.661087 0.551963
Si Si8 0.617622 0.838804 0.556286
O O1 0.573858 0.739262 0.878444
O O2 0.483895 0.771502 0.829056
O O3 0.477590 0.000000 0.885011
O O4 0.142188 0.789061 0.016029
O O5 0.808203 0.500000 0.809445
O O6 0.875089 0.739306 0.828977
O O7 0.035632 0.722965 0.687248
O O8 0.900169 0.764464 0.182024
O O9 0.664352 0.801652 0.345409
O O10 0.997483 0.000000 0.192821
O O11 0.673987 0.240029 0.191539
O O12 0.854026 0.000000 0.154212
O O13 0.500000 0.771102 0.500000
O O14 0.210600 0.843042 0.551327
O O15 0.200340 0.000000 0.626657
O O16 0.793108 0.228842 0.646814
O O17 0.527331 0.000000 0.762284
O O18 0.955534 0.500000 0.588328
O O19 0.000000 0.647599 0.500000
O O20 0.266096 0.718525 0.457559
O O21 0.622744 0.000000 0.576931
#
# Coordination Sequence:
#
# PCOD8062525 Si02
#       8
#     4   4   4   4   4   4   4   4
#     4  10  21  39  63  90 118 149 189 243 300 347
#     4  12  25  38  55  84 122 160 198 238 283 344
#     4  10  20  38  61  85 115 153 196 242 292 346
#     4   9  19  37  65  93 113 142 192 249 299 347
#     4  10  19  36  59  83 111 145 186 233 283 335
#     4  10  20  38  65  92 116 145 190 244 294 347
#     4  11  24  38  53  80 121 161 191 226 277 338
#     4  10  20  35  59  86 112 147 190 237 285 338
#
# _framework density 20.588149999999999
#
# number of rings (size 3 to 8) (size 9 to 14) (size 15 to 20)
#    0.000    1.750    1.250    3.375    0.000    8.750 
#    0.000    4.375    0.000    1.500    0.000    0.000 
#    0.000    0.000    0.000    0.000    0.000    0.000 
#
# Total GULP energy -396773.326039 kJ/mol
# GULP energy per Si atom -12399.166439 kJ/mol
# Density = 2.054129 g / cm^3
# Si number density = 20.588150 Si / 1000 Ang^3
#
#
#
# Elastic Constant Matrix: (Units=GPa)
#
#
# Indices 1 2 3 4 5 6 
#
# 1 127.1972 45.4178 23.3121 0.0000 -10.8396 0.0000
# 2 45.4178 66.5628 16.7858 0.0000 -8.3462 0.0000
# 3 23.3121 16.7858 62.3898 0.0000 0.2127 0.0000
# 4 0.0000 0.0000 0.0000 4.9719 0.0000 4.8607
# 5 -10.8396 -8.3462 0.2127 0.0000 36.7385 0.0000
# 6 0.0000 0.0000 0.0000 4.8607 0.0000 11.1436
#
#
#
# Elastic Compliance Matrix: (Units=1/GPa)
#
#
# Indices 1 2 3 4 5 6 
#
# 1 0.010764 -0.006561 -0.002263 0.000000 0.001698 0.000000
# 2 -0.006561 0.020631 -0.003109 0.000000 0.002769 0.000000
# 3 -0.002263 -0.003109 0.017715 0.000000 -0.001476 0.000000
# 4 0.000000 0.000000 0.000000 0.350660 0.000000 -0.152954
# 5 0.001698 0.002769 -0.001476 0.000000 0.028358 0.000000
# 6 0.000000 0.000000 0.000000 -0.152954 0.000000 0.156455
#
#
# Mechanical properties :
#
#
# Convention : Reuss Voigt Hill
#
# Bulk Modulus (GPa) = 39.61047 47.46457 43.53752
# Shear Modulus (GPa) = 8.10552 21.94641 15.02596
#
# Velocity S-wave (km/s) = 1.98634 3.26847 2.70448
# Velocity P-wave (km/s) = 4.95398 6.11132 5.56283
#
# Compressibility (1/GPa) = 0.02524585
#
# Stress axis : x y z
#
# Youngs Moduli (GPa) = 92.90283 48.46987 56.44907
#
# Poissons Ratio (x) = 0.31801 0.12772
# Poissons Ratio (y) = 0.60954 0.17548
# Poissons Ratio (z) = 0.21020 0.15068
#
# Static dielectric constant tensor:
#      x y z
#    x 4.018220 0.000000 -0.025950 
#    y 0.000000 3.563560 0.000000 
#    z -0.025950 0.000000 3.680510 
# 
# 
# High freq. dielectric constant tensor:
#      x y z
#    x 1.823040 0.000000 -0.001770 
#    y 0.000000 1.767960 0.000000 
#    z -0.001770 0.000000 1.803720 
# 
# From -- ./inp_files/94947.got.cif
#   From: 2010.06.25/outbox.cif.g09.slc.cpg/sg10_48_cif.got.tgz:94947.got - 2010.06.27 22:07:45.
