data_PCOD8062887
_publ_section_title
;
Structure prediction by ZEFSAII (Michael W. Deem and Ramdas Pophale) SiO2 
 PCOD8062887
Probable space group: P 2/M
;
_chemical_formula_sum "Si O2"
_cell_formula_units_Z 28
_cell_length_a 22.773491
_cell_length_b 9.146693
_cell_length_c 18.614322
_cell_angle_alpha 90.000000
_cell_angle_beta 155.716625
_cell_angle_gamma 90.000000
_cell_volume 1594.581521
_symmetry_space_group_name_H-M "P 2/M"
_symmetry_group_IT_number 10
_symmetry_cell_setting 'monoclinic'
loop_
_space_group_symop_operation_xyz
x,y,z
-x,y,-z
-x,-y,-z
x,-y,z
loop_
_atom_site_type_symbol
_atom_site_label
_atom_site_fract_x
_atom_site_fract_y
_atom_site_fract_z
Si Si1 0.861421 0.671802 0.801111
Si Si2 0.573233 0.831356 0.505474
Si Si3 0.520776 0.664427 0.732795
Si Si4 0.264644 0.163882 0.625556
Si Si5 0.664435 0.665028 0.161302
Si Si6 0.805127 0.661549 0.582697
Si Si7 0.593493 0.165443 0.947297
O O1 0.825818 0.500000 0.768679
O O2 0.729709 0.761948 0.685514
O O3 0.889946 0.711495 0.748951
O O4 0.000000 0.717933 0.000000
O O5 0.500000 0.813077 0.500000
O O6 0.473888 0.749323 0.336713
O O7 0.587587 0.000000 0.498290
O O8 0.580948 0.500000 0.789900
O O9 0.360337 0.658576 0.581722
O O10 0.616722 0.749842 0.898172
O O11 0.242413 0.258659 0.672586
O O12 0.167503 0.229132 0.452922
O O13 0.428655 0.165553 0.785420
O O14 0.212082 0.000000 0.582346
O O15 0.719846 0.500000 0.212521
O O16 0.500000 0.664957 0.000000
O O17 0.685842 0.753445 0.111318
O O18 0.854184 0.500000 0.613009
O O19 0.649687 0.000000 0.001914
#
# Coordination Sequence:
#
# PCOD8062887 Si02
#       7
#     4   4   4   4   4   4   4
#     4   9  18  32  49  68  89 115 149 187 226 269
#     4  10  20  32  46  66  91 118 149 185 225 268
#     4   9  16  26  40  56  75 103 139 175 212 256
#     4   9  15  21  30  45  66  94 129 166 203 245
#     4   9  15  21  29  42  63  93 129 166 203 244
#     4   8  14  24  37  53  74 100 131 168 209 253
#     4   9  15  22  32  47  69  96 128 167 208 250
#
# _framework density 17.559466
#
# number of rings (size 3 to 8) (size 9 to 14) (size 15 to 20)
#    0.000    3.000    0.000    3.000    0.000   10.000 
#    0.000    0.000    0.000    0.000    0.000    0.000 
#    0.000    0.000    0.000    1.286    0.000   26.286 
#
# Total GULP energy -347108.140044 kJ/mol
# GULP energy per Si atom -12396.719287 kJ/mol
# Density = 1.751950 g / cm^3
# Si number density = 17.559466 Si / 1000 Ang^3
#
#
#
# Elastic Constant Matrix: (Units=GPa)
#
#
# Indices 1 2 3 4 5 6 
#
# 1 77.1136 65.2980 48.2423 0.0000 -39.8423 0.0000
# 2 65.2980 161.1355 51.3988 0.0000 -35.2868 0.0000
# 3 48.2423 51.3988 64.8610 0.0000 -38.3738 0.0000
# 4 0.0000 0.0000 0.0000 16.3194 0.0000 -14.3515
# 5 -39.8423 -35.2868 -38.3738 0.0000 34.8781 0.0000
# 6 0.0000 0.0000 0.0000 -14.3515 0.0000 27.9596
#
#
#
# Elastic Compliance Matrix: (Units=1/GPa)
#
#
# Indices 1 2 3 4 5 6 
#
# 1 0.037803 -0.007194 -0.003362 0.000000 0.032206 0.000000
# 2 -0.007194 0.009811 -0.004049 0.000000 -0.002747 0.000000
# 3 -0.003362 -0.004049 0.047071 0.000000 0.043851 0.000000
# 4 0.000000 0.000000 0.000000 0.111697 0.000000 0.057334
# 5 0.032206 -0.002747 0.043851 0.000000 0.110928 0.000000
# 6 0.000000 0.000000 0.000000 0.057334 0.000000 0.065195
#
#
# Mechanical properties :
#
#
# Convention : Reuss Voigt Hill
#
# Bulk Modulus (GPa) = 15.27314 70.33202 42.80258
# Shear Modulus (GPa) = 11.53295 25.04283 18.28789
#
# Velocity S-wave (km/s) = 2.56558 3.78057 3.23070
# Velocity P-wave (km/s) = 4.18247 7.69399 6.19236
#
# Compressibility (1/GPa) = 0.06547442
#
# Stress axis : x y z
#
# Youngs Moduli (GPa) = 26.45326 101.92300 21.24450
#
# Poissons Ratio (x) = 0.73322 0.07143
# Poissons Ratio (y) = 0.19030 0.08602
# Poissons Ratio (z) = 0.08894 0.41271
#
# Static dielectric constant tensor:
#      x y z
#    x 3.062760 0.000000 -0.607410 
#    y 0.000000 3.520530 0.000000 
#    z -0.607410 0.000000 2.981600 
# 
# 
# High freq. dielectric constant tensor:
#      x y z
#    x 1.649990 0.000000 -0.060480 
#    y 0.000000 1.695060 0.000000 
#    z -0.060480 0.000000 1.629390 
# 
# From -- ./inp_files/79320.got.cif
#   From: 2010.06.25/outbox.cif.g09.slc.cpg/sg10_40_cif.got.tgz:79320.got - 2010.06.27 22:07:45.
