data_PCOD8062490
_publ_section_title
;
Structure prediction by ZEFSAII (Michael W. Deem and Ramdas Pophale) SiO2 
 PCOD8062490
Probable space group: P 2/M
;
_chemical_formula_sum "Si O2"
_cell_formula_units_Z 32
_cell_length_a 28.153210
_cell_length_b 8.914573
_cell_length_c 21.783837
_cell_angle_alpha 90.000000
_cell_angle_beta 18.429463
_cell_angle_gamma 90.000000
_cell_volume 1728.375410
_symmetry_space_group_name_H-M "P 2/M"
_symmetry_group_IT_number 10
_symmetry_cell_setting 'monoclinic'
loop_
_space_group_symop_operation_xyz
x,y,z
-x,y,-z
-x,-y,-z
x,-y,z
loop_
_atom_site_type_symbol
_atom_site_label
_atom_site_fract_x
_atom_site_fract_y
_atom_site_fract_z
Si Si1 0.668477 0.175426 0.278587
Si Si2 0.127813 0.326262 0.215860
Si Si3 0.945805 0.320922 0.000079
Si Si4 0.350606 0.677286 0.294808
Si Si5 0.109425 0.669742 0.682362
Si Si6 0.791876 0.668287 0.014389
Si Si7 0.813779 0.176595 0.613993
Si Si8 0.695519 0.325447 0.878880
O O1 0.500000 0.226523 0.500000
O O2 0.780424 0.259269 0.188005
O O3 0.699669 0.217096 0.169475
O O4 0.691420 0.000000 0.259806
O O5 0.077032 0.500000 0.279886
O O6 0.227311 0.282738 0.151957
O O7 0.981927 0.223624 0.391496
O O8 0.231109 0.294932 0.029250
O O9 0.936231 0.500000 0.008392
O O10 0.000000 0.264120 0.000000
O O11 0.064084 0.257559 0.803903
O O12 0.323342 0.500000 0.322187
O O13 0.250784 0.744988 0.473780
O O14 0.305099 0.750789 0.286530
O O15 0.521846 0.718337 0.098186
O O16 0.155023 0.500000 0.640489
O O17 0.969224 0.681829 0.808688
O O18 0.736670 0.500000 0.097954
O O19 0.775905 0.228439 0.728810
O O20 0.798863 0.000000 0.627527
O O21 0.715664 0.500000 0.837843
#
# Coordination Sequence:
#
# PCOD8062490 Si02
#       8
#     4   4   4   4   4   4   4   4
#     4  10  21  36  54  79 114 151 185 218 260 319
#     4  10  20  38  59  82 109 138 179 227 272 325
#     4   9  18  34  56  85 113 140 179 227 274 314
#     4  10  19  36  58  79 106 141 182 225 270 320
#     4   8  14  29  54  79 104 135 173 219 263 311
#     4   9  17  33  58  82 105 138 182 229 270 310
#     4  12  24  36  55  80 107 144 186 222 267 323
#     4  10  22  37  56  81 108 141 179 222 279 329
#
# _framework density 18.514496000000001
#
# number of rings (size 3 to 8) (size 9 to 14) (size 15 to 20)
#    0.000    2.250    1.250    3.000    0.000    5.750 
#    2.250    0.000    0.000    0.000    0.000    0.000 
#    0.000    0.000    0.000    0.000    0.000    0.000 
#
# Total GULP energy -396762.524851 kJ/mol
# GULP energy per Si atom -12398.828902 kJ/mol
# Density = 1.847236 g / cm^3
# Si number density = 18.514496 Si / 1000 Ang^3
#
#
#
# Elastic Constant Matrix: (Units=GPa)
#
#
# Indices 1 2 3 4 5 6 
#
# 1 120.9394 32.4368 39.6815 0.0000 14.4379 0.0000
# 2 32.4368 45.4183 27.7672 0.0000 -3.2771 0.0000
# 3 39.6815 27.7672 87.6121 0.0000 6.9802 0.0000
# 4 0.0000 0.0000 0.0000 18.4387 0.0000 -0.3430
# 5 14.4379 -3.2771 6.9802 0.0000 26.2820 0.0000
# 6 0.0000 0.0000 0.0000 -0.3430 0.0000 4.2208
#
#
#
# Elastic Compliance Matrix: (Units=1/GPa)
#
#
# Indices 1 2 3 4 5 6 
#
# 1 0.011900 -0.007475 -0.002478 0.000000 -0.006811 0.000000
# 2 -0.007475 0.032907 -0.007864 0.000000 0.010298 0.000000
# 3 -0.002478 -0.007864 0.015323 0.000000 -0.003689 0.000000
# 4 0.000000 0.000000 0.000000 0.054316 0.000000 0.004414
# 5 -0.006811 0.010298 -0.003689 0.000000 0.044054 0.000000
# 6 0.000000 0.000000 0.000000 0.004414 0.000000 0.237280
#
#
# Mechanical properties :
#
#
# Convention : Reuss Voigt Hill
#
# Bulk Modulus (GPa) = 40.82465 50.41565 45.62015
# Shear Modulus (GPa) = 11.37453 20.06058 15.71756
#
# Velocity S-wave (km/s) = 2.48131 3.29524 2.91681
# Velocity P-wave (km/s) = 5.50520 6.46279 6.00312
#
# Compressibility (1/GPa) = 0.02449500
#
# Stress axis : x y z
#
# Youngs Moduli (GPa) = 84.03671 30.38869 65.26326
#
# Poissons Ratio (x) = 0.22715 0.16171
# Poissons Ratio (y) = 0.62817 0.51324
# Poissons Ratio (z) = 0.20823 0.23898
#
# Static dielectric constant tensor:
#      x y z
#    x 3.562500 0.000000 0.179080 
#    y 0.000000 3.166580 0.000000 
#    z 0.179080 0.000000 3.478130 
# 
# 
# High freq. dielectric constant tensor:
#      x y z
#    x 1.723380 0.000000 0.012910 
#    y 0.000000 1.691590 0.000000 
#    z 0.012910 0.000000 1.718540 
# 
# From -- ./inp_files/86898.got.cif
#   From: 2010.06.25/outbox.cif.g09.slc.cpg/sg10_44_cif.got.tgz:86898.got - 2010.06.27 22:07:45.
