data_PCOD8062362
_publ_section_title
;
Structure prediction by ZEFSAII (Michael W. Deem and Ramdas Pophale) SiO2 
 PCOD8062362
Probable space group: P 2/M
;
_chemical_formula_sum "Si O2"
_cell_formula_units_Z 26
_cell_length_a 5.189560
_cell_length_b 26.633927
_cell_length_c 9.972637
_cell_angle_alpha 90.000000
_cell_angle_beta 120.137038
_cell_angle_gamma 90.000000
_cell_volume 1192.078943
_symmetry_space_group_name_H-M "P 2/M"
_symmetry_group_IT_number 10
_symmetry_cell_setting 'monoclinic'
loop_
_space_group_symop_operation_xyz
x,y,z
-x,y,-z
-x,-y,-z
x,-y,z
loop_
_atom_site_type_symbol
_atom_site_label
_atom_site_fract_x
_atom_site_fract_y
_atom_site_fract_z
Si Si1 0.406952 0.558059 0.328278
Si Si2 0.352045 0.890913 0.105474
Si Si3 0.810735 0.264147 0.563433
Si Si4 0.320966 0.152883 0.572738
Si Si5 0.348776 0.000000 0.102694
Si Si6 0.166036 0.291482 0.901337
Si Si7 0.250884 0.595529 0.833103
O O1 0.500000 0.576131 0.500000
O O2 0.484846 0.500000 0.325292
O O3 0.610204 0.589680 0.278621
O O4 0.052785 0.565461 0.219963
O O5 0.493020 0.850006 0.241267
O O6 0.431784 0.946271 0.191373
O O7 0.500000 0.883980 0.000000
O O8 0.000000 0.881779 0.000000
O O9 0.500000 0.294345 0.500000
O O10 0.726728 0.210814 0.476429
O O11 0.000000 0.293945 0.500000
O O12 0.982536 0.257261 0.748924
O O13 0.500000 0.125489 0.500000
O O14 0.000000 0.125838 0.500000
O O15 0.500000 0.000000 0.000000
O O16 0.000000 0.000000 0.000000
O O17 0.180198 0.346564 0.841995
O O18 0.500000 0.269261 0.000000
O O19 0.000000 0.291608 0.000000
O O20 0.500000 0.574555 0.000000
#
# Coordination Sequence:
#
# PCOD8062362 Si02
#       7
#     4   4   4   4   2   4   4
#     4  11  24  41  61  90 126 162 199 236 281 346
#     4  10  19  35  59  85 114 157 203 246 293 348
#     4  10  22  41  61  86 118 152 190 243 300 356
#     4  10  21  39  56  82 121 153 190 242 297 357
#     4   8  16  30  52  82 114 148 198 248 290 344
#     4  11  23  42  64  88 117 151 196 246 293 351
#     4  11  23  40  62  90 120 154 199 246 291 341
#
# _framework density 21.810637
#
# number of rings (size 3 to 8) (size 9 to 14) (size 15 to 20)
#    0.000    1.692    0.000    5.077    0.000    4.923 
#    0.000   19.231    0.000    0.000    0.000    0.000 
#    0.000    0.000    0.000    0.000    0.000    0.000 
#
# Total GULP energy -322216.471093 kJ/mol
# GULP energy per Si atom -12392.941196 kJ/mol
# Density = 2.176099 g / cm^3
# Si number density = 21.810637 Si / 1000 Ang^3
#
#
#
# Elastic Constant Matrix: (Units=GPa)
#
#
# Indices 1 2 3 4 5 6 
#
# 1 217.7628 18.2497 67.5522 0.0000 -11.1886 0.0000
# 2 18.2497 52.5701 41.3586 0.0000 -3.8188 0.0000
# 3 67.5522 41.3586 143.3036 0.0000 -5.5630 0.0000
# 4 0.0000 0.0000 0.0000 20.2020 0.0000 5.5713
# 5 -11.1886 -3.8188 -5.5630 0.0000 47.3057 0.0000
# 6 0.0000 0.0000 0.0000 5.5713 0.0000 -0.0714
#
#
#
# Elastic Compliance Matrix: (Units=1/GPa)
#
#
# Indices 1 2 3 4 5 6 
#
# 1 0.005426 0.000221 -0.002583 0.000000 0.000997 0.000000
# 2 0.000221 0.024682 -0.007181 0.000000 0.001200 0.000000
# 3 -0.002583 -0.007181 0.010269 0.000000 0.000017 0.000000
# 4 0.000000 0.000000 0.000000 0.002197 0.000000 0.171525
# 5 0.000997 0.001200 0.000017 0.000000 0.021474 0.000000
# 6 0.000000 0.000000 0.000000 0.171525 0.000000 -0.621964
#
#
# Mechanical properties :
#
#
# Convention : Reuss Voigt Hill
#
# Bulk Modulus (GPa) = 46.96776 74.21749 60.59263
# Shear Modulus (GPa) = -9.40321 32.58566 11.59122
#
# Velocity S-wave (km/s) = -2.07862 3.86946 2.30782
# Velocity P-wave (km/s) = 3.97746 7.35293 5.91125
#
# Compressibility (1/GPa) = 0.02129120
#
# Stress axis : x y z
#
# Youngs Moduli (GPa) = 184.29379 40.51486 97.38167
#
# Poissons Ratio (x) = -0.00894 0.25152
# Poissons Ratio (y) = -0.04069 0.69930
# Poissons Ratio (z) = 0.47600 0.29094
#
# Static dielectric constant tensor:
#      x y z
#    x 16.275300 0.000000 -0.364450 
#    y 0.000000 3.827880 0.000000 
#    z -0.364450 0.000000 3.916830 
# 
# 
# High freq. dielectric constant tensor:
#      x y z
#    x 1.897160 0.000000 -0.002180 
#    y 0.000000 1.829980 0.000000 
#    z -0.002180 0.000000 1.849860 
# 
# From -- ./inp_files/15850.got.cif
#   From: 2010.06.25/outbox.cif.g09.slc.cpg/sg10_8_cif.got.tgz:15850.got - 2010.06.27 22:07:45.
