data_PCOD8062943
_publ_section_title
;
Structure prediction by ZEFSAII (Michael W. Deem and Ramdas Pophale) SiO2 
 PCOD8062943
Probable space group: P 2/M
;
_chemical_formula_sum "Si O2"
_cell_formula_units_Z 32
_cell_length_a 21.141466
_cell_length_b 9.115391
_cell_length_c 9.342907
_cell_angle_alpha 90.000000
_cell_angle_beta 89.610346
_cell_angle_gamma 90.000000
_cell_volume 1800.455467
_symmetry_space_group_name_H-M "P 2/M"
_symmetry_group_IT_number 10
_symmetry_cell_setting 'monoclinic'
loop_
_space_group_symop_operation_xyz
x,y,z
-x,y,-z
-x,-y,-z
x,-y,z
loop_
_atom_site_type_symbol
_atom_site_label
_atom_site_fract_x
_atom_site_fract_y
_atom_site_fract_z
Si Si1 0.624526 0.325292 0.822920
Si Si2 0.439847 0.662808 0.898712
Si Si3 0.510621 0.173036 0.665840
Si Si4 0.854117 0.330270 0.515517
Si Si5 0.904049 0.827644 0.256610
Si Si6 0.967851 0.335555 0.724135
Si Si7 0.235103 0.674131 0.238198
Si Si8 0.129718 0.668567 0.025992
O O1 0.616618 0.500000 0.803973
O O2 0.574992 0.247530 0.718599
O O3 0.693621 0.267331 0.776973
O O4 0.615501 0.283057 0.991877
O O5 0.425171 0.500000 0.838229
O O6 0.451410 0.769306 0.762977
O O7 0.500000 0.657157 0.000000
O O8 0.500000 0.214585 0.500000
O O9 0.515844 0.000000 0.687196
O O10 0.843872 0.500000 0.477184
O O11 0.854791 0.235785 0.372350
O O12 0.920498 0.307039 0.594687
O O13 0.796146 0.270227 0.613407
O O14 0.975201 0.777342 0.287250
O O15 0.902061 0.000000 0.263434
O O16 0.879960 0.775150 0.104881
O O17 0.996093 0.500000 0.714133
O O18 0.931383 0.316101 0.873172
O O19 0.232827 0.500000 0.238847
O O20 0.192477 0.726390 0.105682
O O21 0.137251 0.500000 0.975495
#
# Coordination Sequence:
#
# PCOD8062943 Si02
#       8
#     4   4   4   4   4   4   4   4
#     4   9  17  32  55  79  99 121 158 205 247 287
#     4   8  15  28  48  74 100 125 155 196 241 279
#     4  10  20  32  47  72 106 139 167 194 228 276
#     4   9  18  34  54  72  93 125 164 202 241 290
#     4  12  23  31  44  71 103 130 157 196 248 297
#     4   9  18  33  53  73  91 120 164 206 245 294
#     4   8  16  34  58  77  91 118 164 208 242 284
#     4   9  18  34  54  72  93 123 160 203 246 289
#
# _framework density 17.773281000000001
#
# number of rings (size 3 to 8) (size 9 to 14) (size 15 to 20)
#    0.000    2.750    0.000    4.500    0.000    7.250 
#    0.000    4.375    0.000    6.000    0.000    0.000 
#    0.000    0.000    0.000    0.000    0.000    0.000 
#
# Total GULP energy -396680.898174 kJ/mol
# GULP energy per Si atom -12396.278068 kJ/mol
# Density = 1.773283 g / cm^3
# Si number density = 17.773281 Si / 1000 Ang^3
#
#
#
# Elastic Constant Matrix: (Units=GPa)
#
#
# Indices 1 2 3 4 5 6 
#
# 1 83.4013 29.4927 29.5580 0.0000 -18.4429 0.0000
# 2 29.4927 80.7844 47.2189 0.0000 -7.6266 0.0000
# 3 29.5580 47.2189 100.5208 0.0000 -14.5655 0.0000
# 4 0.0000 0.0000 0.0000 11.0090 0.0000 1.0018
# 5 -18.4429 -7.6266 -14.5655 0.0000 14.6120 0.0000
# 6 0.0000 0.0000 0.0000 1.0018 0.0000 4.5760
#
#
#
# Elastic Compliance Matrix: (Units=1/GPa)
#
#
# Indices 1 2 3 4 5 6 
#
# 1 0.018191 -0.004573 -0.000257 0.000000 0.020318 0.000000
# 2 -0.004573 0.018228 -0.007802 0.000000 -0.004036 0.000000
# 3 -0.000257 -0.007802 0.015255 0.000000 0.010810 0.000000
# 4 0.000000 0.000000 0.000000 0.092681 0.000000 -0.020289
# 5 0.020318 -0.004036 0.010810 0.000000 0.102750 0.000000
# 6 0.000000 0.000000 0.000000 -0.020289 0.000000 0.222972
#
#
# Mechanical properties :
#
#
# Convention : Reuss Voigt Hill
#
# Bulk Modulus (GPa) = 37.86512 53.02730 45.44621
# Shear Modulus (GPa) = 9.91777 16.60187 13.25982
#
# Velocity S-wave (km/s) = 2.36480 3.05961 2.73436
# Velocity P-wave (km/s) = 5.36723 6.51013 5.96611
#
# Compressibility (1/GPa) = 0.02640953
#
# Stress axis : x y z
#
# Youngs Moduli (GPa) = 54.97124 54.86164 65.55124
#
# Poissons Ratio (x) = 0.25088 0.01685
# Poissons Ratio (y) = 0.25138 0.51146
# Poissons Ratio (z) = 0.01413 0.42805
#
# Static dielectric constant tensor:
#      x y z
#    x 3.465820 0.000000 -0.344090 
#    y 0.000000 3.059310 0.000000 
#    z -0.344090 0.000000 3.466280 
# 
# 
# High freq. dielectric constant tensor:
#      x y z
#    x 1.670830 0.000000 -0.017540 
#    y 0.000000 1.664890 0.000000 
#    z -0.017540 0.000000 1.693670 
# 
# From -- ./inp_files/35690.got.cif
#   From: 2010.06.25/outbox.cif.g09.slc.cpg/sg10_18_cif.got.tgz:35690.got - 2010.06.27 22:07:45.
