data_PCOD8062164
_publ_section_title
;
Structure prediction by ZEFSAII (Michael W. Deem and Ramdas Pophale) SiO2 
 PCOD8062164
Probable space group: P 2/M
;
_chemical_formula_sum "Si O2"
_cell_formula_units_Z 32
_cell_length_a 24.160210
_cell_length_b 9.116698
_cell_length_c 11.597762
_cell_angle_alpha 90.000000
_cell_angle_beta 137.312085
_cell_angle_gamma 90.000000
_cell_volume 1731.989020
_symmetry_space_group_name_H-M "P 2/M"
_symmetry_group_IT_number 10
_symmetry_cell_setting 'monoclinic'
loop_
_space_group_symop_operation_xyz
x,y,z
-x,y,-z
-x,-y,-z
x,-y,z
loop_
_atom_site_type_symbol
_atom_site_label
_atom_site_fract_x
_atom_site_fract_y
_atom_site_fract_z
Si Si1 0.322942 0.170906 0.306223
Si Si2 0.477387 0.334651 0.598732
Si Si3 0.152611 0.673137 0.419610
Si Si4 0.964221 0.332802 0.134189
Si Si5 0.367693 0.168976 0.120092
Si Si6 0.214235 0.829422 0.735552
Si Si7 0.914471 0.332232 0.314683
Si Si8 0.164603 0.827728 0.204436
O O1 0.391469 0.253624 0.486666
O O2 0.326241 0.219566 0.177362
O O3 0.234389 0.213122 0.219325
O O4 0.340436 0.000000 0.347588
O O5 0.500000 0.325360 0.500000
O O6 0.468456 0.500000 0.629313
O O7 0.550087 0.258627 0.781748
O O8 0.166186 0.500000 0.434124
O O9 0.203715 0.736560 0.604027
O O10 0.186900 0.747910 0.357292
O O11 0.057901 0.714556 0.292843
O O12 0.958743 0.500000 0.081755
O O13 0.917491 0.313379 0.182596
O O14 0.922041 0.230657 0.974631
O O15 0.392658 0.000000 0.168092
O O16 0.305742 0.197053 0.920815
O O17 0.153681 0.776207 0.742642
O O18 0.197352 0.000000 0.685212
O O19 0.894216 0.500000 0.319404
O O20 0.000000 0.284617 0.500000
O O21 0.157688 0.000000 0.215704
#
# Coordination Sequence:
#
# PCOD8062164 Si02
#       8
#     4   4   4   4   4   4   4   4
#     4   9  18  34  54  77 110 143 169 206 263 321
#     4   9  17  29  50  81 111 137 171 211 252 306
#     4  11  23  40  56  72 102 145 186 222 270 323
#     4  10  21  37  56  76 103 141 182 221 268 323
#     4   9  18  33  53  79 111 143 171 205 261 323
#     4  11  22  35  54  81 109 140 181 225 267 314
#     4  10  19  35  54  75 106 143 178 213 263 322
#     4  11  23  37  55  80 106 135 180 230 270 311
#
# _framework density 18.475867000000001
#
# number of rings (size 3 to 8) (size 9 to 14) (size 15 to 20)
#    0.000    2.000    1.250    2.625    0.000    7.750 
#    0.000    2.500    0.000    0.750    0.000    5.250 
#    0.000    0.000    0.000    0.000    0.000    0.000 
#
# Total GULP energy -396916.491963 kJ/mol
# GULP energy per Si atom -12403.640374 kJ/mol
# Density = 1.843382 g / cm^3
# Si number density = 18.475867 Si / 1000 Ang^3
#
#
#
# Elastic Constant Matrix: (Units=GPa)
#
#
# Indices 1 2 3 4 5 6 
#
# 1 41.6595 34.3881 35.2152 0.0000 -6.9518 0.0000
# 2 34.3881 91.7064 59.0025 0.0000 3.7012 0.0000
# 3 35.2152 59.0025 111.1238 0.0000 2.8087 0.0000
# 4 0.0000 0.0000 0.0000 28.5521 0.0000 -1.1323
# 5 -6.9518 3.7012 2.8087 0.0000 23.9269 0.0000
# 6 0.0000 0.0000 0.0000 -1.1323 0.0000 28.5182
#
#
#
# Elastic Compliance Matrix: (Units=1/GPa)
#
#
# Indices 1 2 3 4 5 6 
#
# 1 0.042656 -0.011638 -0.007720 0.000000 0.015100 0.000000
# 2 -0.011638 0.019794 -0.006679 0.000000 -0.005659 0.000000
# 3 -0.007720 -0.006679 0.015067 0.000000 -0.002979 0.000000
# 4 0.000000 0.000000 0.000000 0.035079 0.000000 0.001393
# 5 0.015100 -0.005659 -0.002979 0.000000 0.047406 0.000000
# 6 0.000000 0.000000 0.000000 0.001393 0.000000 0.035121
#
#
# Mechanical properties :
#
#
# Convention : Reuss Voigt Hill
#
# Bulk Modulus (GPa) = 39.30244 55.74458 47.52351
# Shear Modulus (GPa) = 19.55591 23.92503 21.74047
#
# Velocity S-wave (km/s) = 3.25692 3.60242 3.43402
# Velocity P-wave (km/s) = 5.95499 6.89495 6.44214
#
# Compressibility (1/GPa) = 0.02544371
#
# Stress axis : x y z
#
# Youngs Moduli (GPa) = 23.44314 50.52147 66.37045
#
# Poissons Ratio (x) = 0.58795 0.51241
# Poissons Ratio (y) = 0.27282 0.44326
# Poissons Ratio (z) = 0.18099 0.33741
#
# Static dielectric constant tensor:
#      x y z
#    x 3.259190 0.000000 0.027880 
#    y 0.000000 3.422800 0.000000 
#    z 0.027880 0.000000 3.397740 
# 
# 
# High freq. dielectric constant tensor:
#      x y z
#    x 1.693280 0.000000 0.004400 
#    y 0.000000 1.721400 0.000000 
#    z 0.004400 0.000000 1.717420 
# 
# From -- ./inp_files/54771.got.cif
#   From: 2010.06.25/outbox.cif.g09.slc.cpg/sg10_28_cif.got.tgz:54771.got - 2010.06.27 22:07:45.
