data_PCOD8062282
_publ_section_title
;
Structure prediction by ZEFSAII (Michael W. Deem and Ramdas Pophale) SiO2 
 PCOD8062282
Probable space group: P 2/M
;
_chemical_formula_sum "Si O2"
_cell_formula_units_Z 32
_cell_length_a 13.929144
_cell_length_b 14.327585
_cell_length_c 21.707679
_cell_angle_alpha 90.000000
_cell_angle_beta 155.923168
_cell_angle_gamma 90.000000
_cell_volume 1767.379430
_symmetry_space_group_name_H-M "P 2/M"
_symmetry_group_IT_number 10
_symmetry_cell_setting 'monoclinic'
loop_
_space_group_symop_operation_xyz
x,y,z
-x,y,-z
-x,-y,-z
x,-y,z
loop_
_atom_site_type_symbol
_atom_site_label
_atom_site_fract_x
_atom_site_fract_y
_atom_site_fract_z
Si Si1 0.476560 0.894866 0.418458
Si Si2 0.757945 0.109886 0.025841
Si Si3 0.995832 0.896429 0.292875
Si Si4 0.206062 0.391252 0.700645
Si Si5 0.367636 0.782619 0.859107
Si Si6 0.928751 0.207342 0.886479
Si Si7 0.679432 0.392063 0.368261
Si Si8 0.220681 0.397604 0.172017
O O1 0.500000 0.846433 0.500000
O O2 0.302766 0.848857 0.267936
O O3 0.728214 0.892543 0.533613
O O4 0.382440 0.000000 0.374114
O O5 0.934173 0.129439 0.186013
O O6 0.853282 0.167754 0.023824
O O7 0.735439 0.000000 0.997515
O O8 0.502096 0.154196 0.887967
O O9 0.889292 0.826465 0.280847
O O10 0.894665 0.000000 0.246220
O O11 0.269150 0.500000 0.748513
O O12 0.347212 0.326386 0.830551
O O13 0.290337 0.353648 0.683294
O O14 0.926694 0.374717 0.547943
O O15 0.500000 0.791745 0.000000
O O16 0.865245 0.315830 0.831987
O O17 0.000000 0.197971 0.000000
O O18 0.631430 0.500000 0.332094
O O19 0.450122 0.354212 0.270467
O O20 0.280956 0.500000 0.238248
O O21 0.000000 0.416787 0.000000
#
# Coordination Sequence:
#
# PCOD8062282 Si02
#       8
#     4   4   4   4   4   4   4   4
#     4  10  19  35  58  81 107 145 188 230 270 324
#     4  10  20  37  55  75 108 142 180 226 270 323
#     4   9  18  35  57  77  99 137 188 228 259 312
#     4   9  18  32  54  76 102 135 175 220 263 314
#     4  10  21  33  52  80 106 138 179 219 274 319
#     4  11  23  34  55  85 113 144 181 225 285 328
#     4   8  16  33  53  74  97 135 180 218 255 304
#     4   9  19  34  53  79 112 142 178 220 265 329
#
# _framework density 18.105903000000001
#
# number of rings (size 3 to 8) (size 9 to 14) (size 15 to 20)
#    0.000    2.500    1.250    1.500    5.250    2.750 
#    0.000    0.000    0.000    1.125    0.000    6.125 
#    0.000    0.000    0.000    0.000    0.000    0.000 
#
# Total GULP energy -396439.191084 kJ/mol
# GULP energy per Si atom -12388.724721 kJ/mol
# Density = 1.806469 g / cm^3
# Si number density = 18.105903 Si / 1000 Ang^3
#
#
#
# Elastic Constant Matrix: (Units=GPa)
#
#
# Indices 1 2 3 4 5 6 
#
# 1 93.7767 59.3749 29.7505 0.0000 13.1019 0.0000
# 2 59.3749 118.7747 31.5650 0.0000 4.5078 0.0000
# 3 29.7505 31.5650 60.0143 0.0000 7.3742 0.0000
# 4 0.0000 0.0000 0.0000 -13.0311 0.0000 13.8013
# 5 13.1019 4.5078 7.3742 0.0000 21.8127 0.0000
# 6 0.0000 0.0000 0.0000 13.8013 0.0000 24.1684
#
#
#
# Elastic Compliance Matrix: (Units=1/GPa)
#
#
# Indices 1 2 3 4 5 6 
#
# 1 0.017767 -0.007556 -0.003875 0.000000 -0.007800 0.000000
# 2 -0.007556 0.013002 -0.003465 0.000000 0.003023 0.000000
# 3 -0.003875 -0.003465 0.020900 0.000000 -0.004022 0.000000
# 4 0.000000 0.000000 0.000000 -0.047819 0.000000 0.027307
# 5 -0.007800 0.003023 -0.004022 0.000000 0.051265 0.000000
# 6 0.000000 0.000000 0.000000 0.027307 0.000000 0.025783
#
#
# Mechanical properties :
#
#
# Convention : Reuss Voigt Hill
#
# Bulk Modulus (GPa) = 45.70655 57.10516 51.40585
# Shear Modulus (GPa) = 42.37953 16.71502 29.54727
#
# Velocity S-wave (km/s) = 4.84327 3.04168 4.04408
# Velocity P-wave (km/s) = 7.52165 6.62901 7.08939
#
# Compressibility (1/GPa) = 0.02187870
#
# Stress axis : x y z
#
# Youngs Moduli (GPa) = 56.28547 76.90934 47.84676
#
# Poissons Ratio (x) = 0.58110 0.18540
# Poissons Ratio (y) = 0.42527 0.16577
# Poissons Ratio (z) = 0.21810 0.26646
#
# Static dielectric constant tensor:
#      x y z
#    x 3.586700 0.000000 0.379380 
#    y 0.000000 3.488330 0.000000 
#    z 0.379380 0.000000 3.234520 
# 
# 
# High freq. dielectric constant tensor:
#      x y z
#    x 1.689170 0.000000 0.029420 
#    y 0.000000 1.698780 0.000000 
#    z 0.029420 0.000000 1.688210 
# 
# From -- ./inp_files/54072.got.cif
#   From: 2010.06.25/outbox.cif.g09.slc.cpg/sg10_28_cif.got.tgz:54072.got - 2010.06.27 22:07:45.
