data_PCOD8062528
_publ_section_title
;
Structure prediction by ZEFSAII (Michael W. Deem and Ramdas Pophale) SiO2 
 PCOD8062528
Probable space group: P 2/M
;
_chemical_formula_sum "Si O2"
_cell_formula_units_Z 32
_cell_length_a 16.097578
_cell_length_b 8.875444
_cell_length_c 12.080639
_cell_angle_alpha 90.000000
_cell_angle_beta 88.088997
_cell_angle_gamma 90.000000
_cell_volume 1725.039025
_symmetry_space_group_name_H-M "P 2/M"
_symmetry_group_IT_number 10
_symmetry_cell_setting 'monoclinic'
loop_
_space_group_symop_operation_xyz
x,y,z
-x,y,-z
-x,-y,-z
x,-y,z
loop_
_atom_site_type_symbol
_atom_site_label
_atom_site_fract_x
_atom_site_fract_y
_atom_site_fract_z
Si Si1 0.762749 0.675253 0.919586
Si Si2 0.283831 0.824505 0.856372
Si Si3 0.131138 0.828115 0.256571
Si Si4 0.730982 0.824260 0.573715
Si Si5 0.791601 0.677400 0.353944
Si Si6 0.620762 0.324085 0.752690
Si Si7 0.964702 0.825888 0.384512
Si Si8 0.523477 0.175339 0.120941
O O1 0.766543 0.500000 0.949839
O O2 0.844465 0.719988 0.845904
O O3 0.681688 0.716228 0.851399
O O4 0.761683 0.773478 0.029940
O O5 0.247258 0.728304 0.759134
O O6 0.381074 0.789669 0.860396
O O7 0.265891 0.000000 0.837542
O O8 0.184681 0.787801 0.363081
O O9 0.034586 0.803677 0.287666
O O10 0.149610 0.000000 0.220975
O O11 0.737515 0.748749 0.454171
O O12 0.651326 0.758168 0.640542
O O13 0.717068 0.000000 0.557120
O O14 0.786686 0.500000 0.364781
O O15 0.887061 0.726867 0.353243
O O16 0.618791 0.500000 0.728397
O O17 0.529186 0.266154 0.786117
O O18 0.000000 0.769201 0.500000
O O19 0.936753 0.000000 0.395834
O O20 0.501553 0.000000 0.133051
O O21 0.500000 0.234502 0.000000
#
# Coordination Sequence:
#
# PCOD8062528 Si02
#       8
#     4   4   4   4   4   4   4   4
#     4  10  20  34  54  84 120 151 185 231 288 343
#     4  11  23  40  61  82 113 155 197 236 282 342
#     4   9  18  33  58  86 113 147 190 237 279 330
#     4  10  19  36  59  83 114 153 195 234 279 337
#     4  12  25  39  57  85 121 154 189 235 293 347
#     4  10  20  33  55  88 121 150 183 234 294 341
#     4  10  19  37  61  87 115 149 196 239 279 335
#     4  10  20  36  59  87 113 146 196 243 281 334
#
# _framework density 18.550305000000002
#
# number of rings (size 3 to 8) (size 9 to 14) (size 15 to 20)
#    0.000    1.750    2.500    2.625    0.000    3.500 
#    0.000    1.250    0.000    7.500    0.000    0.000 
#    0.000    0.000    0.000    0.000    0.000    0.000 
#
# Total GULP energy -396975.140448 kJ/mol
# GULP energy per Si atom -12405.473139 kJ/mol
# Density = 1.850808 g / cm^3
# Si number density = 18.550305 Si / 1000 Ang^3
#
#
#
# Elastic Constant Matrix: (Units=GPa)
#
#
# Indices 1 2 3 4 5 6 
#
# 1 79.8095 42.7191 48.3121 0.0000 -10.4818 0.0000
# 2 42.7191 95.1135 51.0725 0.0000 -7.3631 0.0000
# 3 48.3121 51.0725 105.3669 0.0000 -12.6442 0.0000
# 4 0.0000 0.0000 0.0000 32.0174 0.0000 -5.0550
# 5 -10.4818 -7.3631 -12.6442 0.0000 27.3353 0.0000
# 6 0.0000 0.0000 0.0000 -5.0550 0.0000 -4.5132
#
#
#
# Elastic Compliance Matrix: (Units=1/GPa)
#
#
# Indices 1 2 3 4 5 6 
#
# 1 0.019368 -0.005256 -0.005941 0.000000 0.003263 0.000000
# 2 -0.005256 0.015651 -0.005201 0.000000 -0.000205 0.000000
# 3 -0.005941 -0.005201 0.015134 0.000000 0.003321 0.000000
# 4 0.000000 0.000000 0.000000 0.026540 0.000000 -0.029726
# 5 0.003263 -0.000205 0.003321 0.000000 0.039315 0.000000
# 6 0.000000 0.000000 0.000000 -0.029726 0.000000 -0.188277
#
#
# Mechanical properties :
#
#
# Convention : Reuss Voigt Hill
#
# Bulk Modulus (GPa) = 57.61364 62.72192 60.16778
# Shear Modulus (GPa) = -148.43396 20.18030 -64.12683
#
# Velocity S-wave (km/s) = -8.95493 3.30186 -5.88593
# Velocity P-wave (km/s) = 8.70606 6.95856 3.69958
#
# Compressibility (1/GPa) = 0.01735700
#
# Stress axis : x y z
#
# Youngs Moduli (GPa) = 51.63054 63.89224 66.07463
#
# Poissons Ratio (x) = 0.33583 0.39257
# Poissons Ratio (y) = 0.27138 0.34365
# Poissons Ratio (z) = 0.30676 0.33230
#
# Static dielectric constant tensor:
#      x y z
#    x 3.342810 0.000000 -0.140490 
#    y 0.000000 3.399420 0.000000 
#    z -0.140490 0.000000 3.348580 
# 
# 
# High freq. dielectric constant tensor:
#      x y z
#    x 1.710890 0.000000 -0.021330 
#    y 0.000000 1.724750 0.000000 
#    z -0.021330 0.000000 1.715550 
# 
# From -- ./inp_files/49794.got.cif
#   From: 2010.06.25/outbox.cif.g09.slc.cpg/sg10_25_cif.got.tgz:49794.got - 2010.06.27 22:07:45.
