data_PCOD8062321
_publ_section_title
;
Structure prediction by ZEFSAII (Michael W. Deem and Ramdas Pophale) SiO2 
 PCOD8062321
Probable space group: P 2/M
;
_chemical_formula_sum "Si O2"
_cell_formula_units_Z 28
_cell_length_a 17.402361
_cell_length_b 8.958729
_cell_length_c 13.751658
_cell_angle_alpha 90.000000
_cell_angle_beta 39.209236
_cell_angle_gamma 90.000000
_cell_volume 1355.291372
_symmetry_space_group_name_H-M "P 2/M"
_symmetry_group_IT_number 10
_symmetry_cell_setting 'monoclinic'
loop_
_space_group_symop_operation_xyz
x,y,z
-x,y,-z
-x,-y,-z
x,-y,z
loop_
_atom_site_type_symbol
_atom_site_label
_atom_site_fract_x
_atom_site_fract_y
_atom_site_fract_z
Si Si1 0.054563 0.176394 0.695697
Si Si2 0.850419 0.676024 0.796430
Si Si3 0.603811 0.675948 0.130123
Si Si4 0.876109 0.323263 0.177646
Si Si5 0.169033 0.826831 0.379590
Si Si6 0.407223 0.665748 0.177758
Si Si7 0.376915 0.322267 0.673212
O O1 0.127053 0.245207 0.714515
O O2 0.118771 0.225018 0.532588
O O3 0.922361 0.251818 0.816705
O O4 0.044699 0.000000 0.718402
O O5 0.870950 0.500000 0.775439
O O6 0.893664 0.742804 0.650150
O O7 0.711648 0.723781 0.951825
O O8 0.608858 0.500000 0.137139
O O9 0.475934 0.722963 0.207606
O O10 0.617963 0.746594 0.223181
O O11 0.875946 0.500000 0.192027
O O12 0.751376 0.268550 0.247905
O O13 0.000000 0.273550 0.000000
O O14 0.310526 0.788858 0.243501
O O15 0.147329 0.000000 0.382099
O O16 0.348727 0.500000 0.251914
O O17 0.500000 0.649890 0.000000
O O18 0.500000 0.262872 0.500000
O O19 0.377941 0.500000 0.672230
#
# Coordination Sequence:
#
# PCOD8062321 Si02
#       7
#     4   4   4   4   4   4   4
#     4  11  25  41  58  84 120 158 195 240 300 360
#     4  11  21  38  62  87 115 152 198 246 296 352
#     4   9  18  33  55  84 119 149 183 241 297 345
#     4  10  21  39  63  90 117 151 203 258 303 354
#     4  11  24  39  55  82 123 159 193 241 296 359
#     4  10  19  35  58  86 116 151 198 245 290 348
#     4   9  18  32  54  87 119 148 187 242 302 350
#
# _framework density 20.659763000000002
#
# number of rings (size 3 to 8) (size 9 to 14) (size 15 to 20)
#    0.000    1.857    1.429    2.571    2.000    6.857 
#    0.000    0.000    0.000    1.286    0.000    0.000 
#    0.000    0.000    0.000    0.000    0.000    0.000 
#
# Total GULP energy -347102.163494 kJ/mol
# GULP energy per Si atom -12396.505839 kJ/mol
# Density = 2.061274 g / cm^3
# Si number density = 20.659763 Si / 1000 Ang^3
#
#
#
# Elastic Constant Matrix: (Units=GPa)
#
#
# Indices 1 2 3 4 5 6 
#
# 1 160.9535 28.3605 37.7168 0.0000 11.5035 0.0000
# 2 28.3605 38.5160 18.5143 0.0000 7.2409 0.0000
# 3 37.7168 18.5143 76.2803 0.0000 4.9344 0.0000
# 4 0.0000 0.0000 0.0000 15.8811 0.0000 2.7238
# 5 11.5035 7.2409 4.9344 0.0000 38.2382 0.0000
# 6 0.0000 0.0000 0.0000 2.7238 0.0000 21.8392
#
#
#
# Elastic Compliance Matrix: (Units=1/GPa)
#
#
# Indices 1 2 3 4 5 6 
#
# 1 0.007657 -0.004114 -0.002712 0.000000 -0.001175 0.000000
# 2 -0.004114 0.032459 -0.005573 0.000000 -0.004190 0.000000
# 3 -0.002712 -0.005573 0.015814 0.000000 -0.000170 0.000000
# 4 0.000000 0.000000 0.000000 0.064344 0.000000 -0.008025
# 5 -0.001175 -0.004190 -0.000170 0.000000 0.027321 0.000000
# 6 0.000000 0.000000 0.000000 -0.008025 0.000000 0.046790
#
#
# Mechanical properties :
#
#
# Convention : Reuss Voigt Hill
#
# Bulk Modulus (GPa) = 32.12038 49.43699 40.77869
# Shear Modulus (GPa) = 21.78077 27.93556 24.85816
#
# Velocity S-wave (km/s) = 3.25046 3.68118 3.47250
# Velocity P-wave (km/s) = 5.44687 6.48453 5.98822
#
# Compressibility (1/GPa) = 0.03113288
#
# Stress axis : x y z
#
# Youngs Moduli (GPa) = 130.59520 30.80806 63.23531
#
# Poissons Ratio (x) = 0.12674 0.17147
# Poissons Ratio (y) = 0.53726 0.35242
# Poissons Ratio (z) = 0.35413 0.17170
#
# Static dielectric constant tensor:
#      x y z
#    x 4.319740 0.000000 -0.043840 
#    y 0.000000 3.306230 0.000000 
#    z -0.043840 0.000000 3.866010 
# 
# 
# High freq. dielectric constant tensor:
#      x y z
#    x 1.831090 0.000000 -0.000670 
#    y 0.000000 1.766350 0.000000 
#    z -0.000670 0.000000 1.809320 
# 
# From -- ./inp_files/68576.got.cif
#   From: 2010.06.25/outbox.cif.g09.slc.cpg/sg10_35_cif.got.tgz:68576.got - 2010.06.27 22:07:45.
