data_PCOD8062640
_publ_section_title
;
Structure prediction by ZEFSAII (Michael W. Deem and Ramdas Pophale) SiO2 
 PCOD8062640
Probable space group: P 2/M
;
_chemical_formula_sum "Si O2"
_cell_formula_units_Z 28
_cell_length_a 20.948236
_cell_length_b 15.397245
_cell_length_c 8.813842
_cell_angle_alpha 90.000000
_cell_angle_beta 151.420933
_cell_angle_gamma 90.000000
_cell_volume 1359.942772
_symmetry_space_group_name_H-M "P 2/M"
_symmetry_group_IT_number 10
_symmetry_cell_setting 'monoclinic'
loop_
_space_group_symop_operation_xyz
x,y,z
-x,y,-z
-x,-y,-z
x,-y,z
loop_
_atom_site_type_symbol
_atom_site_label
_atom_site_fract_x
_atom_site_fract_y
_atom_site_fract_z
Si Si1 0.687434 0.828166 0.780105
Si Si2 0.557056 0.647466 0.464533
Si Si3 0.375884 0.312235 0.834368
Si Si4 0.603526 0.000000 0.434478
Si Si5 0.782171 0.830868 0.317550
Si Si6 0.300312 0.000000 0.697692
Si Si7 0.795344 0.402433 0.774415
Si Si8 0.046230 0.254671 0.762226
O O1 0.582427 0.751089 0.531330
O O2 0.630626 0.916005 0.592603
O O3 0.707804 0.840570 0.001980
O O4 0.825354 0.806830 0.983071
O O5 0.500000 0.607753 0.500000
O O6 0.694465 0.600113 0.707344
O O7 0.441600 0.628059 0.101295
O O8 0.290777 0.236707 0.727815
O O9 0.282472 0.372443 0.537548
O O10 0.500000 0.270293 0.000000
O O11 0.696505 0.000000 0.478834
O O12 0.449494 0.000000 0.071089
O O13 0.783002 0.919329 0.412562
O O14 0.933774 0.800696 0.611232
O O15 0.848933 0.500000 0.863463
O O16 0.921021 0.340190 0.070076
O O17 0.000000 0.286592 0.500000
#
# Coordination Sequence:
#
# PCOD8062640 Si02
#       8
#     4   4   4   2   4   2   4   4
#     4  10  21  40  64  89 127 168 216 255 307 358
#     4  10  19  36  64  95 122 168 212 252 311 381
#     4  10  22  36  63  90 130 166 201 253 320 381
#     4  11  25  40  59  96 135 166 202 267 310 364
#     4  11  22  41  64  91 123 171 216 258 298 370
#     4  11  27  36  59  98 134 162 207 258 314 362
#     4  10  23  42  64  92 127 162 202 264 326 374
#     4   9  22  43  68  90 120 167 216 257 308 374
#
# _framework density 20.589100999999999
#
# number of rings (size 3 to 8) (size 9 to 14) (size 15 to 20)
#    0.000    1.857    1.429    1.286    8.000    4.857 
#    0.000    4.286    0.000    0.000    0.000    0.000 
#    0.000    0.000    0.000    0.000    0.000    0.000 
#
# Total GULP energy -347231.844188 kJ/mol
# GULP energy per Si atom -12401.137292 kJ/mol
# Density = 2.054224 g / cm^3
# Si number density = 20.589101 Si / 1000 Ang^3
#
#
#
# Elastic Constant Matrix: (Units=GPa)
#
#
# Indices 1 2 3 4 5 6 
#
# 1 127.2010 38.6446 36.0024 0.0000 -3.8921 0.0000
# 2 38.6446 110.0304 30.3559 0.0000 -1.4887 0.0000
# 3 36.0024 30.3559 90.1930 0.0000 -3.9790 0.0000
# 4 0.0000 0.0000 0.0000 21.9162 0.0000 -9.0287
# 5 -3.8921 -1.4887 -3.9790 0.0000 29.0336 0.0000
# 6 0.0000 0.0000 0.0000 -9.0287 0.0000 26.4436
#
#
#
# Elastic Compliance Matrix: (Units=1/GPa)
#
#
# Indices 1 2 3 4 5 6 
#
# 1 0.009470 -0.002516 -0.002901 0.000000 0.000743 0.000000
# 2 -0.002516 0.010687 -0.002599 0.000000 -0.000145 0.000000
# 3 -0.002901 -0.002599 0.013177 0.000000 0.001284 0.000000
# 4 0.000000 0.000000 0.000000 0.053097 0.000000 0.018129
# 5 0.000743 -0.000145 0.001284 0.000000 0.034711 0.000000
# 6 0.000000 0.000000 0.000000 0.018129 0.000000 0.044006
#
#
# Mechanical properties :
#
#
# Convention : Reuss Voigt Hill
#
# Bulk Modulus (GPa) = 57.79490 59.71448 58.75469
# Shear Modulus (GPa) = 26.74588 30.30680 28.52634
#
# Velocity S-wave (km/s) = 3.60812 3.84080 3.72628
# Velocity P-wave (km/s) = 6.74460 6.98104 6.86384
#
# Compressibility (1/GPa) = 0.01730256
#
# Stress axis : x y z
#
# Youngs Moduli (GPa) = 105.60212 93.57145 75.89239
#
# Poissons Ratio (x) = 0.23539 0.22013
# Poissons Ratio (y) = 0.26565 0.19726
# Poissons Ratio (z) = 0.30630 0.24321
#
# Static dielectric constant tensor:
#      x y z
#    x 3.994330 0.000000 -0.085620 
#    y 0.000000 3.520380 0.000000 
#    z -0.085620 0.000000 3.837600 
# 
# 
# High freq. dielectric constant tensor:
#      x y z
#    x 1.819190 0.000000 -0.006120 
#    y 0.000000 1.788620 0.000000 
#    z -0.006120 0.000000 1.806520 
# 
# From -- ./inp_files/35331.got.cif
#   From: 2010.06.25/outbox.cif.g09.slc.cpg/sg10_18_cif.got.tgz:35331.got - 2010.06.27 22:07:45.
