data_PCOD8062602
_publ_section_title
;
Structure prediction by ZEFSAII (Michael W. Deem and Ramdas Pophale) SiO2 
 PCOD8062602
Probable space group: P 2/M
;
_chemical_formula_sum "Si O2"
_cell_formula_units_Z 32
_cell_length_a 14.711218
_cell_length_b 8.668124
_cell_length_c 12.888862
_cell_angle_alpha 90.000000
_cell_angle_beta 81.665860
_cell_angle_gamma 90.000000
_cell_volume 1626.213670
_symmetry_space_group_name_H-M "P 2/M"
_symmetry_group_IT_number 10
_symmetry_cell_setting 'monoclinic'
loop_
_space_group_symop_operation_xyz
x,y,z
-x,y,-z
-x,-y,-z
x,-y,z
loop_
_atom_site_type_symbol
_atom_site_label
_atom_site_fract_x
_atom_site_fract_y
_atom_site_fract_z
Si Si1 0.858711 0.827702 0.287206
Si Si2 0.903571 0.183570 0.055183
Si Si3 0.716055 0.182674 0.986007
Si Si4 0.899773 0.679029 0.487849
Si Si5 0.371078 0.318198 0.199759
Si Si6 0.565883 0.184252 0.180714
Si Si7 0.652331 0.170430 0.371091
Si Si8 0.713366 0.816390 0.579458
O O1 0.894271 0.758030 0.173946
O O2 0.889631 0.706571 0.367731
O O3 0.749618 0.839793 0.298100
O O4 0.898372 0.000000 0.303561
O O5 0.903616 0.000000 0.053990
O O6 0.817912 0.240477 0.000297
O O7 0.000000 0.252532 0.000000
O O8 0.694961 0.266652 0.881803
O O9 0.711682 0.000000 0.968888
O O10 0.645130 0.233819 0.087331
O O11 0.891361 0.500000 0.516357
O O12 0.819970 0.766035 0.564841
O O13 0.000000 0.744365 0.500000
O O14 0.368323 0.500000 0.212696
O O15 0.472954 0.261083 0.155847
O O16 0.339386 0.242886 0.312316
O O17 0.586810 0.249174 0.294716
O O18 0.555972 0.000000 0.184625
O O19 0.663278 0.251943 0.482649
O O20 0.612912 0.000000 0.398636
O O21 0.711646 0.000000 0.574909
#
# Coordination Sequence:
#
# PCOD8062602 Si02
#       8
#     4   4   4   4   4   4   4   4
#     4   9  16  31  54  81 111 145 189 238 286 335
#     4   9  17  31  56  90 118 141 182 244 296 333
#     4  10  20  37  61  85 114 153 198 241 286 344
#     4  10  21  36  55  82 117 155 190 228 283 344
#     4  12  26  40  54  80 122 159 191 239 295 350
#     4  10  19  36  62  86 110 148 198 243 290 348
#     4   8  15  31  58  85 107 138 183 241 290 335
#     4  10  21  39  62  85 112 147 194 242 289 342
#
# _framework density 19.677610999999999
#
# number of rings (size 3 to 8) (size 9 to 14) (size 15 to 20)
#    0.000    2.250    1.250    3.000    0.000    4.500 
#    0.000    7.500    0.000    0.750    0.000    0.000 
#    0.000    0.000    0.000    0.000    0.000    0.000 
#
# Total GULP energy -396649.540344 kJ/mol
# GULP energy per Si atom -12395.298136 kJ/mol
# Density = 1.963282 g / cm^3
# Si number density = 19.677611 Si / 1000 Ang^3
#
#
#
# Elastic Constant Matrix: (Units=GPa)
#
#
# Indices 1 2 3 4 5 6 
#
# 1 113.6742 19.0243 45.9107 0.0000 3.1873 0.0000
# 2 19.0243 44.1045 17.7190 0.0000 -1.8183 0.0000
# 3 45.9107 17.7190 109.8790 0.0000 -7.3392 0.0000
# 4 0.0000 0.0000 0.0000 10.8440 0.0000 -6.9989
# 5 3.1873 -1.8183 -7.3392 0.0000 24.3283 0.0000
# 6 0.0000 0.0000 0.0000 -6.9989 0.0000 9.5854
#
#
#
# Elastic Compliance Matrix: (Units=1/GPa)
#
#
# Indices 1 2 3 4 5 6 
#
# 1 0.011176 -0.003195 -0.004356 0.000000 -0.003017 0.000000
# 2 -0.003195 0.025167 -0.002623 0.000000 0.001508 0.000000
# 3 -0.004356 -0.002623 0.011603 0.000000 0.003875 0.000000
# 4 0.000000 0.000000 0.000000 0.174409 0.000000 0.127347
# 5 -0.003017 0.001508 0.003875 0.000000 0.042781 0.000000
# 6 0.000000 0.000000 0.000000 0.127347 0.000000 0.197309
#
#
# Mechanical properties :
#
#
# Convention : Reuss Voigt Hill
#
# Bulk Modulus (GPa) = 36.23374 48.10732 42.17053
# Shear Modulus (GPa) = 10.16278 21.28512 15.72395
#
# Velocity S-wave (km/s) = 2.27505 3.29248 2.82986
# Velocity P-wave (km/s) = 5.03535 6.24137 5.67052
#
# Compressibility (1/GPa) = 0.02759859
#
# Stress axis : x y z
#
# Youngs Moduli (GPa) = 89.48078 39.73389 86.18717
#
# Poissons Ratio (x) = 0.12695 0.37541
# Poissons Ratio (y) = 0.28589 0.22605
# Poissons Ratio (z) = 0.38976 0.10421
#
# Static dielectric constant tensor:
#      x y z
#    x 3.736790 0.000000 0.058050 
#    y 0.000000 3.196760 0.000000 
#    z 0.058050 0.000000 3.732970 
# 
# 
# High freq. dielectric constant tensor:
#      x y z
#    x 1.768060 0.000000 0.005000 
#    y 0.000000 1.728010 0.000000 
#    z 0.005000 0.000000 1.778200 
# 
# From -- ./inp_files/49922.got.cif
#   From: 2010.06.25/outbox.cif.g09.slc.cpg/sg10_25_cif.got.tgz:49922.got - 2010.06.27 22:07:45.
