data_PCOD8062074
_publ_section_title
;
Structure prediction by ZEFSAII (Michael W. Deem and Ramdas Pophale) SiO2 
 PCOD8062074
Probable space group: P 2/M
;
_chemical_formula_sum "Si O2"
_cell_formula_units_Z 20
_cell_length_a 24.099945
_cell_length_b 8.944336
_cell_length_c 7.848332
_cell_angle_alpha 90.000000
_cell_angle_beta 143.906039
_cell_angle_gamma 90.000000
_cell_volume 996.641108
_symmetry_space_group_name_H-M "P 2/M"
_symmetry_group_IT_number 10
_symmetry_cell_setting 'monoclinic'
loop_
_space_group_symop_operation_xyz
x,y,z
-x,y,-z
-x,-y,-z
x,-y,z
loop_
_atom_site_type_symbol
_atom_site_label
_atom_site_fract_x
_atom_site_fract_y
_atom_site_fract_z
Si Si1 0.205405 0.675999 0.846512
Si Si2 0.782750 0.823725 0.781451
Si Si3 0.110027 0.172929 0.291836
Si Si4 0.402230 0.323594 0.190005
Si Si5 0.394284 0.674952 0.790382
O O1 0.191689 0.500000 0.827627
O O2 0.145216 0.731652 0.538042
O O3 0.169787 0.752866 0.932091
O O4 0.315439 0.719700 0.095524
O O5 0.840532 0.770569 0.758914
O O6 0.675789 0.765841 0.504321
O O7 0.785176 0.000000 0.807994
O O8 0.133946 0.000000 0.385225
O O9 0.000000 0.200462 0.000000
O O10 0.500000 0.251292 0.500000
O O11 0.416091 0.500000 0.212452
O O12 0.379271 0.264743 0.944378
O O13 0.371416 0.500000 0.712654
O O14 0.500000 0.711358 0.000000
#
# Coordination Sequence:
#
# PCOD8062074 Si02
#       5
#     4   4   4   4   4
#     4  11  22  38  63  91 123 158 200 254 302 357
#     4  11  23  39  61  88 123 160 200 250 302 363
#     4  10  23  44  66  87 118 162 206 250 306 366
#     4   9  17  31  53  84 118 154 195 238 290 348
#     4  10  19  34  58  86 120 160 203 247 294 356
#
# _framework density 20.067402999999999
#
# number of rings (size 3 to 8) (size 9 to 14) (size 15 to 20)
#    0.000    1.800    2.000    2.400    0.000    5.600 
#    0.000    4.000    0.000    3.000    0.000    0.000 
#    0.000    0.000    0.000    0.000    0.000    0.000 
#
# Total GULP energy -248048.145408 kJ/mol
# GULP energy per Si atom -12402.407270 kJ/mol
# Density = 2.002173 g / cm^3
# Si number density = 20.067403 Si / 1000 Ang^3
#
#
#
# Elastic Constant Matrix: (Units=GPa)
#
#
# Indices 1 2 3 4 5 6 
#
# 1 125.0077 49.0655 58.5913 0.0000 -24.3196 0.0000
# 2 49.0655 61.6298 48.7087 0.0000 -5.1489 0.0000
# 3 58.5913 48.7087 102.3401 0.0000 -12.4401 0.0000
# 4 0.0000 0.0000 0.0000 32.3454 0.0000 -6.4312
# 5 -24.3196 -5.1489 -12.4401 0.0000 35.8350 0.0000
# 6 0.0000 0.0000 0.0000 -6.4312 0.0000 27.5600
#
#
#
# Elastic Compliance Matrix: (Units=1/GPa)
#
#
# Indices 1 2 3 4 5 6 
#
# 1 0.014135 -0.007932 -0.003435 0.000000 0.007261 0.000000
# 2 -0.007932 0.030473 -0.010529 0.000000 -0.004660 0.000000
# 3 -0.003435 -0.010529 0.016999 0.000000 0.002057 0.000000
# 4 0.000000 0.000000 0.000000 0.032421 0.000000 0.007565
# 5 0.007261 -0.004660 0.002057 0.000000 0.032878 0.000000
# 6 0.000000 0.000000 0.000000 0.007565 0.000000 0.038050
#
#
# Mechanical properties :
#
#
# Convention : Reuss Voigt Hill
#
# Bulk Modulus (GPa) = 56.12966 66.85653 61.49310
# Shear Modulus (GPa) = 23.28980 27.98888 25.63934
#
# Velocity S-wave (km/s) = 3.41042 3.73868 3.57832
# Velocity P-wave (km/s) = 6.59843 7.21285 6.91247
#
# Compressibility (1/GPa) = 0.01781589
#
# Stress axis : x y z
#
# Youngs Moduli (GPa) = 70.74423 32.81577 58.82720
#
# Poissons Ratio (x) = 0.26031 0.20205
# Poissons Ratio (y) = 0.56118 0.61937
# Poissons Ratio (z) = 0.24298 0.34551
#
# Static dielectric constant tensor:
#      x y z
#    x 3.872510 0.000000 -0.087100 
#    y 0.000000 3.373350 0.000000 
#    z -0.087100 0.000000 3.641140 
# 
# 
# High freq. dielectric constant tensor:
#      x y z
#    x 1.795480 0.000000 -0.010020 
#    y 0.000000 1.757430 0.000000 
#    z -0.010020 0.000000 1.787990 
# 
# From -- ./inp_files/26908.got.cif
#   From: 2010.06.25/outbox.cif.g09.slc.cpg/sg10_14_cif.got.tgz:26908.got - 2010.06.27 22:07:45.
