data_PCOD8062652
_publ_section_title
;
Structure prediction by ZEFSAII (Michael W. Deem and Ramdas Pophale) SiO2 
 PCOD8062652
Probable space group: P 2/M
;
_chemical_formula_sum "Si O2"
_cell_formula_units_Z 28
_cell_length_a 9.676726
_cell_length_b 16.669774
_cell_length_c 21.249016
_cell_angle_alpha 90.000000
_cell_angle_beta 26.274988
_cell_angle_gamma 90.000000
_cell_volume 1517.353181
_symmetry_space_group_name_H-M "P 2/M"
_symmetry_group_IT_number 10
_symmetry_cell_setting 'monoclinic'
loop_
_space_group_symop_operation_xyz
x,y,z
-x,y,-z
-x,-y,-z
x,-y,z
loop_
_atom_site_type_symbol
_atom_site_label
_atom_site_fract_x
_atom_site_fract_y
_atom_site_fract_z
Si Si1 0.646641 0.252955 0.670174
Si Si2 0.893626 0.329282 0.180262
Si Si3 0.013406 0.500000 0.818128
Si Si4 0.189796 0.912548 0.359000
Si Si5 0.204507 0.771798 0.158876
Si Si6 0.654536 0.500000 0.845088
Si Si7 0.486134 0.666524 0.148669
Si Si8 0.862830 0.089661 0.362404
O O1 0.407509 0.275535 0.712557
O O2 0.576546 0.162739 0.725784
O O3 0.567138 0.316159 0.756669
O O4 0.000000 0.259786 0.500000
O O5 0.801084 0.421594 0.233115
O O6 0.027133 0.293964 0.190148
O O7 0.149325 0.327731 0.019786
O O8 0.964188 0.500000 0.762693
O O9 0.662062 0.500000 0.986359
O O10 0.000000 0.921379 0.500000
O O11 0.959248 0.891434 0.395162
O O12 0.357332 0.000000 0.278540
O O13 0.291300 0.730564 0.188739
O O14 0.011373 0.850853 0.251689
O O15 0.500000 0.803158 0.000000
O O16 0.658315 0.578621 0.800664
O O17 0.500000 0.100116 0.500000
O O18 0.970714 0.000000 0.300716
#
# Coordination Sequence:
#
# PCOD8062652 Si02
#       8
#     4   4   2   4   4   2   4   4
#     4  11  23  37  55  82 111 150 183 226 275 325
#     4  10  21  35  59  83 113 143 183 231 274 322
#     4   9  16  33  57  86 108 138 189 232 265 322
#     4   9  19  36  56  77 106 143 185 227 269 316
#     4  10  20  34  56  85 113 143 176 229 286 327
#     4   9  16  31  61  84 106 142 187 228 271 322
#     4  10  19  37  58  84 109 142 186 230 273 327
#     4  10  21  36  58  84 110 144 189 233 268 323
#
# _framework density 18.453187
#
# number of rings (size 3 to 8) (size 9 to 14) (size 15 to 20)
#    0.000    2.143    2.857    0.429    4.000    0.857 
#    0.000    3.571    0.000    3.429    0.000    0.000 
#    0.000    0.000    0.000    0.000    0.000    0.000 
#
# Total GULP energy -347030.460884 kJ/mol
# GULP energy per Si atom -12393.945032 kJ/mol
# Density = 1.841119 g / cm^3
# Si number density = 18.453187 Si / 1000 Ang^3
#
#
#
# Elastic Constant Matrix: (Units=GPa)
#
#
# Indices 1 2 3 4 5 6 
#
# 1 52.8728 23.5837 14.5731 0.0000 -3.1441 0.0000
# 2 23.5837 141.7599 36.5786 0.0000 -7.4085 0.0000
# 3 14.5731 36.5786 47.8466 0.0000 -2.0705 0.0000
# 4 0.0000 0.0000 0.0000 25.0102 0.0000 8.0988
# 5 -3.1441 -7.4085 -2.0705 0.0000 28.9092 0.0000
# 6 0.0000 0.0000 0.0000 8.0988 0.0000 20.2830
#
#
#
# Elastic Compliance Matrix: (Units=1/GPa)
#
#
# Indices 1 2 3 4 5 6 
#
# 1 0.021299 -0.002257 -0.004701 0.000000 0.001401 0.000000
# 2 -0.002257 0.009119 -0.006213 0.000000 0.001646 0.000000
# 3 -0.004701 -0.006213 0.027074 0.000000 -0.000164 0.000000
# 4 0.000000 0.000000 0.000000 0.045921 0.000000 -0.018336
# 5 0.001401 0.001646 -0.000164 0.000000 0.035154 0.000000
# 6 0.000000 0.000000 0.000000 -0.018336 0.000000 0.056624
#
#
# Mechanical properties :
#
#
# Convention : Reuss Voigt Hill
#
# Bulk Modulus (GPa) = 32.10192 43.55001 37.82596
# Shear Modulus (GPa) = 21.55953 26.02340 23.79146
#
# Velocity S-wave (km/s) = 3.42180 3.75939 3.59456
# Velocity P-wave (km/s) = 5.74855 6.51886 6.14578
#
# Compressibility (1/GPa) = 0.03115079
#
# Stress axis : x y z
#
# Youngs Moduli (GPa) = 46.95014 109.66385 36.93534
#
# Poissons Ratio (x) = 0.24753 0.17363
# Poissons Ratio (y) = 0.10597 0.22946
# Poissons Ratio (z) = 0.22071 0.68129
#
# Static dielectric constant tensor:
#      x y z
#    x 3.417500 0.000000 -0.007520 
#    y 0.000000 3.880730 0.000000 
#    z -0.007520 0.000000 3.053530 
# 
# 
# High freq. dielectric constant tensor:
#      x y z
#    x 1.725080 0.000000 0.005870 
#    y 0.000000 1.735160 0.000000 
#    z 0.005870 0.000000 1.670940 
# 
# From -- ./inp_files/35375.got.cif
#   From: 2010.06.25/outbox.cif.g09.slc.cpg/sg10_18_cif.got.tgz:35375.got - 2010.06.27 22:07:45.
