data_PCOD8062121
_publ_section_title
;
Structure prediction by ZEFSAII (Michael W. Deem and Ramdas Pophale) SiO2 
 PCOD8062121
Probable space group: P 2/M
;
_chemical_formula_sum "Si O2"
_cell_formula_units_Z 32
_cell_length_a 11.797274
_cell_length_b 8.892809
_cell_length_c 28.353478
_cell_angle_alpha 90.000000
_cell_angle_beta 32.624149
_cell_angle_gamma 90.000000
_cell_volume 1603.677726
_symmetry_space_group_name_H-M "P 2/M"
_symmetry_group_IT_number 10
_symmetry_cell_setting 'monoclinic'
loop_
_space_group_symop_operation_xyz
x,y,z
-x,y,-z
-x,-y,-z
x,-y,z
loop_
_atom_site_type_symbol
_atom_site_label
_atom_site_fract_x
_atom_site_fract_y
_atom_site_fract_z
Si Si1 0.211459 0.176484 0.643136
Si Si2 0.111338 0.322393 0.585237
Si Si3 0.950585 0.322201 0.895583
Si Si4 0.142009 0.672679 0.176729
Si Si5 0.390079 0.175227 0.751659
Si Si6 0.573162 0.176895 0.588590
Si Si7 0.453422 0.327310 0.907531
Si Si8 0.660834 0.824640 0.747943
O O1 0.250302 0.257407 0.579641
O O2 0.388808 0.225865 0.617762
O O3 0.986172 0.225437 0.741945
O O4 0.213405 0.000000 0.633123
O O5 0.117844 0.500000 0.583907
O O6 0.212907 0.261380 0.501141
O O7 0.872977 0.269801 0.673588
O O8 0.961676 0.500000 0.890659
O O9 0.893176 0.263265 0.863426
O O10 0.170572 0.258245 0.836116
O O11 0.771471 0.269829 0.994883
O O12 0.065397 0.500000 0.207959
O O13 0.385655 0.687176 0.105165
O O14 0.507330 0.232542 0.663508
O O15 0.538188 0.213831 0.743288
O O16 0.339821 0.000000 0.764801
O O17 0.616614 0.000000 0.572302
O O18 0.443828 0.500000 0.893451
O O19 0.515670 0.222099 0.842397
O O20 0.716437 0.000000 0.732097
#
# Coordination Sequence:
#
# PCOD8062121 Si02
#       8
#     4   4   4   4   4   4   4   4
#     4  11  21  36  62  91 122 156 194 238 291 352
#     4  12  25  40  61  90 123 155 193 242 297 358
#     4  10  21  37  61  91 123 159 197 242 297 355
#     4  10  19  34  59  89 123 158 194 238 294 352
#     4  10  23  43  63  85 116 157 203 250 297 347
#     4  10  22  41  63  88 120 156 195 242 295 352
#     4  10  21  38  60  89 124 160 197 241 296 353
#     4  11  24  42  63  85 115 157 204 250 297 349
#
# _framework density 19.954135000000001
#
# number of rings (size 3 to 8) (size 9 to 14) (size 15 to 20)
#    0.000    1.500    2.500    2.625    0.000    7.000 
#    0.000    5.000    0.000    2.250    0.000    0.000 
#    0.000    0.000    0.000    0.000    0.000    0.000 
#
# Total GULP energy -396972.157666 kJ/mol
# GULP energy per Si atom -12405.379927 kJ/mol
# Density = 1.990872 g / cm^3
# Si number density = 19.954135 Si / 1000 Ang^3
#
#
#
# Elastic Constant Matrix: (Units=GPa)
#
#
# Indices 1 2 3 4 5 6 
#
# 1 94.8850 29.8274 32.3490 0.0000 10.0316 0.0000
# 2 29.8274 62.5892 31.9561 0.0000 2.2786 0.0000
# 3 32.3490 31.9561 115.6174 0.0000 14.9929 0.0000
# 4 0.0000 0.0000 0.0000 34.2679 0.0000 3.2102
# 5 10.0316 2.2786 14.9929 0.0000 15.6581 0.0000
# 6 0.0000 0.0000 0.0000 3.2102 0.0000 21.9387
#
#
#
# Elastic Compliance Matrix: (Units=1/GPa)
#
#
# Indices 1 2 3 4 5 6 
#
# 1 0.013411 -0.005434 -0.001414 0.000000 -0.006447 0.000000
# 2 -0.005434 0.020893 -0.004923 0.000000 0.005155 0.000000
# 3 -0.001414 -0.004923 0.011640 0.000000 -0.009524 0.000000
# 4 0.000000 0.000000 0.000000 0.029587 0.000000 -0.004329
# 5 -0.006447 0.005155 -0.009524 0.000000 0.076364 0.000000
# 6 0.000000 0.000000 0.000000 -0.004329 0.000000 0.046215
#
#
# Mechanical properties :
#
#
# Convention : Reuss Voigt Hill
#
# Bulk Modulus (GPa) = 44.63930 51.26186 47.95058
# Shear Modulus (GPa) = 21.82258 26.30356 24.06307
#
# Velocity S-wave (km/s) = 3.31061 3.63464 3.47640
# Velocity P-wave (km/s) = 6.08547 6.58481 6.34006
#
# Compressibility (1/GPa) = 0.02240178
#
# Stress axis : x y z
#
# Youngs Moduli (GPa) = 74.56477 47.86373 85.90698
#
# Poissons Ratio (x) = 0.26011 0.12150
# Poissons Ratio (y) = 0.40521 0.42288
# Poissons Ratio (z) = 0.10546 0.23561
#
# Static dielectric constant tensor:
#      x y z
#    x 3.701220 0.000000 0.114020 
#    y 0.000000 3.491180 0.000000 
#    z 0.114020 0.000000 3.733950 
# 
# 
# High freq. dielectric constant tensor:
#      x y z
#    x 1.778500 0.000000 0.004180 
#    y 0.000000 1.769810 0.000000 
#    z 0.004180 0.000000 1.790100 
# 
# From -- ./inp_files/49834.got.cif
#   From: 2010.06.25/outbox.cif.g09.slc.cpg/sg10_25_cif.got.tgz:49834.got - 2010.06.27 22:07:45.
