data_PCOD8062711
_publ_section_title
;
Structure prediction by ZEFSAII (Michael W. Deem and Ramdas Pophale) SiO2 
 PCOD8062711
Probable space group: P 2/M
;
_chemical_formula_sum "Si O2"
_cell_formula_units_Z 18
_cell_length_a 11.832178
_cell_length_b 7.643986
_cell_length_c 10.482419
_cell_angle_alpha 90.000000
_cell_angle_beta 68.876200
_cell_angle_gamma 90.000000
_cell_volume 884.374992
_symmetry_space_group_name_H-M "P 2/M"
_symmetry_group_IT_number 10
_symmetry_cell_setting 'monoclinic'
loop_
_space_group_symop_operation_xyz
x,y,z
-x,y,-z
-x,-y,-z
x,-y,z
loop_
_atom_site_type_symbol
_atom_site_label
_atom_site_fract_x
_atom_site_fract_y
_atom_site_fract_z
Si Si1 0.447362 0.000000 0.731399
Si Si2 0.816941 0.806404 0.822080
Si Si3 0.731948 0.000000 0.626843
Si Si4 0.219935 0.000000 0.675876
Si Si5 0.403484 0.695887 0.937670
Si Si6 0.946256 0.698613 0.160219
O O1 0.365845 0.000000 0.636633
O O2 0.406016 0.174994 0.819107
O O3 0.590148 0.000000 0.650433
O O4 0.769705 0.827193 0.694220
O O5 0.949040 0.719147 0.775079
O O6 0.823387 0.000000 0.882282
O O7 0.727057 0.689311 0.942059
O O8 0.805933 0.000000 0.465021
O O9 0.163605 0.173009 0.762414
O O10 0.436329 0.500000 0.878353
O O11 0.500000 0.768295 0.000000
O O12 0.896521 0.500000 0.182440
O O13 0.000000 0.746663 0.000000
#
# Coordination Sequence:
#
# PCOD8062711 Si02
#       6
#     2   4   2   2   4   4
#     4  12  21  41  62  87 127 163 201 253 302 349
#     4  10  19  37  65  86 126 155 193 253 304 349
#     4  10  23  41  61  90 121 161 213 247 289 367
#     4  12  25  41  65  84 122 172 203 243 301 354
#     4  11  20  34  62  95 122 153 196 250 308 358
#     4  11  24  42  64  94 123 152 199 253 308 366
#
# _framework density 20.353356999999999
#
# number of rings (size 3 to 8) (size 9 to 14) (size 15 to 20)
#    0.667    0.444    4.444    3.000    0.000    4.444 
#    0.000    4.444    0.000    2.667    0.000    0.000 
#    0.000    0.000    0.000    0.000    0.000    0.000 
#
# Total GULP energy -223155.841556 kJ/mol
# GULP energy per Si atom -12397.546753 kJ/mol
# Density = 2.030703 g / cm^3
# Si number density = 20.353357 Si / 1000 Ang^3
#
#
#
# Elastic Constant Matrix: (Units=GPa)
#
#
# Indices 1 2 3 4 5 6 
#
# 1 114.2048 16.0410 16.1087 0.0000 10.2978 0.0000
# 2 16.0410 103.9634 41.0275 0.0000 -0.7968 0.0000
# 3 16.1087 41.0275 96.7362 0.0000 5.5161 0.0000
# 4 0.0000 0.0000 0.0000 -65.8029 0.0000 -34.8836
# 5 10.2978 -0.7968 5.5161 0.0000 22.9837 0.0000
# 6 0.0000 0.0000 0.0000 -34.8836 0.0000 3.9036
#
#
#
# Elastic Compliance Matrix: (Units=1/GPa)
#
#
# Indices 1 2 3 4 5 6 
#
# 1 0.009402 -0.001147 -0.000848 0.000000 -0.004049 0.000000
# 2 -0.001147 0.011750 -0.004912 0.000000 0.002100 0.000000
# 3 -0.000848 -0.004912 0.012724 0.000000 -0.002844 0.000000
# 4 0.000000 0.000000 0.000000 -0.002649 0.000000 -0.023670
# 5 -0.004049 0.002100 -0.002844 0.000000 0.046078 0.000000
# 6 0.000000 0.000000 0.000000 -0.023670 0.000000 0.044651
#
#
# Mechanical properties :
#
#
# Convention : Reuss Voigt Hill
#
# Bulk Modulus (GPa) = 49.84679 51.25100 50.54889
# Shear Modulus (GPa) = 35.09776 8.33202 21.71489
#
# Velocity S-wave (km/s) = 4.15712 2.02548 3.26988
# Velocity P-wave (km/s) = 6.89827 5.54124 6.25665
#
# Compressibility (1/GPa) = 0.02006147
#
# Stress axis : x y z
#
# Youngs Moduli (GPa) = 106.35997 85.10355 78.59023
#
# Poissons Ratio (x) = 0.09761 0.06667
# Poissons Ratio (y) = 0.12199 0.38606
# Poissons Ratio (z) = 0.09023 0.41806
#
# Static dielectric constant tensor:
#      x y z
#    x 3.798310 0.000000 0.181360 
#    y 0.000000 3.574550 0.000000 
#    z 0.181360 0.000000 3.355710 
# 
# 
# High freq. dielectric constant tensor:
#      x y z
#    x 1.811540 0.000000 0.013040 
#    y 0.000000 1.789830 0.000000 
#    z 0.013040 0.000000 1.760730 
# 
# From -- ./inp_files/22190.got.cif
#   From: 2010.06.25/outbox.cif.g09.slc.cpg/sg10_12_cif.got.tgz:22190.got - 2010.06.27 22:07:45.
