data_PCOD8062440
_publ_section_title
;
Structure prediction by ZEFSAII (Michael W. Deem and Ramdas Pophale) SiO2 
 PCOD8062440
Probable space group: P 2/M
;
_chemical_formula_sum "Si O2"
_cell_formula_units_Z 32
_cell_length_a 14.670056
_cell_length_b 15.278744
_cell_length_c 21.129275
_cell_angle_alpha 90.000000
_cell_angle_beta 19.621824
_cell_angle_gamma 90.000000
_cell_volume 1590.369844
_symmetry_space_group_name_H-M "P 2/M"
_symmetry_group_IT_number 10
_symmetry_cell_setting 'monoclinic'
loop_
_space_group_symop_operation_xyz
x,y,z
-x,y,-z
-x,-y,-z
x,-y,z
loop_
_atom_site_type_symbol
_atom_site_label
_atom_site_fract_x
_atom_site_fract_y
_atom_site_fract_z
Si Si1 0.160002 0.599520 0.595086
Si Si2 0.235565 0.401876 0.033641
Si Si3 0.849918 0.099537 0.407185
Si Si4 0.259661 0.098073 0.029809
Si Si5 0.577880 0.753416 0.310065
Si Si6 0.137276 0.754598 0.008780
Si Si7 0.307460 0.332713 0.182108
Si Si8 0.854502 0.150452 0.661246
O O1 0.267193 0.500000 0.522396
O O2 0.413374 0.663315 0.421328
O O3 0.016953 0.619660 0.755477
O O4 0.943840 0.612233 0.680260
O O5 0.212447 0.500000 0.021676
O O6 0.233534 0.335482 0.977009
O O7 0.517954 0.395239 0.886876
O O8 0.601895 0.163286 0.554124
O O9 0.088752 0.125738 0.203012
O O10 0.953742 0.111186 0.410364
O O11 0.751430 0.000000 0.461685
O O12 0.197117 0.163545 0.014124
O O13 0.184284 0.000000 0.056845
O O14 0.571472 0.099778 0.846551
O O15 0.818716 0.748800 0.203136
O O16 0.688063 0.767949 0.167926
O O17 0.191558 0.252935 0.298203
O O18 0.500000 0.296288 0.000000
O O19 0.000000 0.134786 0.500000
#
# Coordination Sequence:
#
# PCOD8062440 Si02
#       8
#     4   4   4   4   4   4   4   4
#     4  10  21  38  63  93 124 161 204 250 302 362
#     4  10  21  38  63  93 124 161 204 250 302 362
#     4  11  24  42  65  92 122 159 203 251 304 362
#     4  11  24  42  65  92 122 159 203 251 304 362
#     4  11  25  43  62  87 122 163 205 254 311 364
#     4  11  25  43  62  87 122 163 205 254 311 364
#     4  10  19  35  61  91 125 161 197 243 301 362
#     4  12  23  36  61  95 129 162 197 241 301 367
#
# _framework density 20.121105
#
# number of rings (size 3 to 8) (size 9 to 14) (size 15 to 20)
#    0.000    1.250    2.500    3.375    0.000    8.500 
#    0.000    5.000    0.000    2.250    0.000    0.000 
#    0.000    0.000    0.000    0.000    0.000    0.000 
#
# Total GULP energy -396964.978007 kJ/mol
# GULP energy per Si atom -12405.155563 kJ/mol
# Density = 2.007531 g / cm^3
# Si number density = 20.121105 Si / 1000 Ang^3
#
#
#
# Elastic Constant Matrix: (Units=GPa)
#
#
# Indices 1 2 3 4 5 6 
#
# 1 43.8161 12.6274 -7.8547 0.0000 -8.4304 0.0000
# 2 12.6274 115.1545 24.6193 0.0000 -4.9832 0.0000
# 3 -7.8547 24.6193 72.1331 0.0000 -10.7576 0.0000
# 4 0.0000 0.0000 0.0000 8.7650 0.0000 -9.9791
# 5 -8.4304 -4.9832 -10.7576 0.0000 32.0348 0.0000
# 6 0.0000 0.0000 0.0000 -9.9791 0.0000 2.4237
#
#
#
# Elastic Compliance Matrix: (Units=1/GPa)
#
#
# Indices 1 2 3 4 5 6 
#
# 1 0.026419 -0.003688 0.005355 0.000000 0.008177 0.000000
# 2 -0.003688 0.009887 -0.003886 0.000000 -0.000738 0.000000
# 3 0.005355 -0.003886 0.016731 0.000000 0.006423 0.000000
# 4 0.000000 0.000000 0.000000 -0.030939 0.000000 -0.127384
# 5 0.008177 -0.000738 0.006423 0.000000 0.035410 0.000000
# 6 0.000000 0.000000 0.000000 -0.127384 0.000000 -0.111885
#
#
# Mechanical properties :
#
#
# Convention : Reuss Voigt Hill
#
# Bulk Modulus (GPa) = 20.57679 32.20972 26.39325
# Shear Modulus (GPa) = -148.19317 22.09217 -63.05050
#
# Velocity S-wave (km/s) = -8.59130 3.31714 -5.60389
# Velocity P-wave (km/s) = 9.38964 5.54201 5.35964
#
# Compressibility (1/GPa) = 0.04859845
#
# Stress axis : x y z
#
# Youngs Moduli (GPa) = 37.85186 101.13967 59.77061
#
# Poissons Ratio (x) = 0.37300 -0.32007
# Poissons Ratio (y) = 0.13960 0.23228
# Poissons Ratio (z) = -0.20270 0.39304
#
# Static dielectric constant tensor:
#      x y z
#    x 3.631570 0.000000 -0.024860 
#    y 0.000000 3.716400 0.000000 
#    z -0.024860 0.000000 3.704450 
# 
# 
# High freq. dielectric constant tensor:
#      x y z
#    x 1.782790 0.000000 0.000560 
#    y 0.000000 1.796670 0.000000 
#    z 0.000560 0.000000 1.787840 
# 
# From -- ./inp_files/25299.got.cif
#   From: 2010.06.25/outbox.cif.g09.slc.cpg/sg10_13_cif.got.tgz:25299.got - 2010.06.27 22:07:45.
