data_PCOD8062208
_publ_section_title
;
Structure prediction by ZEFSAII (Michael W. Deem and Ramdas Pophale) SiO2 
 PCOD8062208
Probable space group: P 2/M
;
_chemical_formula_sum "Si O2"
_cell_formula_units_Z 24
_cell_length_a 14.973514
_cell_length_b 8.673118
_cell_length_c 15.285381
_cell_angle_alpha 90.000000
_cell_angle_beta 39.739719
_cell_angle_gamma 90.000000
_cell_volume 1269.055637
_symmetry_space_group_name_H-M "P 2/M"
_symmetry_group_IT_number 10
_symmetry_cell_setting 'monoclinic'
loop_
_space_group_symop_operation_xyz
x,y,z
-x,y,-z
-x,-y,-z
x,-y,z
loop_
_atom_site_type_symbol
_atom_site_label
_atom_site_fract_x
_atom_site_fract_y
_atom_site_fract_z
Si Si1 0.705817 0.181094 0.191581
Si Si2 0.196284 0.183376 0.416994
Si Si3 0.188689 0.680221 0.714788
Si Si4 0.892649 0.818215 0.697153
Si Si5 0.390113 0.817014 0.421340
Si Si6 0.103928 0.180120 0.112981
O O1 0.793079 0.270455 0.198686
O O2 0.547936 0.244758 0.308092
O O3 0.711758 0.000000 0.207812
O O4 0.774822 0.219665 0.046402
O O5 0.206759 0.242586 0.307628
O O6 0.320314 0.249768 0.384543
O O7 0.050163 0.244693 0.566705
O O8 0.202800 0.000000 0.415987
O O9 0.210635 0.500000 0.687900
O O10 0.305531 0.764489 0.569646
O O11 0.033981 0.723794 0.802269
O O12 0.837540 0.771495 0.834864
O O13 0.898832 0.000000 0.682593
O O14 0.390498 0.000000 0.419594
O O15 0.063234 0.000000 0.141238
#
# Coordination Sequence:
#
# PCOD8062208 Si02
#       6
#     4   4   4   4   4   4
#     4  10  22  36  53  77 105 138 174 211 257 310
#     4   8  13  24  48  79 104 129 164 206 252 299
#     4  12  24  36  53  76 101 136 180 220 259 302
#     4   8  13  24  48  79 104 129 164 206 252 299
#     4  10  19  35  56  78 105 137 172 211 255 306
#     4  10  19  35  56  78 105 137 172 211 255 306
#
# _framework density 18.911701999999998
#
# number of rings (size 3 to 8) (size 9 to 14) (size 15 to 20)
#    0.000    2.333    1.667    3.500    0.000    5.333 
#    0.000    0.833    0.000    7.000    0.000    0.000 
#    0.000    4.000    0.000    0.000    0.000    0.000 
#
# Total GULP energy -297474.417055 kJ/mol
# GULP energy per Si atom -12394.767377 kJ/mol
# Density = 1.886866 g / cm^3
# Si number density = 18.911702 Si / 1000 Ang^3
#
#
#
# Elastic Constant Matrix: (Units=GPa)
#
#
# Indices 1 2 3 4 5 6 
#
# 1 91.9775 10.9533 37.2853 0.0000 32.4819 0.0000
# 2 10.9533 8.8346 0.1642 0.0000 -3.6052 0.0000
# 3 37.2853 0.1642 89.9717 0.0000 9.9946 0.0000
# 4 0.0000 0.0000 0.0000 2.3072 0.0000 -3.5820
# 5 32.4819 -3.6052 9.9946 0.0000 31.3981 0.0000
# 6 0.0000 0.0000 0.0000 -3.5820 0.0000 0.7717
#
#
#
# Elastic Compliance Matrix: (Units=1/GPa)
#
#
# Indices 1 2 3 4 5 6 
#
# 1 0.038835 -0.065994 -0.011060 0.000000 -0.044233 0.000000
# 2 -0.065994 0.231181 0.016995 0.000000 0.089407 0.000000
# 3 -0.011060 0.016995 0.014699 0.000000 0.008714 0.000000
# 4 0.000000 0.000000 0.000000 -0.069831 0.000000 -0.324151
# 5 -0.044233 0.089407 0.008714 0.000000 0.085101 0.000000
# 6 0.000000 0.000000 0.000000 -0.324151 0.000000 -0.208789
#
#
# Mechanical properties :
#
#
# Convention : Reuss Voigt Hill
#
# Bulk Modulus (GPa) = 6.07543 31.95438 19.01490
# Shear Modulus (GPa) = 18.78436 16.38746 17.58591
#
# Velocity S-wave (km/s) = 3.15503 2.94687 3.05273
# Velocity P-wave (km/s) = 4.06101 5.33967 4.74362
#
# Compressibility (1/GPa) = 0.16459748
#
# Stress axis : x y z
#
# Youngs Moduli (GPa) = 25.74968 4.32562 68.03257
#
# Poissons Ratio (x) = 0.28546 0.75242
# Poissons Ratio (y) = 1.69932 -1.15619
# Poissons Ratio (z) = 0.28478 -0.07351
#
# Static dielectric constant tensor:
#      x y z
#    x 3.986060 0.000000 0.216320 
#    y 0.000000 3.014810 0.000000 
#    z 0.216320 0.000000 3.492020 
# 
# 
# High freq. dielectric constant tensor:
#      x y z
#    x 1.751230 0.000000 0.018620 
#    y 0.000000 1.685010 0.000000 
#    z 0.018620 0.000000 1.724790 
# 
# From -- ./inp_files/63101.got.cif
#   From: 2010.06.25/outbox.cif.g09.slc.cpg/sg10_32_cif.got.tgz:63101.got - 2010.06.27 22:07:45.
