data_PCOD8062433
_publ_section_title
;
Structure prediction by ZEFSAII (Michael W. Deem and Ramdas Pophale) SiO2 
 PCOD8062433
Probable space group: P 2/M
;
_chemical_formula_sum "Si O2"
_cell_formula_units_Z 20
_cell_length_a 9.454401
_cell_length_b 13.427366
_cell_length_c 17.427414
_cell_angle_alpha 90.000000
_cell_angle_beta 27.810133
_cell_angle_gamma 90.000000
_cell_volume 1032.165981
_symmetry_space_group_name_H-M "P 2/M"
_symmetry_group_IT_number 10
_symmetry_cell_setting 'monoclinic'
loop_
_space_group_symop_operation_xyz
x,y,z
-x,y,-z
-x,-y,-z
x,-y,z
loop_
_atom_site_type_symbol
_atom_site_label
_atom_site_fract_x
_atom_site_fract_y
_atom_site_fract_z
Si Si1 0.155772 0.236671 0.347625
Si Si2 0.674584 0.814924 0.194491
Si Si3 0.846465 0.607004 0.153328
Si Si4 0.638768 0.113428 0.513900
Si Si5 0.462572 0.384002 0.932804
O O1 0.427612 0.163559 0.246323
O O2 0.298134 0.330162 0.236421
O O3 0.000000 0.276339 0.500000
O O4 0.928955 0.178197 0.400046
O O5 0.617536 0.883967 0.295994
O O6 0.622274 0.700691 0.251230
O O7 0.000000 0.833532 0.000000
O O8 0.693597 0.500000 0.252902
O O9 0.113496 0.640066 0.082290
O O10 0.000000 0.583905 0.000000
O O11 0.500000 0.154124 0.500000
O O12 0.745771 0.000000 0.451073
O O13 0.537058 0.500000 0.889505
O O14 0.500000 0.342939 0.000000
#
# Coordination Sequence:
#
# PCOD8062433 Si02
#       5
#     4   4   4   4   4
#     4  10  21  36  58  84 115 150 184 230 280 332
#     4  10  19  35  61  90 109 144 192 230 272 325
#     4   9  16  30  54  82 116 149 181 220 266 321
#     4  10  24  43  59  78 110 149 183 232 298 342
#     4  10  20  33  54  86 120 153 187 225 272 324
#
# _framework density 19.376728
#
# number of rings (size 3 to 8) (size 9 to 14) (size 15 to 20)
#    0.000    2.200    4.000    0.000    2.800    4.400 
#    0.000    3.000    0.000    4.200    0.000    0.000 
#    0.000    0.000    0.000    0.000    0.000    0.000 
#
# Total GULP energy -247769.607114 kJ/mol
# GULP energy per Si atom -12388.480356 kJ/mol
# Density = 1.933263 g / cm^3
# Si number density = 19.376728 Si / 1000 Ang^3
#
#
#
# Elastic Constant Matrix: (Units=GPa)
#
#
# Indices 1 2 3 4 5 6 
#
# 1 163.2853 24.5031 41.7481 0.0000 -6.7285 0.0000
# 2 24.5031 57.2694 6.0195 0.0000 -2.6696 0.0000
# 3 41.7481 6.0195 74.1794 0.0000 0.3491 0.0000
# 4 0.0000 0.0000 0.0000 15.2923 0.0000 4.9909
# 5 -6.7285 -2.6696 0.3491 0.0000 29.9068 0.0000
# 6 0.0000 0.0000 0.0000 4.9909 0.0000 23.1674
#
#
#
# Elastic Compliance Matrix: (Units=1/GPa)
#
#
# Indices 1 2 3 4 5 6 
#
# 1 0.007648 -0.002772 -0.004086 0.000000 0.001521 0.000000
# 2 -0.002772 0.018692 0.000038 0.000000 0.001045 0.000000
# 3 -0.004086 0.000038 0.015783 0.000000 -0.001100 0.000000
# 4 0.000000 0.000000 0.000000 0.070337 0.000000 -0.015153
# 5 0.001521 0.001045 -0.001100 0.000000 0.033885 0.000000
# 6 0.000000 0.000000 0.000000 -0.015153 0.000000 0.046428
#
#
# Mechanical properties :
#
#
# Convention : Reuss Voigt Hill
#
# Bulk Modulus (GPa) = 35.10920 48.80840 41.95880
# Shear Modulus (GPa) = 23.15809 28.50420 25.83115
#
# Velocity S-wave (km/s) = 3.46084 3.83959 3.65513
# Velocity P-wave (km/s) = 5.84196 6.70078 6.28606
#
# Compressibility (1/GPa) = 0.02848256
#
# Stress axis : x y z
#
# Youngs Moduli (GPa) = 130.75959 53.49914 63.36053
#
# Poissons Ratio (x) = 0.14828 0.25891
# Poissons Ratio (y) = 0.36242 -0.00242
# Poissons Ratio (z) = 0.53433 -0.00204
#
# Static dielectric constant tensor:
#      x y z
#    x 3.863790 0.000000 -0.062110 
#    y 0.000000 3.525850 0.000000 
#    z -0.062110 0.000000 3.279440 
# 
# 
# High freq. dielectric constant tensor:
#      x y z
#    x 1.774900 0.000000 -0.009660 
#    y 0.000000 1.739010 0.000000 
#    z -0.009660 0.000000 1.727730 
# 
# From -- ./inp_files/18516.got.cif
#   From: 2010.06.25/outbox.cif.g09.slc.cpg/sg10_10_cif.got.tgz:18516.got - 2010.06.27 22:07:45.
