data_PCOD8062739
_publ_section_title
;
Structure prediction by ZEFSAII (Michael W. Deem and Ramdas Pophale) SiO2 
 PCOD8062739
Probable space group: P 2/M
;
_chemical_formula_sum "Si O2"
_cell_formula_units_Z 30
_cell_length_a 10.613486
_cell_length_b 15.091231
_cell_length_c 11.262221
_cell_angle_alpha 90.000000
_cell_angle_beta 53.689632
_cell_angle_gamma 90.000000
_cell_volume 1453.601694
_symmetry_space_group_name_H-M "P 2/M"
_symmetry_group_IT_number 10
_symmetry_cell_setting 'monoclinic'
loop_
_space_group_symop_operation_xyz
x,y,z
-x,y,-z
-x,-y,-z
x,-y,z
loop_
_atom_site_type_symbol
_atom_site_label
_atom_site_fract_x
_atom_site_fract_y
_atom_site_fract_z
Si Si1 0.000000 0.832712 0.000000
Si Si2 0.375426 0.894639 0.399757
Si Si3 0.868814 0.713564 0.872004
Si Si4 0.831657 0.399625 0.287114
Si Si5 0.310764 0.600456 0.387721
Si Si6 0.294139 0.100985 0.702193
Si Si7 0.336490 0.604399 0.855034
Si Si8 0.169180 0.229985 0.362495
O O1 0.900567 0.776670 0.964039
O O2 0.127197 0.890295 0.858243
O O3 0.558335 0.863909 0.302733
O O4 0.292937 0.860372 0.568512
O O5 0.297352 0.839374 0.337364
O O6 0.353873 0.000000 0.387415
O O7 0.818465 0.771176 0.787009
O O8 0.021834 0.657755 0.753868
O O9 0.729229 0.648130 0.988591
O O10 0.888217 0.500000 0.233627
O O11 0.702520 0.395277 0.462332
O O12 0.758516 0.359881 0.207131
O O13 0.273554 0.500000 0.364368
O O14 0.484019 0.630588 0.257296
O O15 0.193425 0.668803 0.391739
O O16 0.335840 0.000000 0.658109
O O17 0.315798 0.500000 0.875618
O O18 0.000000 0.197052 0.500000
#
# Coordination Sequence:
#
# PCOD8062739 Si02
#       8
#     2   4   4   4   4   4   4   4
#     4  12  23  38  61  98 132 156 198 254 313 378
#     4   9  21  44  72  97 122 158 209 258 310 371
#     4  12  24  37  57  90 126 168 209 249 309 371
#     4  10  19  38  63  87 119 162 212 266 314 366
#     4  10  23  40  62  89 123 164 209 263 316 371
#     4   9  20  42  71  98 122 156 198 255 316 374
#     4  10  21  39  60  88 121 161 213 268 318 364
#     4  12  25  41  61  92 127 168 215 257 309 376
#
# _framework density 20.638392
#
# number of rings (size 3 to 8) (size 9 to 14) (size 15 to 20)
#    0.000    1.600    2.667    2.600    1.867    4.800 
#    2.400    2.667    0.000    1.600    0.000    0.000 
#    0.000    0.000    0.000    0.000    0.000    0.000 
#
# Total GULP energy -372007.056703 kJ/mol
# GULP energy per Si atom -12400.235223 kJ/mol
# Density = 2.059142 g / cm^3
# Si number density = 20.638392 Si / 1000 Ang^3
#
#
#
# Elastic Constant Matrix: (Units=GPa)
#
#
# Indices 1 2 3 4 5 6 
#
# 1 93.3639 33.3121 35.9232 0.0000 7.4938 0.0000
# 2 33.3121 55.2652 12.7288 0.0000 3.8800 0.0000
# 3 35.9232 12.7288 116.6887 0.0000 -8.9389 0.0000
# 4 0.0000 0.0000 0.0000 5.5449 0.0000 14.9383
# 5 7.4938 3.8800 -8.9389 0.0000 43.1719 0.0000
# 6 0.0000 0.0000 0.0000 14.9383 0.0000 26.2428
#
#
#
# Elastic Compliance Matrix: (Units=1/GPa)
#
#
# Indices 1 2 3 4 5 6 
#
# 1 0.015409 -0.008156 -0.004067 0.000000 -0.002784 0.000000
# 2 -0.008156 0.023071 -0.000057 0.000000 -0.000670 0.000000
# 3 -0.004067 -0.000057 0.010042 0.000000 0.002790 0.000000
# 4 0.000000 0.000000 0.000000 -0.338007 0.000000 0.192406
# 5 -0.002784 -0.000670 0.002790 0.000000 0.024284 0.000000
# 6 0.000000 0.000000 0.000000 0.192406 0.000000 -0.071419
#
#
# Mechanical properties :
#
#
# Convention : Reuss Voigt Hill
#
# Bulk Modulus (GPa) = 41.73411 47.69400 44.71405
# Shear Modulus (GPa) = -16.44350 27.21551 5.38600
#
# Velocity S-wave (km/s) = -2.82573 3.63531 1.61721
# Velocity P-wave (km/s) = 3.10148 6.38593 5.01993
#
# Compressibility (1/GPa) = 0.02396121
#
# Stress axis : x y z
#
# Youngs Moduli (GPa) = 64.89614 43.34477 99.58212
#
# Poissons Ratio (x) = 0.35352 0.40504
# Poissons Ratio (y) = 0.52929 0.00568
# Poissons Ratio (z) = 0.26396 0.00247
#
# Static dielectric constant tensor:
#      x y z
#    x 3.643320 0.000000 -0.024950 
#    y 0.000000 3.589380 0.000000 
#    z -0.024950 0.000000 3.742560 
# 
# 
# High freq. dielectric constant tensor:
#      x y z
#    x 1.800380 0.000000 -0.007120 
#    y 0.000000 1.799430 0.000000 
#    z -0.007120 0.000000 1.812850 
# 
# From -- ./inp_files/47637.got.cif
#   From: 2010.06.25/outbox.cif.g09.slc.cpg/sg10_24_cif.got.tgz:47637.got - 2010.06.27 22:07:45.
