data_PCOD8062791
_publ_section_title
;
Structure prediction by ZEFSAII (Michael W. Deem and Ramdas Pophale) SiO2 
 PCOD8062791
Probable space group: P 2/M
;
_chemical_formula_sum "Si O2"
_cell_formula_units_Z 32
_cell_length_a 26.377749
_cell_length_b 13.356644
_cell_length_c 8.897654
_cell_angle_alpha 90.000000
_cell_angle_beta 146.507989
_cell_angle_gamma 90.000000
_cell_volume 1729.850571
_symmetry_space_group_name_H-M "P 2/M"
_symmetry_group_IT_number 10
_symmetry_cell_setting 'monoclinic'
loop_
_space_group_symop_operation_xyz
x,y,z
-x,y,-z
-x,-y,-z
x,-y,z
loop_
_atom_site_type_symbol
_atom_site_label
_atom_site_fract_x
_atom_site_fract_y
_atom_site_fract_z
Si Si1 0.270171 0.889019 0.466638
Si Si2 0.017725 0.111051 0.334926
Si Si3 0.563627 0.240198 0.025969
Si Si4 0.144506 0.829902 0.901137
Si Si5 0.407971 0.384058 0.179568
Si Si6 0.279918 0.244858 0.024479
Si Si7 0.177298 0.885145 0.537456
Si Si8 0.553296 0.114972 0.477764
O O1 0.346075 0.803740 0.671780
O O2 0.190283 0.869355 0.392292
O O3 0.313063 0.000000 0.594627
O O4 0.224616 0.884894 0.190296
O O5 0.097355 0.100045 0.659254
O O6 0.071452 0.144408 0.316470
O O7 0.939787 0.193555 0.189882
O O8 0.972649 0.000000 0.204061
O O9 0.500000 0.286939 0.000000
O O10 0.588815 0.326983 0.970763
O O11 0.512437 0.148020 0.819938
O O12 0.194080 0.738816 0.929854
O O13 0.500000 0.361673 0.500000
O O14 0.394957 0.500000 0.111444
O O15 0.321776 0.349236 0.069311
O O16 0.355958 0.181641 0.301369
O O17 0.250710 0.182697 0.805565
O O18 0.195520 0.000000 0.629720
O O19 0.500000 0.133250 0.500000
O O20 0.580650 0.000000 0.521457
#
# Coordination Sequence:
#
# PCOD8062791 Si02
#       8
#     4   4   4   4   4   4   4   4
#     4  11  21  32  47  76 113 151 183 211 252 307
#     4   9  17  32  48  73 109 149 188 218 251 298
#     4  12  23  36  53  77 113 139 172 222 274 330
#     4  10  20  29  50  74 106 142 179 217 255 300
#     4  11  23  42  63  78  97 133 184 234 281 325
#     4  11  18  35  54  75 100 137 184 223 257 307
#     4   9  18  30  50  75 109 148 181 216 253 307
#     4  11  20  32  51  74 106 150 187 212 243 299
#
# _framework density 18.498705999999999
#
# number of rings (size 3 to 8) (size 9 to 14) (size 15 to 20)
#    0.000    1.500    3.750    3.000    0.000    7.250 
#    0.000    1.875    0.000    0.000    0.000    7.000 
#    0.000    9.000    0.000    0.000    0.000    0.000 
#
# Total GULP energy -396483.775440 kJ/mol
# GULP energy per Si atom -12390.117982 kJ/mol
# Density = 1.845660 g / cm^3
# Si number density = 18.498706 Si / 1000 Ang^3
#
#
#
# Elastic Constant Matrix: (Units=GPa)
#
#
# Indices 1 2 3 4 5 6 
#
# 1 132.1338 41.0486 32.2938 0.0000 23.8980 0.0000
# 2 41.0486 78.2759 29.5450 0.0000 10.1460 0.0000
# 3 32.2938 29.5450 63.5542 0.0000 0.6334 0.0000
# 4 0.0000 0.0000 0.0000 10.8040 0.0000 4.3860
# 5 23.8980 10.1460 0.6334 0.0000 27.1644 0.0000
# 6 0.0000 0.0000 0.0000 4.3860 0.0000 9.1776
#
#
#
# Elastic Compliance Matrix: (Units=1/GPa)
#
#
# Indices 1 2 3 4 5 6 
#
# 1 0.011081 -0.003178 -0.004069 0.000000 -0.008467 0.000000
# 2 -0.003178 0.017313 -0.006399 0.000000 -0.003522 0.000000
# 3 -0.004069 -0.006399 0.020722 0.000000 0.005487 0.000000
# 4 0.000000 0.000000 0.000000 0.114838 0.000000 -0.054881
# 5 -0.008467 -0.003522 0.005487 0.000000 0.045449 0.000000
# 6 0.000000 0.000000 0.000000 -0.054881 0.000000 0.135189
#
#
# Mechanical properties :
#
#
# Convention : Reuss Voigt Hill
#
# Bulk Modulus (GPa) = 45.81780 53.30429 49.56105
# Shear Modulus (GPa) = 13.18708 20.83429 17.01069
#
# Velocity S-wave (km/s) = 2.67285 3.35962 3.03572
# Velocity P-wave (km/s) = 5.86066 6.62775 6.25597
#
# Compressibility (1/GPa) = 0.02182558
#
# Stress axis : x y z
#
# Youngs Moduli (GPa) = 90.24380 57.75850 48.25744
#
# Poissons Ratio (x) = 0.18354 0.19636
# Poissons Ratio (y) = 0.28677 0.30879
# Poissons Ratio (z) = 0.36720 0.36959
#
# Static dielectric constant tensor:
#      x y z
#    x 3.935500 0.000000 0.119540 
#    y 0.000000 2.891210 0.000000 
#    z 0.119540 0.000000 3.406010 
# 
# 
# High freq. dielectric constant tensor:
#      x y z
#    x 1.747270 0.000000 0.001510 
#    y 0.000000 1.642310 0.000000 
#    z 0.001510 0.000000 1.720000 
# 
# From -- ./inp_files/37733.got.cif
#   From: 2010.06.25/outbox.cif.g09.slc.cpg/sg10_19_cif.got.tgz:37733.got - 2010.06.27 22:07:45.
