data_PCOD8062504
_publ_section_title
;
Structure prediction by ZEFSAII (Michael W. Deem and Ramdas Pophale) SiO2 
 PCOD8062504
Probable space group: P 2/M
;
_chemical_formula_sum "Si O2"
_cell_formula_units_Z 28
_cell_length_a 9.444341
_cell_length_b 8.556632
_cell_length_c 27.295541
_cell_angle_alpha 90.000000
_cell_angle_beta 141.316848
_cell_angle_gamma 90.000000
_cell_volume 1378.654266
_symmetry_space_group_name_H-M "P 2/M"
_symmetry_group_IT_number 10
_symmetry_cell_setting 'monoclinic'
loop_
_space_group_symop_operation_xyz
x,y,z
-x,y,-z
-x,-y,-z
x,-y,z
loop_
_atom_site_type_symbol
_atom_site_label
_atom_site_fract_x
_atom_site_fract_y
_atom_site_fract_z
Si Si1 0.459113 0.180440 0.271410
Si Si2 0.281797 0.321457 0.464497
Si Si3 0.814287 0.684940 0.295279
Si Si4 0.176701 0.313577 0.007072
Si Si5 0.970291 0.315862 0.138539
Si Si6 0.313511 0.684901 0.846479
Si Si7 0.254729 0.322097 0.568971
O O1 0.596258 0.237280 0.261104
O O2 0.602220 0.206914 0.359096
O O3 0.231389 0.277472 0.216441
O O4 0.399040 0.000000 0.249279
O O5 0.500000 0.235662 0.500000
O O6 0.269691 0.500000 0.442805
O O7 0.339260 0.311478 0.536816
O O8 0.042361 0.246671 0.382750
O O9 0.791642 0.500000 0.296721
O O10 0.816525 0.731800 0.238612
O O11 0.168360 0.500000 0.005440
O O12 0.111204 0.247964 0.935705
O O13 0.429293 0.250881 0.086659
O O14 0.000000 0.247953 0.000000
O O15 0.938385 0.500000 0.130220
O O16 0.820890 0.244138 0.142971
O O17 0.322454 0.500000 0.854180
O O18 0.268117 0.500000 0.593267
O O19 0.000000 0.261210 0.500000
#
# Coordination Sequence:
#
# PCOD8062504 Si02
#       7
#     4   4   4   4   4   4   4
#     4  12  25  38  54  79 114 151 191 232 276 327
#     4   9  18  31  54  85 112 137 175 229 278 329
#     4  10  19  36  58  82 110 145 188 231 279 332
#     4   9  16  29  53  88 121 145 175 225 281 331
#     4  10  20  35  58  85 114 148 186 228 278 332
#     4   9  18  31  56  90 117 141 180 235 285 329
#     4  10  19  36  60  83 107 140 185 231 278 329
#
# _framework density 20.309660000000001
#
# number of rings (size 3 to 8) (size 9 to 14) (size 15 to 20)
#    0.000    2.143    1.429    2.571    2.000    4.286 
#    0.000    0.714    0.000    6.429    0.000    0.000 
#    0.000    0.000    0.000    0.000    0.000    0.000 
#
# Total GULP energy -347139.559635 kJ/mol
# GULP energy per Si atom -12397.841416 kJ/mol
# Density = 2.026343 g / cm^3
# Si number density = 20.309660 Si / 1000 Ang^3
#
#
#
# Elastic Constant Matrix: (Units=GPa)
#
#
# Indices 1 2 3 4 5 6 
#
# 1 163.1805 5.3028 57.7201 0.0000 1.0258 0.0000
# 2 5.3028 11.2485 6.7701 0.0000 -5.8637 0.0000
# 3 57.7201 6.7701 102.6531 0.0000 -10.0718 0.0000
# 4 0.0000 0.0000 0.0000 2.4411 0.0000 0.7242
# 5 1.0258 -5.8637 -10.0718 0.0000 40.8678 0.0000
# 6 0.0000 0.0000 0.0000 0.7242 0.0000 2.7082
#
#
#
# Elastic Compliance Matrix: (Units=1/GPa)
#
#
# Indices 1 2 3 4 5 6 
#
# 1 0.007749 -0.001813 -0.004388 0.000000 -0.001536 0.000000
# 2 -0.001813 0.099198 -0.004224 0.000000 0.013237 0.000000
# 3 -0.004388 -0.004224 0.012747 0.000000 0.002646 0.000000
# 4 0.000000 0.000000 0.000000 0.444945 0.000000 -0.118984
# 5 -0.001536 0.013237 0.002646 0.000000 0.027059 0.000000
# 6 0.000000 0.000000 0.000000 -0.118984 0.000000 0.401065
#
#
# Mechanical properties :
#
#
# Convention : Reuss Voigt Hill
#
# Bulk Modulus (GPa) = 10.11698 46.29646 28.20672
# Shear Modulus (GPa) = 4.77755 23.02271 13.90013
#
# Velocity S-wave (km/s) = 1.53540 3.37053 2.61896
# Velocity P-wave (km/s) = 2.85227 6.16377 4.80247
#
# Compressibility (1/GPa) = 0.09884369
#
# Stress axis : x y z
#
# Youngs Moduli (GPa) = 129.04953 10.08087 78.44880
#
# Poissons Ratio (x) = 0.01827 0.34426
# Poissons Ratio (y) = 0.23392 0.33138
# Poissons Ratio (z) = 0.56631 0.04258
#
# Static dielectric constant tensor:
#      x y z
#    x 3.980250 0.000000 -0.042970 
#    y 0.000000 3.027120 0.000000 
#    z -0.042970 0.000000 3.888410 
# 
# 
# High freq. dielectric constant tensor:
#      x y z
#    x 1.812560 0.000000 -0.001250 
#    y 0.000000 1.722660 0.000000 
#    z -0.001250 0.000000 1.806220 
# 
# From -- ./inp_files/36994.got.cif
#   From: 2010.06.25/outbox.cif.g09.slc.cpg/sg10_19_cif.got.tgz:36994.got - 2010.06.27 22:07:45.
