data_PCOD8062056
_publ_section_title
;
Structure prediction by ZEFSAII (Michael W. Deem and Ramdas Pophale) SiO2 
 PCOD8062056
Probable space group: P 2/M
;
_chemical_formula_sum "Si O2"
_cell_formula_units_Z 32
_cell_length_a 19.230402
_cell_length_b 13.684854
_cell_length_c 17.699492
_cell_angle_alpha 90.000000
_cell_angle_beta 20.857570
_cell_angle_gamma 90.000000
_cell_volume 1658.423890
_symmetry_space_group_name_H-M "P 2/M"
_symmetry_group_IT_number 10
_symmetry_cell_setting 'monoclinic'
loop_
_space_group_symop_operation_xyz
x,y,z
-x,y,-z
-x,-y,-z
x,-y,z
loop_
_atom_site_type_symbol
_atom_site_label
_atom_site_fract_x
_atom_site_fract_y
_atom_site_fract_z
Si Si1 0.094444 0.715111 0.057919
Si Si2 0.415553 0.386606 0.664138
Si Si3 0.335298 0.892227 0.835852
Si Si4 0.344126 0.748016 0.476002
Si Si5 0.447769 0.263158 0.203524
Si Si6 0.200899 0.386120 0.106867
Si Si7 0.049818 0.733826 0.536558
Si Si8 0.765587 0.889988 0.887635
O O1 0.183680 0.636675 0.907453
O O2 0.193134 0.818691 0.936363
O O3 0.150569 0.680043 0.085274
O O4 0.866786 0.729601 0.274073
O O5 0.500000 0.343862 0.500000
O O6 0.459075 0.500000 0.625161
O O7 0.517064 0.337451 0.633651
O O8 0.558504 0.852710 0.602706
O O9 0.251702 0.895017 0.005109
O O10 0.329811 0.000000 0.805020
O O11 0.325961 0.745761 0.404501
O O12 0.575444 0.168295 0.051217
O O13 0.284990 0.273074 0.304061
O O14 0.590350 0.356338 0.068976
O O15 0.198988 0.500000 0.087202
O O16 0.038081 0.363085 0.335103
O O17 0.000000 0.733825 0.500000
O O18 0.962125 0.832372 0.664083
O O19 0.770643 0.000000 0.848510
#
# Coordination Sequence:
#
# PCOD8062056 Si02
#       8
#     4   4   4   4   4   4   4   4
#     4  11  19  36  59  86 114 147 188 231 271 328
#     4  10  22  38  56  86 124 152 180 225 280 333
#     4   9  17  33  56  85 116 144 183 235 280 325
#     4  10  19  34  58  84 112 147 190 225 272 328
#     4  10  19  38  56  80 107 145 187 233 277 331
#     4  11  22  37  57  80 105 141 191 235 277 331
#     4  11  23  39  55  78 114 147 184 239 290 331
#     4   9  18  34  56  82 111 145 185 228 282 343
#
# _framework density 19.295428999999999
#
# number of rings (size 3 to 8) (size 9 to 14) (size 15 to 20)
#    0.000    1.875    6.250    0.375    0.000    5.500 
#    0.000    5.000    0.000    6.000    0.000    7.000 
#    0.000    0.000    0.000    0.000    0.000    0.000 
#
# Total GULP energy -396593.992254 kJ/mol
# GULP energy per Si atom -12393.562258 kJ/mol
# Density = 1.925151 g / cm^3
# Si number density = 19.295429 Si / 1000 Ang^3
#
#
#
# Elastic Constant Matrix: (Units=GPa)
#
#
# Indices 1 2 3 4 5 6 
#
# 1 29.2605 16.6537 11.9628 0.0000 -5.0554 0.0000
# 2 16.6537 122.2712 24.9575 0.0000 -4.9093 0.0000
# 3 11.9628 24.9575 91.0184 0.0000 -13.8560 0.0000
# 4 0.0000 0.0000 0.0000 22.0295 0.0000 2.4342
# 5 -5.0554 -4.9093 -13.8560 0.0000 29.7009 0.0000
# 6 0.0000 0.0000 0.0000 2.4342 0.0000 10.1489
#
#
#
# Elastic Compliance Matrix: (Units=1/GPa)
#
#
# Indices 1 2 3 4 5 6 
#
# 1 0.038776 -0.004451 -0.003211 0.000000 0.004366 0.000000
# 2 -0.004451 0.009178 -0.001955 0.000000 -0.000153 0.000000
# 3 -0.003211 -0.001955 0.012716 0.000000 0.005062 0.000000
# 4 0.000000 0.000000 0.000000 0.046629 0.000000 -0.011184
# 5 0.004366 -0.000153 0.005062 0.000000 0.036749 0.000000
# 6 0.000000 0.000000 0.000000 -0.011184 0.000000 0.101215
#
#
# Mechanical properties :
#
#
# Convention : Reuss Voigt Hill
#
# Bulk Modulus (GPa) = 24.13377 38.85534 31.49456
# Shear Modulus (GPa) = 17.96570 24.97426 21.46998
#
# Velocity S-wave (km/s) = 3.05468 3.60155 3.33933
# Velocity P-wave (km/s) = 4.99761 6.12174 5.58801
#
# Compressibility (1/GPa) = 0.04143571
#
# Stress axis : x y z
#
# Youngs Moduli (GPa) = 25.78904 108.96084 78.64402
#
# Poissons Ratio (x) = 0.48494 0.25256
# Poissons Ratio (y) = 0.11478 0.15373
# Poissons Ratio (z) = 0.08282 0.21299
#
# Static dielectric constant tensor:
#      x y z
#    x 3.181710 0.000000 0.021210 
#    y 0.000000 3.685070 0.000000 
#    z 0.021210 0.000000 3.809940 
# 
# 
# High freq. dielectric constant tensor:
#      x y z
#    x 1.717010 0.000000 -0.004570 
#    y 0.000000 1.745360 0.000000 
#    z -0.004570 0.000000 1.759570 
# 
# From -- ./inp_files/79696.got.cif
#   From: 2010.06.25/outbox.cif.g09.slc.cpg/sg10_40_cif.got.tgz:79696.got - 2010.06.27 22:07:45.
