data_PCOD8062279
_publ_section_title
;
Structure prediction by ZEFSAII (Michael W. Deem and Ramdas Pophale) SiO2 
 PCOD8062279
Probable space group: P 2/M
;
_chemical_formula_sum "Si O2"
_cell_formula_units_Z 20
_cell_length_a 8.995463
_cell_length_b 7.756494
_cell_length_c 26.698135
_cell_angle_alpha 90.000000
_cell_angle_beta 146.869023
_cell_angle_gamma 90.000000
_cell_volume 1018.130893
_symmetry_space_group_name_H-M "P 2/M"
_symmetry_group_IT_number 10
_symmetry_cell_setting 'monoclinic'
loop_
_space_group_symop_operation_xyz
x,y,z
-x,y,-z
-x,-y,-z
x,-y,z
loop_
_atom_site_type_symbol
_atom_site_label
_atom_site_fract_x
_atom_site_fract_y
_atom_site_fract_z
Si Si1 0.302060 0.804675 0.592269
Si Si2 0.918216 0.000000 0.896885
Si Si3 0.247186 0.302900 0.768527
Si Si4 0.570743 0.000000 0.898995
Si Si5 0.597230 0.691036 0.770961
Si Si6 0.385687 0.701017 0.414982
O O1 0.460689 0.693808 0.678079
O O2 0.462203 0.803228 0.585461
O O3 0.000000 0.726779 0.500000
O O4 0.281617 0.000000 0.606400
O O5 0.761267 0.000000 0.904611
O O6 0.840510 0.829358 0.843493
O O7 0.241946 0.000000 0.998437
O O8 0.297653 0.500000 0.800436
O O9 0.365777 0.270326 0.746690
O O10 0.931798 0.257451 0.677317
O O11 0.388035 0.173146 0.847701
O O12 0.721683 0.500000 0.814272
O O13 0.500000 0.768535 0.500000
O O14 0.447605 0.500000 0.425713
#
# Coordination Sequence:
#
# PCOD8062279 Si02
#       6
#     4   2   4   2   4   4
#     4  11  23  36  53  81 113 145 185 224 264 323
#     4   9  18  34  52  85 112 137 184 223 270 333
#     4   9  19  34  55  83 110 143 185 222 268 325
#     4   9  18  32  56  79 114 145 170 229 280 315
#     4  10  19  35  58  80 111 147 179 225 272 316
#     4  10  21  37  55  79 111 145 185 225 265 322
#
# _framework density 19.643840999999998
#
# number of rings (size 3 to 8) (size 9 to 14) (size 15 to 20)
#    0.000    2.200    1.000    1.800    1.400    4.400 
#    0.000    4.000    0.000    2.400    0.000    4.200 
#    0.000    0.000    0.000    0.000    0.000    0.000 
#
# Total GULP energy -248044.255725 kJ/mol
# GULP energy per Si atom -12402.212786 kJ/mol
# Density = 1.959913 g / cm^3
# Si number density = 19.643841 Si / 1000 Ang^3
#
#
#
# Elastic Constant Matrix: (Units=GPa)
#
#
# Indices 1 2 3 4 5 6 
#
# 1 70.4467 28.3520 44.9990 0.0000 0.6731 0.0000
# 2 28.3520 116.5533 74.5763 0.0000 2.7195 0.0000
# 3 44.9990 74.5763 167.8008 0.0000 0.9083 0.0000
# 4 0.0000 0.0000 0.0000 22.0386 0.0000 -1.7282
# 5 0.6731 2.7195 0.9083 0.0000 22.0364 0.0000
# 6 0.0000 0.0000 0.0000 -1.7282 0.0000 20.8400
#
#
#
# Elastic Compliance Matrix: (Units=1/GPa)
#
#
# Indices 1 2 3 4 5 6 
#
# 1 0.017379 -0.001736 -0.003888 0.000000 -0.000156 0.000000
# 2 -0.001736 0.012198 -0.004949 0.000000 -0.001248 0.000000
# 3 -0.003888 -0.004949 0.009200 0.000000 0.000350 0.000000
# 4 0.000000 0.000000 0.000000 0.045672 0.000000 0.003787
# 5 -0.000156 -0.001248 0.000350 0.000000 0.045524 0.000000
# 6 0.000000 0.000000 0.000000 0.003787 0.000000 0.048299
#
#
# Mechanical properties :
#
#
# Convention : Reuss Voigt Hill
#
# Bulk Modulus (GPa) = 56.72023 72.29505 64.50764
# Shear Modulus (GPa) = 24.35543 26.77457 25.56500
#
# Velocity S-wave (km/s) = 3.52497 3.69589 3.61144
# Velocity P-wave (km/s) = 6.74568 7.42264 7.09224
#
# Compressibility (1/GPa) = 0.01763039
#
# Stress axis : x y z
#
# Youngs Moduli (GPa) = 57.54108 81.98323 108.70050
#
# Poissons Ratio (x) = 0.14233 0.42264
# Poissons Ratio (y) = 0.09989 0.53793
# Poissons Ratio (z) = 0.22372 0.40571
#
# Static dielectric constant tensor:
#      x y z
#    x 3.254230 0.000000 0.019870 
#    y 0.000000 3.632310 0.000000 
#    z 0.019870 0.000000 3.665690 
# 
# 
# High freq. dielectric constant tensor:
#      x y z
#    x 1.737710 0.000000 0.000730 
#    y 0.000000 1.775960 0.000000 
#    z 0.000730 0.000000 1.760010 
# 
# From -- ./inp_files/26949.got.cif
#   From: 2010.06.25/outbox.cif.g09.slc.cpg/sg10_14_cif.got.tgz:26949.got - 2010.06.27 22:07:45.
