data_PCOD8062316
_publ_section_title
;
Structure prediction by ZEFSAII (Michael W. Deem and Ramdas Pophale) SiO2 
 PCOD8062316
Probable space group: P 2/M
;
_chemical_formula_sum "Si O2"
_cell_formula_units_Z 20
_cell_length_a 19.178016
_cell_length_b 12.635105
_cell_length_c 10.145371
_cell_angle_alpha 90.000000
_cell_angle_beta 154.209085
_cell_angle_gamma 90.000000
_cell_volume 1069.616038
_symmetry_space_group_name_H-M "P 2/M"
_symmetry_group_IT_number 10
_symmetry_cell_setting 'monoclinic'
loop_
_space_group_symop_operation_xyz
x,y,z
-x,y,-z
-x,-y,-z
x,-y,z
loop_
_atom_site_type_symbol
_atom_site_label
_atom_site_fract_x
_atom_site_fract_y
_atom_site_fract_z
Si Si1 0.867413 0.621170 0.881377
Si Si2 0.337948 0.805748 0.552871
Si Si3 0.295651 0.804937 0.789903
Si Si4 0.136180 0.000000 0.121792
Si Si5 0.927251 0.378278 0.516333
Si Si6 0.081019 0.000000 0.497609
O O1 0.813664 0.500000 0.771662
O O2 0.712444 0.692936 0.593257
O O3 0.000000 0.653324 0.000000
O O4 0.935588 0.643000 0.142453
O O5 0.292547 0.814450 0.627974
O O6 0.246549 0.897186 0.319796
O O7 0.526471 0.817883 0.850825
O O8 0.228878 0.691098 0.719677
O O9 0.188658 0.896383 0.668886
O O10 0.000000 0.000000 0.000000
O O11 0.058673 0.000000 0.847036
O O12 0.870674 0.500000 0.423522
O O13 0.000000 0.346416 0.500000
O O14 0.000000 0.000000 0.500000
#
# Coordination Sequence:
#
# PCOD8062316 Si02
#       6
#     4   4   4   2   4   2
#     4  10  19  35  58  85 115 148 194 236 269 328
#     4  11  22  36  60  89 116 144 188 237 288 333
#     4  11  22  38  58  87 119 147 183 238 289 332
#     4  12  21  39  63  83 110 152 193 230 272 341
#     4  10  21  38  59  83 115 155 193 229 277 337
#     4  12  25  41  61  85 114 149 191 232 279 338
#
# _framework density 18.698298000000001
#
# number of rings (size 3 to 8) (size 9 to 14) (size 15 to 20)
#    0.000    1.200    4.000    3.000    0.000    2.400 
#    0.000    7.000    0.000    3.600    0.000    0.000 
#    0.000    0.000    0.000    0.000    0.000    0.000 
#
# Total GULP energy -248117.455364 kJ/mol
# GULP energy per Si atom -12405.872768 kJ/mol
# Density = 1.865574 g / cm^3
# Si number density = 18.698298 Si / 1000 Ang^3
#
#
#
# Elastic Constant Matrix: (Units=GPa)
#
#
# Indices 1 2 3 4 5 6 
#
# 1 112.9853 45.1982 72.7003 0.0000 -4.1776 0.0000
# 2 45.1982 123.5591 78.5008 0.0000 17.0454 0.0000
# 3 72.7003 78.5008 147.4674 0.0000 4.8057 0.0000
# 4 0.0000 0.0000 0.0000 24.2051 0.0000 -8.9741
# 5 -4.1776 17.0454 4.8057 0.0000 29.2821 0.0000
# 6 0.0000 0.0000 0.0000 -8.9741 0.0000 27.4529
#
#
#
# Elastic Compliance Matrix: (Units=1/GPa)
#
#
# Indices 1 2 3 4 5 6 
#
# 1 0.013441 -0.001758 -0.005817 0.000000 0.003896 0.000000
# 2 -0.001758 0.013641 -0.006161 0.000000 -0.007180 0.000000
# 3 -0.005817 -0.006161 0.012908 0.000000 0.000638 0.000000
# 4 0.000000 0.000000 0.000000 0.047011 0.000000 0.015367
# 5 0.003896 -0.007180 0.000638 0.000000 0.038782 0.000000
# 6 0.000000 0.000000 0.000000 0.015367 0.000000 0.041449
#
#
# Mechanical properties :
#
#
# Convention : Reuss Voigt Hill
#
# Bulk Modulus (GPa) = 79.88886 86.31225 83.10055
# Shear Modulus (GPa) = 25.14106 28.69554 26.91830
#
# Velocity S-wave (km/s) = 3.67081 3.92172 3.79834
# Velocity P-wave (km/s) = 7.79643 8.17112 7.98598
#
# Compressibility (1/GPa) = 0.01251739
#
# Stress axis : x y z
#
# Youngs Moduli (GPa) = 74.39705 73.30764 77.47244
#
# Poissons Ratio (x) = 0.12890 0.45069
# Poissons Ratio (y) = 0.13082 0.47728
# Poissons Ratio (z) = 0.43280 0.45163
#
# Static dielectric constant tensor:
#      x y z
#    x 3.357040 0.000000 -0.089150 
#    y 0.000000 3.649430 0.000000 
#    z -0.089150 0.000000 3.494290 
# 
# 
# High freq. dielectric constant tensor:
#      x y z
#    x 1.714190 0.000000 -0.008750 
#    y 0.000000 1.745070 0.000000 
#    z -0.008750 0.000000 1.728680 
# 
# From -- ./inp_files/32383.got.cif
#   From: 2010.06.25/outbox.cif.g09.slc.cpg/sg10_17_cif.got.tgz:32383.got - 2010.06.27 22:07:45.
