data_PCOD8062156
_publ_section_title
;
Structure prediction by ZEFSAII (Michael W. Deem and Ramdas Pophale) SiO2 
 PCOD8062156
Probable space group: P 2/M
;
_chemical_formula_sum "Si O2"
_cell_formula_units_Z 32
_cell_length_a 12.139443
_cell_length_b 8.840955
_cell_length_c 31.529904
_cell_angle_alpha 90.000000
_cell_angle_beta 29.887094
_cell_angle_gamma 90.000000
_cell_volume 1686.183757
_symmetry_space_group_name_H-M "P 2/M"
_symmetry_group_IT_number 10
_symmetry_cell_setting 'monoclinic'
loop_
_space_group_symop_operation_xyz
x,y,z
-x,y,-z
-x,-y,-z
x,-y,z
loop_
_atom_site_type_symbol
_atom_site_label
_atom_site_fract_x
_atom_site_fract_y
_atom_site_fract_z
Si Si1 0.475355 0.822384 0.121262
Si Si2 0.022588 0.170357 0.042314
Si Si3 0.303678 0.176370 0.268581
Si Si4 0.306894 0.320640 0.094897
Si Si5 0.802172 0.821700 0.421299
Si Si6 0.815484 0.320574 0.246409
Si Si7 0.384172 0.680644 0.598635
Si Si8 0.636933 0.676989 0.218210
O O1 0.405143 0.759114 0.190879
O O2 0.330206 0.739480 0.134689
O O3 0.426740 0.000000 0.135270
O O4 0.730293 0.784344 0.026992
O O5 0.856761 0.287961 0.118435
O O6 0.965126 0.000000 0.076514
O O7 0.000000 0.181487 0.000000
O O8 0.420256 0.249253 0.270309
O O9 0.045076 0.213833 0.357666
O O10 0.352955 0.000000 0.254229
O O11 0.319877 0.500000 0.092086
O O12 0.068905 0.263382 0.157481
O O13 0.500000 0.254873 0.000000
O O14 0.630980 0.745091 0.510811
O O15 0.776394 0.748807 0.383500
O O16 0.756828 0.000000 0.433113
O O17 0.817296 0.500000 0.246116
O O18 0.704611 0.261061 0.326556
O O19 0.673298 0.260729 0.253922
O O20 0.387086 0.500000 0.593797
O O21 0.598326 0.500000 0.231299
#
# Coordination Sequence:
#
# PCOD8062156 Si02
#       8
#     4   4   4   4   4   4   4   4
#     4  10  20  34  54  77 104 138 179 219 262 320
#     4  10  19  35  54  72 106 148 180 217 269 320
#     4  10  21  38  55  77 110 144 173 217 278 324
#     4  10  20  35  54  76 108 142 174 219 270 314
#     4  10  20  35  58  85 113 137 172 225 273 321
#     4   9  20  37  54  77 110 147 179 217 271 324
#     4  10  19  35  59  82 110 144 178 216 268 329
#     4  11  22  36  56  80 107 140 187 231 262 313
#
# _framework density 18.977764000000001
#
# number of rings (size 3 to 8) (size 9 to 14) (size 15 to 20)
#    0.000    2.000    1.250    3.375    0.000    3.500 
#    0.000    5.000    0.000    3.750    0.000    0.000 
#    0.000    0.000    0.000    0.000    0.000    0.000 
#
# Total GULP energy -396838.249308 kJ/mol
# GULP energy per Si atom -12401.195291 kJ/mol
# Density = 1.893457 g / cm^3
# Si number density = 18.977764 Si / 1000 Ang^3
#
#
#
# Elastic Constant Matrix: (Units=GPa)
#
#
# Indices 1 2 3 4 5 6 
#
# 1 158.1213 41.3808 77.7800 0.0000 -11.8918 0.0000
# 2 41.3808 51.0322 34.9279 0.0000 -5.9358 0.0000
# 3 77.7800 34.9279 121.6397 0.0000 -1.4496 0.0000
# 4 0.0000 0.0000 0.0000 15.9531 0.0000 -2.9548
# 5 -11.8918 -5.9358 -1.4496 0.0000 21.7674 0.0000
# 6 0.0000 0.0000 0.0000 -2.9548 0.0000 17.4459
#
#
#
# Elastic Compliance Matrix: (Units=1/GPa)
#
#
# Indices 1 2 3 4 5 6 
#
# 1 0.010397 -0.004270 -0.005373 0.000000 0.004158 0.000000
# 2 -0.004270 0.027005 -0.004968 0.000000 0.004700 0.000000
# 3 -0.005373 -0.004968 0.013042 0.000000 -0.003421 0.000000
# 4 0.000000 0.000000 0.000000 0.064714 0.000000 0.010961
# 5 0.004158 0.004700 -0.003421 0.000000 0.049266 0.000000
# 6 0.000000 0.000000 0.000000 0.010961 0.000000 0.059177
#
#
# Mechanical properties :
#
#
# Convention : Reuss Voigt Hill
#
# Bulk Modulus (GPa) = 47.11832 70.99674 59.05753
# Shear Modulus (GPa) = 19.23848 22.81357 21.02602
#
# Velocity S-wave (km/s) = 3.18738 3.47092 3.33217
# Velocity P-wave (km/s) = 6.19903 7.31811 6.78169
#
# Compressibility (1/GPa) = 0.02122317
#
# Stress axis : x y z
#
# Youngs Moduli (GPa) = 96.17908 37.03042 76.67462
#
# Poissons Ratio (x) = 0.15812 0.41195
# Poissons Ratio (y) = 0.41069 0.38090
# Poissons Ratio (z) = 0.51674 0.18396
#
# Static dielectric constant tensor:
#      x y z
#    x 3.639710 0.000000 0.000350 
#    y 0.000000 3.317370 0.000000 
#    z 0.000350 0.000000 3.619820 
# 
# 
# High freq. dielectric constant tensor:
#      x y z
#    x 1.744400 0.000000 -0.005820 
#    y 0.000000 1.723660 0.000000 
#    z -0.005820 0.000000 1.736430 
# 
# From -- ./inp_files/94933.got.cif
#   From: 2010.06.25/outbox.cif.g09.slc.cpg/sg10_48_cif.got.tgz:94933.got - 2010.06.27 22:07:45.
