data_PCOD8062809
_publ_section_title
;
Structure prediction by ZEFSAII (Michael W. Deem and Ramdas Pophale) SiO2 
 PCOD8062809
Probable space group: P 2/M
;
_chemical_formula_sum "Si O2"
_cell_formula_units_Z 24
_cell_length_a 9.234218
_cell_length_b 13.831688
_cell_length_c 15.074324
_cell_angle_alpha 90.000000
_cell_angle_beta 52.183172
_cell_angle_gamma 90.000000
_cell_volume 1520.990428
_symmetry_space_group_name_H-M "P 2/M"
_symmetry_group_IT_number 10
_symmetry_cell_setting 'monoclinic'
loop_
_space_group_symop_operation_xyz
x,y,z
-x,y,-z
-x,-y,-z
x,-y,z
loop_
_atom_site_type_symbol
_atom_site_label
_atom_site_fract_x
_atom_site_fract_y
_atom_site_fract_z
Si Si1 0.148702 0.784894 0.190489
Si Si2 0.702857 0.390312 0.130220
Si Si3 0.870650 0.885447 0.629542
Si Si4 0.529989 0.215089 0.809864
Si Si5 0.963999 0.390315 0.869553
Si Si6 0.836393 0.113962 0.999829
O O1 0.045795 0.838945 0.311079
O O2 0.362811 0.770406 0.136813
O O3 0.057266 0.680452 0.206389
O O4 0.130215 0.851064 0.111841
O O5 0.630736 0.500000 0.150080
O O6 0.529559 0.319541 0.206050
O O7 0.833987 0.379564 0.165704
O O8 0.813162 0.360947 0.999874
O O9 0.668034 0.839068 0.689298
O O10 0.000000 0.856097 0.500000
O O11 0.853335 0.000000 0.647002
O O12 0.354038 0.149018 0.888788
O O13 0.931748 0.500000 0.849620
O O14 0.834339 0.000000 0.999905
O O15 0.000000 0.154584 0.000000
#
# Coordination Sequence:
#
# PCOD8062809 Si02
#       6
#     4   4   4   4   4   4
#     4  10  20  30  51  76 102 129 166 213 250 299
#     4   9  17  30  48  73 108 142 167 195 242 306
#     4   9  20  37  54  71  96 133 175 216 254 290
#     4  10  20  30  51  76 102 129 166 213 250 299
#     4   9  17  30  48  73 108 142 167 195 242 306
#     4  11  21  31  46  73 108 137 159 198 259 318
#
# _framework density 15.779191000000001
#
# number of rings (size 3 to 8) (size 9 to 14) (size 15 to 20)
#    1.000    1.333    1.667    3.500    0.000    1.333 
#    0.000    1.667    0.000    6.000    0.000   14.000 
#    0.000    0.000    0.000    0.000    0.000    0.000 
#
# Total GULP energy -297448.121884 kJ/mol
# GULP energy per Si atom -12393.671745 kJ/mol
# Density = 1.574328 g / cm^3
# Si number density = 15.779191 Si / 1000 Ang^3
#
#
#
# Elastic Constant Matrix: (Units=GPa)
#
#
# Indices 1 2 3 4 5 6 
#
# 1 100.5935 53.4965 47.0367 0.0000 3.3377 0.0000
# 2 53.4965 107.1348 55.9080 0.0000 0.1036 0.0000
# 3 47.0367 55.9080 104.4105 0.0000 -2.7830 0.0000
# 4 0.0000 0.0000 0.0000 20.3169 0.0000 1.0023
# 5 3.3377 0.1036 -2.7830 0.0000 2.8126 0.0000
# 6 0.0000 0.0000 0.0000 1.0023 0.0000 36.2050
#
#
#
# Elastic Compliance Matrix: (Units=1/GPa)
#
#
# Indices 1 2 3 4 5 6 
#
# 1 0.015851 -0.005328 -0.004914 0.000000 -0.023476 0.000000
# 2 -0.005328 0.014902 -0.005572 0.000000 0.000260 0.000000
# 3 -0.004914 -0.005572 0.015340 0.000000 0.021215 0.000000
# 4 0.000000 0.000000 0.000000 0.049287 0.000000 -0.001364
# 5 -0.023476 0.000260 0.021215 0.000000 0.404382 0.000000
# 6 0.000000 0.000000 0.000000 -0.001364 0.000000 0.027658
#
#
# Mechanical properties :
#
#
# Convention : Reuss Voigt Hill
#
# Bulk Modulus (GPa) = 69.12988 69.44681 69.28835
# Shear Modulus (GPa) = 8.86727 22.24673 15.55700
#
# Velocity S-wave (km/s) = 2.37314 3.75891 3.14334
# Velocity P-wave (km/s) = 7.17042 7.93387 7.56179
#
# Compressibility (1/GPa) = 0.01446552
#
# Stress axis : x y z
#
# Youngs Moduli (GPa) = 63.08732 67.10380 65.18760
#
# Poissons Ratio (x) = 0.35755 0.32030
# Poissons Ratio (y) = 0.33614 0.36325
# Poissons Ratio (z) = 0.30998 0.37392
#
# Static dielectric constant tensor:
#      x y z
#    x 3.001400 0.000000 0.024810 
#    y 0.000000 3.146620 0.000000 
#    z 0.024810 0.000000 2.611060 
# 
# 
# High freq. dielectric constant tensor:
#      x y z
#    x 1.604270 0.000000 0.002990 
#    y 0.000000 1.627100 0.000000 
#    z 0.002990 0.000000 1.557120 
# 
# From -- ./inp_files/61372.got.cif
#   From: 2010.06.25/outbox.cif.g09.slc.cpg/sg10_31_cif.got.tgz:61372.got - 2010.06.27 22:07:45.
