data_PCOD8062838
_publ_section_title
;
Structure prediction by ZEFSAII (Michael W. Deem and Ramdas Pophale) SiO2 
 PCOD8062838
Probable space group: P 2/M
;
_chemical_formula_sum "Si O2"
_cell_formula_units_Z 28
_cell_length_a 19.125005
_cell_length_b 8.823060
_cell_length_c 11.802748
_cell_angle_alpha 90.000000
_cell_angle_beta 51.464791
_cell_angle_gamma 90.000000
_cell_volume 1557.886720
_symmetry_space_group_name_H-M "P 2/M"
_symmetry_group_IT_number 10
_symmetry_cell_setting 'monoclinic'
loop_
_space_group_symop_operation_xyz
x,y,z
-x,y,-z
-x,-y,-z
x,-y,z
loop_
_atom_site_type_symbol
_atom_site_label
_atom_site_fract_x
_atom_site_fract_y
_atom_site_fract_z
Si Si1 0.690714 0.321877 0.887573
Si Si2 0.471640 0.825967 0.817996
Si Si3 0.649542 0.175560 0.257331
Si Si4 0.737741 0.321811 0.356839
Si Si5 0.660182 0.324047 0.668644
Si Si6 0.807478 0.324013 0.967789
Si Si7 0.901933 0.178282 0.062168
O O1 0.674758 0.500000 0.917266
O O2 0.703873 0.272367 0.743700
O O3 0.781859 0.276639 0.864200
O O4 0.603062 0.242691 0.024842
O O5 0.444848 0.804722 0.711717
O O6 0.566460 0.754488 0.743338
O O7 0.477966 0.000000 0.844131
O O8 0.652592 0.235188 0.383795
O O9 0.680848 0.000000 0.219636
O O10 0.719398 0.287894 0.128077
O O11 0.731561 0.500000 0.339276
O O12 0.730058 0.285026 0.498333
O O13 0.831729 0.259088 0.216419
O O14 0.638120 0.500000 0.693756
O O15 0.832607 0.500000 0.951098
O O16 0.887737 0.228437 0.944568
O O17 0.889138 0.000000 0.086375
O O18 0.000000 0.230720 0.000000
#
# Coordination Sequence:
#
# PCOD8062838 Si02
#       7
#     4   4   4   4   4   4   4
#     4   9  18  33  50  68  95 130 165 200 238 276
#     4  10  20  31  46  70  95 125 169 211 241 273
#     4   9  17  30  46  65  95 128 157 197 244 283
#     4  10  20  33  50  72  96 124 160 196 234 285
#     4  10  21  34  47  66  96 132 164 199 241 279
#     4   9  16  28  50  75  95 120 156 194 231 275
#     4  10  20  34  54  78 101 122 145 182 236 292
#
# _framework density 17.973065999999999
#
# number of rings (size 3 to 8) (size 9 to 14) (size 15 to 20)
#    0.000    2.429    0.000    4.286    0.000    7.429 
#    0.000    2.857    0.000    0.857    0.000    6.000 
#    0.000    0.000    0.000    0.000    0.000    0.000 
#
# Total GULP energy -346936.305647 kJ/mol
# GULP energy per Si atom -12390.582345 kJ/mol
# Density = 1.793216 g / cm^3
# Si number density = 17.973066 Si / 1000 Ang^3
#
#
#
# Elastic Constant Matrix: (Units=GPa)
#
#
# Indices 1 2 3 4 5 6 
#
# 1 161.3198 44.8268 68.7435 0.0000 22.2676 0.0000
# 2 44.8268 44.0170 39.1463 0.0000 14.0600 0.0000
# 3 68.7435 39.1463 84.8450 0.0000 23.3063 0.0000
# 4 0.0000 0.0000 0.0000 23.1644 0.0000 2.7366
# 5 22.2676 14.0600 23.3063 0.0000 17.4778 0.0000
# 6 0.0000 0.0000 0.0000 2.7366 0.0000 29.6601
#
#
#
# Elastic Compliance Matrix: (Units=1/GPa)
#
#
# Indices 1 2 3 4 5 6 
#
# 1 0.010129 -0.004908 -0.005495 0.000000 -0.001630 0.000000
# 2 -0.004908 0.042430 -0.012532 0.000000 -0.011168 0.000000
# 3 -0.005495 -0.012532 0.027344 0.000000 -0.019381 0.000000
# 4 0.000000 0.000000 0.000000 0.043645 0.000000 -0.004027
# 5 -0.001630 -0.011168 -0.019381 0.000000 0.094120 0.000000
# 6 0.000000 0.000000 0.000000 -0.004027 0.000000 0.034087
#
#
# Mechanical properties :
#
#
# Convention : Reuss Voigt Hill
#
# Bulk Modulus (GPa) = 29.38311 66.17944 47.78127
# Shear Modulus (GPa) = 16.18286 23.22478 19.70382
#
# Velocity S-wave (km/s) = 3.00391 3.59862 3.31463
# Velocity P-wave (km/s) = 5.33059 7.35990 6.42586
#
# Compressibility (1/GPa) = 0.03403316
#
# Stress axis : x y z
#
# Youngs Moduli (GPa) = 98.72501 23.56850 36.57131
#
# Poissons Ratio (x) = 0.11568 0.20095
# Poissons Ratio (y) = 0.48458 0.45830
# Poissons Ratio (z) = 0.54246 0.29535
#
# Static dielectric constant tensor:
#      x y z
#    x 3.895480 0.000000 0.526890 
#    y 0.000000 3.387940 0.000000 
#    z 0.526890 0.000000 3.140120 
# 
# 
# High freq. dielectric constant tensor:
#      x y z
#    x 1.702320 0.000000 0.029160 
#    y 0.000000 1.706130 0.000000 
#    z 0.029160 0.000000 1.656650 
# 
# From -- ./inp_files/54653.got.cif
#   From: 2010.06.25/outbox.cif.g09.slc.cpg/sg10_28_cif.got.tgz:54653.got - 2010.06.27 22:07:45.
