data_PCOD8062424
_publ_section_title
;
Structure prediction by ZEFSAII (Michael W. Deem and Ramdas Pophale) SiO2 
 PCOD8062424
Probable space group: P 2/M
;
_chemical_formula_sum "Si O2"
_cell_formula_units_Z 28
_cell_length_a 8.859403
_cell_length_b 18.693856
_cell_length_c 14.621042
_cell_angle_alpha 90.000000
_cell_angle_beta 35.594259
_cell_angle_gamma 90.000000
_cell_volume 1409.404399
_symmetry_space_group_name_H-M "P 2/M"
_symmetry_group_IT_number 10
_symmetry_cell_setting 'monoclinic'
loop_
_space_group_symop_operation_xyz
x,y,z
-x,y,-z
-x,-y,-z
x,-y,z
loop_
_atom_site_type_symbol
_atom_site_label
_atom_site_fract_x
_atom_site_fract_y
_atom_site_fract_z
Si Si1 0.799877 0.578491 0.960598
Si Si2 0.990567 0.721458 0.649710
Si Si3 0.785316 0.577204 0.750069
Si Si4 0.693308 0.916621 0.649073
Si Si5 0.512243 0.804225 0.602869
Si Si6 0.003009 0.727372 0.137867
Si Si7 0.495393 0.816693 0.109485
O O1 0.914119 0.500000 0.934337
O O2 0.786761 0.582193 0.858336
O O3 0.967594 0.645965 0.916210
O O4 0.507545 0.586408 0.141941
O O5 0.964302 0.640895 0.622955
O O6 0.737513 0.765100 0.746279
O O7 0.249797 0.754952 0.480938
O O8 0.013138 0.721225 0.746583
O O9 0.897145 0.500000 0.663301
O O10 0.556374 0.880649 0.628503
O O11 0.550199 0.889350 0.811647
O O12 0.000000 0.900212 0.500000
O O13 0.637998 0.000000 0.668041
O O14 0.500000 0.816249 0.500000
O O15 0.258311 0.765150 0.768707
O O16 0.241330 0.777319 0.990121
O O17 0.500000 0.835806 0.000000
#
# Coordination Sequence:
#
# PCOD8062424 Si02
#       7
#     4   4   4   4   4   4   4
#     4   8  12  20  38  70 109 145 185 234 280 320
#     4   9  15  29  50  78 111 149 194 231 273 333
#     4   8  12  19  38  71 108 144 188 238 275 314
#     4  11  24  42  64  89 114 146 189 230 282 353
#     4  10  21  37  58  84 116 151 186 231 288 341
#     4   9  17  29  50  80 113 148 188 234 280 330
#     4  10  19  35  61  87 114 148 190 236 276 330
#
# _framework density 19.866547000000001
#
# number of rings (size 3 to 8) (size 9 to 14) (size 15 to 20)
#    0.000    2.714    2.857    0.857    0.000    1.143 
#    0.000    2.143    0.000    4.286    0.000    6.000 
#    0.000    0.000    0.000    0.000    0.000    0.000 
#
# Total GULP energy -346952.918968 kJ/mol
# GULP energy per Si atom -12391.175677 kJ/mol
# Density = 1.982133 g / cm^3
# Si number density = 19.866547 Si / 1000 Ang^3
#
#
#
# Elastic Constant Matrix: (Units=GPa)
#
#
# Indices 1 2 3 4 5 6 
#
# 1 56.8378 56.8582 48.4051 0.0000 -14.0430 0.0000
# 2 56.8582 191.5888 70.9124 0.0000 -21.7585 0.0000
# 3 48.4051 70.9124 90.2862 0.0000 -26.5211 0.0000
# 4 0.0000 0.0000 0.0000 14.0316 0.0000 -27.1007
# 5 -14.0430 -21.7585 -26.5211 0.0000 35.7865 0.0000
# 6 0.0000 0.0000 0.0000 -27.1007 0.0000 -42.9562
#
#
#
# Elastic Compliance Matrix: (Units=1/GPa)
#
#
# Indices 1 2 3 4 5 6 
#
# 1 0.035372 -0.004907 -0.015223 0.000000 -0.000385 0.000000
# 2 -0.004907 0.008041 -0.003598 0.000000 0.000297 0.000000
# 3 -0.015223 -0.003598 0.025138 0.000000 0.010469 0.000000
# 4 0.000000 0.000000 0.000000 0.032124 0.000000 -0.020267
# 5 -0.000385 0.000297 0.010469 0.000000 0.035732 0.000000
# 6 0.000000 0.000000 0.000000 -0.020267 0.000000 -0.010493
#
#
# Mechanical properties :
#
#
# Convention : Reuss Voigt Hill
#
# Bulk Modulus (GPa) = 47.40173 76.78492 62.09333
# Shear Modulus (GPa) = 27.71614 12.20819 19.96216
#
# Velocity S-wave (km/s) = 3.73918 2.48162 3.17332
# Velocity P-wave (km/s) = 6.52333 6.85168 6.68952
#
# Compressibility (1/GPa) = 0.02109628
#
# Stress axis : x y z
#
# Youngs Moduli (GPa) = 28.27114 124.36271 39.78001
#
# Poissons Ratio (x) = 0.61019 0.60558
# Poissons Ratio (y) = 0.13871 0.14311
# Poissons Ratio (z) = 0.43038 0.44741
#
# Static dielectric constant tensor:
#      x y z
#    x 3.413450 0.000000 -0.312520 
#    y 0.000000 3.848530 0.000000 
#    z -0.312520 0.000000 3.593200 
# 
# 
# High freq. dielectric constant tensor:
#      x y z
#    x 1.753000 0.000000 -0.006550 
#    y 0.000000 1.776690 0.000000 
#    z -0.006550 0.000000 1.759830 
# 
# From -- ./inp_files/62303.got.cif
#   From: 2010.06.25/outbox.cif.g09.slc.cpg/sg10_32_cif.got.tgz:62303.got - 2010.06.27 22:07:45.
