data_PCOD8062382
_publ_section_title
;
Structure prediction by ZEFSAII (Michael W. Deem and Ramdas Pophale) SiO2 
 PCOD8062382
Probable space group: P 2/M
;
_chemical_formula_sum "Si O2"
_cell_formula_units_Z 32
_cell_length_a 13.228498
_cell_length_b 13.746864
_cell_length_c 15.836283
_cell_angle_alpha 90.000000
_cell_angle_beta 36.966585
_cell_angle_gamma 90.000000
_cell_volume 1731.785629
_symmetry_space_group_name_H-M "P 2/M"
_symmetry_group_IT_number 10
_symmetry_cell_setting 'monoclinic'
loop_
_space_group_symop_operation_xyz
x,y,z
-x,y,-z
-x,-y,-z
x,-y,z
loop_
_atom_site_type_symbol
_atom_site_label
_atom_site_fract_x
_atom_site_fract_y
_atom_site_fract_z
Si Si1 0.526327 0.757961 0.347507
Si Si2 0.069178 0.388047 0.537478
Si Si3 0.433157 0.611401 0.284457
Si Si4 0.606811 0.109601 0.145760
Si Si5 0.432545 0.717384 0.949786
Si Si6 0.218288 0.744739 0.673148
Si Si7 0.992816 0.108795 0.911221
Si Si8 0.078757 0.614139 0.187641
O O1 0.559814 0.671897 0.257948
O O2 0.556781 0.857361 0.274632
O O3 0.339081 0.761460 0.512227
O O4 0.665012 0.731359 0.323683
O O5 0.101145 0.500000 0.492974
O O6 0.252968 0.348066 0.436104
O O7 0.000000 0.334065 0.500000
O O8 0.942047 0.374436 0.698378
O O9 0.467337 0.500000 0.280359
O O10 0.454860 0.634909 0.170762
O O11 0.536234 0.180056 0.119028
O O12 0.535732 0.000000 0.179999
O O13 0.805535 0.109251 0.001943
O O14 0.500000 0.726667 0.000000
O O15 0.241290 0.680439 0.062299
O O16 0.104907 0.838861 0.765854
O O17 0.089931 0.653690 0.746139
O O18 0.065929 0.000000 0.870530
O O19 0.000000 0.158379 0.000000
O O20 0.104235 0.500000 0.145568
#
# Coordination Sequence:
#
# PCOD8062382 Si02
#       8
#     4   4   4   4   4   4   4   4
#     4  10  22  35  56  83 116 152 192 234 279 334
#     4   9  17  31  52  73  98 139 187 231 272 319
#     4  10  20  36  53  77 112 148 190 232 278 329
#     4  10  21  39  61  84 113 147 184 233 289 346
#     4  11  23  38  59  86 112 146 186 239 290 341
#     4  11  21  36  55  85 117 152 192 234 279 332
#     4  10  19  35  60  84 108 142 184 231 284 341
#     4  11  22  36  54  82 116 149 190 235 278 330
#
# _framework density 18.478038000000002
#
# number of rings (size 3 to 8) (size 9 to 14) (size 15 to 20)
#    0.000    1.750    3.750    1.125    0.000    3.250 
#    0.000    2.500    0.000    2.625    0.000    0.875 
#    0.000    0.000    0.000    0.000    0.000    0.000 
#
# Total GULP energy -396512.319913 kJ/mol
# GULP energy per Si atom -12391.009997 kJ/mol
# Density = 1.843598 g / cm^3
# Si number density = 18.478038 Si / 1000 Ang^3
#
#
#
# Elastic Constant Matrix: (Units=GPa)
#
#
# Indices 1 2 3 4 5 6 
#
# 1 77.9087 41.0297 28.2281 0.0000 12.4044 0.0000
# 2 41.0297 102.4819 41.0356 0.0000 2.9015 0.0000
# 3 28.2281 41.0356 79.9211 0.0000 5.1018 0.0000
# 4 0.0000 0.0000 0.0000 22.6651 0.0000 3.1455
# 5 12.4044 2.9015 5.1018 0.0000 27.1933 0.0000
# 6 0.0000 0.0000 0.0000 3.1455 0.0000 20.6915
#
#
#
# Elastic Compliance Matrix: (Units=1/GPa)
#
#
# Indices 1 2 3 4 5 6 
#
# 1 0.018123 -0.005883 -0.002928 0.000000 -0.007090 0.000000
# 2 -0.005883 0.014193 -0.005348 0.000000 0.002172 0.000000
# 3 -0.002928 -0.005348 0.016367 0.000000 -0.001164 0.000000
# 4 0.000000 0.000000 0.000000 0.045072 0.000000 -0.006852
# 5 -0.007090 0.002172 -0.001164 0.000000 0.039995 0.000000
# 6 0.000000 0.000000 0.000000 -0.006852 0.000000 0.049371
#
#
# Mechanical properties :
#
#
# Convention : Reuss Voigt Hill
#
# Bulk Modulus (GPa) = 49.10354 53.43317 51.26836
# Shear Modulus (GPa) = 22.91194 24.11120 23.51157
#
# Velocity S-wave (km/s) = 3.52512 3.61620 3.57095
# Velocity P-wave (km/s) = 6.57269 6.81291 6.69388
#
# Compressibility (1/GPa) = 0.02036513
#
# Stress axis : x y z
#
# Youngs Moduli (GPa) = 55.17747 70.45686 61.09854
#
# Poissons Ratio (x) = 0.41447 0.17890
# Poissons Ratio (y) = 0.32459 0.32678
# Poissons Ratio (z) = 0.16157 0.37683
#
# Static dielectric constant tensor:
#      x y z
#    x 3.389570 0.000000 -0.014360 
#    y 0.000000 3.354400 0.000000 
#    z -0.014360 0.000000 3.543720 
# 
# 
# High freq. dielectric constant tensor:
#      x y z
#    x 1.713480 0.000000 0.002980 
#    y 0.000000 1.699360 0.000000 
#    z 0.002980 0.000000 1.727870 
# 
# From -- ./inp_files/35107.got.cif
#   From: 2010.06.25/outbox.cif.g09.slc.cpg/sg10_18_cif.got.tgz:35107.got - 2010.06.27 22:07:45.
