data_PCOD8062960
_publ_section_title
;
Structure prediction by ZEFSAII (Michael W. Deem and Ramdas Pophale) SiO2 
 PCOD8062960
Probable space group: P 2/M
;
_chemical_formula_sum "Si O2"
_cell_formula_units_Z 32
_cell_length_a 25.759257
_cell_length_b 8.670847
_cell_length_c 14.588953
_cell_angle_alpha 90.000000
_cell_angle_beta 147.470270
_cell_angle_gamma 90.000000
_cell_volume 1752.221600
_symmetry_space_group_name_H-M "P 2/M"
_symmetry_group_IT_number 10
_symmetry_cell_setting 'monoclinic'
loop_
_space_group_symop_operation_xyz
x,y,z
-x,y,-z
-x,-y,-z
x,-y,z
loop_
_atom_site_type_symbol
_atom_site_label
_atom_site_fract_x
_atom_site_fract_y
_atom_site_fract_z
Si Si1 0.100082 0.682288 0.749245
Si Si2 0.337925 0.816265 0.418464
Si Si3 0.463192 0.833650 0.343892
Si Si4 0.892612 0.181952 0.432631
Si Si5 0.350971 0.318735 0.620567
Si Si6 0.735157 0.815550 0.886397
Si Si7 0.273627 0.319019 0.701608
Si Si8 0.459935 0.828078 0.041734
O O1 0.086479 0.500000 0.727227
O O2 0.140850 0.738675 0.712038
O O3 0.998236 0.761587 0.618708
O O4 0.171258 0.731008 0.936352
O O5 0.448251 0.746817 0.574897
O O6 0.293259 0.741167 0.444451
O O7 0.274852 0.769480 0.235857
O O8 0.341197 0.000000 0.432136
O O9 0.500000 0.865593 0.500000
O O10 0.358222 0.751151 0.194761
O O11 0.446867 0.000000 0.271586
O O12 0.820559 0.227920 0.406498
O O13 0.893401 0.000000 0.419412
O O14 0.361415 0.500000 0.636150
O O15 0.294367 0.266195 0.627795
O O16 0.458111 0.246769 0.773224
O O17 0.743114 0.000000 0.908678
O O18 0.254955 0.500000 0.681259
O O19 0.363132 0.274211 0.900553
O O20 0.435765 0.000000 0.041048
O O21 0.500000 0.832425 0.000000
#
# Coordination Sequence:
#
# PCOD8062960 Si02
#       8
#     4   4   4   4   4   4   4   4
#     4  11  22  37  56  79 107 134 162 204 259 315
#     4   9  17  30  50  74 103 140 181 220 253 294
#     4   7  12  25  45  68  94 127 167 208 245 280
#     4  11  22  38  59  80 101 128 166 211 258 310
#     4  10  20  32  48  72 107 145 176 212 258 307
#     4   9  17  32  53  76 103 137 177 217 256 301
#     4  10  20  35  53  75 104 137 172 212 263 314
#     4   9  17  30  48  70  97 132 175 215 249 292
#
# _framework density 18.262530999999999
#
# number of rings (size 3 to 8) (size 9 to 14) (size 15 to 20)
#    0.000    2.500    0.000    5.625    0.000    4.500 
#    0.000    4.375    0.000    3.000    0.000    5.250 
#    0.000    0.000    0.000    0.000    0.000    0.000 
#
# Total GULP energy -396544.340203 kJ/mol
# GULP energy per Si atom -12392.010631 kJ/mol
# Density = 1.822096 g / cm^3
# Si number density = 18.262531 Si / 1000 Ang^3
#
#
#
# Elastic Constant Matrix: (Units=GPa)
#
#
# Indices 1 2 3 4 5 6 
#
# 1 88.0375 21.8150 47.1473 0.0000 -3.6303 0.0000
# 2 21.8150 52.1116 16.9148 0.0000 -1.1306 0.0000
# 3 47.1473 16.9148 93.0525 0.0000 -6.6612 0.0000
# 4 0.0000 0.0000 0.0000 24.9124 0.0000 -0.4591
# 5 -3.6303 -1.1306 -6.6612 0.0000 23.9361 0.0000
# 6 0.0000 0.0000 0.0000 -0.4591 0.0000 18.0584
#
#
#
# Elastic Compliance Matrix: (Units=1/GPa)
#
#
# Indices 1 2 3 4 5 6 
#
# 1 0.016510 -0.004460 -0.007541 0.000000 0.000195 0.000000
# 2 -0.004460 0.021598 -0.001675 0.000000 -0.000122 0.000000
# 3 -0.007541 -0.001675 0.015085 0.000000 0.002975 0.000000
# 4 0.000000 0.000000 0.000000 0.040159 0.000000 0.001021
# 5 0.000195 -0.000122 0.002975 0.000000 0.042630 0.000000
# 6 0.000000 0.000000 0.000000 0.001021 0.000000 0.055402
#
#
# Mechanical properties :
#
#
# Convention : Reuss Voigt Hill
#
# Bulk Modulus (GPa) = 38.69726 44.99507 41.84617
# Shear Modulus (GPa) = 21.99269 23.20302 22.59785
#
# Velocity S-wave (km/s) = 3.47400 3.56831 3.52147
# Velocity P-wave (km/s) = 6.10958 6.45512 6.28472
#
# Compressibility (1/GPa) = 0.02584162
#
# Stress axis : x y z
#
# Youngs Moduli (GPa) = 60.56859 46.30159 66.29202
#
# Poissons Ratio (x) = 0.20649 0.49989
# Poissons Ratio (y) = 0.27012 0.11105
# Poissons Ratio (z) = 0.45673 0.07756
#
# Static dielectric constant tensor:
#      x y z
#    x 3.497390 0.000000 -0.022530 
#    y 0.000000 3.239800 0.000000 
#    z -0.022530 0.000000 3.318550 
# 
# 
# High freq. dielectric constant tensor:
#      x y z
#    x 1.700030 0.000000 -0.008310 
#    y 0.000000 1.698980 0.000000 
#    z -0.008310 0.000000 1.692610 
# 
# From -- ./inp_files/72231.got.cif
#   From: 2010.06.25/outbox.cif.g09.slc.cpg/sg10_37_cif.got.tgz:72231.got - 2010.06.27 22:07:45.
