data_PCOD8062833
_publ_section_title
;
Structure prediction by ZEFSAII (Michael W. Deem and Ramdas Pophale) SiO2 
 PCOD8062833
Probable space group: P 2/M
;
_chemical_formula_sum "Si O2"
_cell_formula_units_Z 28
_cell_length_a 14.126758
_cell_length_b 12.433320
_cell_length_c 9.910923
_cell_angle_alpha 90.000000
_cell_angle_beta 79.499262
_cell_angle_gamma 90.000000
_cell_volume 1711.625724
_symmetry_space_group_name_H-M "P 2/M"
_symmetry_group_IT_number 10
_symmetry_cell_setting 'monoclinic'
loop_
_space_group_symop_operation_xyz
x,y,z
-x,y,-z
-x,-y,-z
x,-y,z
loop_
_atom_site_type_symbol
_atom_site_label
_atom_site_fract_x
_atom_site_fract_y
_atom_site_fract_z
Si Si1 0.379525 0.500000 0.895473
Si Si2 0.751643 0.873141 0.262329
Si Si3 0.033605 0.872166 0.849051
Si Si4 0.283230 0.126894 0.422910
Si Si5 0.597048 0.732289 0.798170
Si Si6 0.369912 0.732724 0.905289
Si Si7 0.921469 0.127741 0.623035
Si Si8 0.586645 0.500000 0.798782
O O1 0.324695 0.613488 0.882746
O O2 0.475702 0.500000 0.779378
O O3 0.411759 0.500000 0.041090
O O4 0.860823 0.829942 0.219297
O O5 0.712535 0.842587 0.420470
O O6 0.686013 0.820872 0.165321
O O7 0.747607 0.000000 0.240049
O O8 0.953163 0.834245 0.763198
O O9 0.036999 0.000000 0.853510
O O10 0.000000 0.822971 0.000000
O O11 0.370777 0.181993 0.321569
O O12 0.183987 0.172075 0.384956
O O13 0.293109 0.000000 0.400001
O O14 0.481982 0.734611 0.837398
O O15 0.633626 0.613111 0.738294
O O16 0.642408 0.760183 0.932793
O O17 0.000000 0.175687 0.500000
O O18 0.919709 0.000000 0.609053
#
# Coordination Sequence:
#
# PCOD8062833 Si02
#       8
#     2   4   4   4   4   4   4   2
#     4   7  12  28  51  69  85 113 149 194 244 272
#     4  10  20  32  44  66 100 131 154 183 229 279
#     4   9  17  28  44  66  90 117 152 195 233 262
#     4  10  20  31  45  67  97 131 159 182 224 281
#     4   9  18  32  50  71  91 120 157 193 232 273
#     4   9  18  32  50  70  93 119 155 197 231 271
#     4   9  15  28  46  62  86 121 156 189 224 267
#     4   7  12  28  51  69  87 109 149 201 238 269
#
# _framework density 16.358716999999999
#
# number of rings (size 3 to 8) (size 9 to 14) (size 15 to 20)
#    0.000    3.000    1.429    1.714    2.000    1.714 
#    0.000    3.571    0.000    2.571    0.000    2.000 
#    0.000    0.000    0.000    0.000    0.000    0.000 
#
# Total GULP energy -346904.047960 kJ/mol
# GULP energy per Si atom -12389.430284 kJ/mol
# Density = 1.632148 g / cm^3
# Si number density = 16.358717 Si / 1000 Ang^3
#
#
#
# Elastic Constant Matrix: (Units=GPa)
#
#
# Indices 1 2 3 4 5 6 
#
# 1 45.1509 22.3657 16.3391 0.0000 10.4309 0.0000
# 2 22.3657 50.4524 35.3010 0.0000 1.0793 0.0000
# 3 16.3391 35.3010 85.3896 0.0000 -0.1550 0.0000
# 4 0.0000 0.0000 0.0000 10.5829 0.0000 5.1449
# 5 10.4309 1.0793 -0.1550 0.0000 27.3503 0.0000
# 6 0.0000 0.0000 0.0000 5.1449 0.0000 3.7323
#
#
#
# Elastic Compliance Matrix: (Units=1/GPa)
#
#
# Indices 1 2 3 4 5 6 
#
# 1 0.031651 -0.013411 -0.000533 0.000000 -0.011545 0.000000
# 2 -0.013411 0.033607 -0.011321 0.000000 0.003724 0.000000
# 3 -0.000533 -0.011321 0.016494 0.000000 0.000744 0.000000
# 4 0.000000 0.000000 0.000000 0.286451 0.000000 -0.394860
# 5 -0.011545 0.003724 0.000744 0.000000 0.040823 0.000000
# 6 0.000000 0.000000 0.000000 -0.394860 0.000000 0.812225
#
#
# Mechanical properties :
#
#
# Convention : Reuss Voigt Hill
#
# Bulk Modulus (GPa) = 32.02741 36.55604 34.29173
# Shear Modulus (GPa) = 3.89958 15.46560 9.68259
#
# Velocity S-wave (km/s) = 1.54563 3.07808 2.43552
# Velocity P-wave (km/s) = 4.77556 5.91843 5.37744
#
# Compressibility (1/GPa) = 0.03122325
#
# Stress axis : x y z
#
# Youngs Moduli (GPa) = 31.59428 29.75563 60.62657
#
# Poissons Ratio (x) = 0.39906 0.03232
# Poissons Ratio (y) = 0.42372 0.68633
# Poissons Ratio (z) = 0.01684 0.33685
#
# Static dielectric constant tensor:
#      x y z
#    x 2.975340 0.000000 0.029920 
#    y 0.000000 3.014300 0.000000 
#    z 0.029920 0.000000 3.084760 
# 
# 
# High freq. dielectric constant tensor:
#      x y z
#    x 1.614390 0.000000 0.004110 
#    y 0.000000 1.595020 0.000000 
#    z 0.004110 0.000000 1.626700 
# 
# From -- ./inp_files/28245.got.cif
#   From: 2010.06.25/outbox.cif.g09.slc.cpg/sg10_15_cif.got.tgz:28245.got - 2010.06.27 22:07:45.
