data_PCOD8062138
_publ_section_title
;
Structure prediction by ZEFSAII (Michael W. Deem and Ramdas Pophale) SiO2 
 PCOD8062138
Probable space group: P 2/M
;
_chemical_formula_sum "Si O2"
_cell_formula_units_Z 28
_cell_length_a 14.099437
_cell_length_b 10.389377
_cell_length_c 10.073146
_cell_angle_alpha 90.000000
_cell_angle_beta 67.844230
_cell_angle_gamma 90.000000
_cell_volume 1366.606109
_symmetry_space_group_name_H-M "P 2/M"
_symmetry_group_IT_number 10
_symmetry_cell_setting 'monoclinic'
loop_
_space_group_symop_operation_xyz
x,y,z
-x,y,-z
-x,-y,-z
x,-y,z
loop_
_atom_site_type_symbol
_atom_site_label
_atom_site_fract_x
_atom_site_fract_y
_atom_site_fract_z
Si Si1 0.513461 0.144948 0.647616
Si Si2 0.022547 0.643740 0.128943
Si Si3 0.828570 0.741136 0.343271
Si Si4 0.680327 0.653802 0.649003
Si Si5 0.933309 0.000000 0.241365
Si Si6 0.147463 0.000000 0.011159
Si Si7 0.231020 0.352111 0.123008
Si Si8 0.704841 0.786211 0.143864
O O1 0.500000 0.171161 0.500000
O O2 0.582024 0.259845 0.667839
O O3 0.404561 0.149500 0.777649
O O4 0.559367 0.000000 0.645712
O O5 0.057832 0.500000 0.073850
O O6 0.117271 0.709202 0.156291
O O7 0.919421 0.640633 0.268414
O O8 0.000000 0.718445 0.000000
O O9 0.770682 0.688566 0.500837
O O10 0.750159 0.747057 0.262089
O O11 0.884729 0.877205 0.341251
O O12 0.654318 0.500000 0.656312
O O13 0.716077 0.705409 0.773898
O O14 0.058299 0.000000 0.172009
O O15 0.899873 0.000000 0.108558
O O16 0.221728 0.877671 0.982135
O O17 0.217321 0.500000 0.164185
O O18 0.301987 0.334969 0.953638
#
# Coordination Sequence:
#
# PCOD8062138 Si02
#       8
#     4   4   4   4   2   2   4   4
#     4  11  24  44  71  98 127 168 219 275 328 382
#     4  10  19  34  60  93 124 164 216 259 309 383
#     4  11  21  36  63  94 128 169 213 264 320 382
#     4  11  26  45  63  93 135 174 216 270 329 383
#     4   9  20  30  58  91 130 167 203 255 323 385
#     4   9  18  34  55  95 129 157 208 267 316 379
#     4  10  23  41  62  91 134 173 204 264 334 387
#     4  11  20  38  64  94 122 166 215 269 324 382
#
# _framework density 20.488714000000002
#
# number of rings (size 3 to 8) (size 9 to 14) (size 15 to 20)
#    0.000    1.571    3.571    1.286    3.000    2.571 
#    1.286    4.286    0.000    1.714    0.000    0.000 
#    0.000    0.000    0.000    0.000    0.000    0.000 
#
# Total GULP energy -346957.684937 kJ/mol
# GULP energy per Si atom -12391.345891 kJ/mol
# Density = 2.044208 g / cm^3
# Si number density = 20.488714 Si / 1000 Ang^3
#
#
#
# Elastic Constant Matrix: (Units=GPa)
#
#
# Indices 1 2 3 4 5 6 
#
# 1 122.2841 53.9163 57.4204 0.0000 -4.3652 0.0000
# 2 53.9163 85.0593 28.5145 0.0000 0.5126 0.0000
# 3 57.4204 28.5145 97.1326 0.0000 -3.7983 0.0000
# 4 0.0000 0.0000 0.0000 24.7889 0.0000 -8.3896
# 5 -4.3652 0.5126 -3.7983 0.0000 35.2668 0.0000
# 6 0.0000 0.0000 0.0000 -8.3896 0.0000 22.4443
#
#
#
# Elastic Compliance Matrix: (Units=1/GPa)
#
#
# Indices 1 2 3 4 5 6 
#
# 1 0.014247 -0.006910 -0.006348 0.000000 0.001180 0.000000
# 2 -0.006910 0.016404 -0.000777 0.000000 -0.001177 0.000000
# 3 -0.006348 -0.000777 0.014306 0.000000 0.000766 0.000000
# 4 0.000000 0.000000 0.000000 0.046183 0.000000 0.017263
# 5 0.001180 -0.001177 0.000766 0.000000 0.028601 0.000000
# 6 0.000000 0.000000 0.000000 0.017263 0.000000 0.051008
#
#
# Mechanical properties :
#
#
# Convention : Reuss Voigt Hill
#
# Bulk Modulus (GPa) = 59.21346 64.90870 62.06108
# Shear Modulus (GPa) = 24.45630 27.47501 25.96565
#
# Velocity S-wave (km/s) = 3.45867 3.66592 3.56380
# Velocity P-wave (km/s) = 6.70172 7.04752 6.87680
#
# Compressibility (1/GPa) = 0.01688805
#
# Stress axis : x y z
#
# Youngs Moduli (GPa) = 70.18980 60.96075 69.90273
#
# Poissons Ratio (x) = 0.42124 0.44371
# Poissons Ratio (y) = 0.48501 0.05430
# Poissons Ratio (z) = 0.44553 0.04735
#
# Static dielectric constant tensor:
#      x y z
#    x 3.918880 0.000000 -0.009830 
#    y 0.000000 3.876870 0.000000 
#    z -0.009830 0.000000 3.582940 
# 
# 
# High freq. dielectric constant tensor:
#      x y z
#    x 1.796220 0.000000 -0.014150 
#    y 0.000000 1.807140 0.000000 
#    z -0.014150 0.000000 1.785310 
# 
# From -- ./inp_files/28271.got.cif
#   From: 2010.06.25/outbox.cif.g09.slc.cpg/sg10_15_cif.got.tgz:28271.got - 2010.06.27 22:07:45.
