data_PCOD8062651
_publ_section_title
;
Structure prediction by ZEFSAII (Michael W. Deem and Ramdas Pophale) SiO2 
 PCOD8062651
Probable space group: P 2/M
;
_chemical_formula_sum "Si O2"
_cell_formula_units_Z 24
_cell_length_a 10.007353
_cell_length_b 11.543975
_cell_length_c 11.605068
_cell_angle_alpha 90.000000
_cell_angle_beta 80.215745
_cell_angle_gamma 90.000000
_cell_volume 1321.170668
_symmetry_space_group_name_H-M "P 2/M"
_symmetry_group_IT_number 10
_symmetry_cell_setting 'monoclinic'
loop_
_space_group_symop_operation_xyz
x,y,z
-x,y,-z
-x,-y,-z
x,-y,z
loop_
_atom_site_type_symbol
_atom_site_label
_atom_site_fract_x
_atom_site_fract_y
_atom_site_fract_z
Si Si1 0.156875 0.771659 0.611505
Si Si2 0.584247 0.635024 0.380956
Si Si3 0.838765 0.000000 0.791239
Si Si4 0.675873 0.000000 0.050261
Si Si5 0.611896 0.634807 0.796911
Si Si6 0.152940 0.000000 0.746801
Si Si7 0.848146 0.232427 0.658515
Si Si8 0.500000 0.201310 0.000000
O O1 0.261669 0.678763 0.645927
O O2 0.171554 0.785259 0.473481
O O3 0.003420 0.735010 0.666575
O O4 0.196372 0.891719 0.664221
O O5 0.500000 0.691202 0.500000
O O6 0.593862 0.500000 0.400733
O O7 0.510090 0.664230 0.272436
O O8 0.800445 0.886891 0.723732
O O9 0.755086 0.000000 0.919496
O O10 0.995572 0.000000 0.799807
O O11 0.774589 0.000000 0.142357
O O12 0.587080 0.117252 0.070206
O O13 0.611118 0.500000 0.832854
O O14 0.755718 0.662204 0.716183
O O15 0.595942 0.715051 0.911085
#
# Coordination Sequence:
#
# PCOD8062651 Si02
#       8
#     4   4   2   2   4   2   4   2
#     4  10  20  36  56  83 117 146 180 227 271 333
#     4  10  20  35  55  78 109 147 183 223 271 322
#     4  10  19  37  57  79 111 148 182 227 273 330
#     4  11  21  36  59  83 109 142 188 228 273 334
#     4  11  22  38  58  81 111 148 188 229 276 326
#     4  10  21  35  55  86 113 145 179 219 284 335
#     4  10  20  35  58  83 112 148 185 224 274 322
#     4  11  23  38  58  82 111 143 184 236 280 319
#
# _framework density 18.165706
#
# number of rings (size 3 to 8) (size 9 to 14) (size 15 to 20)
#    0.000    1.667    3.333    2.000    0.000    2.667 
#    0.000    2.083    0.000    0.000    0.000    5.833 
#    0.000    0.000    0.000    0.000    0.000    0.000 
#
# Total GULP energy -297638.121407 kJ/mol
# GULP energy per Si atom -12401.588392 kJ/mol
# Density = 1.812436 g / cm^3
# Si number density = 18.165706 Si / 1000 Ang^3
#
#
#
# Elastic Constant Matrix: (Units=GPa)
#
#
# Indices 1 2 3 4 5 6 
#
# 1 92.0046 41.7369 34.7725 0.0000 4.6029 0.0000
# 2 41.7369 78.7265 39.2312 0.0000 4.0755 0.0000
# 3 34.7725 39.2312 69.5892 0.0000 -6.1879 0.0000
# 4 0.0000 0.0000 0.0000 22.8108 0.0000 -6.0978
# 5 4.6029 4.0755 -6.1879 0.0000 30.6747 0.0000
# 6 0.0000 0.0000 0.0000 -6.0978 0.0000 33.2504
#
#
#
# Elastic Compliance Matrix: (Units=1/GPa)
#
#
# Indices 1 2 3 4 5 6 
#
# 1 0.015336 -0.005663 -0.004693 0.000000 -0.002496 0.000000
# 2 -0.005663 0.020369 -0.008980 0.000000 -0.003668 0.000000
# 3 -0.004693 -0.008980 0.022347 0.000000 0.006405 0.000000
# 4 0.000000 0.000000 0.000000 0.046099 0.000000 0.008454
# 5 -0.002496 -0.003668 0.006405 0.000000 0.034754 0.000000
# 6 0.000000 0.000000 0.000000 0.008454 0.000000 0.031625
#
#
# Mechanical properties :
#
#
# Convention : Reuss Voigt Hill
#
# Bulk Modulus (GPa) = 51.59523 52.42240 52.00882
# Shear Modulus (GPa) = 23.18449 25.65250 24.41849
#
# Velocity S-wave (km/s) = 3.57638 3.76192 3.67032
# Velocity P-wave (km/s) = 6.74672 6.91303 6.83038
#
# Compressibility (1/GPa) = 0.01938164
#
# Stress axis : x y z
#
# Youngs Moduli (GPa) = 65.20450 49.09418 44.74914
#
# Poissons Ratio (x) = 0.27801 0.21000
# Poissons Ratio (y) = 0.36924 0.40183
# Poissons Ratio (z) = 0.30599 0.44085
#
# Static dielectric constant tensor:
#      x y z
#    x 3.447390 0.000000 -0.021520 
#    y 0.000000 3.512820 0.000000 
#    z -0.021520 0.000000 3.341820 
# 
# 
# High freq. dielectric constant tensor:
#      x y z
#    x 1.709310 0.000000 -0.002650 
#    y 0.000000 1.703750 0.000000 
#    z -0.002650 0.000000 1.704090 
# 
# From -- ./inp_files/42058.got.cif
#   From: 2010.06.25/outbox.cif.g09.slc.cpg/sg10_22_cif.got.tgz:42058.got - 2010.06.27 22:07:45.
