data_PCOD8062765
_publ_section_title
;
Structure prediction by ZEFSAII (Michael W. Deem and Ramdas Pophale) SiO2 
 PCOD8062765
Probable space group: P 2/M
;
_chemical_formula_sum "Si O2"
_cell_formula_units_Z 24
_cell_length_a 8.779870
_cell_length_b 14.937955
_cell_length_c 14.636993
_cell_angle_alpha 90.000000
_cell_angle_beta 39.534844
_cell_angle_gamma 90.000000
_cell_volume 1221.973588
_symmetry_space_group_name_H-M "P 2/M"
_symmetry_group_IT_number 10
_symmetry_cell_setting 'monoclinic'
loop_
_space_group_symop_operation_xyz
x,y,z
-x,y,-z
-x,-y,-z
x,-y,z
loop_
_atom_site_type_symbol
_atom_site_label
_atom_site_fract_x
_atom_site_fract_y
_atom_site_fract_z
Si Si1 0.127070 0.600959 0.345049
Si Si2 0.957663 0.000000 0.127333
Si Si3 0.562566 0.769082 0.834730
Si Si4 0.433903 0.000000 0.426083
Si Si5 0.744433 0.826806 0.573430
Si Si6 0.757245 0.306222 0.407712
Si Si7 0.882689 0.183777 0.851422
O O1 0.226942 0.500000 0.295357
O O2 0.347001 0.668387 0.226963
O O3 0.000000 0.621106 0.500000
O O4 0.937808 0.613660 0.349531
O O5 0.061301 0.913530 0.132630
O O6 0.673958 0.000000 0.258025
O O7 0.000000 0.000000 0.000000
O O8 0.550777 0.823742 0.745094
O O9 0.745748 0.822364 0.817222
O O10 0.294969 0.763643 0.997913
O O11 0.500000 0.000000 0.500000
O O12 0.269709 0.916389 0.478298
O O13 0.700928 0.746507 0.525669
O O14 0.000000 0.815301 0.500000
O O15 0.500000 0.346604 0.500000
O O16 0.873531 0.241036 0.276054
#
# Coordination Sequence:
#
# PCOD8062765 Si02
#       7
#     4   2   4   2   4   4   4
#     4  10  19  38  66  92 118 151 197 247 294 362
#     4  12  24  41  52  81 120 167 206 228 301 360
#     4  10  20  38  60  88 113 148 206 244 299 343
#     4  12  27  36  54  85 121 155 199 256 299 334
#     4  12  20  38  59  82 114 158 209 245 291 352
#     4  11  21  38  59  89 124 157 195 245 303 361
#     4  10  22  37  58  83 120 155 201 253 286 340
#
# _framework density 19.640357999999999
#
# number of rings (size 3 to 8) (size 9 to 14) (size 15 to 20)
#    0.000    1.167    5.000    3.750    0.000    2.333 
#    0.000    6.667    0.000    0.000    0.000    2.333 
#    0.000    0.000    0.000    0.000    0.000    0.000 
#
# Total GULP energy -297510.256237 kJ/mol
# GULP energy per Si atom -12396.260677 kJ/mol
# Density = 1.959566 g / cm^3
# Si number density = 19.640358 Si / 1000 Ang^3
#
#
#
# Elastic Constant Matrix: (Units=GPa)
#
#
# Indices 1 2 3 4 5 6 
#
# 1 50.8675 24.6032 14.2426 0.0000 8.2921 0.0000
# 2 24.6032 102.4140 14.3594 0.0000 8.9528 0.0000
# 3 14.2426 14.3594 98.8360 0.0000 10.1400 0.0000
# 4 0.0000 0.0000 0.0000 22.3476 0.0000 2.5244
# 5 8.2921 8.9528 10.1400 0.0000 37.7035 0.0000
# 6 0.0000 0.0000 0.0000 2.5244 0.0000 20.5515
#
#
#
# Elastic Compliance Matrix: (Units=1/GPa)
#
#
# Indices 1 2 3 4 5 6 
#
# 1 0.023246 -0.004974 -0.002287 0.000000 -0.003316 0.000000
# 2 -0.004974 0.011185 -0.000769 0.000000 -0.001355 0.000000
# 3 -0.002287 -0.000769 0.010786 0.000000 -0.002215 0.000000
# 4 0.000000 0.000000 0.000000 0.045377 0.000000 -0.005574
# 5 -0.003316 -0.001355 -0.002215 0.000000 0.028170 0.000000
# 6 0.000000 0.000000 0.000000 -0.005574 0.000000 0.049343
#
#
# Mechanical properties :
#
#
# Convention : Reuss Voigt Hill
#
# Bulk Modulus (GPa) = 34.29660 39.83641 37.06650
# Shear Modulus (GPa) = 25.78833 29.38134 27.58483
#
# Velocity S-wave (km/s) = 3.62750 3.87197 3.75173
# Velocity P-wave (km/s) = 5.91990 6.34953 6.13848
#
# Compressibility (1/GPa) = 0.02915741
#
# Stress axis : x y z
#
# Youngs Moduli (GPa) = 43.01901 89.40151 92.70963
#
# Poissons Ratio (x) = 0.44466 0.21202
# Poissons Ratio (y) = 0.21397 0.07132
# Poissons Ratio (z) = 0.09838 0.06878
#
# Static dielectric constant tensor:
#      x y z
#    x 3.620010 0.000000 0.372990 
#    y 0.000000 3.468490 0.000000 
#    z 0.372990 0.000000 3.990580 
# 
# 
# High freq. dielectric constant tensor:
#      x y z
#    x 1.763700 0.000000 0.011180 
#    y 0.000000 1.747530 0.000000 
#    z 0.011180 0.000000 1.775930 
# 
# From -- ./inp_files/61716.got.cif
#   From: 2010.06.25/outbox.cif.g09.slc.cpg/sg10_31_cif.got.tgz:61716.got - 2010.06.27 22:07:45.
