data_PCOD8062931
_publ_section_title
;
Structure prediction by ZEFSAII (Michael W. Deem and Ramdas Pophale) SiO2 
 PCOD8062931
Probable space group: P 2/M
;
_chemical_formula_sum "Si O2"
_cell_formula_units_Z 32
_cell_length_a 20.960358
_cell_length_b 9.566048
_cell_length_c 20.960360
_cell_angle_alpha 90.000000
_cell_angle_beta 154.904158
_cell_angle_gamma 90.000000
_cell_volume 1782.513281
_symmetry_space_group_name_H-M "P 2/M"
_symmetry_group_IT_number 10
_symmetry_cell_setting 'monoclinic'
loop_
_space_group_symop_operation_xyz
x,y,z
-x,y,-z
-x,-y,-z
x,-y,z
loop_
_atom_site_type_symbol
_atom_site_label
_atom_site_fract_x
_atom_site_fract_y
_atom_site_fract_z
Si Si1 0.129861 0.338620 0.205451
Si Si2 0.794549 0.338619 0.870140
Si Si3 0.011142 0.833557 0.320433
Si Si4 0.884102 0.833266 0.447899
Si Si5 0.580803 0.837873 0.761119
Si Si6 0.447899 0.833266 0.884102
Si Si7 0.320432 0.833556 0.011142
Si Si8 0.761119 0.837873 0.580803
O O1 0.150210 0.500000 0.242442
O O2 0.200864 0.308839 0.200864
O O3 0.219475 0.244897 0.336288
O O4 0.953863 0.298329 0.046138
O O5 0.757558 0.500000 0.849791
O O6 0.663712 0.244898 0.780526
O O7 0.066160 0.774420 0.438240
O O8 0.122427 0.779492 0.366153
O O9 0.011981 0.000000 0.323060
O O10 0.844623 0.775794 0.155378
O O11 0.718464 0.775984 0.281536
O O12 0.000000 0.776368 0.500000
O O13 0.884159 0.000000 0.448358
O O14 0.633848 0.779492 0.877574
O O15 0.403868 0.812662 0.596133
O O16 0.622512 0.000000 0.791125
O O17 0.561761 0.774420 0.933840
O O18 0.448357 0.000000 0.884158
O O19 0.500000 0.776368 0.000000
O O20 0.323061 0.000000 0.011981
O O21 0.791124 0.000000 0.622510
#
# Coordination Sequence:
#
# PCOD8062931 Si02
#       8
#     4   4   4   4   4   4   4   4
#     4   9  19  36  55  73  94 122 157 196 237 282
#     4   9  19  36  55  73  94 122 157 196 237 282
#     4   9  16  26  40  58  83 117 155 193 234 278
#     4   9  15  22  33  51  78 113 152 191 231 277
#     4  10  20  32  47  70  99 128 158 194 237 285
#     4   9  15  22  33  51  78 113 152 191 231 277
#     4   9  16  26  40  58  83 117 155 193 234 278
#     4  10  20  32  47  70  99 128 158 194 237 285
#
# _framework density 17.952181
#
# number of rings (size 3 to 8) (size 9 to 14) (size 15 to 20)
#    0.000    2.750    0.000    3.000    0.000    9.000 
#    0.000    3.750    0.000    0.000    0.000    0.000 
#    0.000    1.000    0.000    3.750    0.000    8.250 
#
# Total GULP energy -396816.922968 kJ/mol
# GULP energy per Si atom -12400.528843 kJ/mol
# Density = 1.791132 g / cm^3
# Si number density = 17.952181 Si / 1000 Ang^3
#
#
#
# Elastic Constant Matrix: (Units=GPa)
#
#
# Indices 1 2 3 4 5 6 
#
# 1 140.9640 36.4304 78.4656 0.0000 6.9943 0.0000
# 2 36.4304 26.4988 32.5342 0.0000 -1.1248 0.0000
# 3 78.4656 32.5342 150.7240 0.0000 -4.1769 0.0000
# 4 0.0000 0.0000 0.0000 16.7870 0.0000 4.8030
# 5 6.9943 -1.1248 -4.1769 0.0000 40.1389 0.0000
# 6 0.0000 0.0000 0.0000 4.8030 0.0000 0.1481
#
#
#
# Elastic Compliance Matrix: (Units=1/GPa)
#
#
# Indices 1 2 3 4 5 6 
#
# 1 0.012755 -0.012800 -0.003960 0.000000 -0.002993 0.000000
# 2 -0.012800 0.064194 -0.007101 0.000000 0.003290 0.000000
# 3 -0.003960 -0.007101 0.010272 0.000000 0.001560 0.000000
# 4 0.000000 0.000000 0.000000 -0.007194 0.000000 0.233343
# 5 -0.002993 0.003290 0.001560 0.000000 0.025690 0.000000
# 6 0.000000 0.000000 0.000000 0.233343 0.000000 -0.815553
#
#
# Mechanical properties :
#
#
# Convention : Reuss Voigt Hill
#
# Bulk Modulus (GPa) = 25.31817 68.11635 46.71726
# Shear Modulus (GPa) = -7.70480 22.79857 7.54689
#
# Velocity S-wave (km/s) = -2.07392 3.56752 2.05256
# Velocity P-wave (km/s) = 2.89808 7.41587 5.63001
#
# Compressibility (1/GPa) = 0.03949733
#
# Stress axis : x y z
#
# Youngs Moduli (GPa) = 78.40080 15.57776 97.34905
#
# Poissons Ratio (x) = 0.19940 0.38551
# Poissons Ratio (y) = 1.00357 0.69132
# Poissons Ratio (z) = 0.31047 0.11063
#
# Static dielectric constant tensor:
#      x y z
#    x 3.447720 0.000000 0.002240 
#    y 0.000000 2.691030 0.000000 
#    z 0.002240 0.000000 3.455470 
# 
# 
# High freq. dielectric constant tensor:
#      x y z
#    x 1.710600 0.000000 -0.000190 
#    y 0.000000 1.625000 0.000000 
#    z -0.000190 0.000000 1.709940 
# 
# From -- ./inp_files/78923.got.cif
#   From: 2010.06.25/outbox.cif.g09.slc.cpg/sg10_40_cif.got.tgz:78923.got - 2010.06.27 22:07:45.
