data_PCOD8062376
_publ_section_title
;
Structure prediction by ZEFSAII (Michael W. Deem and Ramdas Pophale) SiO2 
 PCOD8062376
Probable space group: P 2/M
;
_chemical_formula_sum "Si O2"
_cell_formula_units_Z 22
_cell_length_a 12.896763
_cell_length_b 12.027286
_cell_length_c 16.553026
_cell_angle_alpha 90.000000
_cell_angle_beta 25.519431
_cell_angle_gamma 90.000000
_cell_volume 1106.162059
_symmetry_space_group_name_H-M "P 2/M"
_symmetry_group_IT_number 10
_symmetry_cell_setting 'monoclinic'
loop_
_space_group_symop_operation_xyz
x,y,z
-x,y,-z
-x,-y,-z
x,-y,z
loop_
_atom_site_type_symbol
_atom_site_label
_atom_site_fract_x
_atom_site_fract_y
_atom_site_fract_z
Si Si1 0.844649 0.257569 0.028152
Si Si2 0.858462 0.500000 0.017665
Si Si3 0.885870 0.273415 0.324598
Si Si4 0.778125 0.623335 0.792270
Si Si5 0.723330 0.500000 0.400200
Si Si6 0.000000 0.759407 0.500000
Si Si7 0.644765 0.131078 0.622667
O O1 0.718891 0.381763 0.113590
O O2 0.627923 0.171627 0.170162
O O3 0.000000 0.237880 0.000000
O O4 0.040691 0.242139 0.818357
O O5 0.000000 0.500000 0.000000
O O6 0.026641 0.500000 0.822250
O O7 0.717406 0.384055 0.453172
O O8 0.736265 0.174542 0.471291
O O9 0.128763 0.296327 0.202886
O O10 0.897847 0.500000 0.712582
O O11 0.828534 0.679202 0.671275
O O12 0.500000 0.610506 0.000000
O O13 0.500000 0.500000 0.500000
O O14 0.826244 0.833721 0.566398
O O15 0.638034 0.000000 0.623743
#
# Coordination Sequence:
#
# PCOD8062376 Si02
#       7
#     4   2   4   4   2   2   4
#     4  10  22  40  62  91 126 158 198 245 297 359
#     4   8  18  34  54  88 116 151 190 230 290 353
#     4  10  22  38  59  92 121 157 197 243 299 358
#     4  10  19  35  59  87 124 153 185 240 306 369
#     4  10  20  32  59  84 120 153 188 237 291 359
#     4  10  22  42  60  86 114 153 207 254 300 352
#     4  11  25  42  63  85 116 163 210 254 297 348
#
# _framework density 19.888587000000001
#
# number of rings (size 3 to 8) (size 9 to 14) (size 15 to 20)
#    0.000    2.000    0.909    1.636    7.636    1.091 
#    3.273    0.909    0.000    6.000    0.000    0.000 
#    0.000    0.000    0.000    0.000    0.000    0.000 
#
# Total GULP energy -272637.371380 kJ/mol
# GULP energy per Si atom -12392.607790 kJ/mol
# Density = 1.984332 g / cm^3
# Si number density = 19.888587 Si / 1000 Ang^3
#
#
#
# Elastic Constant Matrix: (Units=GPa)
#
#
# Indices 1 2 3 4 5 6 
#
# 1 95.2420 41.6106 45.0505 0.0000 10.3907 0.0000
# 2 41.6106 147.4418 64.8575 0.0000 5.4258 0.0000
# 3 45.0505 64.8575 90.6676 0.0000 8.2348 0.0000
# 4 0.0000 0.0000 0.0000 29.8276 0.0000 -0.4186
# 5 10.3907 5.4258 8.2348 0.0000 37.5881 0.0000
# 6 0.0000 0.0000 0.0000 -0.4186 0.0000 27.3895
#
#
#
# Elastic Compliance Matrix: (Units=1/GPa)
#
#
# Indices 1 2 3 4 5 6 
#
# 1 0.014106 -0.001321 -0.005843 0.000000 -0.002428 0.000000
# 2 -0.001321 0.010021 -0.006544 0.000000 0.000352 0.000000
# 3 -0.005843 -0.006544 0.018754 0.000000 -0.001549 0.000000
# 4 0.000000 0.000000 0.000000 0.033533 0.000000 0.000512
# 5 -0.002428 0.000352 -0.001549 0.000000 0.027564 0.000000
# 6 0.000000 0.000000 0.000000 0.000512 0.000000 0.036518
#
#
# Mechanical properties :
#
#
# Convention : Reuss Voigt Hill
#
# Bulk Modulus (GPa) = 64.66389 70.70984 67.68686
# Shear Modulus (GPa) = 28.89066 31.08324 29.98695
#
# Velocity S-wave (km/s) = 3.81547 3.95760 3.88718
# Velocity P-wave (km/s) = 7.21069 7.51756 7.36572
#
# Compressibility (1/GPa) = 0.01546458
#
# Stress axis : x y z
#
# Youngs Moduli (GPa) = 70.89406 99.79346 53.32159
#
# Poissons Ratio (x) = 0.13185 0.31156
# Poissons Ratio (y) = 0.09366 0.34892
# Poissons Ratio (z) = 0.41424 0.65302
#
# Static dielectric constant tensor:
#      x y z
#    x 3.604560 0.000000 0.092960 
#    y 0.000000 3.748470 0.000000 
#    z 0.092960 0.000000 3.407750 
# 
# 
# High freq. dielectric constant tensor:
#      x y z
#    x 1.784490 0.000000 0.008360 
#    y 0.000000 1.766650 0.000000 
#    z 0.008360 0.000000 1.770190 
# 
# From -- ./inp_files/64628.got.cif
#   From: 2010.06.25/outbox.cif.g09.slc.cpg/sg10_33_cif.got.tgz:64628.got - 2010.06.27 22:07:45.
