data_PCOD8062189
_publ_section_title
;
Structure prediction by ZEFSAII (Michael W. Deem and Ramdas Pophale) SiO2 
 PCOD8062189
Probable space group: P 2/M
;
_chemical_formula_sum "Si O2"
_cell_formula_units_Z 28
_cell_length_a 9.888260
_cell_length_b 14.179944
_cell_length_c 19.007211
_cell_angle_alpha 90.000000
_cell_angle_beta 144.063322
_cell_angle_gamma 90.000000
_cell_volume 1564.120039
_symmetry_space_group_name_H-M "P 2/M"
_symmetry_group_IT_number 10
_symmetry_cell_setting 'monoclinic'
loop_
_space_group_symop_operation_xyz
x,y,z
-x,y,-z
-x,-y,-z
x,-y,z
loop_
_atom_site_type_symbol
_atom_site_label
_atom_site_fract_x
_atom_site_fract_y
_atom_site_fract_z
Si Si1 0.081934 0.110622 0.374476
Si Si2 0.604675 0.604961 0.468128
Si Si3 0.916784 0.892328 0.784502
Si Si4 0.787376 0.108135 0.960940
Si Si5 0.459375 0.792905 0.622740
Si Si6 0.907297 0.605247 0.382515
Si Si7 0.332828 0.205582 0.724156
O O1 0.860668 0.138387 0.325830
O O2 0.031263 0.140972 0.272785
O O3 0.310134 0.165259 0.495721
O O4 0.128166 0.000000 0.401787
O O5 0.500000 0.626891 0.500000
O O6 0.532279 0.500000 0.412453
O O7 0.504237 0.680701 0.371285
O O8 0.882894 0.613803 0.584850
O O9 0.710707 0.835730 0.732753
O O10 0.836552 0.000000 0.750813
O O11 0.141469 0.878185 0.927563
O O12 0.579522 0.179948 0.860393
O O13 0.708972 0.000000 0.913832
O O14 0.000000 0.134084 0.000000
O O15 0.327252 0.814744 0.638891
O O16 0.797782 0.500000 0.332399
O O17 0.718841 0.683855 0.282390
O O18 0.000000 0.625410 0.500000
#
# Coordination Sequence:
#
# PCOD8062189 Si02
#       7
#     4   4   4   4   4   4   4
#     4  11  23  35  52  84 116 143 180 233 290 337
#     4  10  20  34  55  83 115 150 185 222 272 337
#     4  10  22  39  57  77 109 154 193 229 275 331
#     4  10  21  39  59  78 105 150 202 237 268 324
#     4  12  21  34  56  83 118 147 179 225 285 348
#     4  10  19  35  55  81 117 148 179 223 281 341
#     4  12  22  35  56  84 112 147 187 232 278 334
#
# _framework density 17.901440000000001
#
# number of rings (size 3 to 8) (size 9 to 14) (size 15 to 20)
#    0.000    1.286    4.286    2.571    0.000    4.000 
#    0.000    2.143    0.000    1.286    0.000    1.000 
#    0.000    0.000    0.000    0.000    0.000    0.000 
#
# Total GULP energy -347222.480011 kJ/mol
# GULP energy per Si atom -12400.802858 kJ/mol
# Density = 1.786070 g / cm^3
# Si number density = 17.901440 Si / 1000 Ang^3
#
#
#
# Elastic Constant Matrix: (Units=GPa)
#
#
# Indices 1 2 3 4 5 6 
#
# 1 108.5231 40.3093 30.1185 0.0000 -5.1350 0.0000
# 2 40.3093 101.7840 51.4067 0.0000 6.9064 0.0000
# 3 30.1185 51.4067 84.1034 0.0000 0.9350 0.0000
# 4 0.0000 0.0000 0.0000 18.0479 0.0000 5.6880
# 5 -5.1350 6.9064 0.9350 0.0000 29.9142 0.0000
# 6 0.0000 0.0000 0.0000 5.6880 0.0000 28.8123
#
#
#
# Elastic Compliance Matrix: (Units=1/GPa)
#
#
# Indices 1 2 3 4 5 6 
#
# 1 0.011232 -0.003752 -0.001760 0.000000 0.002849 0.000000
# 2 -0.003752 0.015742 -0.008234 0.000000 -0.004021 0.000000
# 3 -0.001760 -0.008234 0.017541 0.000000 0.001050 0.000000
# 4 0.000000 0.000000 0.000000 0.059084 0.000000 -0.011664
# 5 0.002849 -0.004021 0.001050 0.000000 0.034814 0.000000
# 6 0.000000 0.000000 0.000000 -0.011664 0.000000 0.037010
#
#
# Mechanical properties :
#
#
# Convention : Reuss Voigt Hill
#
# Bulk Modulus (GPa) = 58.74501 59.78660 59.26581
# Shear Modulus (GPa) = 23.97046 26.85994 25.41520
#
# Velocity S-wave (km/s) = 3.66324 3.87775 3.77202
# Velocity P-wave (km/s) = 7.12597 7.31569 7.22146
#
# Compressibility (1/GPa) = 0.01702272
#
# Stress axis : x y z
#
# Youngs Moduli (GPa) = 89.03322 63.52421 57.00770
#
# Poissons Ratio (x) = 0.23836 0.10035
# Poissons Ratio (y) = 0.33408 0.46938
# Poissons Ratio (z) = 0.15673 0.52303
#
# Static dielectric constant tensor:
#      x y z
#    x 3.525390 0.000000 -0.088620 
#    y 0.000000 3.493540 0.000000 
#    z -0.088620 0.000000 3.131080 
# 
# 
# High freq. dielectric constant tensor:
#      x y z
#    x 1.712500 0.000000 -0.001760 
#    y 0.000000 1.697770 0.000000 
#    z -0.001760 0.000000 1.656920 
# 
# From -- ./inp_files/24923.got.cif
#   From: 2010.06.25/outbox.cif.g09.slc.cpg/sg10_13_cif.got.tgz:24923.got - 2010.06.27 22:07:45.
