data_PCOD8062174
_publ_section_title
;
Structure prediction by ZEFSAII (Michael W. Deem and Ramdas Pophale) SiO2 
 PCOD8062174
Probable space group: P 2/M
;
_chemical_formula_sum "Si O2"
_cell_formula_units_Z 28
_cell_length_a 27.109465
_cell_length_b 8.893837
_cell_length_c 20.950577
_cell_angle_alpha 90.000000
_cell_angle_beta 162.457766
_cell_angle_gamma 90.000000
_cell_volume 1522.516189
_symmetry_space_group_name_H-M "P 2/M"
_symmetry_group_IT_number 10
_symmetry_cell_setting 'monoclinic'
loop_
_space_group_symop_operation_xyz
x,y,z
-x,y,-z
-x,-y,-z
x,-y,z
loop_
_atom_site_type_symbol
_atom_site_label
_atom_site_fract_x
_atom_site_fract_y
_atom_site_fract_z
Si Si1 0.513459 0.674345 0.608411
Si Si2 0.507144 0.824173 0.151937
Si Si3 0.959035 0.325475 0.877294
Si Si4 0.261378 0.176376 0.208676
Si Si5 0.165865 0.822507 0.669495
Si Si6 0.404467 0.671597 0.611360
Si Si7 0.675432 0.670742 0.249035
O O1 0.530396 0.500000 0.610216
O O2 0.661044 0.772001 0.762433
O O3 0.344168 0.735189 0.369810
O O4 0.519483 0.693734 0.691843
O O5 0.530512 0.780779 0.254020
O O6 0.652134 0.748366 0.289183
O O7 0.526633 0.000000 0.166448
O O8 0.323732 0.773349 0.905831
O O9 0.995884 0.500000 0.910333
O O10 0.776102 0.282381 0.633173
O O11 0.000000 0.280963 0.000000
O O12 0.072136 0.222469 0.971942
O O13 0.285977 0.000000 0.248479
O O14 0.185994 0.750059 0.623759
O O15 0.000000 0.764248 0.500000
O O16 0.156608 0.000000 0.648570
O O17 0.410183 0.500000 0.643002
O O18 0.731254 0.500000 0.328423
O O19 0.500000 0.683759 0.000000
#
# Coordination Sequence:
#
# PCOD8062174 Si02
#       7
#     4   4   4   4   4   4   4
#     4  10  19  35  55  73  98 140 181 216 264 323
#     4  10  20  34  54  79 109 142 174 214 268 322
#     4  10  19  36  56  75  99 135 180 220 263 320
#     4  11  21  32  50  79 106 130 169 225 276 318
#     4   9  18  34  56  82 110 142 178 214 258 313
#     4  10  21  36  56  78 103 137 180 224 266 316
#     4   9  17  31  53  79 107 139 177 216 252 301
#
# _framework density 18.390609000000001
#
# number of rings (size 3 to 8) (size 9 to 14) (size 15 to 20)
#    0.000    2.143    1.429    3.429    0.000    4.571 
#    0.000    1.429    0.000    3.429    0.000    0.000 
#    0.000    0.000    0.000    0.000    0.000    0.000 
#
# Total GULP energy -347180.750786 kJ/mol
# GULP energy per Si atom -12399.312528 kJ/mol
# Density = 1.834875 g / cm^3
# Si number density = 18.390609 Si / 1000 Ang^3
#
#
#
# Elastic Constant Matrix: (Units=GPa)
#
#
# Indices 1 2 3 4 5 6 
#
# 1 115.4462 32.5187 44.2662 0.0000 7.4359 0.0000
# 2 32.5187 62.2821 26.5374 0.0000 3.3920 0.0000
# 3 44.2662 26.5374 64.3292 0.0000 9.5649 0.0000
# 4 0.0000 0.0000 0.0000 19.0354 0.0000 -2.4543
# 5 7.4359 3.3920 9.5649 0.0000 30.6152 0.0000
# 6 0.0000 0.0000 0.0000 -2.4543 0.0000 31.6487
#
#
#
# Elastic Compliance Matrix: (Units=1/GPa)
#
#
# Indices 1 2 3 4 5 6 
#
# 1 0.012347 -0.003434 -0.007016 0.000000 -0.000426 0.000000
# 2 -0.003434 0.020439 -0.006141 0.000000 0.000488 0.000000
# 3 -0.007016 -0.006141 0.023651 0.000000 -0.005004 0.000000
# 4 0.000000 0.000000 0.000000 0.053064 0.000000 0.004115
# 5 -0.000426 0.000488 -0.005004 0.000000 0.034276 0.000000
# 6 0.000000 0.000000 0.000000 0.004115 0.000000 0.031916
#
#
# Mechanical properties :
#
#
# Convention : Reuss Voigt Hill
#
# Bulk Modulus (GPa) = 43.00378 49.85579 46.42979
# Shear Modulus (GPa) = 23.08108 25.50887 24.29498
#
# Velocity S-wave (km/s) = 3.54651 3.72837 3.63857
# Velocity P-wave (km/s) = 6.34071 6.76036 6.55390
#
# Compressibility (1/GPa) = 0.02325377
#
# Stress axis : x y z
#
# Youngs Moduli (GPa) = 80.99098 48.92613 42.28219
#
# Poissons Ratio (x) = 0.16801 0.29666
# Poissons Ratio (y) = 0.27811 0.25967
# Poissons Ratio (z) = 0.56826 0.30047
#
# Static dielectric constant tensor:
#      x y z
#    x 3.479220 0.000000 0.194960 
#    y 0.000000 3.326560 0.000000 
#    z 0.194960 0.000000 3.188090 
# 
# 
# High freq. dielectric constant tensor:
#      x y z
#    x 1.719840 0.000000 0.017060 
#    y 0.000000 1.715500 0.000000 
#    z 0.017060 0.000000 1.682260 
# 
# From -- ./inp_files/86687.got.cif
#   From: 2010.06.25/outbox.cif.g09.slc.cpg/sg10_44_cif.got.tgz:86687.got - 2010.06.27 22:07:45.
