data_PCOD8062154
_publ_section_title
;
Structure prediction by ZEFSAII (Michael W. Deem and Ramdas Pophale) SiO2 
 PCOD8062154
Probable space group: P 2/M
;
_chemical_formula_sum "Si O2"
_cell_formula_units_Z 28
_cell_length_a 20.185268
_cell_length_b 8.816072
_cell_length_c 18.357437
_cell_angle_alpha 90.000000
_cell_angle_beta 151.434147
_cell_angle_gamma 90.000000
_cell_volume 1562.077839
_symmetry_space_group_name_H-M "P 2/M"
_symmetry_group_IT_number 10
_symmetry_cell_setting 'monoclinic'
loop_
_space_group_symop_operation_xyz
x,y,z
-x,y,-z
-x,-y,-z
x,-y,z
loop_
_atom_site_type_symbol
_atom_site_label
_atom_site_fract_x
_atom_site_fract_y
_atom_site_fract_z
Si Si1 0.098627 0.334028 0.526183
Si Si2 0.342899 0.681638 0.854695
Si Si3 0.041136 0.822329 0.121044
Si Si4 0.315902 0.677912 0.368870
Si Si5 0.848046 0.319960 0.199871
Si Si6 0.418692 0.823806 0.324988
Si Si7 0.193672 0.825776 0.993114
O O1 0.139579 0.500000 0.535840
O O2 0.243829 0.254986 0.692431
O O3 0.000000 0.351829 0.500000
O O4 0.000836 0.251170 0.370827
O O5 0.344197 0.500000 0.852411
O O6 0.274886 0.737296 0.865182
O O7 0.500000 0.746122 0.000000
O O8 0.175611 0.726270 0.273719
O O9 0.923095 0.772979 0.063116
O O10 0.073691 0.000000 0.156947
O O11 0.000000 0.774436 0.000000
O O12 0.322655 0.500000 0.360676
O O13 0.323805 0.766594 0.299932
O O14 0.441052 0.726965 0.542482
O O15 0.858455 0.500000 0.215960
O O16 0.810749 0.274474 0.082686
O O17 0.451549 0.000000 0.370055
O O18 0.341372 0.799567 0.174013
O O19 0.172423 0.000000 0.950649
#
# Coordination Sequence:
#
# PCOD8062154 Si02
#       7
#     4   4   4   4   4   4   4
#     4   7  11  22  41  65  93 125 158 188 228 287
#     4   8  13  24  46  74  98 125 164 202 234 284
#     4  10  19  36  55  71  93 131 179 213 244 306
#     4  11  21  32  50  79 103 121 157 218 274 303
#     4   9  17  29  47  71 100 130 158 200 254 298
#     4  10  19  35  54  70  94 137 176 202 243 310
#     4  10  21  35  53  73  97 133 175 213 251 301
#
# _framework density 17.924842000000002
#
# number of rings (size 3 to 8) (size 9 to 14) (size 15 to 20)
#    0.000    2.714    1.429    4.286    0.000    2.000 
#    0.000    1.429    0.000    6.000    0.000    0.000 
#    0.000    0.000    0.000    0.000    0.000    0.000 
#
# Total GULP energy -346924.569817 kJ/mol
# GULP energy per Si atom -12390.163208 kJ/mol
# Density = 1.788404 g / cm^3
# Si number density = 17.924842 Si / 1000 Ang^3
#
#
#
# Elastic Constant Matrix: (Units=GPa)
#
#
# Indices 1 2 3 4 5 6 
#
# 1 80.8148 17.9437 59.7654 0.0000 0.0254 0.0000
# 2 17.9437 30.4267 18.0904 0.0000 -0.6524 0.0000
# 3 59.7654 18.0904 134.6399 0.0000 4.7013 0.0000
# 4 0.0000 0.0000 0.0000 15.7377 0.0000 -0.6529
# 5 0.0254 -0.6524 4.7013 0.0000 31.4011 0.0000
# 6 0.0000 0.0000 0.0000 -0.6529 0.0000 8.5474
#
#
#
# Elastic Compliance Matrix: (Units=1/GPa)
#
#
# Indices 1 2 3 4 5 6 
#
# 1 0.019727 -0.006939 -0.007860 0.000000 0.001017 0.000000
# 2 -0.006939 0.038227 -0.002095 0.000000 0.001114 0.000000
# 3 -0.007860 -0.002095 0.011258 0.000000 -0.001723 0.000000
# 4 0.000000 0.000000 0.000000 0.063744 0.000000 0.004869
# 5 0.001017 0.001114 -0.001723 0.000000 0.032126 0.000000
# 6 0.000000 0.000000 0.000000 0.004869 0.000000 0.117366
#
#
# Mechanical properties :
#
#
# Convention : Reuss Voigt Hill
#
# Bulk Modulus (GPa) = 28.22886 48.60894 38.41890
# Shear Modulus (GPa) = 15.24187 21.14272 18.19229
#
# Velocity S-wave (km/s) = 2.91919 3.43814 3.18924
# Velocity P-wave (km/s) = 5.21007 6.55272 5.91959
#
# Compressibility (1/GPa) = 0.03542474
#
# Stress axis : x y z
#
# Youngs Moduli (GPa) = 50.69229 26.15925 88.82774
#
# Poissons Ratio (x) = 0.18151 0.69816
# Poissons Ratio (y) = 0.35174 0.18611
# Poissons Ratio (z) = 0.39843 0.05481
#
# Static dielectric constant tensor:
#      x y z
#    x 3.064370 0.000000 0.137140 
#    y 0.000000 2.935230 0.000000 
#    z 0.137140 0.000000 3.734200 
# 
# 
# High freq. dielectric constant tensor:
#      x y z
#    x 1.660130 0.000000 0.008330 
#    y 0.000000 1.658310 0.000000 
#    z 0.008330 0.000000 1.714090 
# 
# From -- ./inp_files/79302.got.cif
#   From: 2010.06.25/outbox.cif.g09.slc.cpg/sg10_40_cif.got.tgz:79302.got - 2010.06.27 22:07:45.
