data_PCOD8062750
_publ_section_title
;
Structure prediction by ZEFSAII (Michael W. Deem and Ramdas Pophale) SiO2 
 PCOD8062750
Probable space group: P 2/M
;
_chemical_formula_sum "Si O2"
_cell_formula_units_Z 28
_cell_length_a 15.919888
_cell_length_b 8.724439
_cell_length_c 20.189999
_cell_angle_alpha 90.000000
_cell_angle_beta 150.177575
_cell_angle_gamma 90.000000
_cell_volume 1394.582192
_symmetry_space_group_name_H-M "P 2/M"
_symmetry_group_IT_number 10
_symmetry_cell_setting 'monoclinic'
loop_
_space_group_symop_operation_xyz
x,y,z
-x,y,-z
-x,-y,-z
x,-y,z
loop_
_atom_site_type_symbol
_atom_site_label
_atom_site_fract_x
_atom_site_fract_y
_atom_site_fract_z
Si Si1 0.047622 0.678427 0.214402
Si Si2 0.899895 0.319739 0.367700
Si Si3 0.652339 0.822261 0.654539
Si Si4 0.115685 0.180992 0.401468
Si Si5 0.550094 0.822673 0.107055
Si Si6 0.489754 0.181522 0.678562
Si Si7 0.298060 0.178025 0.051080
O O1 0.055167 0.500000 0.237071
O O2 0.189750 0.719692 0.258232
O O3 0.074069 0.777398 0.298005
O O4 0.868460 0.719911 0.059772
O O5 0.917583 0.500000 0.375185
O O6 0.705167 0.273854 0.241699
O O7 0.000000 0.255436 0.500000
O O8 0.973548 0.249109 0.351332
O O9 0.500000 0.796799 0.500000
O O10 0.594637 0.761121 0.686823
O O11 0.707172 0.000000 0.693740
O O12 0.299497 0.248535 0.546814
O O13 0.110572 0.000000 0.404919
O O14 0.389586 0.795673 0.043870
O O15 0.604553 0.000000 0.142757
O O16 0.500000 0.763778 0.000000
O O17 0.580204 0.237359 0.807100
O O18 0.475763 0.000000 0.665770
O O19 0.251176 0.000000 0.029345
#
# Coordination Sequence:
#
# PCOD8062750 Si02
#       7
#     4   4   4   4   4   4   4
#     4  12  25  39  58  89 125 158 194 237 298 362
#     4  11  24  39  57  88 127 161 194 239 302 365
#     4  10  19  38  64  88 116 152 201 249 294 348
#     4  11  21  39  65  90 115 152 205 254 295 345
#     4  10  21  38  61  87 115 155 207 255 296 346
#     4   9  19  36  62  90 114 149 199 255 302 342
#     4  10  21  39  61  87 118 154 201 250 298 350
#
# _framework density 20.077698000000002
#
# number of rings (size 3 to 8) (size 9 to 14) (size 15 to 20)
#    0.000    1.571    1.429    3.857    0.000    5.143 
#    0.000    5.000    0.000    0.000    0.000    0.000 
#    0.000    0.000    0.000    0.000    0.000    0.000 
#
# Total GULP energy -347367.104153 kJ/mol
# GULP energy per Si atom -12405.968005 kJ/mol
# Density = 2.003200 g / cm^3
# Si number density = 20.077698 Si / 1000 Ang^3
#
#
#
# Elastic Constant Matrix: (Units=GPa)
#
#
# Indices 1 2 3 4 5 6 
#
# 1 85.5351 12.9991 16.0577 0.0000 0.5598 0.0000
# 2 12.9991 52.0942 23.2661 0.0000 7.4882 0.0000
# 3 16.0577 23.2661 100.2244 0.0000 2.2587 0.0000
# 4 0.0000 0.0000 0.0000 16.6845 0.0000 -8.6153
# 5 0.5598 7.4882 2.2587 0.0000 39.0778 0.0000
# 6 0.0000 0.0000 0.0000 -8.6153 0.0000 7.3591
#
#
#
# Elastic Compliance Matrix: (Units=1/GPa)
#
#
# Indices 1 2 3 4 5 6 
#
# 1 0.012333 -0.002506 -0.001403 0.000000 0.000385 0.000000
# 2 -0.002506 0.022511 -0.004734 0.000000 -0.004004 0.000000
# 3 -0.001403 -0.004734 0.011295 0.000000 0.000274 0.000000
# 4 0.000000 0.000000 0.000000 0.151545 0.000000 0.177412
# 5 0.000385 -0.004004 0.000274 0.000000 0.026336 0.000000
# 6 0.000000 0.000000 0.000000 0.177412 0.000000 0.343580
#
#
# Mechanical properties :
#
#
# Convention : Reuss Voigt Hill
#
# Bulk Modulus (GPa) = 34.65821 38.05550 36.35685
# Shear Modulus (GPa) = 8.41038 24.99302 16.70170
#
# Velocity S-wave (km/s) = 2.04890 3.53202 2.88732
# Velocity P-wave (km/s) = 4.78507 5.96899 5.40951
#
# Compressibility (1/GPa) = 0.02885320
#
# Stress axis : x y z
#
# Youngs Moduli (GPa) = 81.08451 44.42229 88.53368
#
# Poissons Ratio (x) = 0.11133 0.12420
# Poissons Ratio (y) = 0.20321 0.41912
# Poissons Ratio (z) = 0.11375 0.21029
#
# Static dielectric constant tensor:
#      x y z
#    x 3.808280 0.000000 -0.001190 
#    y 0.000000 3.375290 0.000000 
#    z -0.001190 0.000000 3.757170 
# 
# 
# High freq. dielectric constant tensor:
#      x y z
#    x 1.796710 0.000000 0.001790 
#    y 0.000000 1.759440 0.000000 
#    z 0.001790 0.000000 1.793900 
# 
# From -- ./inp_files/68612.got.cif
#   From: 2010.06.25/outbox.cif.g09.slc.cpg/sg10_35_cif.got.tgz:68612.got - 2010.06.27 22:07:45.
