data_PCOD8062242
_publ_section_title
;
Structure prediction by ZEFSAII (Michael W. Deem and Ramdas Pophale) SiO2 
 PCOD8062242
Probable space group: P 2/M
;
_chemical_formula_sum "Si O2"
_cell_formula_units_Z 28
_cell_length_a 16.565024
_cell_length_b 8.832876
_cell_length_c 12.457893
_cell_angle_alpha 90.000000
_cell_angle_beta 120.053550
_cell_angle_gamma 90.000000
_cell_volume 1577.737800
_symmetry_space_group_name_H-M "P 2/M"
_symmetry_group_IT_number 10
_symmetry_cell_setting 'monoclinic'
loop_
_space_group_symop_operation_xyz
x,y,z
-x,y,-z
-x,-y,-z
x,-y,z
loop_
_atom_site_type_symbol
_atom_site_label
_atom_site_fract_x
_atom_site_fract_y
_atom_site_fract_z
Si Si1 0.288227 0.324646 0.401266
Si Si2 0.601124 0.321644 0.736095
Si Si3 0.727409 0.674651 0.016661
Si Si4 0.905666 0.322958 0.825860
Si Si5 0.592584 0.822449 0.345962
Si Si6 0.095554 0.820885 0.945559
Si Si7 0.593080 0.325409 0.120136
O O1 0.309282 0.500000 0.437950
O O2 0.342462 0.270457 0.331087
O O3 0.178236 0.295541 0.312753
O O4 0.319957 0.227508 0.523853
O O5 0.586421 0.500000 0.730525
O O6 0.656433 0.266062 0.878268
O O7 0.500437 0.246607 0.665329
O O8 0.752765 0.500000 0.011018
O O9 0.821316 0.773361 0.078541
O O10 0.681330 0.696455 0.101794
O O11 0.919566 0.500000 0.858779
O O12 0.999395 0.251991 0.837978
O O13 0.881171 0.241701 0.921118
O O14 0.611833 0.769958 0.238283
O O15 0.582888 0.000000 0.340999
O O16 0.084662 0.000000 0.941940
O O17 0.578382 0.500000 0.143101
O O18 0.500000 0.265121 0.000000
#
# Coordination Sequence:
#
# PCOD8062242 Si02
#       7
#     4   4   4   4   4   4   4
#     4  10  21  37  58  79 105 146 189 228 264 314
#     4  10  19  36  57  79 107 144 189 225 263 315
#     4  10  19  35  59  82 106 141 186 228 267 313
#     4  10  19  35  57  79 106 143 189 228 261 315
#     4  12  25  36  51  79 116 149 179 221 276 332
#     4  11  21  32  51  83 118 145 170 216 282 335
#     4  10  20  38  61  79 101 141 191 233 264 309
#
# _framework density 17.746928
#
# number of rings (size 3 to 8) (size 9 to 14) (size 15 to 20)
#    0.000    1.571    2.857    4.286    0.000    4.857 
#    0.000    0.000    0.000    0.857    0.000    6.000 
#    0.000    0.000    0.000    0.000    0.000    0.000 
#
# Total GULP energy -347320.946946 kJ/mol
# GULP energy per Si atom -12404.319534 kJ/mol
# Density = 1.770654 g / cm^3
# Si number density = 17.746928 Si / 1000 Ang^3
#
#
#
# Elastic Constant Matrix: (Units=GPa)
#
#
# Indices 1 2 3 4 5 6 
#
# 1 101.1522 46.0796 45.7324 0.0000 16.6019 0.0000
# 2 46.0796 78.9038 40.4074 0.0000 6.9586 0.0000
# 3 45.7324 40.4074 103.2031 0.0000 8.0466 0.0000
# 4 0.0000 0.0000 0.0000 8.1404 0.0000 -6.3992
# 5 16.6019 6.9586 8.0466 0.0000 23.7152 0.0000
# 6 0.0000 0.0000 0.0000 -6.3992 0.0000 11.9514
#
#
#
# Elastic Compliance Matrix: (Units=1/GPa)
#
#
# Indices 1 2 3 4 5 6 
#
# 1 0.015953 -0.006647 -0.003850 0.000000 -0.007911 0.000000
# 2 -0.006647 0.018781 -0.004459 0.000000 0.000656 0.000000
# 3 -0.003850 -0.004459 0.013178 0.000000 -0.000468 0.000000
# 4 0.000000 0.000000 0.000000 0.212128 0.000000 0.113580
# 5 -0.007911 0.000656 -0.000468 0.000000 0.047672 0.000000
# 6 0.000000 0.000000 0.000000 0.113580 0.000000 0.144486
#
#
# Mechanical properties :
#
#
# Convention : Reuss Voigt Hill
#
# Bulk Modulus (GPa) = 55.55519 60.85534 58.20527
# Shear Modulus (GPa) = 10.24356 18.83071 14.53714
#
# Velocity S-wave (km/s) = 2.40511 3.26094 2.86516
# Velocity P-wave (km/s) = 6.25178 6.96731 6.61922
#
# Compressibility (1/GPa) = 0.01800012
#
# Stress axis : x y z
#
# Youngs Moduli (GPa) = 62.68251 53.24407 75.88440
#
# Poissons Ratio (x) = 0.35394 0.29215
# Poissons Ratio (y) = 0.41668 0.33837
# Poissons Ratio (z) = 0.24132 0.23741
#
# Static dielectric constant tensor:
#      x y z
#    x 3.345370 0.000000 0.110830 
#    y 0.000000 3.219250 0.000000 
#    z 0.110830 0.000000 3.182240 
# 
# 
# High freq. dielectric constant tensor:
#      x y z
#    x 1.688490 0.000000 0.009960 
#    y 0.000000 1.682730 0.000000 
#    z 0.009960 0.000000 1.669820 
# 
# From -- ./inp_files/49407.got.cif
#   From: 2010.06.25/outbox.cif.g09.slc.cpg/sg10_25_cif.got.tgz:49407.got - 2010.06.27 22:07:45.
