data_PCOD8062778
_publ_section_title
;
Structure prediction by ZEFSAII (Michael W. Deem and Ramdas Pophale) SiO2 
 PCOD8062778
Probable space group: P 2/M
;
_chemical_formula_sum "Si O2"
_cell_formula_units_Z 16
_cell_length_a 5.396154
_cell_length_b 21.616225
_cell_length_c 5.269767
_cell_angle_alpha 90.000000
_cell_angle_beta 90.058291
_cell_angle_gamma 90.000000
_cell_volume 614.688908
_symmetry_space_group_name_H-M "P 2/M"
_symmetry_group_IT_number 10
_symmetry_cell_setting 'monoclinic'
loop_
_space_group_symop_operation_xyz
x,y,z
-x,y,-z
-x,-y,-z
x,-y,z
loop_
_atom_site_type_symbol
_atom_site_label
_atom_site_fract_x
_atom_site_fract_y
_atom_site_fract_z
Si Si1 0.500000 0.842236 0.000000
Si Si2 0.862105 0.236828 0.251885
Si Si3 0.755470 0.070193 0.654909
Si Si4 0.335291 0.632625 0.749475
Si Si5 0.337173 0.500000 0.750055
O O1 0.404343 0.797165 0.771205
O O2 0.724045 0.885442 0.898287
O O3 0.856456 0.311402 0.260818
O O4 0.000000 0.211540 0.500000
O O5 0.000000 0.215619 0.000000
O O6 0.500000 0.076173 0.500000
O O7 0.000000 0.091195 0.500000
O O8 0.793054 0.000000 0.751121
O O9 0.500000 0.637438 0.500000
O O10 0.187866 0.565657 0.752031
O O11 0.500000 0.639962 0.000000
O O12 0.500000 0.500000 0.500000
O O13 0.500000 0.500000 0.000000
#
# Coordination Sequence:
#
# PCOD8062778 Si02
#       5
#     2   4   4   4   2
#     4  12  29  46  76 107 158 202 258 310 394 463
#     4  12  29  46  70 107 149 198 253 315 381 465
#     4  10  25  49  80 116 156 203 260 325 393 467
#     4  10  19  40  65  95 138 187 243 311 381 453
#     4   8  16  30  62  94 124 181 243 300 379 454
#
# _framework density 26.029426999999998
#
# number of rings (size 3 to 8) (size 9 to 14) (size 15 to 20)
#    0.000    1.500    1.250    1.875    7.000    0.000 
#    0.000    5.000    0.000    2.250    0.000    0.000 
#    0.000    0.000    0.000    0.000    0.000    0.000 
#
# Total GULP energy -198270.354417 kJ/mol
# GULP energy per Si atom -12391.897151 kJ/mol
# Density = 2.597018 g / cm^3
# Si number density = 26.029427 Si / 1000 Ang^3
#
#
#
# Elastic Constant Matrix: (Units=GPa)
#
#
# Indices 1 2 3 4 5 6 
#
# 1 110.2381 47.2051 47.2539 0.0000 -2.9320 0.0000
# 2 47.2051 201.7735 45.8537 0.0000 -3.5537 0.0000
# 3 47.2539 45.8537 186.9910 0.0000 3.1229 0.0000
# 4 0.0000 0.0000 0.0000 30.3535 0.0000 -29.6035
# 5 -2.9320 -3.5537 3.1229 0.0000 43.9598 0.0000
# 6 0.0000 0.0000 0.0000 -29.6035 0.0000 58.6590
#
#
#
# Elastic Compliance Matrix: (Units=1/GPa)
#
#
# Indices 1 2 3 4 5 6 
#
# 1 0.010936 -0.002028 -0.002278 0.000000 0.000727 0.000000
# 2 -0.002028 0.005636 -0.000876 0.000000 0.000383 0.000000
# 3 -0.002278 -0.000876 0.006149 0.000000 -0.000660 0.000000
# 4 0.000000 0.000000 0.000000 0.064878 0.000000 0.032742
# 5 0.000727 0.000383 -0.000660 0.000000 0.022874 0.000000
# 6 0.000000 0.000000 0.000000 0.032742 0.000000 0.033572
#
#
# Mechanical properties :
#
#
# Convention : Reuss Voigt Hill
#
# Bulk Modulus (GPa) = 80.92712 86.62533 83.77623
# Shear Modulus (GPa) = 31.53995 50.50712 41.02353
#
# Velocity S-wave (km/s) = 3.48473 4.40976 3.97425
# Velocity P-wave (km/s) = 6.88108 7.69935 7.30169
#
# Compressibility (1/GPa) = 0.01235680
#
# Stress axis : x y z
#
# Youngs Moduli (GPa) = 91.44457 177.42169 162.61590
#
# Poissons Ratio (x) = 0.35978 0.37050
# Poissons Ratio (y) = 0.18543 0.14246
# Poissons Ratio (z) = 0.20835 0.15543
#
# Static dielectric constant tensor:
#      x y z
#    x 4.299380 0.000000 -0.114470 
#    y 0.000000 5.533270 0.000000 
#    z -0.114470 0.000000 4.772510 
# 
# 
# High freq. dielectric constant tensor:
#      x y z
#    x 1.999930 0.000000 -0.004330 
#    y 0.000000 2.084160 0.000000 
#    z -0.004330 0.000000 2.052840 
# 
# From -- ./inp_files/1400.got.cif
#   From: 2010.06.25/outbox.cif.g09.slc.cpg/sg10_1_cif.got.tgz:1400.got - 2010.06.27 22:07:45.
