data_PCOD8062974
_publ_section_title
;
Structure prediction by ZEFSAII (Michael W. Deem and Ramdas Pophale) SiO2 
 PCOD8062974
Probable space group: P 2/M
;
_chemical_formula_sum "Si O2"
_cell_formula_units_Z 28
_cell_length_a 22.128301
_cell_length_b 11.331278
_cell_length_c 19.287452
_cell_angle_alpha 90.000000
_cell_angle_beta 19.516399
_cell_angle_gamma 90.000000
_cell_volume 1615.652433
_symmetry_space_group_name_H-M "P 2/M"
_symmetry_group_IT_number 10
_symmetry_cell_setting 'monoclinic'
loop_
_space_group_symop_operation_xyz
x,y,z
-x,y,-z
-x,-y,-z
x,-y,z
loop_
_atom_site_type_symbol
_atom_site_label
_atom_site_fract_x
_atom_site_fract_y
_atom_site_fract_z
Si Si1 0.820628 0.500000 0.288388
Si Si2 0.854952 0.139762 0.563969
Si Si3 0.399693 0.859124 0.282757
Si Si4 0.760701 0.500000 0.190621
Si Si5 0.320188 0.748031 0.513622
Si Si6 0.388810 0.253059 0.685841
Si Si7 0.755104 0.860014 0.820528
Si Si8 0.021350 0.137851 0.053737
O O1 0.758350 0.500000 0.276244
O O2 0.743913 0.613296 0.411180
O O3 0.037397 0.500000 0.058001
O O4 0.759064 0.181078 0.597546
O O5 0.752759 0.187755 0.743610
O O6 0.062127 0.184533 0.339215
O O7 0.849744 0.000000 0.573634
O O8 0.376679 0.781169 0.375521
O O9 0.397840 0.000000 0.300283
O O10 0.584985 0.814321 0.047606
O O11 0.648539 0.390696 0.283252
O O12 0.494730 0.772120 0.372045
O O13 0.156296 0.833697 0.710910
O O14 0.500000 0.202440 0.500000
O O15 0.198029 0.187617 0.900411
O O16 0.748789 0.000000 0.825468
O O17 0.046753 0.000000 0.019637
O O18 0.000000 0.195942 0.000000
#
# Coordination Sequence:
#
# PCOD8062974 Si02
#       8
#     2   4   4   2   4   4   4   4
#     4  11  21  38  65  79 101 128 177 244 294 329
#     4   8  14  27  50  75 104 141 181 217 249 294
#     4  10  20  32  48  75 116 149 172 205 260 326
#     4  11  20  39  66  85  93 121 181 256 301 314
#     4  12  24  38  55  81 109 142 179 226 284 330
#     4  12  22  37  60  82 100 131 181 235 282 325
#     4   8  14  27  49  77 103 138 183 218 248 296
#     4  11  23  38  54  75 106 142 180 217 260 328
#
# _framework density 17.330461
#
# number of rings (size 3 to 8) (size 9 to 14) (size 15 to 20)
#    0.000    1.714    4.286    2.357    0.000    4.286 
#    0.000    1.429    0.000    0.000    0.000    2.000 
#    0.000    2.286    0.000    0.000    0.000    0.000 
#
# Total GULP energy -347164.174696 kJ/mol
# GULP energy per Si atom -12398.720525 kJ/mol
# Density = 1.729102 g / cm^3
# Si number density = 17.330461 Si / 1000 Ang^3
#
#
#
# Elastic Constant Matrix: (Units=GPa)
#
#
# Indices 1 2 3 4 5 6 
#
# 1 145.9735 31.5627 68.8286 0.0000 -4.4494 0.0000
# 2 31.5627 51.3806 23.4163 0.0000 -0.3957 0.0000
# 3 68.8286 23.4163 86.0050 0.0000 -15.0189 0.0000
# 4 0.0000 0.0000 0.0000 3.8392 0.0000 20.3758
# 5 -4.4494 -0.3957 -15.0189 0.0000 29.1770 0.0000
# 6 0.0000 0.0000 0.0000 20.3758 0.0000 -7.3539
#
#
#
# Elastic Compliance Matrix: (Units=1/GPa)
#
#
# Indices 1 2 3 4 5 6 
#
# 1 0.011680 -0.003090 -0.009012 0.000000 -0.002900 0.000000
# 2 -0.003090 0.023294 -0.004281 0.000000 -0.002359 0.000000
# 3 -0.009012 -0.004281 0.021706 0.000000 0.009741 0.000000
# 4 0.000000 0.000000 0.000000 0.016585 0.000000 0.045953
# 5 -0.002900 -0.002359 0.009741 0.000000 0.038814 0.000000
# 6 0.000000 0.000000 0.000000 0.045953 0.000000 -0.008658
#
#
# Mechanical properties :
#
#
# Convention : Reuss Voigt Hill
#
# Bulk Modulus (GPa) = 41.81842 58.99716 50.40779
# Shear Modulus (GPa) = 34.68436 15.76924 25.22680
#
# Velocity S-wave (km/s) = 4.47850 3.01975 3.81942
# Velocity P-wave (km/s) = 7.13618 6.80257 6.97137
#
# Compressibility (1/GPa) = 0.02391291
#
# Stress axis : x y z
#
# Youngs Moduli (GPa) = 85.61917 42.93019 46.06962
#
# Poissons Ratio (x) = 0.13265 0.41519
# Poissons Ratio (y) = 0.26455 0.19724
# Poissons Ratio (z) = 0.77162 0.18380
#
# Static dielectric constant tensor:
#      x y z
#    x 3.337990 0.000000 -0.209200 
#    y 0.000000 2.905790 0.000000 
#    z -0.209200 0.000000 3.538770 
# 
# 
# High freq. dielectric constant tensor:
#      x y z
#    x 1.665830 0.000000 -0.016020 
#    y 0.000000 1.625970 0.000000 
#    z -0.016020 0.000000 1.686230 
# 
# From -- ./inp_files/79554.got.cif
#   From: 2010.06.25/outbox.cif.g09.slc.cpg/sg10_40_cif.got.tgz:79554.got - 2010.06.27 22:07:45.
