data_PCOD8062024
_publ_section_title
;
Structure prediction by ZEFSAII (Michael W. Deem and Ramdas Pophale) SiO2 
 PCOD8062024
Probable space group: P 2/M
;
_chemical_formula_sum "Si O2"
_cell_formula_units_Z 32
_cell_length_a 25.892975
_cell_length_b 9.084213
_cell_length_c 20.022752
_cell_angle_alpha 90.000000
_cell_angle_beta 21.025225
_cell_angle_gamma 90.000000
_cell_volume 1689.740300
_symmetry_space_group_name_H-M "P 2/M"
_symmetry_group_IT_number 10
_symmetry_cell_setting 'monoclinic'
loop_
_space_group_symop_operation_xyz
x,y,z
-x,y,-z
-x,-y,-z
x,-y,z
loop_
_atom_site_type_symbol
_atom_site_label
_atom_site_fract_x
_atom_site_fract_y
_atom_site_fract_z
Si Si1 0.170745 0.173545 0.397032
Si Si2 0.381548 0.830639 0.261520
Si Si3 0.842472 0.672481 0.215590
Si Si4 0.878758 0.670362 0.936184
Si Si5 0.882390 0.667616 0.780327
Si Si6 0.340240 0.325366 0.689440
Si Si7 0.160496 0.170343 0.643514
Si Si8 0.317922 0.671180 0.098509
O O1 0.280865 0.220433 0.322132
O O2 0.215021 0.249262 0.275064
O O3 0.011593 0.223102 0.608506
O O4 0.169463 0.000000 0.388227
O O5 0.299518 0.805766 0.429815
O O6 0.427612 0.000000 0.196706
O O7 0.521725 0.731404 0.091848
O O8 0.832844 0.500000 0.242477
O O9 0.729923 0.723731 0.295468
O O10 0.803085 0.758716 0.329687
O O11 0.000000 0.716151 0.000000
O O12 0.908445 0.500000 0.917591
O O13 0.754572 0.734580 0.134310
O O14 0.827686 0.692719 0.921862
O O15 0.025596 0.755837 0.770730
O O16 0.936877 0.500000 0.704539
O O17 0.746795 0.701283 0.896697
O O18 0.500000 0.256625 0.500000
O O19 0.347753 0.500000 0.685256
O O20 0.124408 0.000000 0.696697
O O21 0.321694 0.500000 0.111573
#
# Coordination Sequence:
#
# PCOD8062024 Si02
#       8
#     4   4   4   4   4   4   4   4
#     4  11  22  39  62  85 113 155 199 236 284 347
#     4  10  23  41  58  82 115 152 197 241 286 344
#     4  10  19  34  57  86 113 145 189 232 276 332
#     4  10  19  36  60  83 111 149 190 234 285 337
#     4  10  22  38  59  87 118 149 191 244 292 343
#     4   9  18  33  56  85 115 146 185 231 278 333
#     4  11  22  37  58  85 115 149 191 239 285 334
#     4  11  24  39  57  88 122 150 188 241 296 344
#
# _framework density 18.937819999999999
#
# number of rings (size 3 to 8) (size 9 to 14) (size 15 to 20)
#    0.000    1.750    2.500    1.875    0.000    7.250 
#    0.000    2.500    0.000    1.500    0.000    0.000 
#    0.000    0.000    0.000    0.000    0.000    0.000 
#
# Total GULP energy -396927.825353 kJ/mol
# GULP energy per Si atom -12403.994542 kJ/mol
# Density = 1.889472 g / cm^3
# Si number density = 18.937820 Si / 1000 Ang^3
#
#
#
# Elastic Constant Matrix: (Units=GPa)
#
#
# Indices 1 2 3 4 5 6 
#
# 1 113.9042 34.6700 22.7162 0.0000 4.6595 0.0000
# 2 34.6700 63.2138 27.9850 0.0000 1.0285 0.0000
# 3 22.7162 27.9850 64.5954 0.0000 -5.0969 0.0000
# 4 0.0000 0.0000 0.0000 24.3402 0.0000 4.1978
# 5 4.6595 1.0285 -5.0969 0.0000 37.4036 0.0000
# 6 0.0000 0.0000 0.0000 4.1978 0.0000 24.2272
#
#
#
# Elastic Compliance Matrix: (Units=1/GPa)
#
#
# Indices 1 2 3 4 5 6 
#
# 1 0.010729 -0.005124 -0.001665 0.000000 -0.001423 0.000000
# 2 -0.005124 0.022130 -0.007868 0.000000 -0.001042 0.000000
# 3 -0.001665 -0.007868 0.019721 0.000000 0.003111 0.000000
# 4 0.000000 0.000000 0.000000 0.042350 0.000000 -0.007338
# 5 -0.001423 -0.001042 0.003111 0.000000 0.027365 0.000000
# 6 0.000000 0.000000 0.000000 -0.007338 0.000000 0.042547
#
#
# Mechanical properties :
#
#
# Convention : Reuss Voigt Hill
#
# Bulk Modulus (GPa) = 42.98249 45.82843 44.40546
# Shear Modulus (GPa) = 24.76332 27.61700 26.19016
#
# Velocity S-wave (km/s) = 3.62001 3.82291 3.72285
# Velocity P-wave (km/s) = 6.34181 6.61348 6.47907
#
# Compressibility (1/GPa) = 0.02326529
#
# Stress axis : x y z
#
# Youngs Moduli (GPa) = 93.20253 45.18825 50.70816
#
# Poissons Ratio (x) = 0.23155 0.08445
# Poissons Ratio (y) = 0.47758 0.39895
# Poissons Ratio (z) = 0.15523 0.35552
#
# Static dielectric constant tensor:
#      x y z
#    x 3.739560 0.000000 0.108580 
#    y 0.000000 3.364020 0.000000 
#    z 0.108580 0.000000 3.524800 
# 
# 
# High freq. dielectric constant tensor:
#      x y z
#    x 1.752730 0.000000 0.005530 
#    y 0.000000 1.722550 0.000000 
#    z 0.005530 0.000000 1.737300 
# 
# From -- ./inp_files/86792.got.cif
#   From: 2010.06.25/outbox.cif.g09.slc.cpg/sg10_44_cif.got.tgz:86792.got - 2010.06.27 22:07:45.
