data_PCOD8062276
_publ_section_title
;
Structure prediction by ZEFSAII (Michael W. Deem and Ramdas Pophale) SiO2 
 PCOD8062276
Probable space group: P 2/M
;
_chemical_formula_sum "Si O2"
_cell_formula_units_Z 28
_cell_length_a 9.836936
_cell_length_b 9.140829
_cell_length_c 27.404424
_cell_angle_alpha 90.000000
_cell_angle_beta 142.073743
_cell_angle_gamma 90.000000
_cell_volume 1514.578189
_symmetry_space_group_name_H-M "P 2/M"
_symmetry_group_IT_number 10
_symmetry_cell_setting 'monoclinic'
loop_
_space_group_symop_operation_xyz
x,y,z
-x,y,-z
-x,-y,-z
x,-y,z
loop_
_atom_site_type_symbol
_atom_site_label
_atom_site_fract_x
_atom_site_fract_y
_atom_site_fract_z
Si Si1 0.521899 0.172567 0.278486
Si Si2 0.296703 0.326404 0.472989
Si Si3 0.840839 0.670510 0.299242
Si Si4 0.385963 0.160854 0.019828
Si Si5 0.021062 0.172459 0.152703
Si Si6 0.225234 0.669622 0.831578
Si Si7 0.261630 0.334760 0.572197
O O1 0.631456 0.245522 0.262207
O O2 0.266641 0.221241 0.208006
O O3 0.638875 0.224526 0.360835
O O4 0.547409 0.000000 0.281403
O O5 0.500000 0.259149 0.500000
O O6 0.290225 0.500000 0.465704
O O7 0.336309 0.280367 0.540030
O O8 0.064244 0.265267 0.386804
O O9 0.810632 0.500000 0.303000
O O10 0.856991 0.698417 0.246312
O O11 0.135773 0.215940 0.937865
O O12 0.383658 0.000000 0.044083
O O13 0.500000 0.149868 0.000000
O O14 0.522975 0.271109 0.092590
O O15 0.946431 0.251854 0.181134
O O16 0.003068 0.000000 0.157892
O O17 0.228582 0.500000 0.845929
O O18 0.345844 0.500000 0.606542
O O19 0.000000 0.331106 0.500000
#
# Coordination Sequence:
#
# PCOD8062276 Si02
#       7
#     4   4   4   4   4   4   4
#     4  11  23  37  55  79 109 142 182 226 265 310
#     4   9  18  33  55  78 102 136 178 216 253 315
#     4  10  21  38  54  77 111 143 177 217 268 325
#     4   8  15  32  55  75 104 144 180 214 260 320
#     4   9  20  37  55  78 108 144 182 218 261 322
#     4  10  20  32  55  86 111 136 174 226 274 315
#     4  10  19  35  58  78 102 141 181 215 262 319
#
# _framework density 18.486996000000001
#
# number of rings (size 3 to 8) (size 9 to 14) (size 15 to 20)
#    0.000    2.429    1.429    1.714    2.000    5.143 
#    0.000    0.714    0.000    5.143    0.000    0.000 
#    0.000    0.000    0.000    0.000    0.000    0.000 
#
# Total GULP energy -347162.925601 kJ/mol
# GULP energy per Si atom -12398.675914 kJ/mol
# Density = 1.844492 g / cm^3
# Si number density = 18.486996 Si / 1000 Ang^3
#
#
#
# Elastic Constant Matrix: (Units=GPa)
#
#
# Indices 1 2 3 4 5 6 
#
# 1 99.8174 36.9206 28.1186 0.0000 15.9754 0.0000
# 2 36.9206 60.8371 33.4126 0.0000 5.5091 0.0000
# 3 28.1186 33.4126 79.2276 0.0000 19.3778 0.0000
# 4 0.0000 0.0000 0.0000 20.9791 0.0000 -2.5665
# 5 15.9754 5.5091 19.3778 0.0000 25.7459 0.0000
# 6 0.0000 0.0000 0.0000 -2.5665 0.0000 10.0867
#
#
#
# Elastic Compliance Matrix: (Units=1/GPa)
#
#
# Indices 1 2 3 4 5 6 
#
# 1 0.014067 -0.007946 0.000095 0.000000 -0.007100 0.000000
# 2 -0.007946 0.026037 -0.009809 0.000000 0.006742 0.000000
# 3 0.000095 -0.009809 0.019887 0.000000 -0.012928 0.000000
# 4 0.000000 0.000000 0.000000 0.049198 0.000000 0.012518
# 5 -0.007100 0.006742 -0.012928 0.000000 0.051534 0.000000
# 6 0.000000 0.000000 0.000000 0.012518 0.000000 0.102326
#
#
# Mechanical properties :
#
#
# Convention : Reuss Voigt Hill
#
# Bulk Modulus (GPa) = 40.53535 48.53172 44.53353
# Shear Modulus (GPa) = 16.30831 20.79102 18.54967
#
# Velocity S-wave (km/s) = 2.97332 3.35719 3.17107
# Velocity P-wave (km/s) = 5.81047 6.42934 6.12772
#
# Compressibility (1/GPa) = 0.02466983
#
# Stress axis : x y z
#
# Youngs Moduli (GPa) = 71.08855 38.40751 50.28430
#
# Poissons Ratio (x) = 0.30520 -0.00479
# Poissons Ratio (y) = 0.56489 0.49325
# Poissons Ratio (z) = -0.00677 0.37675
#
# Static dielectric constant tensor:
#      x y z
#    x 3.422590 0.000000 0.154460 
#    y 0.000000 3.287660 0.000000 
#    z 0.154460 0.000000 3.863560 
# 
# 
# High freq. dielectric constant tensor:
#      x y z
#    x 1.708340 0.000000 0.005470 
#    y 0.000000 1.697850 0.000000 
#    z 0.005470 0.000000 1.726120 
# 
# From -- ./inp_files/92072.got.cif
#   From: 2010.06.25/outbox.cif.g09.slc.cpg/sg10_47_cif.got.tgz:92072.got - 2010.06.27 22:07:45.
