data_PCOD8062403
_publ_section_title
;
Structure prediction by ZEFSAII (Michael W. Deem and Ramdas Pophale) SiO2 
 PCOD8062403
Probable space group: P 2/M
;
_chemical_formula_sum "Si O2"
_cell_formula_units_Z 32
_cell_length_a 9.336025
_cell_length_b 13.878735
_cell_length_c 26.283773
_cell_angle_alpha 90.000000
_cell_angle_beta 28.373457
_cell_angle_gamma 90.000000
_cell_volume 1618.420032
_symmetry_space_group_name_H-M "P 2/M"
_symmetry_group_IT_number 10
_symmetry_cell_setting 'monoclinic'
loop_
_space_group_symop_operation_xyz
x,y,z
-x,y,-z
-x,-y,-z
x,-y,z
loop_
_atom_site_type_symbol
_atom_site_label
_atom_site_fract_x
_atom_site_fract_y
_atom_site_fract_z
Si Si1 0.224721 0.694173 0.779042
Si Si2 0.853591 0.288405 0.392975
Si Si3 0.288623 0.894766 0.798207
Si Si4 0.742615 0.107212 0.742021
Si Si5 0.927329 0.610651 0.772319
Si Si6 0.621240 0.307808 0.013974
Si Si7 0.869829 0.612667 0.595540
Si Si8 0.349408 0.105215 0.961241
O O1 0.277414 0.809736 0.760106
O O2 0.515617 0.635498 0.705565
O O3 0.108526 0.668105 0.759298
O O4 0.980617 0.673083 0.900810
O O5 0.500000 0.273048 0.500000
O O6 0.998793 0.186228 0.332629
O O7 0.944133 0.367796 0.323250
O O8 0.956755 0.325536 0.416079
O O9 0.598577 0.881424 0.731593
O O10 0.286016 0.000000 0.771466
O O11 0.013802 0.890686 0.924629
O O12 0.472149 0.122854 0.866416
O O13 0.883758 0.000000 0.704456
O O14 0.975904 0.500000 0.769447
O O15 0.568750 0.637666 0.882869
O O16 0.533635 0.193982 0.041355
O O17 0.500000 0.353363 0.000000
O O18 0.919600 0.500000 0.591343
O O19 0.000000 0.641916 0.500000
O O20 0.460646 0.000000 0.947274
#
# Coordination Sequence:
#
# PCOD8062403 Si02
#       8
#     4   4   4   4   4   4   4   4
#     4  10  20  37  62  90 120 160 200 245 291 354
#     4  12  25  42  63  88 118 156 198 254 307 358
#     4   9  17  32  58  91 123 155 194 242 292 352
#     4  10  19  35  60  87 121 157 193 238 297 360
#     4  11  23  40  60  86 123 162 201 244 302 358
#     4   9  19  33  54  86 123 161 198 235 294 357
#     4  11  24  43  66  90 113 149 206 260 302 348
#     4   9  16  29  53  86 120 156 195 236 290 352
#
# _framework density 19.772369999999999
#
# number of rings (size 3 to 8) (size 9 to 14) (size 15 to 20)
#    0.000    1.875    2.500    1.875    0.000    6.750 
#    0.000    3.125    0.000    4.500    0.000    0.000 
#    0.000    0.000    0.000    0.000    0.000    0.000 
#
# Total GULP energy -396540.613581 kJ/mol
# GULP energy per Si atom -12391.894174 kJ/mol
# Density = 1.972737 g / cm^3
# Si number density = 19.772370 Si / 1000 Ang^3
#
#
#
# Elastic Constant Matrix: (Units=GPa)
#
#
# Indices 1 2 3 4 5 6 
#
# 1 79.0657 37.1228 36.8797 0.0000 -1.3860 0.0000
# 2 37.1228 117.4368 47.2178 0.0000 1.8347 0.0000
# 3 36.8797 47.2178 94.1181 0.0000 -8.5161 0.0000
# 4 0.0000 0.0000 0.0000 24.4359 0.0000 2.1306
# 5 -1.3860 1.8347 -8.5161 0.0000 27.8754 0.0000
# 6 0.0000 0.0000 0.0000 2.1306 0.0000 30.0487
#
#
#
# Elastic Compliance Matrix: (Units=1/GPa)
#
#
# Indices 1 2 3 4 5 6 
#
# 1 0.016422 -0.003232 -0.004854 0.000000 -0.000454 0.000000
# 2 -0.003232 0.011462 -0.004696 0.000000 -0.002350 0.000000
# 3 -0.004854 -0.004696 0.015313 0.000000 0.004746 0.000000
# 4 0.000000 0.000000 0.000000 0.041178 0.000000 -0.002920
# 5 -0.000454 -0.002350 0.004746 0.000000 0.037456 0.000000
# 6 0.000000 0.000000 0.000000 -0.002920 0.000000 0.033486
#
#
# Mechanical properties :
#
#
# Convention : Reuss Voigt Hill
#
# Bulk Modulus (GPa) = 56.72002 59.22904 57.97453
# Shear Modulus (GPa) = 26.77248 27.76532 27.26890
#
# Velocity S-wave (km/s) = 3.68371 3.75140 3.71771
# Velocity P-wave (km/s) = 6.84411 6.98459 6.91470
#
# Compressibility (1/GPa) = 0.01763046
#
# Stress axis : x y z
#
# Youngs Moduli (GPa) = 60.89558 87.24526 65.30565
#
# Poissons Ratio (x) = 0.28199 0.31701
# Poissons Ratio (y) = 0.19683 0.30670
# Poissons Ratio (z) = 0.29560 0.40974
#
# Static dielectric constant tensor:
#      x y z
#    x 3.294340 0.000000 -0.064120 
#    y 0.000000 3.772050 0.000000 
#    z -0.064120 0.000000 3.704020 
# 
# 
# High freq. dielectric constant tensor:
#      x y z
#    x 1.744640 0.000000 -0.004780 
#    y 0.000000 1.782130 0.000000 
#    z -0.004780 0.000000 1.765990 
# 
# From -- ./inp_files/88229.got.cif
#   From: 2010.06.25/outbox.cif.g09.slc.cpg/sg10_45_cif.got.tgz:88229.got - 2010.06.27 22:07:45.
