data_PCOD8062374
_publ_section_title
;
Structure prediction by ZEFSAII (Michael W. Deem and Ramdas Pophale) SiO2 
 PCOD8062374
Probable space group: P 2/M
;
_chemical_formula_sum "Si O2"
_cell_formula_units_Z 32
_cell_length_a 26.309333
_cell_length_b 8.938742
_cell_length_c 15.574065
_cell_angle_alpha 90.000000
_cell_angle_beta 27.114947
_cell_angle_gamma 90.000000
_cell_volume 1669.324426
_symmetry_space_group_name_H-M "P 2/M"
_symmetry_group_IT_number 10
_symmetry_cell_setting 'monoclinic'
loop_
_space_group_symop_operation_xyz
x,y,z
-x,y,-z
-x,-y,-z
x,-y,z
loop_
_atom_site_type_symbol
_atom_site_label
_atom_site_fract_x
_atom_site_fract_y
_atom_site_fract_z
Si Si1 0.005458 0.176889 0.130825
Si Si2 0.543550 0.328396 0.026278
Si Si3 0.421992 0.177897 0.363942
Si Si4 0.220756 0.671996 0.257028
Si Si5 0.826692 0.822859 0.265672
Si Si6 0.992924 0.323495 0.688210
Si Si7 0.785033 0.823995 0.912399
Si Si8 0.449423 0.822994 0.664022
O O1 0.891828 0.227396 0.253756
O O2 0.016210 0.261160 0.203213
O O3 0.008180 0.000000 0.143454
O O4 0.108981 0.229798 0.916462
O O5 0.508190 0.500000 0.094448
O O6 0.487556 0.227257 0.181901
O O7 0.500000 0.271019 0.000000
O O8 0.677141 0.309393 0.830077
O O9 0.297103 0.245252 0.548189
O O10 0.481757 0.243181 0.358996
O O11 0.419974 0.000000 0.369363
O O12 0.208633 0.500000 0.245058
O O13 0.109581 0.727992 0.471618
O O14 0.244439 0.775176 0.139565
O O15 0.823272 0.000000 0.269604
O O16 0.983049 0.500000 0.706118
O O17 0.894518 0.260728 0.777909
O O18 0.807379 0.000000 0.880899
O O19 0.680911 0.780677 0.130370
O O20 0.500000 0.754365 0.500000
O O21 0.463840 0.000000 0.641584
#
# Coordination Sequence:
#
# PCOD8062374 Si02
#       8
#     4   4   4   4   4   4   4   4
#     4   9  18  36  57  83 112 146 187 230 272 325
#     4  10  22  39  59  82 113 154 192 228 277 337
#     4  10  19  35  59  87 115 147 185 232 283 333
#     4  10  22  41  59  77 111 151 184 227 283 334
#     4   8  17  33  57  83 114 148 182 225 282 331
#     4  11  24  38  56  82 111 147 186 227 281 336
#     4  11  22  38  61  86 109 141 186 234 278 329
#     4   9  19  34  56  86 116 146 182 225 279 337
#
# _framework density 19.169430999999999
#
# number of rings (size 3 to 8) (size 9 to 14) (size 15 to 20)
#    0.000    2.250    1.250    1.875    3.500    2.750 
#    0.000    1.875    0.000    1.875    0.000    0.000 
#    0.000    0.000    0.000    0.000    0.000    0.000 
#
# Total GULP energy -396820.454528 kJ/mol
# GULP energy per Si atom -12400.639204 kJ/mol
# Density = 1.912580 g / cm^3
# Si number density = 19.169431 Si / 1000 Ang^3
#
#
#
# Elastic Constant Matrix: (Units=GPa)
#
#
# Indices 1 2 3 4 5 6 
#
# 1 134.1582 22.6355 58.4057 0.0000 0.0429 0.0000
# 2 22.6355 32.8040 19.4669 0.0000 -1.7354 0.0000
# 3 58.4057 19.4669 111.1792 0.0000 -17.7359 0.0000
# 4 0.0000 0.0000 0.0000 -1.0676 0.0000 -17.4133
# 5 0.0429 -1.7354 -17.7359 0.0000 33.8658 0.0000
# 6 0.0000 0.0000 0.0000 -17.4133 0.0000 11.0208
#
#
#
# Elastic Compliance Matrix: (Units=1/GPa)
#
#
# Indices 1 2 3 4 5 6 
#
# 1 0.010444 -0.004271 -0.005211 0.000000 -0.002961 0.000000
# 2 -0.004271 0.035836 -0.004078 0.000000 -0.000294 0.000000
# 3 -0.005211 -0.004078 0.013545 0.000000 0.006892 0.000000
# 4 0.000000 0.000000 0.000000 -0.034988 0.000000 -0.055282
# 5 -0.002961 -0.000294 0.006892 0.000000 0.033126 0.000000
# 6 0.000000 0.000000 0.000000 -0.055282 0.000000 0.003389
#
#
# Mechanical properties :
#
#
# Convention : Reuss Voigt Hill
#
# Bulk Modulus (GPa) = 30.57616 53.23974 41.90795
# Shear Modulus (GPa) = 50.31470 20.60600 35.46035
#
# Velocity S-wave (km/s) = 5.12878 3.28219 4.30564
# Velocity P-wave (km/s) = 7.14546 6.49594 6.82842
#
# Compressibility (1/GPa) = 0.03270522
#
# Stress axis : x y z
#
# Youngs Moduli (GPa) = 95.74768 27.90527 73.82539
#
# Poissons Ratio (x) = 0.11918 0.38472
# Poissons Ratio (y) = 0.40893 0.30105
# Poissons Ratio (z) = 0.49896 0.11379
#
# Static dielectric constant tensor:
#      x y z
#    x 3.737150 0.000000 -0.202420 
#    y 0.000000 3.187060 0.000000 
#    z -0.202420 0.000000 3.836240 
# 
# 
# High freq. dielectric constant tensor:
#      x y z
#    x 1.757110 0.000000 -0.006530 
#    y 0.000000 1.713960 0.000000 
#    z -0.006530 0.000000 1.758530 
# 
# From -- ./inp_files/71467.got.cif
#   From: 2010.06.25/outbox.cif.g09.slc.cpg/sg10_36_cif.got.tgz:71467.got - 2010.06.27 22:07:45.
