data_PCOD8062812
_publ_section_title
;
Structure prediction by ZEFSAII (Michael W. Deem and Ramdas Pophale) SiO2 
 PCOD8062812
Probable space group: P 2/M
;
_chemical_formula_sum "Si O2"
_cell_formula_units_Z 28
_cell_length_a 21.779919
_cell_length_b 13.894547
_cell_length_c 19.136683
_cell_angle_alpha 90.000000
_cell_angle_beta 160.650877
_cell_angle_gamma 90.000000
_cell_volume 1918.754828
_symmetry_space_group_name_H-M "P 2/M"
_symmetry_group_IT_number 10
_symmetry_cell_setting 'monoclinic'
loop_
_space_group_symop_operation_xyz
x,y,z
-x,y,-z
-x,-y,-z
x,-y,z
loop_
_atom_site_type_symbol
_atom_site_label
_atom_site_fract_x
_atom_site_fract_y
_atom_site_fract_z
Si Si1 0.833256 0.740291 0.417665
Si Si2 0.422186 0.385856 0.766568
Si Si3 0.658136 0.614617 0.474445
Si Si4 0.009493 0.386111 0.932048
Si Si5 0.251172 0.259718 0.835573
Si Si6 0.457944 0.893474 0.873859
Si Si7 0.413039 0.613890 0.335591
O O1 0.743675 0.649873 0.361530
O O2 0.786105 0.727460 0.286109
O O3 0.736589 0.836806 0.344505
O O4 0.055908 0.744897 0.667690
O O5 0.423726 0.500000 0.771287
O O6 0.381836 0.345255 0.645484
O O7 0.625806 0.350141 0.007968
O O8 0.656747 0.500000 0.470280
O O9 0.506720 0.655071 0.366352
O O10 0.852880 0.655072 0.712514
O O11 0.985934 0.500000 0.913205
O O12 0.200655 0.355791 0.101988
O O13 0.000000 0.342043 0.000000
O O14 0.371361 0.163205 0.979274
O O15 0.440487 0.000000 0.821432
O O16 0.500000 0.903216 0.000000
O O17 0.500000 0.657951 0.500000
O O18 0.441318 0.500000 0.368588
#
# Coordination Sequence:
#
# PCOD8062812 Si02
#       7
#     4   4   4   4   4   4   4
#     4   9  18  31  45  61  81 107 140 175 212 253
#     4  10  20  31  41  54  78 109 148 191 220 239
#     4   9  17  26  35  51  70  94 129 170 212 246
#     4   9  14  21  34  49  66  87 114 153 200 246
#     4   9  18  31  45  61  81 107 140 175 212 253
#     4   8  14  26  45  68  89 104 122 156 203 256
#     4   9  14  21  34  49  66  87 114 153 200 246
#
# _framework density 14.592796999999999
#
# number of rings (size 3 to 8) (size 9 to 14) (size 15 to 20)
#    0.000    3.000    1.429    1.286    0.000    3.429 
#    0.000    7.143    0.000    0.000    0.000    0.000 
#    0.000    0.000    0.000    0.000    0.000   22.857 
#
# Total GULP energy -346986.920426 kJ/mol
# GULP energy per Si atom -12392.390015 kJ/mol
# Density = 1.455958 g / cm^3
# Si number density = 14.592797 Si / 1000 Ang^3
#
#
#
# Elastic Constant Matrix: (Units=GPa)
#
#
# Indices 1 2 3 4 5 6 
#
# 1 75.5257 26.2458 54.7171 0.0000 15.8521 0.0000
# 2 26.2458 63.2367 32.9492 0.0000 7.3723 0.0000
# 3 54.7171 32.9492 112.6413 0.0000 24.8671 0.0000
# 4 0.0000 0.0000 0.0000 6.8249 0.0000 4.0068
# 5 15.8521 7.3723 24.8671 0.0000 27.5148 0.0000
# 6 0.0000 0.0000 0.0000 4.0068 0.0000 3.1686
#
#
#
# Elastic Compliance Matrix: (Units=1/GPa)
#
#
# Indices 1 2 3 4 5 6 
#
# 1 0.021575 -0.004115 -0.008465 0.000000 -0.003677 0.000000
# 2 -0.004115 0.019442 -0.003825 0.000000 0.000618 0.000000
# 3 -0.008465 -0.003825 0.015997 0.000000 -0.008556 0.000000
# 4 0.000000 0.000000 0.000000 0.568758 0.000000 -0.719209
# 5 -0.003677 0.000618 -0.008556 0.000000 0.046030 0.000000
# 6 0.000000 0.000000 0.000000 -0.719209 0.000000 1.225054
#
#
# Mechanical properties :
#
#
# Convention : Reuss Voigt Hill
#
# Bulk Modulus (GPa) = 41.31319 53.24755 47.28037
# Shear Modulus (GPa) = 2.58033 16.66778 9.62406
#
# Velocity S-wave (km/s) = 1.33119 3.38330 2.57087
# Velocity P-wave (km/s) = 5.54391 7.19934 6.42516
#
# Compressibility (1/GPa) = 0.02420534
#
# Stress axis : x y z
#
# Youngs Moduli (GPa) = 46.34988 51.43419 62.51054
#
# Poissons Ratio (x) = 0.21167 0.52914
# Poissons Ratio (y) = 0.19074 0.23907
# Poissons Ratio (z) = 0.39234 0.19671
#
# Static dielectric constant tensor:
#      x y z
#    x 2.928780 0.000000 0.102190 
#    y 0.000000 2.516690 0.000000 
#    z 0.102190 0.000000 3.021750 
# 
# 
# High freq. dielectric constant tensor:
#      x y z
#    x 1.553650 0.000000 0.013880 
#    y 0.000000 1.496560 0.000000 
#    z 0.013880 0.000000 1.566300 
# 
# From -- ./inp_files/79663.got.cif
#   From: 2010.06.25/outbox.cif.g09.slc.cpg/sg10_40_cif.got.tgz:79663.got - 2010.06.27 22:07:45.
