data_PCOD8062694
_publ_section_title
;
Structure prediction by ZEFSAII (Michael W. Deem and Ramdas Pophale) SiO2 
 PCOD8062694
Probable space group: P 2/M
;
_chemical_formula_sum "Si O2"
_cell_formula_units_Z 32
_cell_length_a 23.821019
_cell_length_b 8.953385
_cell_length_c 25.098351
_cell_angle_alpha 90.000000
_cell_angle_beta 17.869673
_cell_angle_gamma 90.000000
_cell_volume 1642.566654
_symmetry_space_group_name_H-M "P 2/M"
_symmetry_group_IT_number 10
_symmetry_cell_setting 'monoclinic'
loop_
_space_group_symop_operation_xyz
x,y,z
-x,y,-z
-x,-y,-z
x,-y,z
loop_
_atom_site_type_symbol
_atom_site_label
_atom_site_fract_x
_atom_site_fract_y
_atom_site_fract_z
Si Si1 0.705498 0.171709 0.302019
Si Si2 0.801770 0.323667 0.697912
Si Si3 0.708065 0.171982 0.175823
Si Si4 0.059341 0.323790 0.823465
Si Si5 0.808553 0.171908 0.802669
Si Si6 0.578801 0.828040 0.809153
Si Si7 0.805072 0.176995 0.504890
Si Si8 0.300209 0.822527 0.516094
O O1 0.500000 0.223852 0.500000
O O2 0.750361 0.192721 0.199787
O O3 0.843445 0.274274 0.209924
O O4 0.732128 0.000000 0.296117
O O5 0.789309 0.500000 0.710337
O O6 0.760518 0.263590 0.793604
O O7 0.650142 0.263517 0.794857
O O8 0.000000 0.267001 0.500000
O O9 0.504031 0.228393 0.347559
O O10 0.730526 0.000000 0.138433
O O11 0.849206 0.269971 0.014307
O O12 0.066407 0.500000 0.811820
O O13 0.156458 0.251600 0.685234
O O14 0.991053 0.235409 0.665839
O O15 0.836996 0.000000 0.760355
O O16 0.640693 0.189594 0.995627
O O17 0.665376 0.764355 0.676354
O O18 0.636171 0.000000 0.765444
O O19 0.742307 0.239481 0.504556
O O20 0.801149 0.000000 0.505837
O O21 0.279380 0.000000 0.539599
#
# Coordination Sequence:
#
# PCOD8062694 Si02
#       8
#     4   4   4   4   4   4   4   4
#     4  10  19  37  63  90 117 151 195 240 290 345
#     4  11  22  35  54  81 112 151 190 224 271 334
#     4  10  21  38  63  89 116 152 196 243 287 341
#     4  12  25  38  57  88 125 159 190 234 293 352
#     4  10  20  35  58  87 114 143 178 227 287 342
#     4  10  20  35  57  85 113 143 181 228 287 340
#     4   9  19  36  60  86 111 140 185 242 286 326
#     4  10  21  41  65  87 111 151 202 247 288 336
#
# _framework density 19.481705000000002
#
# number of rings (size 3 to 8) (size 9 to 14) (size 15 to 20)
#    0.000    1.750    2.500    2.250    0.000    6.250 
#    0.000    5.000    0.000    1.500    0.000    0.000 
#    0.000    0.000    0.000    0.000    0.000    0.000 
#
# Total GULP energy -396919.632023 kJ/mol
# GULP energy per Si atom -12403.738501 kJ/mol
# Density = 1.943736 g / cm^3
# Si number density = 19.481705 Si / 1000 Ang^3
#
#
#
# Elastic Constant Matrix: (Units=GPa)
#
#
# Indices 1 2 3 4 5 6 
#
# 1 116.3525 27.8264 49.2258 0.0000 15.9215 0.0000
# 2 27.8264 57.9570 41.9279 0.0000 3.7587 0.0000
# 3 49.2258 41.9279 150.1164 0.0000 7.3547 0.0000
# 4 0.0000 0.0000 0.0000 15.8825 0.0000 -0.0339
# 5 15.9215 3.7587 7.3547 0.0000 12.5058 0.0000
# 6 0.0000 0.0000 0.0000 -0.0339 0.0000 1.3269
#
#
#
# Elastic Compliance Matrix: (Units=1/GPa)
#
#
# Indices 1 2 3 4 5 6 
#
# 1 0.012201 -0.003231 -0.002456 0.000000 -0.013119 0.000000
# 2 -0.003231 0.022591 -0.005271 0.000000 0.000423 0.000000
# 3 -0.002456 -0.005271 0.008967 0.000000 -0.000562 0.000000
# 4 0.000000 0.000000 0.000000 0.062966 0.000000 0.001609
# 5 -0.013119 0.000423 -0.000562 0.000000 0.096868 0.000000
# 6 0.000000 0.000000 0.000000 0.001609 0.000000 0.753682
#
#
# Mechanical properties :
#
#
# Convention : Reuss Voigt Hill
#
# Bulk Modulus (GPa) = 45.77978 62.48736 54.13357
# Shear Modulus (GPa) = 5.06857 19.63941 12.35399
#
# Velocity S-wave (km/s) = 1.61473 3.17850 2.52093
# Velocity P-wave (km/s) = 5.19869 6.75389 6.02666
#
# Compressibility (1/GPa) = 0.02184370
#
# Stress axis : x y z
#
# Youngs Moduli (GPa) = 81.95790 44.26525 111.52433
#
# Poissons Ratio (x) = 0.14300 0.27391
# Poissons Ratio (y) = 0.26477 0.58786
# Poissons Ratio (z) = 0.20129 0.23333
#
# Static dielectric constant tensor:
#      x y z
#    x 3.609330 0.000000 -0.024030 
#    y 0.000000 3.265990 0.000000 
#    z -0.024030 0.000000 3.780510 
# 
# 
# High freq. dielectric constant tensor:
#      x y z
#    x 1.753710 0.000000 -0.000640 
#    y 0.000000 1.728940 0.000000 
#    z -0.000640 0.000000 1.778590 
# 
# From -- ./inp_files/90563.got.cif
#   From: 2010.06.25/outbox.cif.g09.slc.cpg/sg10_46_cif.got.tgz:90563.got - 2010.06.27 22:07:45.
