data_PCOD8062291
_publ_section_title
;
Structure prediction by ZEFSAII (Michael W. Deem and Ramdas Pophale) SiO2 
 PCOD8062291
Probable space group: P 2/M
;
_chemical_formula_sum "Si O2"
_cell_formula_units_Z 32
_cell_length_a 26.102541
_cell_length_b 8.810854
_cell_length_c 18.715553
_cell_angle_alpha 90.000000
_cell_angle_beta 157.753861
_cell_angle_gamma 90.000000
_cell_volume 1629.552244
_symmetry_space_group_name_H-M "P 2/M"
_symmetry_group_IT_number 10
_symmetry_cell_setting 'monoclinic'
loop_
_space_group_symop_operation_xyz
x,y,z
-x,y,-z
-x,-y,-z
x,-y,z
loop_
_atom_site_type_symbol
_atom_site_label
_atom_site_fract_x
_atom_site_fract_y
_atom_site_fract_z
Si Si1 0.171284 0.821066 0.424129
Si Si2 0.888418 0.826110 0.124926
Si Si3 0.866214 0.820538 0.785106
Si Si4 0.127209 0.668332 0.754771
Si Si5 0.812992 0.667792 0.321215
Si Si6 0.640179 0.822460 0.210038
Si Si7 0.613596 0.178316 0.556505
Si Si8 0.641982 0.676263 0.745089
O O1 0.151714 0.752180 0.318678
O O2 0.301966 0.758302 0.638517
O O3 0.041774 0.779298 0.305079
O O4 0.187308 0.000000 0.436802
O O5 0.849555 0.798044 0.156931
O O6 0.860694 0.000000 0.068682
O O7 0.795886 0.716748 0.959339
O O8 0.729010 0.775226 0.649180
O O9 0.883335 0.000000 0.801786
O O10 0.000000 0.756368 0.000000
O O11 0.168500 0.500000 0.836741
O O12 0.216650 0.708045 0.800239
O O13 0.971625 0.666574 0.534528
O O14 0.754413 0.500000 0.264002
O O15 0.749430 0.794377 0.289532
O O16 0.619227 0.000000 0.192723
O O17 0.500000 0.747381 0.000000
O O18 0.460866 0.226810 0.335603
O O19 0.628862 0.280356 0.645779
O O20 0.621773 0.000000 0.584498
O O21 0.613368 0.500000 0.719835
#
# Coordination Sequence:
#
# PCOD8062291 Si02
#       8
#     4   4   4   4   4   4   4   4
#     4   9  18  33  53  80 111 140 178 231 284 330
#     4  11  20  33  56  83 108 138 183 232 274 328
#     4   9  17  31  55  84 112 144 180 227 280 323
#     4   9  18  33  53  78 108 140 171 220 279 329
#     4   9  18  34  55  76 105 142 180 218 272 336
#     4  10  20  35  54  78 110 147 187 233 281 328
#     4  10  19  35  58  82 109 142 189 230 265 328
#     4  11  22  36  55  78 112 150 179 220 283 337
#
# _framework density 19.637295000000002
#
# number of rings (size 3 to 8) (size 9 to 14) (size 15 to 20)
#    0.000    2.250    1.250    4.125    0.000    2.750 
#    2.250    1.250    0.000    9.750    0.000    0.000 
#    0.000    0.000    0.000    0.000    0.000    0.000 
#
# Total GULP energy -396421.750862 kJ/mol
# GULP energy per Si atom -12388.179714 kJ/mol
# Density = 1.959260 g / cm^3
# Si number density = 19.637295 Si / 1000 Ang^3
#
#
#
# Elastic Constant Matrix: (Units=GPa)
#
#
# Indices 1 2 3 4 5 6 
#
# 1 115.7114 17.4734 49.2926 0.0000 -9.4522 0.0000
# 2 17.4734 42.1212 22.3610 0.0000 1.3544 0.0000
# 3 49.2926 22.3610 109.4616 0.0000 -14.1960 0.0000
# 4 0.0000 0.0000 0.0000 20.0250 0.0000 -2.9378
# 5 -9.4522 1.3544 -14.1960 0.0000 25.6054 0.0000
# 6 0.0000 0.0000 0.0000 -2.9378 0.0000 19.3197
#
#
#
# Elastic Compliance Matrix: (Units=1/GPa)
#
#
# Indices 1 2 3 4 5 6 
#
# 1 0.010941 -0.002365 -0.004206 0.000000 0.001832 0.000000
# 2 -0.002365 0.027691 -0.005274 0.000000 -0.005262 0.000000
# 3 -0.004206 -0.005274 0.012867 0.000000 0.005860 0.000000
# 4 0.000000 0.000000 0.000000 0.051077 0.000000 0.007767
# 5 0.001832 -0.005262 0.005860 0.000000 0.043258 0.000000
# 6 0.000000 0.000000 0.000000 0.007767 0.000000 0.052942
#
#
# Mechanical properties :
#
#
# Convention : Reuss Voigt Hill
#
# Bulk Modulus (GPa) = 35.95986 49.50535 42.73261
# Shear Modulus (GPa) = 21.57632 24.86782 23.22207
#
# Velocity S-wave (km/s) = 3.31832 3.56245 3.44255
# Velocity P-wave (km/s) = 5.74748 6.49508 6.13268
#
# Compressibility (1/GPa) = 0.02780879
#
# Stress axis : x y z
#
# Youngs Moduli (GPa) = 91.40164 36.11257 77.71681
#
# Poissons Ratio (x) = 0.08539 0.32689
# Poissons Ratio (y) = 0.21612 0.40991
# Poissons Ratio (z) = 0.38445 0.19047
#
# Static dielectric constant tensor:
#      x y z
#    x 4.082250 0.000000 -0.582270 
#    y 0.000000 3.292700 0.000000 
#    z -0.582270 0.000000 4.848370 
# 
# 
# High freq. dielectric constant tensor:
#      x y z
#    x 1.763040 0.000000 -0.005300 
#    y 0.000000 1.731710 0.000000 
#    z -0.005300 0.000000 1.764720 
# 
# From -- ./inp_files/87009.got.cif
#   From: 2010.06.25/outbox.cif.g09.slc.cpg/sg10_44_cif.got.tgz:87009.got - 2010.06.27 22:07:45.
