data_PCOD8062508
_publ_section_title
;
Structure prediction by ZEFSAII (Michael W. Deem and Ramdas Pophale) SiO2 
 PCOD8062508
Probable space group: P 2/M
;
_chemical_formula_sum "Si O2"
_cell_formula_units_Z 32
_cell_length_a 9.792236
_cell_length_b 18.980708
_cell_length_c 13.077111
_cell_angle_alpha 90.000000
_cell_angle_beta 137.551684
_cell_angle_gamma 90.000000
_cell_volume 1640.444417
_symmetry_space_group_name_H-M "P 2/M"
_symmetry_group_IT_number 10
_symmetry_cell_setting 'monoclinic'
loop_
_space_group_symop_operation_xyz
x,y,z
-x,y,-z
-x,-y,-z
x,-y,z
loop_
_atom_site_type_symbol
_atom_site_label
_atom_site_fract_x
_atom_site_fract_y
_atom_site_fract_z
Si Si1 0.194465 0.171516 0.398232
Si Si2 0.813105 0.918418 0.222355
Si Si3 0.367502 0.827883 0.278548
Si Si4 0.588717 0.918443 0.888723
Si Si5 0.850348 0.665710 0.625670
Si Si6 0.451519 0.582474 0.685351
Si Si7 0.145804 0.576871 0.677416
Si Si8 0.792563 0.322789 0.828368
O O1 0.406421 0.150457 0.565461
O O2 0.210839 0.157163 0.285026
O O3 0.151042 0.252246 0.401361
O O4 0.016915 0.125947 0.351172
O O5 0.643110 0.896690 0.212101
O O6 0.868849 0.000000 0.266303
O O7 0.727750 0.903299 0.062903
O O8 0.314911 0.873913 0.150342
O O9 0.351784 0.745435 0.243240
O O10 0.596193 0.000000 0.862005
O O11 0.670394 0.624575 0.469535
O O12 0.829249 0.653931 0.733376
O O13 0.069724 0.635291 0.714728
O O14 0.446784 0.500000 0.654585
O O15 0.364049 0.596215 0.751081
O O16 0.678977 0.611544 0.817685
O O17 0.149827 0.500000 0.733681
O O18 0.000000 0.573479 0.500000
O O19 0.000000 0.306365 0.000000
#
# Coordination Sequence:
#
# PCOD8062508 Si02
#       8
#     4   4   4   4   4   4   4   4
#     4  10  21  36  56  85 115 150 189 241 284 333
#     4   9  20  39  60  86 118 149 190 238 278 334
#     4  10  22  38  56  81 118 151 191 236 289 337
#     4   9  20  39  61  85 116 155 193 228 278 342
#     4  10  19  36  58  83 114 149 190 228 288 341
#     4  10  20  38  62  86 113 148 191 237 282 339
#     4   8  16  32  57  85 109 138 183 235 278 330
#     4  11  24  38  55  82 118 154 190 238 286 339
#
# _framework density 19.506909
#
# number of rings (size 3 to 8) (size 9 to 14) (size 15 to 20)
#    0.000    2.375    1.250    2.250    3.500    4.250 
#    2.250    4.375    0.000    1.500    0.000    0.000 
#    0.000    0.000    0.000    0.000    0.000    0.000 
#
# Total GULP energy -396727.108825 kJ/mol
# GULP energy per Si atom -12397.722151 kJ/mol
# Density = 1.946251 g / cm^3
# Si number density = 19.506909 Si / 1000 Ang^3
#
#
#
# Elastic Constant Matrix: (Units=GPa)
#
#
# Indices 1 2 3 4 5 6 
#
# 1 86.6097 52.7816 24.4208 0.0000 1.5258 0.0000
# 2 52.7816 87.1390 26.3957 0.0000 -3.4732 0.0000
# 3 24.4208 26.3957 44.2527 0.0000 7.9998 0.0000
# 4 0.0000 0.0000 0.0000 20.8071 0.0000 -19.8394
# 5 1.5258 -3.4732 7.9998 0.0000 29.8681 0.0000
# 6 0.0000 0.0000 0.0000 -19.8394 0.0000 97.3135
#
#
#
# Elastic Compliance Matrix: (Units=1/GPa)
#
#
# Indices 1 2 3 4 5 6 
#
# 1 0.019014 -0.010299 -0.004159 0.000000 -0.001055 0.000000
# 2 -0.010299 0.020071 -0.007152 0.000000 0.004776 0.000000
# 3 -0.004159 -0.007152 0.030760 0.000000 -0.008858 0.000000
# 4 0.000000 0.000000 0.000000 0.059657 0.000000 0.012162
# 5 -0.001055 0.004776 -0.008858 0.000000 0.036462 0.000000
# 6 0.000000 0.000000 0.000000 0.012162 0.000000 0.012756
#
#
# Mechanical properties :
#
#
# Convention : Reuss Voigt Hill
#
# Bulk Modulus (GPa) = 37.55840 47.24418 42.40129
# Shear Modulus (GPa) = 21.66248 37.22462 29.44355
#
# Velocity S-wave (km/s) = 3.33604 4.37312 3.88930
# Velocity P-wave (km/s) = 5.84248 7.05484 6.47709
#
# Compressibility (1/GPa) = 0.02662520
#
# Stress axis : x y z
#
# Youngs Moduli (GPa) = 52.59318 49.82296 32.51026
#
# Poissons Ratio (x) = 0.51314 0.13520
# Poissons Ratio (y) = 0.54168 0.23250
# Poissons Ratio (z) = 0.21872 0.35631
#
# Static dielectric constant tensor:
#      x y z
#    x 3.935420 0.000000 0.090330 
#    y 0.000000 3.512740 0.000000 
#    z 0.090330 0.000000 3.254620 
# 
# 
# High freq. dielectric constant tensor:
#      x y z
#    x 1.769630 0.000000 0.003040 
#    y 0.000000 1.758320 0.000000 
#    z 0.003040 0.000000 1.733340 
# 
# From -- ./inp_files/43649.got.cif
#   From: 2010.06.25/outbox.cif.g09.slc.cpg/sg10_22_cif.got.tgz:43649.got - 2010.06.27 22:07:45.
