data_PCOD8062047
_publ_section_title
;
Structure prediction by ZEFSAII (Michael W. Deem and Ramdas Pophale) SiO2 
 PCOD8062047
Probable space group: P 2/M
;
_chemical_formula_sum "Si O2"
_cell_formula_units_Z 28
_cell_length_a 12.743919
_cell_length_b 8.692756
_cell_length_c 14.772859
_cell_angle_alpha 90.000000
_cell_angle_beta 119.888347
_cell_angle_gamma 90.000000
_cell_volume 1418.871933
_symmetry_space_group_name_H-M "P 2/M"
_symmetry_group_IT_number 10
_symmetry_cell_setting 'monoclinic'
loop_
_space_group_symop_operation_xyz
x,y,z
-x,y,-z
-x,-y,-z
x,-y,z
loop_
_atom_site_type_symbol
_atom_site_label
_atom_site_fract_x
_atom_site_fract_y
_atom_site_fract_z
Si Si1 0.526801 0.682561 0.281746
Si Si2 0.292511 0.682702 0.282657
Si Si3 0.593083 0.180968 0.116260
Si Si4 0.297504 0.316943 0.485751
Si Si5 0.968122 0.682719 0.888055
Si Si6 0.033247 0.682964 0.417107
Si Si7 0.848878 0.681692 0.186884
O O1 0.537340 0.500000 0.281271
O O2 0.390936 0.735313 0.250383
O O3 0.562260 0.746408 0.199676
O O4 0.615015 0.748599 0.398320
O O5 0.283402 0.500000 0.280466
O O6 0.335543 0.738310 0.401188
O O7 0.160654 0.751770 0.200732
O O8 0.723843 0.229146 0.136829
O O9 0.585999 0.000000 0.124802
O O10 0.500000 0.240189 0.000000
O O11 0.300032 0.500000 0.492015
O O12 0.163018 0.251397 0.443977
O O13 0.956735 0.500000 0.885165
O O14 0.078347 0.731788 0.871138
O O15 0.000000 0.749965 0.000000
O O16 0.039390 0.500000 0.420664
O O17 0.000000 0.751196 0.500000
O O18 0.929280 0.738221 0.305163
O O19 0.823635 0.500000 0.178845
#
# Coordination Sequence:
#
# PCOD8062047 Si02
#       7
#     4   4   4   4   4   4   4
#     4  10  20  33  57  87 111 141 185 228 264 316
#     4   9  16  28  48  82 121 148 172 215 273 325
#     4  11  26  44  57  72 104 147 185 227 282 330
#     4   9  15  27  47  81 122 147 170 212 272 326
#     4   9  17  28  47  81 118 144 170 218 278 318
#     4   9  15  24  44  76 112 142 169 209 260 312
#     4  10  19  34  58  84 107 137 181 226 265 316
#
# _framework density 19.733986000000002
#
# number of rings (size 3 to 8) (size 9 to 14) (size 15 to 20)
#    0.000    2.429    1.429    1.714    2.000    5.143 
#    0.000    0.000    0.000    6.857    0.000    0.000 
#    0.000    0.000    0.000    0.000    0.000    0.000 
#
# Total GULP energy -347099.068460 kJ/mol
# GULP energy per Si atom -12396.395302 kJ/mol
# Density = 1.968907 g / cm^3
# Si number density = 19.733986 Si / 1000 Ang^3
#
#
#
# Elastic Constant Matrix: (Units=GPa)
#
#
# Indices 1 2 3 4 5 6 
#
# 1 163.0949 16.0086 89.6975 0.0000 0.9788 0.0000
# 2 16.0086 14.0600 17.3060 0.0000 1.5091 0.0000
# 3 89.6975 17.3060 178.8048 0.0000 -7.3070 0.0000
# 4 0.0000 0.0000 0.0000 9.2856 0.0000 1.5146
# 5 0.9788 1.5091 -7.3070 0.0000 37.6466 0.0000
# 6 0.0000 0.0000 0.0000 1.5146 0.0000 2.5784
#
#
#
# Elastic Compliance Matrix: (Units=1/GPa)
#
#
# Indices 1 2 3 4 5 6 
#
# 1 0.008813 -0.005072 -0.003963 0.000000 -0.000795 0.000000
# 2 -0.005072 0.084528 -0.005816 0.000000 -0.004385 0.000000
# 3 -0.003963 -0.005816 0.008223 0.000000 0.001932 0.000000
# 4 0.000000 0.000000 0.000000 0.119105 0.000000 -0.069961
# 5 -0.000795 -0.004385 0.001932 0.000000 0.027134 0.000000
# 6 0.000000 0.000000 0.000000 -0.069961 0.000000 0.428925
#
#
# Mechanical properties :
#
#
# Convention : Reuss Voigt Hill
#
# Bulk Modulus (GPa) = 13.91547 66.88712 40.40129
# Shear Modulus (GPa) = 6.84570 25.43195 16.13883
#
# Velocity S-wave (km/s) = 1.86454 3.59380 2.86286
# Velocity P-wave (km/s) = 3.42085 7.15461 5.60761
#
# Compressibility (1/GPa) = 0.07186245
#
# Stress axis : x y z
#
# Youngs Moduli (GPa) = 113.46275 11.83037 121.61661
#
# Poissons Ratio (x) = 0.06000 0.48195
# Poissons Ratio (y) = 0.57547 0.70735
# Poissons Ratio (z) = 0.44964 0.06881
#
# Static dielectric constant tensor:
#      x y z
#    x 3.827920 0.000000 0.001530 
#    y 0.000000 2.865060 0.000000 
#    z 0.001530 0.000000 3.934160 
# 
# 
# High freq. dielectric constant tensor:
#      x y z
#    x 1.789010 0.000000 -0.001600 
#    y 0.000000 1.691470 0.000000 
#    z -0.001600 0.000000 1.785920 
# 
# From -- ./inp_files/63933.got.cif
#   From: 2010.06.25/outbox.cif.g09.slc.cpg/sg10_32_cif.got.tgz:63933.got - 2010.06.27 22:07:45.
