data_PCOD8062226
_publ_section_title
;
Structure prediction by ZEFSAII (Michael W. Deem and Ramdas Pophale) SiO2 
 PCOD8062226
Probable space group: P 2/M
;
_chemical_formula_sum "Si O2"
_cell_formula_units_Z 26
_cell_length_a 11.866250
_cell_length_b 7.727471
_cell_length_c 23.727431
_cell_angle_alpha 90.000000
_cell_angle_beta 144.595732
_cell_angle_gamma 90.000000
_cell_volume 1260.481653
_symmetry_space_group_name_H-M "P 2/M"
_symmetry_group_IT_number 10
_symmetry_cell_setting 'monoclinic'
loop_
_space_group_symop_operation_xyz
x,y,z
-x,y,-z
-x,-y,-z
x,-y,z
loop_
_atom_site_type_symbol
_atom_site_label
_atom_site_fract_x
_atom_site_fract_y
_atom_site_fract_z
Si Si1 0.408107 0.804555 0.307862
Si Si2 0.123204 0.500000 0.408446
Si Si3 0.524118 0.801061 0.231913
Si Si4 0.008397 0.500000 0.242688
Si Si5 0.039279 0.808815 0.855394
Si Si6 0.157869 0.305151 0.020234
Si Si7 0.539423 0.500000 0.592922
Si Si8 0.968716 0.799006 0.421164
O O1 0.491291 0.745809 0.282403
O O2 0.177940 0.783319 0.211561
O O3 0.501301 0.675366 0.389792
O O4 0.471215 0.000000 0.349265
O O5 0.967417 0.500000 0.293182
O O6 0.348213 0.500000 0.474159
O O7 0.098505 0.671750 0.436355
O O8 0.377666 0.693911 0.133082
O O9 0.748714 0.763063 0.310693
O O10 0.469116 0.000000 0.200460
O O11 0.914970 0.668590 0.174660
O O12 0.241293 0.500000 0.338343
O O13 0.074307 0.000000 0.843650
O O14 0.167568 0.790747 0.964007
O O15 0.089414 0.500000 0.980165
O O16 0.000000 0.221881 0.000000
O O17 0.000000 0.756892 0.500000
O O18 0.025973 0.000000 0.433383
#
# Coordination Sequence:
#
# PCOD8062226 Si02
#       8
#     4   2   4   2   4   4   2   4
#     4   9  18  31  52  82 118 154 184 223 281 347
#     4  12  24  40  63  83 110 155 193 245 298 334
#     4  10  20  33  53  82 119 157 190 231 282 346
#     4  10  23  41  56  84 115 147 201 241 283 348
#     4  10  19  35  56  81 118 158 188 228 286 345
#     4  11  21  30  52  89 128 156 187 234 289 350
#     4  10  21  35  58  82 111 147 192 241 288 340
#     4  10  23  42  62  89 119 150 195 240 283 341
#
# _framework density 20.627033999999998
#
# number of rings (size 3 to 8) (size 9 to 14) (size 15 to 20)
#    0.000    1.846    2.308    1.846    2.154    3.077 
#    0.000    0.000    0.000    6.462    0.000    3.231 
#    0.000    0.000    0.000    0.000    0.000    0.000 
#
# Total GULP energy -322223.081370 kJ/mol
# GULP energy per Si atom -12393.195437 kJ/mol
# Density = 2.058009 g / cm^3
# Si number density = 20.627034 Si / 1000 Ang^3
#
#
#
# Elastic Constant Matrix: (Units=GPa)
#
#
# Indices 1 2 3 4 5 6 
#
# 1 13.9994 8.2635 7.8619 0.0000 -2.8905 0.0000
# 2 8.2635 104.9746 27.3854 0.0000 -16.5466 0.0000
# 3 7.8619 27.3854 93.2154 0.0000 -0.9247 0.0000
# 4 0.0000 0.0000 0.0000 24.0523 0.0000 4.5593
# 5 -2.8905 -16.5466 -0.9247 0.0000 33.9349 0.0000
# 6 0.0000 0.0000 0.0000 4.5593 0.0000 16.7231
#
#
#
# Elastic Compliance Matrix: (Units=1/GPa)
#
#
# Indices 1 2 3 4 5 6 
#
# 1 0.077729 -0.004016 -0.005331 0.000000 0.004517 0.000000
# 2 -0.004016 0.011428 -0.002968 0.000000 0.005149 0.000000
# 3 -0.005331 -0.002968 0.012034 0.000000 -0.001573 0.000000
# 4 0.000000 0.000000 0.000000 0.043842 0.000000 -0.011953
# 5 0.004517 0.005149 -0.001573 0.000000 0.032321 0.000000
# 6 0.000000 0.000000 0.000000 -0.011953 0.000000 0.063056
#
#
# Mechanical properties :
#
#
# Convention : Reuss Voigt Hill
#
# Bulk Modulus (GPa) = 13.06145 33.24568 23.15357
# Shear Modulus (GPa) = 17.20819 26.18730 21.69774
#
# Velocity S-wave (km/s) = 2.89148 3.56696 3.24683
# Velocity P-wave (km/s) = 4.18252 5.75472 5.03042
#
# Compressibility (1/GPa) = 0.07656116
#
# Stress axis : x y z
#
# Youngs Moduli (GPa) = 12.86525 87.50356 83.09989
#
# Poissons Ratio (x) = 0.35141 0.44302
# Poissons Ratio (y) = 0.05167 0.24661
# Poissons Ratio (z) = 0.06859 0.25968
#
# Static dielectric constant tensor:
#      x y z
#    x 3.342270 0.000000 -0.005310 
#    y 0.000000 3.815960 0.000000 
#    z -0.005310 0.000000 3.816950 
# 
# 
# High freq. dielectric constant tensor:
#      x y z
#    x 1.763840 0.000000 0.000770 
#    y 0.000000 1.814630 0.000000 
#    z 0.000770 0.000000 1.814440 
# 
# From -- ./inp_files/55169.got.cif
#   From: 2010.06.25/outbox.cif.g09.slc.cpg/sg10_28_cif.got.tgz:55169.got - 2010.06.27 22:07:45.
