data_PCOD8062861
_publ_section_title
;
Structure prediction by ZEFSAII (Michael W. Deem and Ramdas Pophale) SiO2 
 PCOD8062861
Probable space group: P 2/M
;
_chemical_formula_sum "Si O2"
_cell_formula_units_Z 32
_cell_length_a 14.319224
_cell_length_b 8.823967
_cell_length_c 24.153591
_cell_angle_alpha 90.000000
_cell_angle_beta 33.197720
_cell_angle_gamma 90.000000
_cell_volume 1670.986444
_symmetry_space_group_name_H-M "P 2/M"
_symmetry_group_IT_number 10
_symmetry_cell_setting 'monoclinic'
loop_
_space_group_symop_operation_xyz
x,y,z
-x,y,-z
-x,-y,-z
x,-y,z
loop_
_atom_site_type_symbol
_atom_site_label
_atom_site_fract_x
_atom_site_fract_y
_atom_site_fract_z
Si Si1 0.295519 0.178665 0.709598
Si Si2 0.521536 0.321028 0.076195
Si Si3 0.134558 0.820214 0.677269
Si Si4 0.676609 0.179905 0.524511
Si Si5 0.187844 0.820898 0.425748
Si Si6 0.505823 0.319917 0.207856
Si Si7 0.821481 0.178151 0.114075
Si Si8 0.771737 0.679114 0.858924
O O1 0.212303 0.248775 0.695455
O O2 0.485122 0.246159 0.624110
O O3 0.178836 0.218903 0.820516
O O4 0.310239 0.000000 0.695114
O O5 0.514901 0.500000 0.081217
O O6 0.529240 0.254426 0.134120
O O7 0.351575 0.265577 0.129280
O O8 0.688775 0.271814 0.958782
O O9 0.238586 0.754455 0.573308
O O10 0.942140 0.770922 0.766213
O O11 0.144617 0.000000 0.673238
O O12 0.784778 0.231687 0.524352
O O13 0.671505 0.000000 0.524391
O O14 0.326732 0.740341 0.318826
O O15 0.000000 0.768906 0.500000
O O16 0.212246 0.000000 0.407071
O O17 0.503080 0.500000 0.210413
O O18 0.664162 0.262803 0.164688
O O19 0.796440 0.000000 0.116510
O O20 0.000000 0.235639 0.000000
O O21 0.806121 0.500000 0.839714
#
# Coordination Sequence:
#
# PCOD8062861 Si02
#       8
#     4   4   4   4   4   4   4   4
#     4   9  17  33  54  76 105 140 176 217 268 325
#     4   8  18  36  56  74 103 145 181 209 260 329
#     4  10  20  31  53  85 106 128 176 231 272 308
#     4   9  17  33  54  76 105 140 176 217 268 325
#     4  10  21  37  58  82 111 148 187 226 276 337
#     4  11  22  37  58  85 113 144 184 233 278 322
#     4  10  21  37  58  82 111 148 187 226 276 337
#     4   9  18  37  57  74 102 144 179 210 261 328
#
# _framework density 19.150366000000002
#
# number of rings (size 3 to 8) (size 9 to 14) (size 15 to 20)
#    0.000    2.500    1.250    1.500    3.500    2.000 
#    0.000    3.750    0.000    0.750    0.000    0.000 
#    0.000    0.000    0.000    0.000    0.000    0.000 
#
# Total GULP energy -396743.204551 kJ/mol
# GULP energy per Si atom -12398.225142 kJ/mol
# Density = 1.910678 g / cm^3
# Si number density = 19.150366 Si / 1000 Ang^3
#
#
#
# Elastic Constant Matrix: (Units=GPa)
#
#
# Indices 1 2 3 4 5 6 
#
# 1 59.4121 11.0754 43.1901 0.0000 16.1869 0.0000
# 2 11.0754 19.4997 18.2881 0.0000 2.3588 0.0000
# 3 43.1901 18.2881 149.2947 0.0000 6.9252 0.0000
# 4 0.0000 0.0000 0.0000 16.2796 0.0000 -0.3786
# 5 16.1869 2.3588 6.9252 0.0000 41.2910 0.0000
# 6 0.0000 0.0000 0.0000 -0.3786 0.0000 17.1964
#
#
#
# Elastic Compliance Matrix: (Units=1/GPa)
#
#
# Indices 1 2 3 4 5 6 
#
# 1 0.024754 -0.007571 -0.005849 0.000000 -0.008291 0.000000
# 2 -0.007571 0.060442 -0.005232 0.000000 0.000393 0.000000
# 3 -0.005849 -0.005232 0.008981 0.000000 0.001086 0.000000
# 4 0.000000 0.000000 0.000000 0.061458 0.000000 0.001353
# 5 -0.008291 0.000393 0.001086 0.000000 0.027264 0.000000
# 6 0.000000 0.000000 0.000000 0.001353 0.000000 0.058181
#
#
# Mechanical properties :
#
#
# Convention : Reuss Voigt Hill
#
# Bulk Modulus (GPa) = 17.58309 41.47931 29.53120
# Shear Modulus (GPa) = 16.81563 25.33026 21.07295
#
# Velocity S-wave (km/s) = 2.96646 3.64084 3.32082
# Velocity P-wave (km/s) = 4.57545 6.27544 5.49163
#
# Compressibility (1/GPa) = 0.05687282
#
# Stress axis : x y z
#
# Youngs Moduli (GPa) = 40.39788 16.54467 111.34831
#
# Poissons Ratio (x) = 0.12526 0.65129
# Poissons Ratio (y) = 0.30585 0.58257
# Poissons Ratio (z) = 0.23629 0.08656
#
# Static dielectric constant tensor:
#      x y z
#    x 3.894090 0.000000 0.241890 
#    y 0.000000 3.013530 0.000000 
#    z 0.241890 0.000000 3.769990 
# 
# 
# High freq. dielectric constant tensor:
#      x y z
#    x 1.759010 0.000000 0.005690 
#    y 0.000000 1.697250 0.000000 
#    z 0.005690 0.000000 1.758950 
# 
# From -- ./inp_files/89564.got.cif
#   From: 2010.06.25/outbox.cif.g09.slc.cpg/sg10_45_cif.got.tgz:89564.got - 2010.06.27 22:07:45.
