data_PCOD8062399
_publ_section_title
;
Structure prediction by ZEFSAII (Michael W. Deem and Ramdas Pophale) SiO2 
 PCOD8062399
Probable space group: P 2/M
;
_chemical_formula_sum "Si O2"
_cell_formula_units_Z 24
_cell_length_a 9.046993
_cell_length_b 7.713923
_cell_length_c 21.849728
_cell_angle_alpha 90.000000
_cell_angle_beta 129.069449
_cell_angle_gamma 90.000000
_cell_volume 1183.862796
_symmetry_space_group_name_H-M "P 2/M"
_symmetry_group_IT_number 10
_symmetry_cell_setting 'monoclinic'
loop_
_space_group_symop_operation_xyz
x,y,z
-x,y,-z
-x,-y,-z
x,-y,z
loop_
_atom_site_type_symbol
_atom_site_label
_atom_site_fract_x
_atom_site_fract_y
_atom_site_fract_z
Si Si1 0.846104 0.305600 0.175831
Si Si2 0.805997 0.299250 0.821210
Si Si3 0.202800 0.000000 0.084286
Si Si4 0.421995 0.304885 0.353599
Si Si5 0.170668 0.795889 0.501091
Si Si6 0.554647 0.000000 0.084621
Si Si7 0.099439 0.805640 0.348135
O O1 0.766315 0.500000 0.145150
O O2 0.995825 0.256879 0.161589
O O3 0.951602 0.302670 0.268941
O O4 0.673051 0.172557 0.130117
O O5 0.801206 0.500000 0.841622
O O6 0.779901 0.175060 0.871971
O O7 0.630752 0.255597 0.729925
O O8 0.366068 0.000000 0.076091
O O9 0.000000 0.000000 0.000000
O O10 0.350295 0.500000 0.346661
O O11 0.645014 0.292106 0.422179
O O12 0.307665 0.185901 0.371322
O O13 0.122900 0.721610 0.421370
O O14 0.000000 0.741866 0.500000
O O15 0.205666 0.000000 0.507322
O O16 0.500000 0.000000 0.000000
O O17 0.018912 0.000000 0.332926
#
# Coordination Sequence:
#
# PCOD8062399 Si02
#       7
#     4   4   2   4   4   2   4
#     4  10  21  41  68  95 126 162 204 257 310 365
#     4   9  21  41  65  95 125 158 204 255 306 365
#     4  12  26  42  68  95 122 167 200 244 305 366
#     4  10  21  36  57  86 115 156 204 248 304 358
#     4  10  22  36  51  78 118 160 204 254 305 353
#     4  12  26  44  66  95 130 161 204 246 305 374
#     4  10  19  35  60  87 116 156 206 252 299 357
#
# _framework density 20.272617
#
# number of rings (size 3 to 8) (size 9 to 14) (size 15 to 20)
#    0.000    1.833    0.833    4.000    4.667    6.333 
#    0.000    1.667    0.000    0.000    0.000    0.000 
#    0.000    0.000    0.000    0.000    0.000    0.000 
#
# Total GULP energy -297633.585849 kJ/mol
# GULP energy per Si atom -12401.399410 kJ/mol
# Density = 2.022648 g / cm^3
# Si number density = 20.272617 Si / 1000 Ang^3
#
#
#
# Elastic Constant Matrix: (Units=GPa)
#
#
# Indices 1 2 3 4 5 6 
#
# 1 128.9004 51.8551 86.5789 0.0000 -5.6314 0.0000
# 2 51.8551 96.2880 52.4570 0.0000 -4.2779 0.0000
# 3 86.5789 52.4570 146.3734 0.0000 -6.6920 0.0000
# 4 0.0000 0.0000 0.0000 17.5100 0.0000 1.5246
# 5 -5.6314 -4.2779 -6.6920 0.0000 33.1821 0.0000
# 6 0.0000 0.0000 0.0000 1.5246 0.0000 12.9083
#
#
#
# Elastic Compliance Matrix: (Units=1/GPa)
#
#
# Indices 1 2 3 4 5 6 
#
# 1 0.013879 -0.003718 -0.006854 0.000000 0.000494 0.000000
# 2 -0.003718 0.013919 -0.002761 0.000000 0.000607 0.000000
# 3 -0.006854 -0.002761 0.011916 0.000000 0.000884 0.000000
# 4 0.000000 0.000000 0.000000 0.057704 0.000000 -0.006815
# 5 0.000494 0.000607 0.000884 0.000000 0.030477 0.000000
# 6 0.000000 0.000000 0.000000 -0.006815 0.000000 0.078275
#
#
# Mechanical properties :
#
#
# Convention : Reuss Voigt Hill
#
# Bulk Modulus (GPa) = 76.64764 83.70489 80.17627
# Shear Modulus (GPa) = 21.08048 24.76481 22.92265
#
# Velocity S-wave (km/s) = 3.22817 3.49892 3.36627
# Velocity P-wave (km/s) = 7.19620 7.59622 7.39891
#
# Compressibility (1/GPa) = 0.01304672
#
# Stress axis : x y z
#
# Youngs Moduli (GPa) = 72.05020 71.84285 83.92032
#
# Poissons Ratio (x) = 0.26714 0.57521
# Poissons Ratio (y) = 0.26791 0.23172
# Poissons Ratio (z) = 0.49385 0.19837
#
# Static dielectric constant tensor:
#      x y z
#    x 3.523880 0.000000 -0.048470 
#    y 0.000000 3.763750 0.000000 
#    z -0.048470 0.000000 3.760160 
# 
# 
# High freq. dielectric constant tensor:
#      x y z
#    x 1.776230 0.000000 -0.002160 
#    y 0.000000 1.799900 0.000000 
#    z -0.002160 0.000000 1.796320 
# 
# From -- ./inp_files/66728.got.cif
#   From: 2010.06.25/outbox.cif.g09.slc.cpg/sg10_34_cif.got.tgz:66728.got - 2010.06.27 22:07:45.
