data_PCOD8062257
_publ_section_title
;
Structure prediction by ZEFSAII (Michael W. Deem and Ramdas Pophale) SiO2 
 PCOD8062257
Probable space group: P 2/M
;
_chemical_formula_sum "Si O2"
_cell_formula_units_Z 28
_cell_length_a 23.849023
_cell_length_b 7.949225
_cell_length_c 20.146596
_cell_angle_alpha 90.000000
_cell_angle_beta 21.789615
_cell_angle_gamma 90.000000
_cell_volume 1417.765774
_symmetry_space_group_name_H-M "P 2/M"
_symmetry_group_IT_number 10
_symmetry_cell_setting 'monoclinic'
loop_
_space_group_symop_operation_xyz
x,y,z
-x,y,-z
-x,-y,-z
x,-y,z
loop_
_atom_site_type_symbol
_atom_site_label
_atom_site_fract_x
_atom_site_fract_y
_atom_site_fract_z
Si Si1 0.454147 0.813271 0.873803
Si Si2 0.215748 0.000000 0.208142
Si Si3 0.021168 0.194638 0.766906
Si Si4 0.386083 0.697365 0.679241
Si Si5 0.688380 0.804985 0.101243
Si Si6 0.763992 0.688213 0.578125
Si Si7 0.123836 0.000000 0.459587
Si Si8 0.047946 0.697675 0.018441
O O1 0.394154 0.723940 0.872061
O O2 0.584517 0.702919 0.763554
O O3 0.522071 0.000000 0.783285
O O4 0.311160 0.833996 0.081330
O O5 0.196799 0.000000 0.307189
O O6 0.057045 0.000000 0.343952
O O7 0.150041 0.294968 0.586427
O O8 0.046810 0.217736 0.817697
O O9 0.033389 0.000000 0.733820
O O10 0.856380 0.271202 0.928151
O O11 0.500000 0.775467 0.500000
O O12 0.411144 0.500000 0.658136
O O13 0.414620 0.775972 0.720525
O O14 0.221413 0.746781 0.835507
O O15 0.708372 0.000000 0.063705
O O16 0.793626 0.500000 0.574071
O O17 0.821946 0.829621 0.564879
O O18 0.018337 0.500000 0.054057
O O19 0.000000 0.772085 0.000000
#
# Coordination Sequence:
#
# PCOD8062257 Si02
#       8
#     4   2   4   4   4   4   2   4
#     4   9  19  38  59  88 120 158 196 235 303 358
#     4   9  21  41  75  89 122 171 194 245 303 345
#     4  10  19  35  57  82 112 153 202 254 305 358
#     4   9  18  31  46  68 102 147 192 242 303 354
#     4   9  18  33  57  80 109 146 198 251 297 356
#     4  12  24  38  62  94 129 164 201 249 304 362
#     4  11  21  45  69  97 124 161 206 245 295 355
#     4   9  18  32  48  70 105 146 195 251 303 359
#
# _framework density 19.749383999999999
#
# number of rings (size 3 to 8) (size 9 to 14) (size 15 to 20)
#    0.429    1.857    1.429    1.286    0.000    4.000 
#    0.000    6.429    0.000    0.000    0.000    0.000 
#    0.000    0.000    0.000    0.000    0.000    0.000 
#
# Total GULP energy -347096.632353 kJ/mol
# GULP energy per Si atom -12396.308298 kJ/mol
# Density = 1.970443 g / cm^3
# Si number density = 19.749384 Si / 1000 Ang^3
#
#
#
# Elastic Constant Matrix: (Units=GPa)
#
#
# Indices 1 2 3 4 5 6 
#
# 1 133.3443 46.9601 62.1614 0.0000 2.8705 0.0000
# 2 46.9601 69.5972 34.7693 0.0000 -0.6585 0.0000
# 3 62.1614 34.7693 123.7741 0.0000 8.9088 0.0000
# 4 0.0000 0.0000 0.0000 7.1608 0.0000 -9.6800
# 5 2.8705 -0.6585 8.9088 0.0000 25.2771 0.0000
# 6 0.0000 0.0000 0.0000 -9.6800 0.0000 4.8764
#
#
#
# Elastic Compliance Matrix: (Units=1/GPa)
#
#
# Indices 1 2 3 4 5 6 
#
# 1 0.011418 -0.005628 -0.004155 0.000000 0.000021 0.000000
# 2 -0.005628 0.019602 -0.002835 0.000000 0.002149 0.000000
# 3 -0.004155 -0.002835 0.011218 0.000000 -0.003556 0.000000
# 4 0.000000 0.000000 0.000000 -0.082956 0.000000 -0.164673
# 5 0.000021 0.002149 -0.003556 0.000000 0.040868 0.000000
# 6 0.000000 0.000000 0.000000 -0.164673 0.000000 -0.121817
#
#
# Mechanical properties :
#
#
# Convention : Reuss Voigt Hill
#
# Bulk Modulus (GPa) = 58.81257 68.27747 63.54502
# Shear Modulus (GPa) = -55.08810 19.65119 -17.71846
#
# Velocity S-wave (km/s) = -5.28717 3.15783 -2.99852
# Velocity P-wave (km/s) = 2.72545 6.92408 4.50082
#
# Compressibility (1/GPa) = 0.01700317
#
# Stress axis : x y z
#
# Youngs Moduli (GPa) = 87.58197 51.01406 89.14259
#
# Poissons Ratio (x) = 0.28712 0.37036
# Poissons Ratio (y) = 0.49294 0.25268
# Poissons Ratio (z) = 0.36388 0.14460
#
# Static dielectric constant tensor:
#      x y z
#    x 3.665690 0.000000 0.039270 
#    y 0.000000 3.315700 0.000000 
#    z 0.039270 0.000000 3.635440 
# 
# 
# High freq. dielectric constant tensor:
#      x y z
#    x 1.770340 0.000000 0.005270 
#    y 0.000000 1.744080 0.000000 
#    z 0.005270 0.000000 1.767270 
# 
# From -- ./inp_files/86509.got.cif
#   From: 2010.06.25/outbox.cif.g09.slc.cpg/sg10_44_cif.got.tgz:86509.got - 2010.06.27 22:07:45.
