data_PCOD8062959
_publ_section_title
;
Structure prediction by ZEFSAII (Michael W. Deem and Ramdas Pophale) SiO2 
 PCOD8062959
Probable space group: P 2/M
;
_chemical_formula_sum "Si O2"
_cell_formula_units_Z 32
_cell_length_a 25.360944
_cell_length_b 9.472248
_cell_length_c 13.681555
_cell_angle_alpha 90.000000
_cell_angle_beta 147.956577
_cell_angle_gamma 90.000000
_cell_volume 1743.772944
_symmetry_space_group_name_H-M "P 2/M"
_symmetry_group_IT_number 10
_symmetry_cell_setting 'monoclinic'
loop_
_space_group_symop_operation_xyz
x,y,z
-x,y,-z
-x,-y,-z
x,-y,z
loop_
_atom_site_type_symbol
_atom_site_label
_atom_site_fract_x
_atom_site_fract_y
_atom_site_fract_z
Si Si1 0.439555 0.342234 0.266692
Si Si2 0.724412 0.845059 0.902631
Si Si3 0.373313 0.838558 0.663036
Si Si4 0.260346 0.836577 0.672271
Si Si5 0.893722 0.655943 0.466800
Si Si6 0.082760 0.766169 0.694113
Si Si7 0.559724 0.659741 0.962919
Si Si8 0.375426 0.838901 0.446154
O O1 0.443683 0.500000 0.316679
O O2 0.336481 0.271568 0.135327
O O3 0.445404 0.345092 0.160561
O O4 0.534524 0.255276 0.454977
O O5 0.716758 0.817645 0.773441
O O6 0.680437 0.000000 0.857342
O O7 0.839449 0.848257 0.116679
O O8 0.277156 0.822805 0.581735
O O9 0.459228 0.737161 0.842157
O O10 0.342487 0.794551 0.504163
O O11 0.412896 0.000000 0.728123
O O12 0.155090 0.769191 0.536384
O O13 0.262379 0.000000 0.708720
O O14 0.345333 0.751327 0.861223
O O15 0.861879 0.500000 0.451210
O O16 0.858196 0.677332 0.297289
O O17 0.014570 0.670059 0.659342
O O18 0.000000 0.858994 0.500000
O O19 0.565362 0.500000 0.014537
O O20 0.412781 0.000000 0.505957
#
# Coordination Sequence:
#
# PCOD8062959 Si02
#       8
#     4   4   4   4   4   4   4   4
#     4  10  21  34  49  75 110 141 171 209 253 304
#     4  11  21  33  54  80 102 134 175 212 255 305
#     4   9  19  35  50  68 100 137 171 213 256 296
#     4  11  21  31  49  76 102 132 170 210 258 305
#     4   9  19  36  55  75 101 131 164 200 248 306
#     4   8  20  36  54  79 105 130 162 205 256 308
#     4  10  20  32  48  72 102 137 174 209 250 304
#     4   9  19  36  54  72 101 140 179 214 249 296
#
# _framework density 18.351013999999999
#
# number of rings (size 3 to 8) (size 9 to 14) (size 15 to 20)
#    0.750    1.500    0.000    3.375    0.000   10.250 
#    0.000    0.000    0.000    0.750    0.000    4.375 
#    0.000    0.000    0.000    0.000    0.000    0.000 
#
# Total GULP energy -396423.588734 kJ/mol
# GULP energy per Si atom -12388.237148 kJ/mol
# Density = 1.830925 g / cm^3
# Si number density = 18.351014 Si / 1000 Ang^3
#
#
#
# Elastic Constant Matrix: (Units=GPa)
#
#
# Indices 1 2 3 4 5 6 
#
# 1 85.3795 47.3434 32.4794 0.0000 16.1448 0.0000
# 2 47.3434 120.7356 35.1844 0.0000 5.2857 0.0000
# 3 32.4794 35.1844 96.8897 0.0000 -4.5643 0.0000
# 4 0.0000 0.0000 0.0000 18.1118 0.0000 3.1406
# 5 16.1448 5.2857 -4.5643 0.0000 15.0214 0.0000
# 6 0.0000 0.0000 0.0000 3.1406 0.0000 19.9009
#
#
#
# Elastic Compliance Matrix: (Units=1/GPa)
#
#
# Indices 1 2 3 4 5 6 
#
# 1 0.021601 -0.005624 -0.006289 0.000000 -0.023148 0.000000
# 2 -0.005624 0.011015 -0.002042 0.000000 0.001548 0.000000
# 3 -0.006289 -0.002042 0.013719 0.000000 0.011647 0.000000
# 4 0.000000 0.000000 0.000000 0.056766 0.000000 -0.008958
# 5 -0.023148 0.001548 0.011647 0.000000 0.094445 0.000000
# 6 0.000000 0.000000 0.000000 -0.008958 0.000000 0.051663
#
#
# Mechanical properties :
#
#
# Convention : Reuss Voigt Hill
#
# Bulk Modulus (GPa) = 54.27338 59.22436 56.74887
# Shear Modulus (GPa) = 17.65158 23.13997 20.39578
#
# Velocity S-wave (km/s) = 3.10479 3.55486 3.33742
# Velocity P-wave (km/s) = 6.51861 7.01374 6.77070
#
# Compressibility (1/GPa) = 0.01842524
#
# Stress axis : x y z
#
# Youngs Moduli (GPa) = 46.29506 90.78449 72.88959
#
# Poissons Ratio (x) = 0.51057 0.45841
# Poissons Ratio (y) = 0.26036 0.14883
# Poissons Ratio (z) = 0.29116 0.18537
#
# Static dielectric constant tensor:
#      x y z
#    x 3.419920 0.000000 -0.090170 
#    y 0.000000 3.547870 0.000000 
#    z -0.090170 0.000000 3.143200 
# 
# 
# High freq. dielectric constant tensor:
#      x y z
#    x 1.708910 0.000000 -0.007130 
#    y 0.000000 1.714360 0.000000 
#    z -0.007130 0.000000 1.679170 
# 
# From -- ./inp_files/72218.got.cif
#   From: 2010.06.25/outbox.cif.g09.slc.cpg/sg10_37_cif.got.tgz:72218.got - 2010.06.27 22:07:45.
