data_PCOD8062124
_publ_section_title
;
Structure prediction by ZEFSAII (Michael W. Deem and Ramdas Pophale) SiO2 
 PCOD8062124
Probable space group: P 2/M
;
_chemical_formula_sum "Si O2"
_cell_formula_units_Z 28
_cell_length_a 9.649654
_cell_length_b 14.349645
_cell_length_c 21.108299
_cell_angle_alpha 90.000000
_cell_angle_beta 29.235883
_cell_angle_gamma 90.000000
_cell_volume 1427.536931
_symmetry_space_group_name_H-M "P 2/M"
_symmetry_group_IT_number 10
_symmetry_cell_setting 'monoclinic'
loop_
_space_group_symop_operation_xyz
x,y,z
-x,y,-z
-x,-y,-z
x,-y,z
loop_
_atom_site_type_symbol
_atom_site_label
_atom_site_fract_x
_atom_site_fract_y
_atom_site_fract_z
Si Si1 0.758291 0.892947 0.049298
Si Si2 0.661651 0.733012 0.768658
Si Si3 0.181648 0.761670 0.648132
Si Si4 0.827780 0.392105 0.004797
Si Si5 0.180287 0.892317 0.118504
Si Si6 0.223538 0.606424 0.731324
Si Si7 0.316397 0.601689 0.356928
O O1 0.472784 0.835919 0.177406
O O2 0.674556 0.000000 0.094221
O O3 0.891486 0.878208 0.926565
O O4 0.000000 0.857567 0.000000
O O5 0.658982 0.687700 0.700318
O O6 0.980137 0.742992 0.668061
O O7 0.461735 0.665284 0.889587
O O8 0.500000 0.791938 0.500000
O O9 0.190708 0.664637 0.681131
O O10 0.047789 0.839826 0.747105
O O11 0.750644 0.500000 0.036434
O O12 0.004970 0.363478 0.872856
O O13 0.000000 0.363610 0.000000
O O14 0.167848 0.000000 0.144227
O O15 0.500000 0.853340 0.000000
O O16 0.180922 0.500000 0.727797
O O17 0.531284 0.626639 0.638148
O O18 0.442205 0.500000 0.281072
O O19 0.000000 0.582456 0.500000
#
# Coordination Sequence:
#
# PCOD8062124 Si02
#       7
#     4   4   4   4   4   4   4
#     4  10  22  39  64  98 124 150 193 249 311 367
#     4  12  22  36  61  87 120 164 198 254 305 361
#     4  12  27  41  58  91 128 164 210 254 301 358
#     4  10  19  34  59  91 116 144 200 262 310 358
#     4  10  21  43  70  91 120 161 203 247 303 371
#     4  10  22  39  59  85 123 162 203 256 307 362
#     4  10  21  38  59  82 114 164 214 248 297 368
#
# _framework density 19.614204999999998
#
# number of rings (size 3 to 8) (size 9 to 14) (size 15 to 20)
#    0.000    1.429    2.857    2.571    2.000    1.714 
#    0.000    1.429    0.000    0.429    0.000    0.000 
#    0.000    0.000    0.000    0.000    0.000    0.000 
#
# Total GULP energy -347121.057915 kJ/mol
# GULP energy per Si atom -12397.180640 kJ/mol
# Density = 1.956956 g / cm^3
# Si number density = 19.614205 Si / 1000 Ang^3
#
#
#
# Elastic Constant Matrix: (Units=GPa)
#
#
# Indices 1 2 3 4 5 6 
#
# 1 92.1868 33.7260 32.1028 0.0000 -13.9963 0.0000
# 2 33.7260 93.2410 43.5606 0.0000 -2.3697 0.0000
# 3 32.1028 43.5606 111.1605 0.0000 -15.1007 0.0000
# 4 0.0000 0.0000 0.0000 23.9091 0.0000 4.4864
# 5 -13.9963 -2.3697 -15.1007 0.0000 34.8169 0.0000
# 6 0.0000 0.0000 0.0000 4.4864 0.0000 30.7211
#
#
#
# Elastic Compliance Matrix: (Units=1/GPa)
#
#
# Indices 1 2 3 4 5 6 
#
# 1 0.013590 -0.003979 -0.001764 0.000000 0.004427 0.000000
# 2 -0.003979 0.014360 -0.004848 0.000000 -0.002725 0.000000
# 3 -0.001764 -0.004848 0.011969 0.000000 0.004152 0.000000
# 4 0.000000 0.000000 0.000000 0.043003 0.000000 -0.006280
# 5 0.004427 -0.002725 0.004152 0.000000 0.032117 0.000000
# 6 0.000000 0.000000 0.000000 -0.006280 0.000000 0.033468
#
#
# Mechanical properties :
#
#
# Convention : Reuss Voigt Hill
#
# Bulk Modulus (GPa) = 53.37164 57.26301 55.31732
# Shear Modulus (GPa) = 28.41957 30.36935 29.39446
#
# Velocity S-wave (km/s) = 3.81061 3.93916 3.87542
# Velocity P-wave (km/s) = 6.82867 7.06734 6.94903
#
# Compressibility (1/GPa) = 0.01873654
#
# Stress axis : x y z
#
# Youngs Moduli (GPa) = 73.58548 69.63851 83.54620
#
# Poissons Ratio (x) = 0.27708 0.14738
# Poissons Ratio (y) = 0.29278 0.40506
# Poissons Ratio (z) = 0.12981 0.33763
#
# Static dielectric constant tensor:
#      x y z
#    x 3.775770 0.000000 0.052860 
#    y 0.000000 3.614920 0.000000 
#    z 0.052860 0.000000 3.760490 
# 
# 
# High freq. dielectric constant tensor:
#      x y z
#    x 1.765440 0.000000 -0.006670 
#    y 0.000000 1.768010 0.000000 
#    z -0.006670 0.000000 1.756440 
# 
# From -- ./inp_files/35251.got.cif
#   From: 2010.06.25/outbox.cif.g09.slc.cpg/sg10_18_cif.got.tgz:35251.got - 2010.06.27 22:07:45.
