data_PCOD8062722
_publ_section_title
;
Structure prediction by ZEFSAII (Michael W. Deem and Ramdas Pophale) SiO2 
 PCOD8062722
Probable space group: P 2/M
;
_chemical_formula_sum "Si O2"
_cell_formula_units_Z 28
_cell_length_a 14.067892
_cell_length_b 15.829524
_cell_length_c 14.617985
_cell_angle_alpha 90.000000
_cell_angle_beta 29.324815
_cell_angle_gamma 90.000000
_cell_volume 1594.291739
_symmetry_space_group_name_H-M "P 2/M"
_symmetry_group_IT_number 10
_symmetry_cell_setting 'monoclinic'
loop_
_space_group_symop_operation_xyz
x,y,z
-x,y,-z
-x,-y,-z
x,-y,z
loop_
_atom_site_type_symbol
_atom_site_label
_atom_site_fract_x
_atom_site_fract_y
_atom_site_fract_z
Si Si1 0.139593 0.352632 0.103993
Si Si2 0.313349 0.600561 0.776127
Si Si3 0.415009 0.091503 0.972121
Si Si4 0.702826 0.763798 0.699393
Si Si5 0.263240 0.402833 0.616336
Si Si6 0.490908 0.592871 0.114492
Si Si7 0.101849 0.208087 0.273603
O O1 0.144418 0.262864 0.148605
O O2 0.919360 0.386547 0.295928
O O3 0.195888 0.346743 0.950249
O O4 0.290872 0.413172 0.029098
O O5 0.279721 0.500000 0.820695
O O6 0.539030 0.628926 0.597413
O O7 0.236155 0.633040 0.742228
O O8 0.534748 0.166901 0.822682
O O9 0.428198 0.000000 0.909566
O O10 0.500000 0.078232 0.000000
O O11 0.186856 0.116449 0.174223
O O12 0.628009 0.669165 0.737227
O O13 0.773169 0.758574 0.745197
O O14 0.875528 0.792771 0.487565
O O15 0.298749 0.500000 0.604169
O O16 0.394673 0.500000 0.214015
O O17 0.500000 0.611584 0.000000
#
# Coordination Sequence:
#
# PCOD8062722 Si02
#       7
#     4   4   4   4   4   4   4
#     4  12  20  31  49  72  94 134 173 211 249 300
#     4   9  19  35  51  68  94 123 164 224 271 306
#     4   9  17  33  56  76  96 127 168 213 264 312
#     4  10  19  38  49  66 104 142 172 214 257 287
#     4   9  19  34  50  70  93 122 166 220 272 310
#     4  11  21  34  48  65  99 144 186 218 244 282
#     4  10  21  32  52  71 101 134 171 213 254 299
#
# _framework density 17.562657999999999
#
# number of rings (size 3 to 8) (size 9 to 14) (size 15 to 20)
#    0.000    2.000    2.857    3.000    2.000    1.714 
#    0.000    5.714    0.000    0.000    0.000    0.000 
#    0.000    2.286    0.000    8.571    0.000    0.571 
#
# Total GULP energy -346900.915971 kJ/mol
# GULP energy per Si atom -12389.318428 kJ/mol
# Density = 1.752268 g / cm^3
# Si number density = 17.562658 Si / 1000 Ang^3
#
#
#
# Elastic Constant Matrix: (Units=GPa)
#
#
# Indices 1 2 3 4 5 6 
#
# 1 47.7417 12.5701 23.3329 0.0000 -13.8360 0.0000
# 2 12.5701 116.0074 58.1574 0.0000 -4.0550 0.0000
# 3 23.3329 58.1574 100.4892 0.0000 -14.7490 0.0000
# 4 0.0000 0.0000 0.0000 15.7128 0.0000 8.2255
# 5 -13.8360 -4.0550 -14.7490 0.0000 28.0747 0.0000
# 6 0.0000 0.0000 0.0000 8.2255 0.0000 -12.5783
#
#
#
# Elastic Compliance Matrix: (Units=1/GPa)
#
#
# Indices 1 2 3 4 5 6 
#
# 1 0.026225 -0.000279 -0.004374 0.000000 0.010586 0.000000
# 2 -0.000279 0.012262 -0.007359 0.000000 -0.002233 0.000000
# 3 -0.004374 -0.007359 0.015986 0.000000 0.005180 0.000000
# 4 0.000000 0.000000 0.000000 0.047412 0.000000 0.031005
# 5 0.010586 -0.002233 0.005180 0.000000 0.043235 0.000000
# 6 0.000000 0.000000 0.000000 0.031005 0.000000 -0.059227
#
#
# Mechanical properties :
#
#
# Convention : Reuss Voigt Hill
#
# Bulk Modulus (GPa) = 32.84201 50.26212 41.55206
# Shear Modulus (GPa) = 41.64312 17.58704 29.61508
#
# Velocity S-wave (km/s) = 4.87469 3.16790 4.11086
# Velocity P-wave (km/s) = 7.10099 6.48550 6.80021
#
# Compressibility (1/GPa) = 0.03044881
#
# Stress axis : x y z
#
# Youngs Moduli (GPa) = 38.13112 81.55461 62.55315
#
# Poissons Ratio (x) = 0.02273 0.27362
# Poissons Ratio (y) = 0.01063 0.46035
# Poissons Ratio (z) = 0.16680 0.60019
#
# Static dielectric constant tensor:
#      x y z
#    x 3.220560 0.000000 -0.200820 
#    y 0.000000 3.196410 0.000000 
#    z -0.200820 0.000000 3.442790 
# 
# 
# High freq. dielectric constant tensor:
#      x y z
#    x 1.658440 0.000000 -0.013650 
#    y 0.000000 1.640350 0.000000 
#    z -0.013650 0.000000 1.686190 
# 
# From -- ./inp_files/67553.got.cif
#   From: 2010.06.25/outbox.cif.g09.slc.cpg/sg10_34_cif.got.tgz:67553.got - 2010.06.27 22:07:45.
