data_PCOD8062389
_publ_section_title
;
Structure prediction by ZEFSAII (Michael W. Deem and Ramdas Pophale) SiO2 
 PCOD8062389
Probable space group: P 2/M
;
_chemical_formula_sum "Si O2"
_cell_formula_units_Z 20
_cell_length_a 22.306296
_cell_length_b 7.761290
_cell_length_c 10.090308
_cell_angle_alpha 90.000000
_cell_angle_beta 37.620974
_cell_angle_gamma 90.000000
_cell_volume 1066.363644
_symmetry_space_group_name_H-M "P 2/M"
_symmetry_group_IT_number 10
_symmetry_cell_setting 'monoclinic'
loop_
_space_group_symop_operation_xyz
x,y,z
-x,y,-z
-x,-y,-z
x,-y,z
loop_
_atom_site_type_symbol
_atom_site_label
_atom_site_fract_x
_atom_site_fract_y
_atom_site_fract_z
Si Si1 0.091430 0.000000 0.243705
Si Si2 0.231540 0.309779 0.996980
Si Si3 0.094460 0.000000 0.927168
Si Si4 0.241497 0.696752 0.674476
Si Si5 0.430352 0.805165 0.733854
Si Si6 0.543957 0.299315 0.783812
O O1 0.151268 0.829704 0.178156
O O2 0.000000 0.000000 0.500000
O O3 0.063200 0.000000 0.137059
O O4 0.185200 0.500000 0.096896
O O5 0.266244 0.279552 0.785621
O O6 0.327680 0.296529 0.920867
O O7 0.155969 0.171399 0.782868
O O8 0.000000 0.000000 0.000000
O O9 0.207781 0.500000 0.702293
O O10 0.340305 0.744760 0.421880
O O11 0.500000 0.719950 0.500000
O O12 0.484309 0.805370 0.779332
O O13 0.405115 0.000000 0.736152
O O14 0.527015 0.500000 0.785899
O O15 0.500000 0.239998 0.000000
#
# Coordination Sequence:
#
# PCOD8062389 Si02
#       6
#     2   4   2   4   4   4
#     4  10  22  42  60  81 114 136 180 245 293 334
#     4  10  19  35  60  85 110 150 190 225 277 337
#     4  10  22  40  62  82 102 142 190 232 283 340
#     4   9  19  36  59  82 111 148 187 227 272 331
#     4  11  21  32  56  87 118 151 192 232 269 332
#     4  10  21  36  53  81 120 156 185 225 277 330
#
# _framework density 18.755327000000001
#
# number of rings (size 3 to 8) (size 9 to 14) (size 15 to 20)
#    0.000    2.000    3.000    0.600    1.400    2.000 
#    3.600    0.000    0.000    0.000    0.000    0.000 
#    0.000    0.000    0.000    0.000    0.000    0.000 
#
# Total GULP energy -248029.838155 kJ/mol
# GULP energy per Si atom -12401.491908 kJ/mol
# Density = 1.871264 g / cm^3
# Si number density = 18.755327 Si / 1000 Ang^3
#
#
#
# Elastic Constant Matrix: (Units=GPa)
#
#
# Indices 1 2 3 4 5 6 
#
# 1 115.8873 48.1076 54.3207 0.0000 -16.3851 0.0000
# 2 48.1076 118.7523 59.4641 0.0000 -17.8970 0.0000
# 3 54.3207 59.4641 146.2931 0.0000 -10.1190 0.0000
# 4 0.0000 0.0000 0.0000 12.2711 0.0000 -3.3802
# 5 -16.3851 -17.8970 -10.1190 0.0000 26.8091 0.0000
# 6 0.0000 0.0000 0.0000 -3.3802 0.0000 22.9526
#
#
#
# Elastic Compliance Matrix: (Units=1/GPa)
#
#
# Indices 1 2 3 4 5 6 
#
# 1 0.011721 -0.002599 -0.002998 0.000000 0.004297 0.000000
# 2 -0.002599 0.012031 -0.003573 0.000000 0.005094 0.000000
# 3 -0.002998 -0.003573 0.009354 0.000000 -0.000687 0.000000
# 4 0.000000 0.000000 0.000000 0.084938 0.000000 0.012509
# 5 0.004297 0.005094 -0.000687 0.000000 0.043068 0.000000
# 6 0.000000 0.000000 0.000000 0.012509 0.000000 0.045410
#
#
# Mechanical properties :
#
#
# Convention : Reuss Voigt Hill
#
# Bulk Modulus (GPa) = 67.72975 78.30194 73.01584
# Shear Modulus (GPa) = 21.75957 27.00925 24.38441
#
# Velocity S-wave (km/s) = 3.40984 3.79896 3.60965
# Velocity P-wave (km/s) = 7.18981 7.81554 7.50919
#
# Compressibility (1/GPa) = 0.01476456
#
# Stress axis : x y z
#
# Youngs Moduli (GPa) = 85.31622 83.12156 106.91081
#
# Poissons Ratio (x) = 0.21606 0.32057
# Poissons Ratio (y) = 0.22176 0.38195
# Poissons Ratio (z) = 0.25582 0.29696
#
# Static dielectric constant tensor:
#      x y z
#    x 3.155750 0.000000 -0.018420 
#    y 0.000000 3.599890 0.000000 
#    z -0.018420 0.000000 3.303870 
# 
# 
# High freq. dielectric constant tensor:
#      x y z
#    x 1.708370 0.000000 -0.005650 
#    y 0.000000 1.742650 0.000000 
#    z -0.005650 0.000000 1.711870 
# 
# From -- ./inp_files/31735.got.cif
#   From: 2010.06.25/outbox.cif.g09.slc.cpg/sg10_16_cif.got.tgz:31735.got - 2010.06.27 22:07:45.
