data_PCOD8062042
_publ_section_title
;
Structure prediction by ZEFSAII (Michael W. Deem and Ramdas Pophale) SiO2 
 PCOD8062042
Probable space group: P 2/M
;
_chemical_formula_sum "Si O2"
_cell_formula_units_Z 28
_cell_length_a 31.753437
_cell_length_b 8.256883
_cell_length_c 9.784970
_cell_angle_alpha 90.000000
_cell_angle_beta 144.927765
_cell_angle_gamma 90.000000
_cell_volume 1474.139487
_symmetry_space_group_name_H-M "P 2/M"
_symmetry_group_IT_number 10
_symmetry_cell_setting 'monoclinic'
loop_
_space_group_symop_operation_xyz
x,y,z
-x,y,-z
-x,-y,-z
x,-y,z
loop_
_atom_site_type_symbol
_atom_site_label
_atom_site_fract_x
_atom_site_fract_y
_atom_site_fract_z
Si Si1 0.955592 0.000000 0.671328
Si Si2 0.492088 0.182576 0.639782
Si Si3 0.357591 0.314540 0.962461
Si Si4 0.112184 0.000000 0.217151
Si Si5 0.776541 0.312639 0.883866
Si Si6 0.242511 0.823661 0.464179
Si Si7 0.341313 0.687580 0.220324
Si Si8 0.066428 0.685811 0.572789
O O1 0.904427 0.000000 0.667416
O O2 0.939156 0.830572 0.551347
O O3 0.040406 0.000000 0.934571
O O4 0.500000 0.207406 0.500000
O O5 0.421353 0.284333 0.501279
O O6 0.476698 0.000000 0.642327
O O7 0.568922 0.239156 0.910114
O O8 0.375576 0.500000 0.036486
O O9 0.289736 0.299409 0.679537
O O10 0.338253 0.233859 0.059206
O O11 0.159891 0.839172 0.306427
O O12 0.758875 0.500000 0.815814
O O13 0.761415 0.227285 0.701786
O O14 0.722033 0.235201 0.852838
O O15 0.859614 0.282978 0.147905
O O16 0.281367 0.000000 0.575100
O O17 0.323667 0.500000 0.161436
O O18 0.066468 0.500000 0.510213
O O19 0.000000 0.704159 0.500000
#
# Coordination Sequence:
#
# PCOD8062042 Si02
#       8
#     2   4   4   2   4   4   4   4
#     4  11  21  42  66  88 124 160 200 251 306 347
#     4   9  17  31  51  81 113 147 186 237 288 343
#     4  10  19  34  58  82 112 154 191 233 296 351
#     4   9  24  40  58  88 119 156 194 244 294 361
#     4  10  21  37  56  84 117 150 196 248 294 349
#     4  10  22  37  54  79 114 153 189 235 290 351
#     4   9  19  34  55  82 113 145 192 244 288 345
#     4  10  22  38  63  94 122 159 207 249 296 361
#
# _framework density 18.994132
#
# number of rings (size 3 to 8) (size 9 to 14) (size 15 to 20)
#    0.429    1.857    0.000    2.357    3.000    2.857 
#    0.000    3.571    0.000    4.286    0.000    0.000 
#    0.000    0.000    0.000    0.000    0.000    0.000 
#
# Total GULP energy -346996.191116 kJ/mol
# GULP energy per Si atom -12392.721111 kJ/mol
# Density = 1.895090 g / cm^3
# Si number density = 18.994132 Si / 1000 Ang^3
#
#
#
# Elastic Constant Matrix: (Units=GPa)
#
#
# Indices 1 2 3 4 5 6 
#
# 1 123.1213 28.2561 65.6648 0.0000 12.6169 0.0000
# 2 28.2561 63.6503 25.0246 0.0000 -7.9795 0.0000
# 3 65.6648 25.0246 108.1412 0.0000 7.8550 0.0000
# 4 0.0000 0.0000 0.0000 11.6858 0.0000 -25.0955
# 5 12.6169 -7.9795 7.8550 0.0000 30.6090 0.0000
# 6 0.0000 0.0000 0.0000 -25.0955 0.0000 -4.3645
#
#
#
# Elastic Compliance Matrix: (Units=1/GPa)
#
#
# Indices 1 2 3 4 5 6 
#
# 1 0.013032 -0.003724 -0.006716 0.000000 -0.004619 0.000000
# 2 -0.003724 0.019358 -0.002748 0.000000 0.007286 0.000000
# 3 -0.006716 -0.002748 0.014074 0.000000 -0.001560 0.000000
# 4 0.000000 0.000000 0.000000 0.006411 0.000000 -0.036862
# 5 -0.004619 0.007286 -0.001560 0.000000 0.036874 0.000000
# 6 0.000000 0.000000 0.000000 -0.036862 0.000000 -0.017165
#
#
# Mechanical properties :
#
#
# Convention : Reuss Voigt Hill
#
# Bulk Modulus (GPa) = 49.77819 59.20045 54.48932
# Shear Modulus (GPa) = 47.32412 19.31722 33.32067
#
# Velocity S-wave (km/s) = 4.99692 3.19252 4.19293
# Velocity P-wave (km/s) = 7.71727 6.69515 7.22431
#
# Compressibility (1/GPa) = 0.02008912
#
# Stress axis : x y z
#
# Youngs Moduli (GPa) = 76.73525 51.65913 71.05179
#
# Poissons Ratio (x) = 0.19237 0.47717
# Poissons Ratio (y) = 0.28575 0.19522
# Poissons Ratio (z) = 0.51534 0.14194
#
# Static dielectric constant tensor:
#      x y z
#    x 3.586700 0.000000 0.223370 
#    y 0.000000 3.446950 0.000000 
#    z 0.223370 0.000000 3.375430 
# 
# 
# High freq. dielectric constant tensor:
#      x y z
#    x 1.732840 0.000000 0.019170 
#    y 0.000000 1.733280 0.000000 
#    z 0.019170 0.000000 1.735350 
# 
# From -- ./inp_files/38077.got.cif
#   From: 2010.06.25/outbox.cif.g09.slc.cpg/sg10_20_cif.got.tgz:38077.got - 2010.06.27 22:07:45.
