data_PCOD8062937
_publ_section_title
;
Structure prediction by ZEFSAII (Michael W. Deem and Ramdas Pophale) SiO2 
 PCOD8062937
Probable space group: P 2/M
;
_chemical_formula_sum "Si O2"
_cell_formula_units_Z 28
_cell_length_a 23.152774
_cell_length_b 9.118793
_cell_length_c 18.768788
_cell_angle_alpha 90.000000
_cell_angle_beta 22.969258
_cell_angle_gamma 90.000000
_cell_volume 1546.340957
_symmetry_space_group_name_H-M "P 2/M"
_symmetry_group_IT_number 10
_symmetry_cell_setting 'monoclinic'
loop_
_space_group_symop_operation_xyz
x,y,z
-x,y,-z
-x,-y,-z
x,-y,z
loop_
_atom_site_type_symbol
_atom_site_label
_atom_site_fract_x
_atom_site_fract_y
_atom_site_fract_z
Si Si1 0.028528 0.838557 0.747069
Si Si2 0.790611 0.171968 0.838160
Si Si3 0.683640 0.161466 0.106462
Si Si4 0.070442 0.827521 0.993292
Si Si5 0.912481 0.673523 0.456363
Si Si6 0.329895 0.830146 0.178748
Si Si7 0.636214 0.670211 0.294519
O O1 0.100919 0.722376 0.611101
O O2 0.098863 0.000000 0.653464
O O3 0.854238 0.846899 0.933424
O O4 0.046055 0.791293 0.810133
O O5 0.706714 0.210134 0.861070
O O6 0.944956 0.258532 0.666452
O O7 0.829850 0.000000 0.800174
O O8 0.679871 0.218204 0.028652
O O9 0.599994 0.268379 0.256281
O O10 0.610657 0.000000 0.195177
O O11 0.223505 0.744644 0.829094
O O12 0.105049 0.000000 0.952460
O O13 0.000000 0.771662 0.000000
O O14 0.924030 0.500000 0.447013
O O15 0.765630 0.727431 0.662053
O O16 0.293514 0.000000 0.236024
O O17 0.500000 0.793902 0.000000
O O18 0.500000 0.704881 0.500000
O O19 0.668777 0.500000 0.249321
#
# Coordination Sequence:
#
# PCOD8062937 Si02
#       7
#     4   4   4   4   4   4   4
#     4   8  15  30  51  73  98 127 162 205 247 287
#     4   9  18  34  55  77  98 123 163 210 248 289
#     4   8  15  29  50  73  95 123 163 209 249 283
#     4   9  18  33  53  76  99 126 165 210 250 288
#     4  11  21  32  51  78 103 129 164 203 243 290
#     4  10  21  37  55  73  98 133 166 199 246 297
#     4  10  20  32  47  71 103 136 167 199 241 295
#
# _framework density 18.107261000000001
#
# number of rings (size 3 to 8) (size 9 to 14) (size 15 to 20)
#    0.000    2.714    0.000    3.857    0.000    9.143 
#    0.000    1.429    0.000    6.857    0.000    0.000 
#    0.000    0.000    0.000    0.000    0.000    0.000 
#
# Total GULP energy -347085.163562 kJ/mol
# GULP energy per Si atom -12395.898699 kJ/mol
# Density = 1.806605 g / cm^3
# Si number density = 18.107261 Si / 1000 Ang^3
#
#
#
# Elastic Constant Matrix: (Units=GPa)
#
#
# Indices 1 2 3 4 5 6 
#
# 1 147.8793 57.5306 66.7091 0.0000 22.2644 0.0000
# 2 57.5306 97.3332 62.1259 0.0000 13.5046 0.0000
# 3 66.7091 62.1259 80.0637 0.0000 11.7024 0.0000
# 4 0.0000 0.0000 0.0000 9.1807 0.0000 0.0088
# 5 22.2644 13.5046 11.7024 0.0000 21.9005 0.0000
# 6 0.0000 0.0000 0.0000 0.0088 0.0000 4.7506
#
#
#
# Elastic Compliance Matrix: (Units=1/GPa)
#
#
# Indices 1 2 3 4 5 6 
#
# 1 0.011855 -0.000745 -0.008250 0.000000 -0.007185 0.000000
# 2 -0.000745 0.020812 -0.014930 0.000000 -0.004099 0.000000
# 3 -0.008250 -0.014930 0.030781 0.000000 0.001145 0.000000
# 4 0.000000 0.000000 0.000000 0.108924 0.000000 -0.000203
# 5 -0.007185 -0.004099 0.001145 0.000000 0.054881 0.000000
# 6 0.000000 0.000000 0.000000 -0.000203 0.000000 0.210501
#
#
# Mechanical properties :
#
#
# Convention : Reuss Voigt Hill
#
# Bulk Modulus (GPa) = 64.10188 77.55637 70.82913
# Shear Modulus (GPa) = 10.18738 16.42706 13.30722
#
# Velocity S-wave (km/s) = 2.37452 3.01526 2.71386
# Velocity P-wave (km/s) = 6.55712 7.41937 7.00153
#
# Compressibility (1/GPa) = 0.01560017
#
# Stress axis : x y z
#
# Youngs Moduli (GPa) = 84.35112 48.04851 32.48736
#
# Poissons Ratio (x) = 0.03578 0.26801
# Poissons Ratio (y) = 0.06282 0.48503
# Poissons Ratio (z) = 0.69587 0.71735
#
# Static dielectric constant tensor:
#      x y z
#    x 3.999340 0.000000 0.403210 
#    y 0.000000 3.272310 0.000000 
#    z 0.403210 0.000000 3.083080 
# 
# 
# High freq. dielectric constant tensor:
#      x y z
#    x 1.711870 0.000000 0.027610 
#    y 0.000000 1.691850 0.000000 
#    z 0.027610 0.000000 1.671560 
# 
# From -- ./inp_files/86475.got.cif
#   From: 2010.06.25/outbox.cif.g09.slc.cpg/sg10_44_cif.got.tgz:86475.got - 2010.06.27 22:07:45.
