data_PCOD8062613
_publ_section_title
;
Structure prediction by ZEFSAII (Michael W. Deem and Ramdas Pophale) SiO2 
 PCOD8062613
Probable space group: P 2/M
;
_chemical_formula_sum "Si O2"
_cell_formula_units_Z 32
_cell_length_a 8.770614
_cell_length_b 20.091613
_cell_length_c 15.137826
_cell_angle_alpha 90.000000
_cell_angle_beta 140.050445
_cell_angle_gamma 90.000000
_cell_volume 1712.851505
_symmetry_space_group_name_H-M "P 2/M"
_symmetry_group_IT_number 10
_symmetry_cell_setting 'monoclinic'
loop_
_space_group_symop_operation_xyz
x,y,z
-x,y,-z
-x,-y,-z
x,-y,z
loop_
_atom_site_type_symbol
_atom_site_label
_atom_site_fract_x
_atom_site_fract_y
_atom_site_fract_z
Si Si1 0.934440 0.190913 0.612802
Si Si2 0.246321 0.692612 0.150494
Si Si3 0.768398 0.685174 0.647995
Si Si4 0.236559 0.924387 0.357168
Si Si5 0.607515 0.423741 0.907437
Si Si6 0.867193 0.423974 0.203392
Si Si7 0.756219 0.076433 0.845230
Si Si8 0.391364 0.190282 0.700301
O O1 0.885272 0.248513 0.661165
O O2 0.943675 0.121123 0.668441
O O3 0.726043 0.190401 0.448134
O O4 0.192701 0.198595 0.686202
O O5 0.214479 0.686236 0.239929
O O6 0.324249 0.621659 0.145147
O O7 0.441374 0.746807 0.213341
O O8 0.000000 0.717186 0.000000
O O9 0.500000 0.676910 0.500000
O O10 0.911896 0.622314 0.673573
O O11 0.500000 0.901887 0.500000
O O12 0.196005 0.913162 0.236390
O O13 0.188369 0.000000 0.364655
O O14 0.648658 0.500000 0.897038
O O15 0.334798 0.412189 0.813092
O O16 0.771139 0.405469 0.063635
O O17 0.953457 0.500000 0.243990
O O18 0.539137 0.122413 0.780903
O O19 0.687469 0.000000 0.836346
O O20 0.000000 0.097702 0.000000
#
# Coordination Sequence:
#
# PCOD8062613 Si02
#       8
#     4   4   4   4   4   4   4   4
#     4  11  23  39  59  84 121 155 195 243 293 340
#     4  12  23  38  60  88 115 150 199 241 285 348
#     4  12  23  39  59  83 121 158 189 240 292 345
#     4  10  19  36  62  88 114 150 196 235 282 347
#     4   9  19  38  62  88 118 150 191 243 291 344
#     4   9  19  38  62  87 118 154 191 236 294 349
#     4  10  21  39  62  89 121 153 188 240 297 344
#     4  11  23  39  59  86 117 156 197 242 289 349
#
# _framework density 18.682296999999998
#
# number of rings (size 3 to 8) (size 9 to 14) (size 15 to 20)
#    0.000    1.500    3.750    3.000    0.000    1.500 
#    0.000    3.125    0.000    3.750    0.000    0.000 
#    0.000    0.000    0.000    0.000    0.000    0.000 
#
# Total GULP energy -396909.955795 kJ/mol
# GULP energy per Si atom -12403.436119 kJ/mol
# Density = 1.863978 g / cm^3
# Si number density = 18.682297 Si / 1000 Ang^3
#
#
#
# Elastic Constant Matrix: (Units=GPa)
#
#
# Indices 1 2 3 4 5 6 
#
# 1 110.4751 71.0416 56.0224 0.0000 4.4657 0.0000
# 2 71.0416 123.1452 43.3196 0.0000 14.2534 0.0000
# 3 56.0224 43.3196 101.2466 0.0000 6.7689 0.0000
# 4 0.0000 0.0000 0.0000 49.1429 0.0000 -8.4515
# 5 4.4657 14.2534 6.7689 0.0000 29.7877 0.0000
# 6 0.0000 0.0000 0.0000 -8.4515 0.0000 50.6336
#
#
#
# Elastic Compliance Matrix: (Units=1/GPa)
#
#
# Indices 1 2 3 4 5 6 
#
# 1 0.017358 -0.008105 -0.006318 0.000000 0.002712 0.000000
# 2 -0.008105 0.013763 -0.001061 0.000000 -0.005130 0.000000
# 3 -0.006318 -0.001061 0.013941 0.000000 -0.001713 0.000000
# 4 0.000000 0.000000 0.000000 0.020950 0.000000 0.003497
# 5 0.002712 -0.005130 -0.001713 0.000000 0.036008 0.000000
# 6 0.000000 0.000000 0.000000 0.003497 0.000000 0.020333
#
#
# Mechanical properties :
#
#
# Convention : Reuss Voigt Hill
#
# Bulk Modulus (GPa) = 70.95142 75.07047 73.01094
# Shear Modulus (GPa) = 31.64127 36.87838 34.25983
#
# Velocity S-wave (km/s) = 4.11986 4.44776 4.28695
# Velocity P-wave (km/s) = 7.79047 8.16374 7.97929
#
# Compressibility (1/GPa) = 0.01409415
#
# Stress axis : x y z
#
# Youngs Moduli (GPa) = 57.60952 72.65719 71.72872
#
# Poissons Ratio (x) = 0.58890 0.45320
# Poissons Ratio (y) = 0.46693 0.07611
# Poissons Ratio (z) = 0.36399 0.07709
#
# Static dielectric constant tensor:
#      x y z
#    x 3.414630 0.000000 0.024220 
#    y 0.000000 3.540700 0.000000 
#    z 0.024220 0.000000 3.424360 
# 
# 
# High freq. dielectric constant tensor:
#      x y z
#    x 1.727120 0.000000 0.002080 
#    y 0.000000 1.737560 0.000000 
#    z 0.002080 0.000000 1.721730 
# 
# From -- ./inp_files/62514.got.cif
#   From: 2010.06.25/outbox.cif.g09.slc.cpg/sg10_32_cif.got.tgz:62514.got - 2010.06.27 22:07:45.
