data_PCOD8062092
_publ_section_title
;
Structure prediction by ZEFSAII (Michael W. Deem and Ramdas Pophale) SiO2 
 PCOD8062092
Probable space group: P 2/M
;
_chemical_formula_sum "Si O2"
_cell_formula_units_Z 28
_cell_length_a 13.171809
_cell_length_b 8.855773
_cell_length_c 14.282871
_cell_angle_alpha 90.000000
_cell_angle_beta 122.805814
_cell_angle_gamma 90.000000
_cell_volume 1400.332412
_symmetry_space_group_name_H-M "P 2/M"
_symmetry_group_IT_number 10
_symmetry_cell_setting 'monoclinic'
loop_
_space_group_symop_operation_xyz
x,y,z
-x,y,-z
-x,-y,-z
x,-y,z
loop_
_atom_site_type_symbol
_atom_site_label
_atom_site_fract_x
_atom_site_fract_y
_atom_site_fract_z
Si Si1 0.518431 0.678592 0.902988
Si Si2 0.802468 0.176568 0.557346
Si Si3 0.211438 0.676770 0.258090
Si Si4 0.274481 0.175286 0.107339
Si Si5 0.037169 0.830005 0.880893
Si Si6 0.295825 0.177063 0.690373
Si Si7 0.929652 0.828562 0.311601
O O1 0.523365 0.500000 0.900970
O O2 0.644027 0.743575 0.928825
O O3 0.412203 0.735898 0.783510
O O4 0.500000 0.735703 0.000000
O O5 0.747793 0.260246 0.620424
O O6 0.715451 0.205654 0.426294
O O7 0.937387 0.241987 0.602973
O O8 0.814020 0.000000 0.588067
O O9 0.233758 0.500000 0.266378
O O10 0.294485 0.753484 0.219883
O O11 0.071389 0.712174 0.167193
O O12 0.309044 0.000000 0.126817
O O13 0.134399 0.201796 0.009990
O O14 0.104112 0.814431 0.814510
O O15 0.983780 0.000000 0.864607
O O16 0.177424 0.248480 0.682175
O O17 0.310388 0.000000 0.720512
O O18 0.934706 0.000000 0.349427
#
# Coordination Sequence:
#
# PCOD8062092 Si02
#       7
#     4   4   4   4   4   4   4
#     4  11  25  42  58  81 116 150 179 220 275 333
#     4   9  18  34  56  83 114 146 186 234 276 320
#     4  11  22  35  54  82 117 151 181 221 278 340
#     4  11  22  38  61  83 106 143 192 238 275 319
#     4   9  18  33  55  83 113 145 183 228 275 325
#     4  10  19  34  59  85 109 145 192 236 275 319
#     4   8  14  28  53  84 113 140 176 224 274 321
#
# _framework density 19.995252000000001
#
# number of rings (size 3 to 8) (size 9 to 14) (size 15 to 20)
#    0.000    2.143    0.000    4.714    0.000    7.429 
#    0.000    5.000    0.000    8.571    0.000    0.000 
#    0.000    0.000    0.000    0.000    0.000    0.000 
#
# Total GULP energy -347203.591832 kJ/mol
# GULP energy per Si atom -12400.128280 kJ/mol
# Density = 1.994974 g / cm^3
# Si number density = 19.995252 Si / 1000 Ang^3
#
#
#
# Elastic Constant Matrix: (Units=GPa)
#
#
# Indices 1 2 3 4 5 6 
#
# 1 69.1002 29.0334 24.0788 0.0000 -22.0736 0.0000
# 2 29.0334 76.7961 38.6707 0.0000 -11.1046 0.0000
# 3 24.0788 38.6707 100.1362 0.0000 -14.0774 0.0000
# 4 0.0000 0.0000 0.0000 21.8842 0.0000 -2.9031
# 5 -22.0736 -11.1046 -14.0774 0.0000 29.8819 0.0000
# 6 0.0000 0.0000 0.0000 -2.9031 0.0000 26.2673
#
#
#
# Elastic Compliance Matrix: (Units=1/GPa)
#
#
# Indices 1 2 3 4 5 6 
#
# 1 0.021455 -0.005633 -0.001125 0.000000 0.013226 0.000000
# 2 -0.005633 0.017950 -0.005595 0.000000 -0.000126 0.000000
# 3 -0.001125 -0.005595 0.012860 0.000000 0.003148 0.000000
# 4 0.000000 0.000000 0.000000 0.046375 0.000000 0.005125
# 5 0.013226 -0.000126 0.003148 0.000000 0.044671 0.000000
# 6 0.000000 0.000000 0.000000 0.005125 0.000000 0.038637
#
#
# Mechanical properties :
#
#
# Convention : Reuss Voigt Hill
#
# Bulk Modulus (GPa) = 36.28375 47.73314 42.00845
# Shear Modulus (GPa) = 23.16527 25.88998 24.52763
#
# Velocity S-wave (km/s) = 3.40742 3.60225 3.50619
# Velocity P-wave (km/s) = 5.80227 6.42072 6.11931
#
# Compressibility (1/GPa) = 0.02756055
#
# Stress axis : x y z
#
# Youngs Moduli (GPa) = 46.60900 55.70962 77.75894
#
# Poissons Ratio (x) = 0.31379 0.08745
# Poissons Ratio (y) = 0.26253 0.43509
# Poissons Ratio (z) = 0.05242 0.31172
#
# Static dielectric constant tensor:
#      x y z
#    x 3.630010 0.000000 -0.229620 
#    y 0.000000 3.352590 0.000000 
#    z -0.229620 0.000000 3.626060 
# 
# 
# High freq. dielectric constant tensor:
#      x y z
#    x 1.776230 0.000000 -0.020950 
#    y 0.000000 1.752250 0.000000 
#    z -0.020950 0.000000 1.782460 
# 
# From -- ./inp_files/63902.got.cif
#   From: 2010.06.25/outbox.cif.g09.slc.cpg/sg10_32_cif.got.tgz:63902.got - 2010.06.27 22:07:45.
