data_PCOD8062928
_publ_section_title
;
Structure prediction by ZEFSAII (Michael W. Deem and Ramdas Pophale) SiO2 
 PCOD8062928
Probable space group: P 2/M
;
_chemical_formula_sum "Si O2"
_cell_formula_units_Z 24
_cell_length_a 18.558371
_cell_length_b 9.268757
_cell_length_c 24.534613
_cell_angle_alpha 90.000000
_cell_angle_beta 19.098331
_cell_angle_gamma 90.000000
_cell_volume 1380.832746
_symmetry_space_group_name_H-M "P 2/M"
_symmetry_group_IT_number 10
_symmetry_cell_setting 'monoclinic'
loop_
_space_group_symop_operation_xyz
x,y,z
-x,y,-z
-x,-y,-z
x,-y,z
loop_
_atom_site_type_symbol
_atom_site_label
_atom_site_fract_x
_atom_site_fract_y
_atom_site_fract_z
Si Si1 0.593358 0.158436 0.493667
Si Si2 0.197786 0.829883 0.320368
Si Si3 0.754735 0.841595 0.832307
Si Si4 0.645256 0.665318 0.009587
Si Si5 0.974078 0.334696 0.180751
Si Si6 0.874930 0.170093 0.143255
O O1 0.500000 0.148014 0.500000
O O2 0.793995 0.270622 0.351949
O O3 0.384611 0.208616 0.679550
O O4 0.677969 0.000000 0.451923
O O5 0.127898 0.791425 0.307904
O O6 0.418631 0.749256 0.181061
O O7 0.000000 0.777203 0.500000
O O8 0.243396 0.000000 0.293610
O O9 0.841620 0.000000 0.788311
O O10 0.500000 0.851860 0.000000
O O11 0.789795 0.729316 0.856147
O O12 0.592480 0.500000 0.033255
O O13 0.786384 0.679899 0.963620
O O14 0.910504 0.500000 0.215222
O O15 0.980192 0.250786 0.119507
O O16 0.904629 0.000000 0.132407
O O17 0.000000 0.222874 0.000000
#
# Coordination Sequence:
#
# PCOD8062928 Si02
#       6
#     4   4   4   4   4   4
#     4   8  15  29  49  70  90 117 155 194 231 275
#     4   9  18  33  52  73  96 123 158 198 239 285
#     4   8  15  29  49  70  90 117 155 194 231 275
#     4  10  20  32  47  70  98 127 160 196 235 281
#     4  10  20  32  47  70  98 127 160 196 235 281
#     4   9  18  33  52  73  96 123 158 198 239 285
#
# _framework density 17.380814999999998
#
# number of rings (size 3 to 8) (size 9 to 14) (size 15 to 20)
#    0.000    3.000    0.000    3.000    0.000    9.333 
#    0.000    1.667    0.000   10.000    0.000    0.000 
#    0.000    0.000    0.000    0.000    0.000    0.000 
#
# Total GULP energy -297467.927274 kJ/mol
# GULP energy per Si atom -12394.496970 kJ/mol
# Density = 1.734126 g / cm^3
# Si number density = 17.380815 Si / 1000 Ang^3
#
#
#
# Elastic Constant Matrix: (Units=GPa)
#
#
# Indices 1 2 3 4 5 6 
#
# 1 72.5875 46.8714 50.2599 0.0000 12.5658 0.0000
# 2 46.8714 91.8748 49.7292 0.0000 2.5084 0.0000
# 3 50.2599 49.7292 115.6092 0.0000 25.3103 0.0000
# 4 0.0000 0.0000 0.0000 12.5874 0.0000 -5.1287
# 5 12.5658 2.5084 25.3103 0.0000 29.5164 0.0000
# 6 0.0000 0.0000 0.0000 -5.1287 0.0000 18.3971
#
#
#
# Elastic Compliance Matrix: (Units=1/GPa)
#
#
# Indices 1 2 3 4 5 6 
#
# 1 0.024519 -0.009364 -0.005566 0.000000 -0.004870 0.000000
# 2 -0.009364 0.018378 -0.005374 0.000000 0.007033 0.000000
# 3 -0.005566 -0.005374 0.015712 0.000000 -0.010647 0.000000
# 4 0.000000 0.000000 0.000000 0.089625 0.000000 0.024985
# 5 -0.004870 0.007033 -0.010647 0.000000 0.044485 0.000000
# 6 0.000000 0.000000 0.000000 0.024985 0.000000 0.061322
#
#
# Mechanical properties :
#
#
# Convention : Reuss Voigt Hill
#
# Bulk Modulus (GPa) = 55.54699 63.75472 59.65086
# Shear Modulus (GPa) = 16.63067 20.98092 18.80580
#
# Velocity S-wave (km/s) = 3.09664 3.47815 3.29292
# Velocity P-wave (km/s) = 6.69431 7.27260 6.98944
#
# Compressibility (1/GPa) = 0.01800277
#
# Stress axis : x y z
#
# Youngs Moduli (GPa) = 40.78394 54.41179 63.64480
#
# Poissons Ratio (x) = 0.50949 0.35422
# Poissons Ratio (y) = 0.38188 0.34206
# Poissons Ratio (z) = 0.22699 0.29244
#
# Static dielectric constant tensor:
#      x y z
#    x 3.163030 0.000000 0.345720 
#    y 0.000000 3.285450 0.000000 
#    z 0.345720 0.000000 3.553830 
# 
# 
# High freq. dielectric constant tensor:
#      x y z
#    x 1.649390 0.000000 0.011410 
#    y 0.000000 1.671460 0.000000 
#    z 0.011410 0.000000 1.662290 
# 
# From -- ./inp_files/78596.got.cif
#   From: 2010.06.25/outbox.cif.g09.slc.cpg/sg10_40_cif.got.tgz:78596.got - 2010.06.27 22:07:45.
