data_PCOD8062709
_publ_section_title
;
Structure prediction by ZEFSAII (Michael W. Deem and Ramdas Pophale) SiO2 
 PCOD8062709
Probable space group: P 2/M
;
_chemical_formula_sum "Si O2"
_cell_formula_units_Z 32
_cell_length_a 12.671507
_cell_length_b 18.788893
_cell_length_c 8.750832
_cell_angle_alpha 90.000000
_cell_angle_beta 129.609097
_cell_angle_gamma 90.000000
_cell_volume 1605.099138
_symmetry_space_group_name_H-M "P 2/M"
_symmetry_group_IT_number 10
_symmetry_cell_setting 'monoclinic'
loop_
_space_group_symop_operation_xyz
x,y,z
-x,y,-z
-x,-y,-z
x,-y,z
loop_
_atom_site_type_symbol
_atom_site_label
_atom_site_fract_x
_atom_site_fract_y
_atom_site_fract_z
Si Si1 0.012962 0.157925 0.331598
Si Si2 0.621217 0.705463 0.396208
Si Si3 0.915505 0.311638 0.576652
Si Si4 0.326801 0.318106 0.200925
Si Si5 0.755230 0.079502 0.601140
Si Si6 0.749073 0.162362 0.904435
Si Si7 0.917871 0.579059 0.078320
Si Si8 0.527537 0.140823 0.204686
O O1 0.065561 0.235697 0.320014
O O2 0.116170 0.095459 0.386550
O O3 0.000000 0.159888 0.500000
O O4 0.875072 0.134988 0.119669
O O5 0.749129 0.673777 0.413763
O O6 0.660115 0.699775 0.608888
O O7 0.472624 0.665696 0.249565
O O8 0.597937 0.784684 0.314024
O O9 0.000000 0.305600 0.500000
O O10 0.983237 0.377607 0.721694
O O11 0.257424 0.247129 0.070837
O O12 0.230078 0.385035 0.080818
O O13 0.757426 0.138615 0.736457
O O14 0.625702 0.081605 0.367623
O O15 0.765445 0.000000 0.679522
O O16 0.614113 0.126276 0.843575
O O17 0.891859 0.500000 0.121731
O O18 0.000000 0.572990 0.000000
O O19 0.500000 0.133696 0.000000
#
# Coordination Sequence:
#
# PCOD8062709 Si02
#       8
#     4   4   4   4   4   4   4   4
#     4  11  23  40  65  96 122 160 213 264 317 374
#     4  10  20  36  62  94 125 155 217 260 313 365
#     4  11  22  37  65  93 127 167 205 257 312 377
#     4  10  19  37  64  93 121 168 206 270 311 359
#     4  12  26  43  62  88 125 167 207 261 325 386
#     4  11  22  38  65  92 120 162 214 260 313 375
#     4  11  23  39  62  96 131 167 211 257 313 376
#     4  11  23  39  63  92 125 160 204 267 316 380
#
# _framework density 19.936464999999998
#
# number of rings (size 3 to 8) (size 9 to 14) (size 15 to 20)
#    0.000    1.125    5.000    1.500    1.750    2.750 
#    0.000    3.125    0.000    0.750    0.000    0.000 
#    0.000    0.000    0.000    0.000    0.000    0.000 
#
# Total GULP energy -396553.753608 kJ/mol
# GULP energy per Si atom -12392.304800 kJ/mol
# Density = 1.989109 g / cm^3
# Si number density = 19.936465 Si / 1000 Ang^3
#
#
#
# Elastic Constant Matrix: (Units=GPa)
#
#
# Indices 1 2 3 4 5 6 
#
# 1 130.6709 41.1258 43.2589 0.0000 21.4937 0.0000
# 2 41.1258 98.2218 49.3009 0.0000 15.4458 0.0000
# 3 43.2589 49.3009 105.4858 0.0000 11.5195 0.0000
# 4 0.0000 0.0000 0.0000 24.9235 0.0000 7.6426
# 5 21.4937 15.4458 11.5195 0.0000 37.0417 0.0000
# 6 0.0000 0.0000 0.0000 7.6426 0.0000 17.7198
#
#
#
# Elastic Compliance Matrix: (Units=1/GPa)
#
#
# Indices 1 2 3 4 5 6 
#
# 1 0.009857 -0.002206 -0.002575 0.000000 -0.003999 0.000000
# 2 -0.002206 0.014315 -0.005459 0.000000 -0.002991 0.000000
# 3 -0.002575 -0.005459 0.013121 0.000000 -0.000310 0.000000
# 4 0.000000 0.000000 0.000000 0.046238 0.000000 -0.019943
# 5 -0.003999 -0.002991 -0.000310 0.000000 0.030661 0.000000
# 6 0.000000 0.000000 0.000000 -0.019943 0.000000 0.065035
#
#
# Mechanical properties :
#
#
# Convention : Reuss Voigt Hill
#
# Bulk Modulus (GPa) = 59.47447 66.86109 63.16778
# Shear Modulus (GPa) = 24.35312 29.31653 26.83483
#
# Velocity S-wave (km/s) = 3.49884 3.83887 3.67279
# Velocity P-wave (km/s) = 6.79848 7.29788 7.05260
#
# Compressibility (1/GPa) = 0.01681394
#
# Stress axis : x y z
#
# Youngs Moduli (GPa) = 101.44792 69.85539 76.21321
#
# Poissons Ratio (x) = 0.15411 0.19622
# Poissons Ratio (y) = 0.22381 0.41606
# Poissons Ratio (z) = 0.26119 0.38135
#
# Static dielectric constant tensor:
#      x y z
#    x 3.826520 0.000000 0.268540 
#    y 0.000000 3.855720 0.000000 
#    z 0.268540 0.000000 3.609780 
# 
# 
# High freq. dielectric constant tensor:
#      x y z
#    x 1.791940 0.000000 0.016390 
#    y 0.000000 1.749010 0.000000 
#    z 0.016390 0.000000 1.780680 
# 
# From -- ./inp_files/26111.got.cif
#   From: 2010.06.25/outbox.cif.g09.slc.cpg/sg10_14_cif.got.tgz:26111.got - 2010.06.27 22:07:45.
