data_PCOD8062803
_publ_section_title
;
Structure prediction by ZEFSAII (Michael W. Deem and Ramdas Pophale) SiO2 
 PCOD8062803
Probable space group: P 2/M
;
_chemical_formula_sum "Si O2"
_cell_formula_units_Z 28
_cell_length_a 15.268944
_cell_length_b 7.810441
_cell_length_c 16.558206
_cell_angle_alpha 90.000000
_cell_angle_beta 44.076197
_cell_angle_gamma 90.000000
_cell_volume 1373.619356
_symmetry_space_group_name_H-M "P 2/M"
_symmetry_group_IT_number 10
_symmetry_cell_setting 'monoclinic'
loop_
_space_group_symop_operation_xyz
x,y,z
-x,y,-z
-x,-y,-z
x,-y,z
loop_
_atom_site_type_symbol
_atom_site_label
_atom_site_fract_x
_atom_site_fract_y
_atom_site_fract_z
Si Si1 0.956544 0.000000 0.159744
Si Si2 0.795302 0.000000 0.106363
Si Si3 0.264785 0.689211 0.065360
Si Si4 0.619335 0.302319 0.176457
Si Si5 0.984593 0.693756 0.251288
Si Si6 0.071120 0.301050 0.531960
Si Si7 0.648353 0.201897 0.676343
Si Si8 0.389294 0.808444 0.123998
O O1 0.916838 0.833615 0.239578
O O2 0.869350 0.000000 0.140293
O O3 0.104536 0.000000 0.034437
O O4 0.707781 0.170142 0.166062
O O5 0.297761 0.500000 0.074148
O O6 0.271898 0.809387 0.139829
O O7 0.125091 0.694921 0.122800
O O8 0.361816 0.744598 0.930702
O O9 0.659048 0.500000 0.168545
O O10 0.470541 0.277618 0.295160
O O11 0.926569 0.500000 0.281216
O O12 0.989457 0.752969 0.342148
O O13 0.056888 0.500000 0.528893
O O14 0.217176 0.253731 0.447435
O O15 0.000000 0.214733 0.500000
O O16 0.644346 0.282024 0.769601
O O17 0.636848 0.000000 0.682302
O O18 0.432031 0.000000 0.116944
O O19 0.500000 0.712794 0.000000
#
# Coordination Sequence:
#
# PCOD8062803 Si02
#       8
#     2   2   4   4   4   4   4   4
#     4  11  24  40  68  94 125 162 192 253 319 380
#     4  11  24  42  63  97 127 155 197 247 326 387
#     4  10  20  33  53  81 113 156 202 244 293 352
#     4  11  22  38  61  87 123 161 198 250 306 368
#     4  10  22  40  62  90 122 161 208 250 298 364
#     4  10  22  41  61  86 127 172 214 257 297 348
#     4  11  22  36  56  87 122 162 214 256 302 363
#     4  10  20  30  46  74 115 158 194 241 288 342
#
# _framework density 20.384101999999999
#
# number of rings (size 3 to 8) (size 9 to 14) (size 15 to 20)
#    0.000    1.571    3.571    1.286    3.000    3.429 
#    0.000    1.429    0.000    1.714    0.000    3.000 
#    0.000    0.000    0.000    0.000    0.000    0.000 
#
# Total GULP energy -346885.200801 kJ/mol
# GULP energy per Si atom -12388.757171 kJ/mol
# Density = 2.033771 g / cm^3
# Si number density = 20.384102 Si / 1000 Ang^3
#
#
#
# Elastic Constant Matrix: (Units=GPa)
#
#
# Indices 1 2 3 4 5 6 
#
# 1 92.1015 43.3968 32.4297 0.0000 -3.6656 0.0000
# 2 43.3968 128.6622 10.6011 0.0000 -0.1373 0.0000
# 3 32.4297 10.6011 83.7288 0.0000 -1.5679 0.0000
# 4 0.0000 0.0000 0.0000 22.0835 0.0000 -3.1060
# 5 -3.6656 -0.1373 -1.5679 0.0000 35.7843 0.0000
# 6 0.0000 0.0000 0.0000 -3.1060 0.0000 23.4341
#
#
#
# Elastic Compliance Matrix: (Units=1/GPa)
#
#
# Indices 1 2 3 4 5 6 
#
# 1 0.014892 -0.004596 -0.005162 0.000000 0.001282 0.000000
# 2 -0.004596 0.009273 0.000598 0.000000 -0.000409 0.000000
# 3 -0.005162 0.000598 0.013868 0.000000 0.000081 0.000000
# 4 0.000000 0.000000 0.000000 0.046143 0.000000 0.006116
# 5 0.001282 -0.000409 0.000081 0.000000 0.028079 0.000000
# 6 0.000000 0.000000 0.000000 0.006116 0.000000 0.043483
#
#
# Mechanical properties :
#
#
# Convention : Reuss Voigt Hill
#
# Bulk Modulus (GPa) = 50.72619 53.03863 51.88241
# Shear Modulus (GPa) = 27.68113 30.79802 29.23957
#
# Velocity S-wave (km/s) = 3.68907 3.89123 3.79150
# Velocity P-wave (km/s) = 6.56391 6.80183 6.68393
#
# Compressibility (1/GPa) = 0.01971368
#
# Stress axis : x y z
#
# Youngs Moduli (GPa) = 67.15089 107.84208 72.10642
#
# Poissons Ratio (x) = 0.49567 0.37221
# Poissons Ratio (y) = 0.30864 -0.04316
# Poissons Ratio (z) = 0.34663 -0.06454
#
# Static dielectric constant tensor:
#      x y z
#    x 3.602150 0.000000 -0.447370 
#    y 0.000000 3.723890 0.000000 
#    z -0.447370 0.000000 4.479790 
# 
# 
# High freq. dielectric constant tensor:
#      x y z
#    x 1.770730 0.000000 -0.014010 
#    y 0.000000 1.797470 0.000000 
#    z -0.014010 0.000000 1.779570 
# 
# From -- ./inp_files/63427.got.cif
#   From: 2010.06.25/outbox.cif.g09.slc.cpg/sg10_32_cif.got.tgz:63427.got - 2010.06.27 22:07:45.
