data_PCOD8062909
_publ_section_title
;
Structure prediction by ZEFSAII (Michael W. Deem and Ramdas Pophale) SiO2 
 PCOD8062909
Probable space group: P 2/M
;
_chemical_formula_sum "Si O2"
_cell_formula_units_Z 32
_cell_length_a 16.810150
_cell_length_b 9.384320
_cell_length_c 22.356913
_cell_angle_alpha 90.000000
_cell_angle_beta 31.342473
_cell_angle_gamma 90.000000
_cell_volume 1834.496211
_symmetry_space_group_name_H-M "P 2/M"
_symmetry_group_IT_number 10
_symmetry_cell_setting 'monoclinic'
loop_
_space_group_symop_operation_xyz
x,y,z
-x,y,-z
-x,-y,-z
x,-y,z
loop_
_atom_site_type_symbol
_atom_site_label
_atom_site_fract_x
_atom_site_fract_y
_atom_site_fract_z
Si Si1 0.494279 0.835167 0.370928
Si Si2 0.572678 0.834504 0.718701
Si Si3 0.320315 0.339162 0.171593
Si Si4 0.860235 0.836713 0.808152
Si Si5 0.572498 0.162508 0.065015
Si Si6 0.807574 0.834219 0.362486
Si Si7 0.831665 0.339820 0.602543
Si Si8 0.345937 0.660805 0.636554
O O1 0.505771 0.794691 0.293686
O O2 0.323885 0.801500 0.504506
O O3 0.622408 0.740643 0.321344
O O4 0.534075 0.000000 0.356904
O O5 0.459394 0.790631 0.845884
O O6 0.733026 0.752349 0.619783
O O7 0.613687 0.000000 0.694005
O O8 0.350088 0.500000 0.129930
O O9 0.203068 0.261269 0.203517
O O10 0.482556 0.257931 0.073783
O O11 0.245420 0.337956 0.284066
O O12 0.030539 0.785359 0.714430
O O13 0.861482 0.000000 0.784997
O O14 0.752597 0.820644 0.936015
O O15 0.517649 0.000000 0.090774
O O16 0.782888 0.744509 0.317827
O O17 0.809724 0.000000 0.343342
O O18 0.842912 0.500000 0.569529
O O19 0.000000 0.271879 0.500000
O O20 0.500000 0.661739 0.500000
O O21 0.290108 0.500000 0.685246
#
# Coordination Sequence:
#
# PCOD8062909 Si02
#       8
#     4   4   4   4   4   4   4   4
#     4   9  17  30  49  72  96 120 150 189 230 277
#     4   9  18  31  49  71  91 119 159 196 229 271
#     4  10  20  32  47  68  92 123 163 200 235 276
#     4  10  20  32  49  70  94 124 157 196 238 279
#     4   9  18  34  50  66  92 125 161 198 234 273
#     4   9  18  31  47  70  97 122 149 186 235 280
#     4   9  19  33  45  62  94 130 156 187 235 282
#     4   9  17  30  48  71  97 124 151 181 225 280
#
# _framework density 17.443480999999998
#
# number of rings (size 3 to 8) (size 9 to 14) (size 15 to 20)
#    0.000    2.750    0.000    1.125    1.750    5.250 
#    0.000    0.000    0.000    0.750    0.000    5.250 
#    0.000    0.000    0.000    0.000    0.000    0.000 
#
# Total GULP energy -396783.172103 kJ/mol
# GULP energy per Si atom -12399.474128 kJ/mol
# Density = 1.740378 g / cm^3
# Si number density = 17.443481 Si / 1000 Ang^3
#
#
#
# Elastic Constant Matrix: (Units=GPa)
#
#
# Indices 1 2 3 4 5 6 
#
# 1 128.2346 64.6590 25.8578 0.0000 0.0449 0.0000
# 2 64.6590 83.1545 19.8078 0.0000 -1.3939 0.0000
# 3 25.8578 19.8078 33.5368 0.0000 -8.3238 0.0000
# 4 0.0000 0.0000 0.0000 16.0430 0.0000 -0.1987
# 5 0.0449 -1.3939 -8.3238 0.0000 19.0529 0.0000
# 6 0.0000 0.0000 0.0000 -0.1987 0.0000 17.2710
#
#
#
# Elastic Compliance Matrix: (Units=1/GPa)
#
#
# Indices 1 2 3 4 5 6 
#
# 1 0.013661 -0.009281 -0.005864 0.000000 -0.003273 0.000000
# 2 -0.009281 0.020444 -0.005095 0.000000 -0.000708 0.000000
# 3 -0.005864 -0.005095 0.041791 0.000000 0.017899 0.000000
# 4 0.000000 0.000000 0.000000 0.062341 0.000000 0.000717
# 5 -0.003273 -0.000708 0.017899 0.000000 0.060261 0.000000
# 6 0.000000 0.000000 0.000000 0.000717 0.000000 0.057909
#
#
# Mechanical properties :
#
#
# Convention : Reuss Voigt Hill
#
# Bulk Modulus (GPa) = 28.23519 51.73058 39.98289
# Shear Modulus (GPa) = 16.19732 19.44682 17.82207
#
# Velocity S-wave (km/s) = 3.05053 3.34256 3.19988
# Velocity P-wave (km/s) = 5.35065 6.67963 6.05173
#
# Compressibility (1/GPa) = 0.03541679
#
# Stress axis : x y z
#
# Youngs Moduli (GPa) = 73.19866 48.91387 23.92849
#
# Poissons Ratio (x) = 0.45396 0.14032
# Poissons Ratio (y) = 0.67934 0.12191
# Poissons Ratio (z) = 0.42925 0.24921
#
# Static dielectric constant tensor:
#      x y z
#    x 3.228540 0.000000 0.028700 
#    y 0.000000 3.427640 0.000000 
#    z 0.028700 0.000000 3.149730 
# 
# 
# High freq. dielectric constant tensor:
#      x y z
#    x 1.667500 0.000000 0.004020 
#    y 0.000000 1.675250 0.000000 
#    z 0.004020 0.000000 1.654060 
# 
# From -- ./inp_files/54885.got.cif
#   From: 2010.06.25/outbox.cif.g09.slc.cpg/sg10_28_cif.got.tgz:54885.got - 2010.06.27 22:07:45.
