data_PCOD8062746
_publ_section_title
;
Structure prediction by ZEFSAII (Michael W. Deem and Ramdas Pophale) SiO2 
 PCOD8062746
Probable space group: P 2/M
;
_chemical_formula_sum "Si O2"
_cell_formula_units_Z 28
_cell_length_a 11.419326
_cell_length_b 17.407314
_cell_length_c 19.223761
_cell_angle_alpha 90.000000
_cell_angle_beta 22.938332
_cell_angle_gamma 90.000000
_cell_volume 1489.312195
_symmetry_space_group_name_H-M "P 2/M"
_symmetry_group_IT_number 10
_symmetry_cell_setting 'monoclinic'
loop_
_space_group_symop_operation_xyz
x,y,z
-x,y,-z
-x,-y,-z
x,-y,z
loop_
_atom_site_type_symbol
_atom_site_label
_atom_site_fract_x
_atom_site_fract_y
_atom_site_fract_z
Si Si1 0.637887 0.226005 0.263600
Si Si2 0.273971 0.087783 0.686436
Si Si3 0.300487 0.268424 0.921915
Si Si4 0.286912 0.413463 0.299702
Si Si5 0.815064 0.414828 0.804127
Si Si6 0.256776 0.825365 0.078366
Si Si7 0.769307 0.715954 0.404625
O O1 0.646889 0.140232 0.290360
O O2 0.600328 0.220809 0.201006
O O3 0.353322 0.271959 0.450110
O O4 0.937753 0.273315 0.121575
O O5 0.500000 0.107274 0.500000
O O6 0.931506 0.103445 0.849697
O O7 0.304382 0.000000 0.693735
O O8 0.436288 0.354283 0.843879
O O9 0.409376 0.223278 0.931567
O O10 0.390514 0.500000 0.265691
O O11 0.167721 0.415772 0.287318
O O12 0.000000 0.384875 0.500000
O O13 0.834710 0.500000 0.826018
O O14 0.100595 0.369188 0.677207
O O15 0.500000 0.376025 0.000000
O O16 0.037533 0.773444 0.243679
O O17 0.500000 0.857317 0.000000
O O18 0.500000 0.732882 0.500000
#
# Coordination Sequence:
#
# PCOD8062746 Si02
#       7
#     4   4   4   4   4   4   4
#     4  10  20  36  55  84 114 138 190 235 274 340
#     4  10  19  38  64  86 112 151 187 225 279 339
#     4  10  20  35  54  82 114 147 183 243 284 318
#     4  10  20  36  54  75 107 151 198 229 277 343
#     4  10  22  36  52  77 110 147 188 238 289 333
#     4  11  21  36  57  87 116 147 189 233 282 338
#     4  12  19  34  57  78 110 147 194 237 277 337
#
# _framework density 18.800625
#
# number of rings (size 3 to 8) (size 9 to 14) (size 15 to 20)
#    0.000    1.571    4.286    3.000    0.000    0.571 
#    0.000    7.857    0.000    0.000    0.000    2.000 
#    0.000    0.000    0.000    0.000    0.000    0.000 
#
# Total GULP energy -347145.518793 kJ/mol
# GULP energy per Si atom -12398.054243 kJ/mol
# Density = 1.875783 g / cm^3
# Si number density = 18.800625 Si / 1000 Ang^3
#
#
#
# Elastic Constant Matrix: (Units=GPa)
#
#
# Indices 1 2 3 4 5 6 
#
# 1 63.0924 15.7834 23.5752 0.0000 8.3249 0.0000
# 2 15.7834 104.4134 44.0205 0.0000 -3.8471 0.0000
# 3 23.5752 44.0205 91.4721 0.0000 15.1671 0.0000
# 4 0.0000 0.0000 0.0000 32.2294 0.0000 -10.7465
# 5 8.3249 -3.8471 15.1671 0.0000 31.3330 0.0000
# 6 0.0000 0.0000 0.0000 -10.7465 0.0000 80.1897
#
#
#
# Elastic Compliance Matrix: (Units=1/GPa)
#
#
# Indices 1 2 3 4 5 6 
#
# 1 0.017902 -0.001394 -0.003399 0.000000 -0.003282 0.000000
# 2 -0.001394 0.012780 -0.006646 0.000000 0.005157 0.000000
# 3 -0.003399 -0.006646 0.016300 0.000000 -0.007803 0.000000
# 4 0.000000 0.000000 0.000000 0.032479 0.000000 0.004353
# 5 -0.003282 0.005157 -0.007803 0.000000 0.037198 0.000000
# 6 0.000000 0.000000 0.000000 0.004353 0.000000 0.013054
#
#
# Mechanical properties :
#
#
# Convention : Reuss Voigt Hill
#
# Bulk Modulus (GPa) = 41.48606 47.30402 44.39504
# Shear Modulus (GPa) = 31.12842 40.45700 35.79271
#
# Velocity S-wave (km/s) = 4.07346 4.64389 4.36799
# Velocity P-wave (km/s) = 6.65119 7.34641 7.00743
#
# Compressibility (1/GPa) = 0.02410448
#
# Stress axis : x y z
#
# Youngs Moduli (GPa) = 55.86107 78.24720 61.34782
#
# Poissons Ratio (x) = 0.10909 0.20850
# Poissons Ratio (y) = 0.07788 0.40772
# Poissons Ratio (z) = 0.18985 0.52003
#
# Static dielectric constant tensor:
#      x y z
#    x 3.465390 0.000000 0.192980 
#    y 0.000000 3.428400 0.000000 
#    z 0.192980 0.000000 3.819780 
# 
# 
# High freq. dielectric constant tensor:
#      x y z
#    x 1.721050 0.000000 0.019280 
#    y 0.000000 1.714610 0.000000 
#    z 0.019280 0.000000 1.738580 
# 
# From -- ./inp_files/30095.got.cif
#   From: 2010.06.25/outbox.cif.g09.slc.cpg/sg10_16_cif.got.tgz:30095.got - 2010.06.27 22:07:45.
