data_PCOD8062758
_publ_section_title
;
Structure prediction by ZEFSAII (Michael W. Deem and Ramdas Pophale) SiO2 
 PCOD8062758
Probable space group: P 2/M
;
_chemical_formula_sum "Si O2"
_cell_formula_units_Z 32
_cell_length_a 30.163114
_cell_length_b 8.975260
_cell_length_c 12.889373
_cell_angle_alpha 90.000000
_cell_angle_beta 27.872595
_cell_angle_gamma 90.000000
_cell_volume 1631.335057
_symmetry_space_group_name_H-M "P 2/M"
_symmetry_group_IT_number 10
_symmetry_cell_setting 'monoclinic'
loop_
_space_group_symop_operation_xyz
x,y,z
-x,y,-z
-x,-y,-z
x,-y,z
loop_
_atom_site_type_symbol
_atom_site_label
_atom_site_fract_x
_atom_site_fract_y
_atom_site_fract_z
Si Si1 0.398628 0.825090 0.749688
Si Si2 0.782803 0.327952 0.545897
Si Si3 0.594952 0.667546 0.052308
Si Si4 0.765223 0.823860 0.370646
Si Si5 0.566072 0.328376 0.770272
Si Si6 0.899192 0.323292 0.502518
Si Si7 0.884794 0.675919 0.944235
Si Si8 0.785258 0.324276 0.936701
O O1 0.500000 0.767047 0.500000
O O2 0.388534 0.000000 0.757313
O O3 0.387049 0.783524 0.893834
O O4 0.318424 0.748363 0.845942
O O5 0.806415 0.500000 0.473942
O O6 0.672313 0.306576 0.802347
O O7 0.805250 0.233558 0.397429
O O8 0.847844 0.265621 0.504661
O O9 0.607071 0.500000 0.072009
O O10 0.490986 0.689338 0.219138
O O11 0.658696 0.770849 0.570035
O O12 0.767726 0.000000 0.364272
O O13 0.832338 0.762050 0.143044
O O14 0.595855 0.500000 0.728428
O O15 0.500000 0.270491 0.000000
O O16 0.894840 0.500000 0.516248
O O17 0.844398 0.260207 0.716543
O O18 0.006993 0.267922 0.280947
O O19 0.877200 0.500000 0.980251
O O20 0.839502 0.721154 0.928535
O O21 0.772658 0.500000 0.954237
#
# Coordination Sequence:
#
# PCOD8062758 Si02
#       8
#     4   4   4   4   4   4   4   4
#     4  11  25  40  55  84 127 166 195 233 290 356
#     4  10  19  38  65  90 119 153 198 252 300 352
#     4  10  20  37  63  89 114 149 198 252 296 346
#     4  12  26  40  56  85 127 165 200 243 292 357
#     4  10  20  38  62  86 113 149 194 242 291 346
#     4   9  18  37  67  96 116 143 194 258 310 350
#     4  10  22  40  64  91 119 155 198 249 305 355
#     4  10  20  39  66  93 118 150 200 253 298 353
#
# _framework density 19.615835000000001
#
# number of rings (size 3 to 8) (size 9 to 14) (size 15 to 20)
#    0.000    1.750    2.500    1.875    1.750    4.750 
#    0.000    3.750    0.000    1.500    0.000    0.000 
#    0.000    0.000    0.000    0.000    0.000    0.000 
#
# Total GULP energy -396933.331641 kJ/mol
# GULP energy per Si atom -12404.166614 kJ/mol
# Density = 1.957119 g / cm^3
# Si number density = 19.615835 Si / 1000 Ang^3
#
#
#
# Elastic Constant Matrix: (Units=GPa)
#
#
# Indices 1 2 3 4 5 6 
#
# 1 153.5331 49.9522 78.1735 0.0000 -4.9661 0.0000
# 2 49.9522 59.7456 53.4768 0.0000 3.6708 0.0000
# 3 78.1735 53.4768 140.9664 0.0000 -8.0967 0.0000
# 4 0.0000 0.0000 0.0000 -0.9506 0.0000 8.7549
# 5 -4.9661 3.6708 -8.0967 0.0000 31.1024 0.0000
# 6 0.0000 0.0000 0.0000 8.7549 0.0000 8.4172
#
#
#
# Elastic Compliance Matrix: (Units=1/GPa)
#
#
# Indices 1 2 3 4 5 6 
#
# 1 0.010079 -0.005415 -0.003458 0.000000 0.001348 0.000000
# 2 -0.005415 0.029242 -0.008465 0.000000 -0.006519 0.000000
# 3 -0.003458 -0.008465 0.012434 0.000000 0.003684 0.000000
# 4 0.000000 0.000000 0.000000 -0.099436 0.000000 0.103425
# 5 0.001348 -0.006519 0.003684 0.000000 0.034096 0.000000
# 6 0.000000 0.000000 0.000000 0.103425 0.000000 0.011229
#
#
# Mechanical properties :
#
#
# Convention : Reuss Voigt Hill
#
# Bulk Modulus (GPa) = 58.54645 79.71666 69.13156
# Shear Modulus (GPa) = 131.53511 19.22334 75.37922
#
# Velocity S-wave (km/s) = 8.19763 3.13388 6.20574
# Velocity P-wave (km/s) = 10.93219 7.33635 9.30954
#
# Compressibility (1/GPa) = 0.01708045
#
# Stress axis : x y z
#
# Youngs Moduli (GPa) = 99.21423 34.19726 80.42285
#
# Poissons Ratio (x) = 0.18517 0.27809
# Poissons Ratio (y) = 0.53723 0.68077
# Poissons Ratio (z) = 0.34307 0.28948
#
# Static dielectric constant tensor:
#      x y z
#    x 3.726910 0.000000 -0.086420 
#    y 0.000000 3.250800 0.000000 
#    z -0.086420 0.000000 3.668120 
# 
# 
# High freq. dielectric constant tensor:
#      x y z
#    x 1.781240 0.000000 -0.003130 
#    y 0.000000 1.733010 0.000000 
#    z -0.003130 0.000000 1.767660 
# 
# From -- ./inp_files/58167.got.cif
#   From: 2010.06.25/outbox.cif.g09.slc.cpg/sg10_30_cif.got.tgz:58167.got - 2010.06.27 22:07:45.
