data_PCOD8062348
_publ_section_title
;
Structure prediction by ZEFSAII (Michael W. Deem and Ramdas Pophale) SiO2 
 PCOD8062348
Probable space group: P 2/M
;
_chemical_formula_sum "Si O2"
_cell_formula_units_Z 26
_cell_length_a 21.359996
_cell_length_b 14.100648
_cell_length_c 19.170213
_cell_angle_alpha 90.000000
_cell_angle_beta 12.613386
_cell_angle_gamma 90.000000
_cell_volume 1260.847652
_symmetry_space_group_name_H-M "P 2/M"
_symmetry_group_IT_number 10
_symmetry_cell_setting 'monoclinic'
loop_
_space_group_symop_operation_xyz
x,y,z
-x,y,-z
-x,-y,-z
x,-y,z
loop_
_atom_site_type_symbol
_atom_site_label
_atom_site_fract_x
_atom_site_fract_y
_atom_site_fract_z
Si Si1 0.541344 0.205233 0.765905
Si Si2 0.984288 0.674873 0.677250
Si Si3 0.205095 0.605715 0.972128
Si Si4 0.181074 0.500000 0.371866
Si Si5 0.492326 0.000000 0.777570
Si Si6 0.823802 0.850443 0.129629
Si Si7 0.117814 0.000000 0.048801
Si Si8 0.736692 0.714998 0.411691
O O1 0.796345 0.243773 0.536588
O O2 0.479165 0.092647 0.842388
O O3 0.624701 0.214562 0.593622
O O4 0.265780 0.266226 0.089054
O O5 0.126445 0.596545 0.473678
O O6 0.835030 0.617274 0.901681
O O7 0.299457 0.500000 0.851145
O O8 0.460561 0.676272 0.669296
O O9 0.901031 0.626492 0.267411
O O10 0.000000 0.500000 0.500000
O O11 0.500000 0.500000 0.000000
O O12 0.238325 0.000000 0.996364
O O13 0.778380 0.000000 0.421280
O O14 0.500000 0.819047 0.500000
O O15 0.783422 0.908854 0.102406
O O16 0.000000 0.906217 0.000000
O O17 0.036790 0.762150 0.886387
#
# Coordination Sequence:
#
# PCOD8062348 Si02
#       8
#     4   4   4   2   2   4   2   4
#     4  10  21  36  60  84 124 157 196 255 300 350
#     4  10  21  38  57  93 125 161 200 232 289 360
#     4  10  19  35  59  83 111 143 186 245 299 355
#     4  12  24  40  66 100 140 174 194 235 288 343
#     4  12  22  37  62  90 122 155 194 259 321 348
#     4  12  24  39  55  75 111 156 199 241 304 378
#     4  12  24  37  56  82 118 145 202 241 303 390
#     4  10  21  34  56  80 107 146 194 246 305 348
#
# _framework density 20.621047000000001
#
# number of rings (size 3 to 8) (size 9 to 14) (size 15 to 20)
#    0.000    1.231    2.308    4.615    4.308    0.000 
#    0.000    0.000    0.000    9.231    0.000   10.769 
#    0.000    0.000    0.000    0.000    0.000    0.000 
#
# Total GULP energy -322297.233314 kJ/mol
# GULP energy per Si atom -12396.047435 kJ/mol
# Density = 2.057411 g / cm^3
# Si number density = 20.621047 Si / 1000 Ang^3
#
#
#
# Elastic Constant Matrix: (Units=GPa)
#
#
# Indices 1 2 3 4 5 6 
#
# 1 48.6896 16.7084 14.4784 0.0000 -8.5248 0.0000
# 2 16.7084 126.3092 36.9318 0.0000 8.2211 0.0000
# 3 14.4784 36.9318 126.8590 0.0000 -5.2695 0.0000
# 4 0.0000 0.0000 0.0000 33.6150 0.0000 -9.2063
# 5 -8.5248 8.2211 -5.2695 0.0000 33.7968 0.0000
# 6 0.0000 0.0000 0.0000 -9.2063 0.0000 29.5853
#
#
#
# Elastic Compliance Matrix: (Units=1/GPa)
#
#
# Indices 1 2 3 4 5 6 
#
# 1 0.023134 -0.003036 -0.001493 0.000000 0.006341 0.000000
# 2 -0.003036 0.009270 -0.002494 0.000000 -0.003410 0.000000
# 3 -0.001493 -0.002494 0.008846 0.000000 0.001609 0.000000
# 4 0.000000 0.000000 0.000000 0.032520 0.000000 0.010120
# 5 0.006341 -0.003410 0.001609 0.000000 0.032268 0.000000
# 6 0.000000 0.000000 0.000000 0.010120 0.000000 0.036950
#
#
# Mechanical properties :
#
#
# Convention : Reuss Voigt Hill
#
# Bulk Modulus (GPa) = 36.75936 48.67722 42.71829
# Shear Modulus (GPa) = 30.10185 34.98203 32.54194
#
# Velocity S-wave (km/s) = 3.82483 4.12323 3.97683
# Velocity P-wave (km/s) = 6.11315 6.80624 6.46898
#
# Compressibility (1/GPa) = 0.02720396
#
# Stress axis : x y z
#
# Youngs Moduli (GPa) = 43.22554 107.87680 113.04550
#
# Poissons Ratio (x) = 0.32757 0.16877
# Poissons Ratio (y) = 0.13125 0.28191
# Poissons Ratio (z) = 0.06453 0.26902
#
# Static dielectric constant tensor:
#      x y z
#    x 3.525270 0.000000 -0.248390 
#    y 0.000000 3.714570 0.000000 
#    z -0.248390 0.000000 3.835510 
# 
# 
# High freq. dielectric constant tensor:
#      x y z
#    x 1.772940 0.000000 -0.032660 
#    y 0.000000 1.807640 0.000000 
#    z -0.032660 0.000000 1.815590 
# 
# From -- ./inp_files/86621.got.cif
#   From: 2010.06.25/outbox.cif.g09.slc.cpg/sg10_44_cif.got.tgz:86621.got - 2010.06.27 22:07:45.
