data_PCOD8062200
_publ_section_title
;
Structure prediction by ZEFSAII (Michael W. Deem and Ramdas Pophale) SiO2 
 PCOD8062200
Probable space group: P 2/M
;
_chemical_formula_sum "Si O2"
_cell_formula_units_Z 32
_cell_length_a 14.714927
_cell_length_b 9.131643
_cell_length_c 15.115170
_cell_angle_alpha 90.000000
_cell_angle_beta 121.159678
_cell_angle_gamma 90.000000
_cell_volume 1738.025424
_symmetry_space_group_name_H-M "P 2/M"
_symmetry_group_IT_number 10
_symmetry_cell_setting 'monoclinic'
loop_
_space_group_symop_operation_xyz
x,y,z
-x,y,-z
-x,-y,-z
x,-y,z
loop_
_atom_site_type_symbol
_atom_site_label
_atom_site_fract_x
_atom_site_fract_y
_atom_site_fract_z
Si Si1 0.337690 0.326512 0.159975
Si Si2 0.559917 0.174014 0.301905
Si Si3 0.002367 0.673099 0.765484
Si Si4 0.286125 0.169322 0.777244
Si Si5 0.783784 0.673054 0.729909
Si Si6 0.608926 0.671917 0.504415
Si Si7 0.046707 0.169997 0.615397
Si Si8 0.762842 0.327557 0.075185
O O1 0.359793 0.500000 0.175412
O O2 0.444712 0.241027 0.231829
O O3 0.254018 0.275769 0.192475
O O4 0.290384 0.276624 0.042535
O O5 0.627632 0.221340 0.250420
O O6 0.615433 0.239352 0.416624
O O7 0.553607 0.000000 0.308319
O O8 0.999641 0.500000 0.754244
O O9 0.987059 0.741072 0.661307
O O10 0.114116 0.725289 0.864044
O O11 0.904201 0.729662 0.775928
O O12 0.171572 0.203032 0.678164
O O13 0.301924 0.256698 0.876558
O O14 0.299854 0.000000 0.807545
O O15 0.780296 0.500000 0.723745
O O16 0.704820 0.731337 0.613872
O O17 0.500000 0.706615 0.500000
O O18 0.618236 0.500000 0.487905
O O19 0.000000 0.227388 0.500000
O O20 0.021779 0.000000 0.617486
O O21 0.756324 0.500000 0.083799
#
# Coordination Sequence:
#
# PCOD8062200 Si02
#       8
#     4   4   4   4   4   4   4   4
#     4  10  20  37  57  77 105 141 178 215 262 319
#     4  11  23  36  53  80 108 138 178 222 263 306
#     4   9  18  33  52  79 108 132 170 217 260 305
#     4   9  20  37  53  73 106 142 173 213 268 319
#     4   9  18  33  54  79 108 141 173 207 259 319
#     4  10  19  35  56  76 106 146 177 209 260 317
#     4   9  18  33  52  72  99 138 177 210 255 313
#     4   9  19  35  57  81 104 134 176 225 263 302
#
# _framework density 18.4117
#
# number of rings (size 3 to 8) (size 9 to 14) (size 15 to 20)
#    0.000    2.500    1.250    0.375    1.750    3.000 
#    0.000    5.625    0.000    0.000    0.000    4.375 
#    0.000    0.000    0.000    0.000    0.000    0.000 
#
# Total GULP energy -396815.669405 kJ/mol
# GULP energy per Si atom -12400.489669 kJ/mol
# Density = 1.836979 g / cm^3
# Si number density = 18.411700 Si / 1000 Ang^3
#
#
#
# Elastic Constant Matrix: (Units=GPa)
#
#
# Indices 1 2 3 4 5 6 
#
# 1 95.0636 19.6338 18.1162 0.0000 -28.1348 0.0000
# 2 19.6338 27.7258 20.2409 0.0000 -10.9725 0.0000
# 3 18.1162 20.2409 103.0527 0.0000 -29.2271 0.0000
# 4 0.0000 0.0000 0.0000 7.7652 0.0000 6.3093
# 5 -28.1348 -10.9725 -29.2271 0.0000 24.4121 0.0000
# 6 0.0000 0.0000 0.0000 6.3093 0.0000 17.3124
#
#
#
# Elastic Compliance Matrix: (Units=1/GPa)
#
#
# Indices 1 2 3 4 5 6 
#
# 1 0.017949 -0.007010 0.004837 0.000000 0.023327 0.000000
# 2 -0.007010 0.048084 -0.006623 0.000000 0.005604 0.000000
# 3 0.004837 -0.006623 0.016490 0.000000 0.022341 0.000000
# 4 0.000000 0.000000 0.000000 0.182956 0.000000 -0.066676
# 5 0.023327 0.005604 0.022341 0.000000 0.097114 0.000000
# 6 0.000000 0.000000 0.000000 -0.066676 0.000000 0.082062
#
#
# Mechanical properties :
#
#
# Convention : Reuss Voigt Hill
#
# Bulk Modulus (GPa) = 15.40062 37.98044 26.69053
# Shear Modulus (GPa) = 10.33292 21.08801 15.71046
#
# Velocity S-wave (km/s) = 2.37157 3.38799 2.92428
# Velocity P-wave (km/s) = 3.98520 5.99815 5.09213
#
# Compressibility (1/GPa) = 0.06493246
#
# Stress axis : x y z
#
# Youngs Moduli (GPa) = 55.71337 20.79679 60.64108
#
# Poissons Ratio (x) = 0.14579 -0.29334
# Poissons Ratio (y) = 0.39057 0.40160
# Poissons Ratio (z) = -0.26950 0.13773
#
# Static dielectric constant tensor:
#      x y z
#    x 3.686700 0.000000 -0.074350 
#    y 0.000000 3.180340 0.000000 
#    z -0.074350 0.000000 3.566530 
# 
# 
# High freq. dielectric constant tensor:
#      x y z
#    x 1.721380 0.000000 -0.002410 
#    y 0.000000 1.692020 0.000000 
#    z -0.002410 0.000000 1.719710 
# 
# From -- ./inp_files/66485.got.cif
#   From: 2010.06.25/outbox.cif.g09.slc.cpg/sg10_34_cif.got.tgz:66485.got - 2010.06.27 22:07:45.
