data_PCOD8062814
_publ_section_title
;
Structure prediction by ZEFSAII (Michael W. Deem and Ramdas Pophale) SiO2 
 PCOD8062814
Probable space group: P 2/M
;
_chemical_formula_sum "Si O2"
_cell_formula_units_Z 32
_cell_length_a 21.407847
_cell_length_b 13.850597
_cell_length_c 22.653892
_cell_angle_alpha 90.000000
_cell_angle_beta 160.907750
_cell_angle_gamma 90.000000
_cell_volume 2197.109406
_symmetry_space_group_name_H-M "P 2/M"
_symmetry_group_IT_number 10
_symmetry_cell_setting 'monoclinic'
loop_
_space_group_symop_operation_xyz
x,y,z
-x,y,-z
-x,-y,-z
x,-y,z
loop_
_atom_site_type_symbol
_atom_site_label
_atom_site_fract_x
_atom_site_fract_y
_atom_site_fract_z
Si Si1 0.832740 0.612596 0.699939
Si Si2 0.573801 0.106958 0.999998
Si Si3 0.281999 0.259255 0.707920
Si Si4 0.788158 0.607268 0.788157
Si Si5 0.432854 0.387404 0.300056
Si Si6 0.223742 0.384917 0.999998
Si Si7 0.866155 0.740744 0.292076
Si Si8 0.635394 0.385513 0.999997
O O1 0.873719 0.500000 0.748505
O O2 0.788377 0.660867 0.724561
O O3 0.657706 0.630429 0.499995
O O4 0.014205 0.656796 0.828363
O O5 0.412776 0.163144 0.817916
O O6 0.604255 0.000000 0.999998
O O7 0.500000 0.098067 0.000000
O O8 0.776938 0.163146 0.182077
O O9 0.210153 0.271117 0.710153
O O10 0.418267 0.350043 0.815845
O O11 0.098389 0.254939 0.499997
O O12 0.701523 0.500000 0.701520
O O13 0.660746 0.660867 0.724558
O O14 0.000000 0.601605 0.000000
O O15 0.376692 0.500000 0.251484
O O16 0.357463 0.343203 0.171626
O O17 0.227086 0.500000 0.000003
O O18 0.293841 0.344464 0.000002
O O19 0.786573 0.649955 0.184151
O O20 0.632445 0.500000 0.999994
#
# Coordination Sequence:
#
# PCOD8062814 Si02
#       8
#     4   4   4   4   4   4   4   4
#     4   9  15  22  32  45  61  81 107 143 189 236
#     4   8  14  26  45  68  90 106 118 139 181 239
#     4   9  18  31  45  62  82 102 128 163 200 240
#     4   9  13  19  31  44  61  81 102 135 183 234
#     4   9  15  22  32  45  61  81 107 143 189 236
#     4   9  17  27  35  46  63  86 119 161 200 234
#     4   9  18  31  45  62  82 102 128 163 200 240
#     4  10  20  31  42  54  73 103 140 178 213 239
#
# _framework density 14.564591
#
# number of rings (size 3 to 8) (size 9 to 14) (size 15 to 20)
#    0.000    3.000    1.250    1.500    0.000    4.500 
#    0.000    6.250    0.000    0.000    0.000    0.000 
#    0.000    0.000    0.000    0.000    0.000    0.000 
#
# Total GULP energy -396467.853652 kJ/mol
# GULP energy per Si atom -12389.620427 kJ/mol
# Density = 1.453144 g / cm^3
# Si number density = 14.564591 Si / 1000 Ang^3
#
#
#
# Elastic Constant Matrix: (Units=GPa)
#
#
# Indices 1 2 3 4 5 6 
#
# 1 61.3709 19.1996 41.3850 0.0000 -0.2136 0.0000
# 2 19.1996 55.0181 32.0904 0.0000 1.1396 0.0000
# 3 41.3850 32.0904 134.2862 0.0000 6.6599 0.0000
# 4 0.0000 0.0000 0.0000 8.5127 0.0000 0.7050
# 5 -0.2136 1.1396 6.6599 0.0000 9.3771 0.0000
# 6 0.0000 0.0000 0.0000 0.7050 0.0000 0.5320
#
#
#
# Elastic Compliance Matrix: (Units=1/GPa)
#
#
# Indices 1 2 3 4 5 6 
#
# 1 0.021616 -0.004200 -0.005916 0.000000 0.005204 0.000000
# 2 -0.004200 0.021946 -0.003952 0.000000 0.000044 0.000000
# 3 -0.005916 -0.003952 0.010570 0.000000 -0.007161 0.000000
# 4 0.000000 0.000000 0.000000 0.131951 0.000000 -0.174849
# 5 0.005204 0.000044 -0.007161 0.000000 0.111842 0.000000
# 6 0.000000 0.000000 0.000000 -0.174849 0.000000 2.111404
#
#
# Mechanical properties :
#
#
# Convention : Reuss Voigt Hill
#
# Bulk Modulus (GPa) = 38.46996 48.44725 43.45861
# Shear Modulus (GPa) = 2.04404 14.21771 8.13088
#
# Velocity S-wave (km/s) = 1.18595 3.12778 2.36532
# Velocity P-wave (km/s) = 5.32410 6.81028 6.11253
#
# Compressibility (1/GPa) = 0.02599431
#
# Stress axis : x y z
#
# Youngs Moduli (GPa) = 46.26203 45.56666 94.61083
#
# Poissons Ratio (x) = 0.19140 0.55972
# Poissons Ratio (y) = 0.19432 0.37391
# Poissons Ratio (z) = 0.27369 0.18008
#
# Static dielectric constant tensor:
#      x y z
#    x 2.947240 0.000000 0.005190 
#    y 0.000000 2.412980 0.000000 
#    z 0.005190 0.000000 3.005810 
# 
# 
# High freq. dielectric constant tensor:
#      x y z
#    x 1.551940 0.000000 0.002040 
#    y 0.000000 1.477560 0.000000 
#    z 0.002040 0.000000 1.575010 
# 
# From -- ./inp_files/86349.got.cif
#   From: 2010.06.25/outbox.cif.g09.slc.cpg/sg10_44_cif.got.tgz:86349.got - 2010.06.27 22:07:45.
