data_PCOD8062627
_publ_section_title
;
Structure prediction by ZEFSAII (Michael W. Deem and Ramdas Pophale) SiO2 
 PCOD8062627
Probable space group: P 2/M
;
_chemical_formula_sum "Si O2"
_cell_formula_units_Z 32
_cell_length_a 15.009768
_cell_length_b 8.454531
_cell_length_c 19.003201
_cell_angle_alpha 90.000000
_cell_angle_beta 40.395187
_cell_angle_gamma 90.000000
_cell_volume 1562.797651
_symmetry_space_group_name_H-M "P 2/M"
_symmetry_group_IT_number 10
_symmetry_cell_setting 'monoclinic'
loop_
_space_group_symop_operation_xyz
x,y,z
-x,y,-z
-x,-y,-z
x,-y,z
loop_
_atom_site_type_symbol
_atom_site_label
_atom_site_fract_x
_atom_site_fract_y
_atom_site_fract_z
Si Si1 0.851581 0.315598 0.384196
Si Si2 0.035836 0.313298 0.402177
Si Si3 0.945749 0.817686 0.186793
Si Si4 0.688283 0.314671 0.835655
Si Si5 0.288316 0.314627 0.764747
Si Si6 0.782877 0.681361 0.034489
Si Si7 0.591870 0.182160 0.036119
Si Si8 0.447430 0.185914 0.454272
O O1 0.873551 0.500000 0.355412
O O2 0.935425 0.217981 0.275544
O O3 0.691796 0.275859 0.479776
O O4 0.914096 0.267158 0.421939
O O5 0.049278 0.500000 0.401957
O O6 0.181867 0.247341 0.286006
O O7 0.000000 0.238120 0.500000
O O8 0.799618 0.778721 0.240093
O O9 0.983844 0.000000 0.152614
O O10 0.060916 0.710338 0.081737
O O11 0.704001 0.500000 0.840333
O O12 0.548926 0.281758 0.876280
O O13 0.684285 0.230073 0.913716
O O14 0.284557 0.500000 0.749881
O O15 0.228721 0.275472 0.876939
O O16 0.442530 0.247990 0.668415
O O17 0.744073 0.500000 0.043732
O O18 0.677990 0.789723 0.054640
O O19 0.551362 0.000000 0.054515
O O20 0.500000 0.232381 0.500000
O O21 0.422849 0.000000 0.461627
#
# Coordination Sequence:
#
# PCOD8062627 Si02
#       8
#     4   4   4   4   4   4   4   4
#     4  11  22  38  65  93 120 161 209 253 299 359
#     4   9  20  38  60  89 121 153 195 248 301 352
#     4  12  24  39  61  89 123 159 197 247 306 364
#     4  10  19  36  63  88 118 158 200 247 299 361
#     4  11  24  41  63  88 117 158 204 251 299 361
#     4  11  24  41  60  87 121 157 202 249 301 364
#     4  11  22  37  59  88 121 156 198 249 303 361
#     4  11  23  40  62  89 123 160 200 253 307 357
#
# _framework density 20.476098
#
# number of rings (size 3 to 8) (size 9 to 14) (size 15 to 20)
#    0.000    1.250    1.250    6.000    0.000    6.000 
#    0.000    4.375    0.000    5.250    0.000    0.000 
#    0.000    0.000    0.000    0.000    0.000    0.000 
#
# Total GULP energy -397006.785238 kJ/mol
# GULP energy per Si atom -12406.462039 kJ/mol
# Density = 2.042949 g / cm^3
# Si number density = 20.476098 Si / 1000 Ang^3
#
#
#
# Elastic Constant Matrix: (Units=GPa)
#
#
# Indices 1 2 3 4 5 6 
#
# 1 104.5015 24.3973 56.6240 0.0000 4.4273 0.0000
# 2 24.3973 60.3134 10.9660 0.0000 7.7735 0.0000
# 3 56.6240 10.9660 126.2155 0.0000 -2.8404 0.0000
# 4 0.0000 0.0000 0.0000 13.6075 0.0000 -0.9838
# 5 4.4273 7.7735 -2.8404 0.0000 30.8315 0.0000
# 6 0.0000 0.0000 0.0000 -0.9838 0.0000 15.1477
#
#
#
# Elastic Compliance Matrix: (Units=1/GPa)
#
#
# Indices 1 2 3 4 5 6 
#
# 1 0.013814 -0.004340 -0.005853 0.000000 -0.001429 0.000000
# 2 -0.004340 0.018824 0.000219 0.000000 -0.004103 0.000000
# 3 -0.005853 0.000219 0.010569 0.000000 0.001759 0.000000
# 4 0.000000 0.000000 0.000000 0.073836 0.000000 0.004796
# 5 -0.001429 -0.004103 0.001759 0.000000 0.033836 0.000000
# 6 0.000000 0.000000 0.000000 0.004796 0.000000 0.066328
#
#
# Mechanical properties :
#
#
# Convention : Reuss Voigt Hill
#
# Bulk Modulus (GPa) = 42.98973 52.77833 47.88403
# Shear Modulus (GPa) = 20.41585 25.18688 22.80137
#
# Velocity S-wave (km/s) = 3.16105 3.51103 3.34063
# Velocity P-wave (km/s) = 5.86205 6.50138 6.18998
#
# Compressibility (1/GPa) = 0.02326137
#
# Stress axis : x y z
#
# Youngs Moduli (GPa) = 72.38979 53.12238 94.61527
#
# Poissons Ratio (x) = 0.23054 0.55374
# Poissons Ratio (y) = 0.31415 -0.02073
# Poissons Ratio (z) = 0.42366 -0.01164
#
# Static dielectric constant tensor:
#      x y z
#    x 3.703410 0.000000 0.021660 
#    y 0.000000 3.677320 0.000000 
#    z 0.021660 0.000000 3.894480 
# 
# 
# High freq. dielectric constant tensor:
#      x y z
#    x 1.802380 0.000000 -0.005230 
#    y 0.000000 1.796810 0.000000 
#    z -0.005230 0.000000 1.809280 
# 
# From -- ./inp_files/84720.got.cif
#   From: 2010.06.25/outbox.cif.g09.slc.cpg/sg10_43_cif.got.tgz:84720.got - 2010.06.27 22:07:45.
