data_PCOD8062199
_publ_section_title
;
Structure prediction by ZEFSAII (Michael W. Deem and Ramdas Pophale) SiO2 
 PCOD8062199
Probable space group: P 2/M
;
_chemical_formula_sum "Si O2"
_cell_formula_units_Z 32
_cell_length_a 12.096426
_cell_length_b 8.899588
_cell_length_c 19.933846
_cell_angle_alpha 90.000000
_cell_angle_beta 54.433404
_cell_angle_gamma 90.000000
_cell_volume 1745.595451
_symmetry_space_group_name_H-M "P 2/M"
_symmetry_group_IT_number 10
_symmetry_cell_setting 'monoclinic'
loop_
_space_group_symop_operation_xyz
x,y,z
-x,y,-z
-x,-y,-z
x,-y,z
loop_
_atom_site_type_symbol
_atom_site_label
_atom_site_fract_x
_atom_site_fract_y
_atom_site_fract_z
Si Si1 0.812119 0.671750 0.324931
Si Si2 0.836061 0.675003 0.692723
Si Si3 0.910337 0.176713 0.800439
Si Si4 0.189444 0.677270 0.887468
Si Si5 0.311249 0.823930 0.372503
Si Si6 0.100698 0.677670 0.060718
Si Si7 0.407571 0.675282 0.706475
Si Si8 0.140617 0.670851 0.542740
O O1 0.861944 0.500000 0.295691
O O2 0.675481 0.705011 0.332476
O O3 0.781997 0.697986 0.414136
O O4 0.931401 0.778911 0.257371
O O5 0.808091 0.500000 0.711820
O O6 0.827620 0.750937 0.768375
O O7 0.720097 0.744721 0.686976
O O8 0.981814 0.705817 0.607545
O O9 0.845035 0.236683 0.892807
O O10 0.894757 0.000000 0.801579
O O11 0.182812 0.500000 0.882760
O O12 0.320540 0.736473 0.800783
O O13 0.051264 0.736900 0.902094
O O14 0.196606 0.722254 0.963491
O O15 0.456704 0.770637 0.347488
O O16 0.198479 0.783212 0.467384
O O17 0.310877 0.000000 0.361222
O O18 0.103934 0.500000 0.072505
O O19 0.443866 0.500000 0.701531
O O20 0.162583 0.500000 0.509899
#
# Coordination Sequence:
#
# PCOD8062199 Si02
#       8
#     4   4   4   4   4   4   4   4
#     4   9  18  34  56  78 103 139 182 221 258 303
#     4  10  21  39  61  79  98 132 180 228 263 304
#     4  11  20  30  50  82 115 141 166 210 270 322
#     4   8  15  28  53  80 104 137 180 223 253 292
#     4  12  25  37  51  76 108 142 174 214 270 322
#     4   9  15  29  52  80 108 137 177 218 256 302
#     4  10  19  35  56  76 104 144 185 219 254 305
#     4   9  19  36  58  81 101 129 174 226 268 307
#
# _framework density 18.331852000000001
#
# number of rings (size 3 to 8) (size 9 to 14) (size 15 to 20)
#    0.000    2.250    1.250    4.500    0.000    5.000 
#    0.000    4.375    0.000    0.750    0.000    5.250 
#    0.000    0.000    0.000    0.000    0.000    0.000 
#
# Total GULP energy -396805.033649 kJ/mol
# GULP energy per Si atom -12400.157302 kJ/mol
# Density = 1.829013 g / cm^3
# Si number density = 18.331852 Si / 1000 Ang^3
#
#
#
# Elastic Constant Matrix: (Units=GPa)
#
#
# Indices 1 2 3 4 5 6 
#
# 1 92.7554 37.8189 21.3134 0.0000 22.0663 0.0000
# 2 37.8189 91.7093 21.4741 0.0000 14.0324 0.0000
# 3 21.3134 21.4741 46.8517 0.0000 21.7872 0.0000
# 4 0.0000 0.0000 0.0000 9.5332 0.0000 -1.2732
# 5 22.0663 14.0324 21.7872 0.0000 27.9053 0.0000
# 6 0.0000 0.0000 0.0000 -1.2732 0.0000 18.7196
#
#
#
# Elastic Compliance Matrix: (Units=1/GPa)
#
#
# Indices 1 2 3 4 5 6 
#
# 1 0.014959 -0.004672 -0.000401 0.000000 -0.009166 0.000000
# 2 -0.004672 0.013813 -0.004229 0.000000 0.000051 0.000000
# 3 -0.000401 -0.004229 0.035056 0.000000 -0.024927 0.000000
# 4 0.000000 0.000000 0.000000 0.105858 0.000000 0.007200
# 5 -0.009166 0.000051 -0.024927 0.000000 0.062520 0.000000
# 6 0.000000 0.000000 0.000000 0.007200 0.000000 0.053910
#
#
# Mechanical properties :
#
#
# Convention : Reuss Voigt Hill
#
# Bulk Modulus (GPa) = 22.11235 43.61436 32.86335
# Shear Modulus (GPa) = 15.63499 21.27895 18.45697
#
# Velocity S-wave (km/s) = 2.92359 3.41069 3.17649
# Velocity P-wave (km/s) = 4.84613 6.27325 5.60529
#
# Compressibility (1/GPa) = 0.04522359
#
# Stress axis : x y z
#
# Youngs Moduli (GPa) = 66.85018 72.39376 28.52555
#
# Poissons Ratio (x) = 0.33824 0.01144
# Poissons Ratio (y) = 0.31234 0.12064
# Poissons Ratio (z) = 0.02680 0.30617
#
# Static dielectric constant tensor:
#      x y z
#    x 3.358640 0.000000 0.280640 
#    y 0.000000 3.140850 0.000000 
#    z 0.280640 0.000000 3.516960 
# 
# 
# High freq. dielectric constant tensor:
#      x y z
#    x 1.700790 0.000000 0.027660 
#    y 0.000000 1.691020 0.000000 
#    z 0.027660 0.000000 1.702760 
# 
# From -- ./inp_files/83526.got.cif
#   From: 2010.06.25/outbox.cif.g09.slc.cpg/sg10_42_cif.got.tgz:83526.got - 2010.06.27 22:07:45.
