data_PCOD8062754
_publ_section_title
;
Structure prediction by ZEFSAII (Michael W. Deem and Ramdas Pophale) SiO2 
 PCOD8062754
Probable space group: P 2/M
;
_chemical_formula_sum "Si O2"
_cell_formula_units_Z 28
_cell_length_a 10.017927
_cell_length_b 8.750959
_cell_length_c 26.166416
_cell_angle_alpha 90.000000
_cell_angle_beta 38.455702
_cell_angle_gamma 90.000000
_cell_volume 1426.608676
_symmetry_space_group_name_H-M "P 2/M"
_symmetry_group_IT_number 10
_symmetry_cell_setting 'monoclinic'
loop_
_space_group_symop_operation_xyz
x,y,z
-x,y,-z
-x,-y,-z
x,-y,z
loop_
_atom_site_type_symbol
_atom_site_label
_atom_site_fract_x
_atom_site_fract_y
_atom_site_fract_z
Si Si1 0.753374 0.175392 0.571998
Si Si2 0.509954 0.678067 0.261540
Si Si3 0.550673 0.176406 0.428160
Si Si4 0.956596 0.179581 0.147435
Si Si5 0.821816 0.680917 0.012058
Si Si6 0.967925 0.319004 0.254578
Si Si7 0.622974 0.679817 0.808507
O O1 0.627151 0.285832 0.647573
O O2 0.662199 0.199028 0.542304
O O3 0.000000 0.225036 0.500000
O O4 0.723998 0.000000 0.598549
O O5 0.573927 0.500000 0.242134
O O6 0.724862 0.775908 0.195493
O O7 0.373537 0.723055 0.252393
O O8 0.500000 0.239043 0.500000
O O9 0.744154 0.269627 0.345955
O O10 0.620165 0.000000 0.409530
O O11 0.997762 0.257295 0.189090
O O12 0.136115 0.236374 0.054193
O O13 0.970756 0.000000 0.150488
O O14 0.824932 0.500000 0.002353
O O15 0.592320 0.743008 0.100252
O O16 0.000000 0.728979 0.000000
O O17 0.972411 0.500000 0.251348
O O18 0.163634 0.251160 0.229665
O O19 0.622961 0.500000 0.815598
#
# Coordination Sequence:
#
# PCOD8062754 Si02
#       7
#     4   4   4   4   4   4   4
#     4  10  22  39  59  88 124 159 197 242 297 359
#     4  11  21  39  64  90 119 158 205 251 299 351
#     4  10  22  40  60  85 122 162 198 239 296 360
#     4  12  24  39  60  89 124 160 201 247 301 361
#     4  10  19  38  65  89 119 157 200 248 301 354
#     4  11  23  41  63  88 120 160 204 247 297 354
#     4   9  21  39  61  91 121 153 198 250 300 355
#
# _framework density 19.626965999999999
#
# number of rings (size 3 to 8) (size 9 to 14) (size 15 to 20)
#    0.000    1.571    2.857    2.143    2.000    1.429 
#    0.000    6.429    0.000    0.000    0.000    0.000 
#    0.000    0.000    0.000    0.000    0.000    0.000 
#
# Total GULP energy -347297.460590 kJ/mol
# GULP energy per Si atom -12403.480735 kJ/mol
# Density = 1.958229 g / cm^3
# Si number density = 19.626966 Si / 1000 Ang^3
#
#
#
# Elastic Constant Matrix: (Units=GPa)
#
#
# Indices 1 2 3 4 5 6 
#
# 1 140.9822 27.6391 50.4182 0.0000 4.4196 0.0000
# 2 27.6391 49.2111 23.3910 0.0000 2.8431 0.0000
# 3 50.4182 23.3910 95.6021 0.0000 10.2002 0.0000
# 4 0.0000 0.0000 0.0000 11.9516 0.0000 10.9951
# 5 4.4196 2.8431 10.2002 0.0000 43.0881 0.0000
# 6 0.0000 0.0000 0.0000 10.9951 0.0000 10.6204
#
#
#
# Elastic Compliance Matrix: (Units=1/GPa)
#
#
# Indices 1 2 3 4 5 6 
#
# 1 0.009176 -0.003231 -0.004074 0.000000 0.000236 0.000000
# 2 -0.003231 0.024134 -0.004172 0.000000 -0.000273 0.000000
# 3 -0.004074 -0.004172 0.013907 0.000000 -0.002599 0.000000
# 4 0.000000 0.000000 0.000000 1.759002 0.000000 -1.821072
# 5 0.000236 -0.000273 -0.002599 0.000000 0.023817 0.000000
# 6 0.000000 0.000000 0.000000 -1.821072 0.000000 1.979491
#
#
# Mechanical properties :
#
#
# Convention : Reuss Voigt Hill
#
# Bulk Modulus (GPa) = 41.21454 54.29909 47.75682
# Shear Modulus (GPa) = 1.30189 25.42183 13.36186
#
# Velocity S-wave (km/s) = 0.81533 3.60286 2.61203
# Velocity P-wave (km/s) = 4.68304 6.71067 5.78636
#
# Compressibility (1/GPa) = 0.02426328
#
# Stress axis : x y z
#
# Youngs Moduli (GPa) = 108.97983 41.43542 71.90871
#
# Poissons Ratio (x) = 0.13387 0.29295
# Poissons Ratio (y) = 0.35210 0.29999
# Poissons Ratio (z) = 0.44398 0.17286
#
# Static dielectric constant tensor:
#      x y z
#    x 3.893760 0.000000 -0.040180 
#    y 0.000000 3.412910 0.000000 
#    z -0.040180 0.000000 3.694600 
# 
# 
# High freq. dielectric constant tensor:
#      x y z
#    x 1.778010 0.000000 0.004770 
#    y 0.000000 1.748540 0.000000 
#    z 0.004770 0.000000 1.770360 
# 
# From -- ./inp_files/91978.got.cif
#   From: 2010.06.25/outbox.cif.g09.slc.cpg/sg10_46_cif.got.tgz:91978.got - 2010.06.27 22:07:45.
