data_PCOD8062123
_publ_section_title
;
Structure prediction by ZEFSAII (Michael W. Deem and Ramdas Pophale) SiO2 
 PCOD8062123
Probable space group: P 2/M
;
_chemical_formula_sum "Si O2"
_cell_formula_units_Z 32
_cell_length_a 14.355559
_cell_length_b 8.713577
_cell_length_c 26.329675
_cell_angle_alpha 90.000000
_cell_angle_beta 29.137852
_cell_angle_gamma 90.000000
_cell_volume 1603.662694
_symmetry_space_group_name_H-M "P 2/M"
_symmetry_group_IT_number 10
_symmetry_cell_setting 'monoclinic'
loop_
_space_group_symop_operation_xyz
x,y,z
-x,y,-z
-x,-y,-z
x,-y,z
loop_
_atom_site_type_symbol
_atom_site_label
_atom_site_fract_x
_atom_site_fract_y
_atom_site_fract_z
Si Si1 0.777510 0.320017 0.963603
Si Si2 0.561555 0.181867 0.711932
Si Si3 0.276468 0.181968 0.469962
Si Si4 0.180610 0.817602 0.946080
Si Si5 0.149675 0.817918 0.343581
Si Si6 0.624927 0.179296 0.861958
Si Si7 0.052369 0.178772 0.211626
Si Si8 0.691128 0.679224 0.438606
O O1 0.785307 0.500000 0.967037
O O2 0.936978 0.268606 0.846692
O O3 0.828161 0.243591 0.992852
O O4 0.571935 0.270315 0.040028
O O5 0.582012 0.229094 0.643365
O O6 0.366871 0.248618 0.828403
O O7 0.742421 0.245491 0.657890
O O8 0.559923 0.000000 0.717481
O O9 0.347856 0.270189 0.485296
O O10 0.066192 0.243009 0.554924
O O11 0.276871 0.000000 0.480011
O O12 0.185673 0.000000 0.946489
O O13 0.000000 0.758514 0.000000
O O14 0.262007 0.758631 0.240782
O O15 0.144916 0.000000 0.345890
O O16 0.753677 0.212212 0.849710
O O17 0.575514 0.000000 0.880252
O O18 0.869951 0.230357 0.330657
O O19 0.030821 0.000000 0.210307
O O20 0.500000 0.723874 0.500000
O O21 0.736211 0.500000 0.414072
#
# Coordination Sequence:
#
# PCOD8062123 Si02
#       8
#     4   4   4   4   4   4   4   4
#     4  12  25  39  59  90 126 163 196 238 304 374
#     4   9  17  31  57  88 117 146 186 242 293 343
#     4  10  19  34  59  90 114 147 198 244 293 348
#     4  10  21  39  61  85 115 156 207 255 294 340
#     4   9  15  29  56  87 116 145 184 242 299 343
#     4  10  19  36  62  89 118 155 198 248 303 354
#     4  11  23  41  66  92 117 153 203 256 300 349
#     4  11  25  43  60  83 120 162 199 243 302 360
#
# _framework density 19.954319999999999
#
# number of rings (size 3 to 8) (size 9 to 14) (size 15 to 20)
#    0.000    1.750    2.500    2.625    0.000    6.250 
#    0.000    1.875    0.000    0.750    0.000    0.000 
#    0.000    0.000    0.000    0.000    0.000    0.000 
#
# Total GULP energy -396850.601115 kJ/mol
# GULP energy per Si atom -12401.581285 kJ/mol
# Density = 1.990890 g / cm^3
# Si number density = 19.954320 Si / 1000 Ang^3
#
#
#
# Elastic Constant Matrix: (Units=GPa)
#
#
# Indices 1 2 3 4 5 6 
#
# 1 141.6827 26.2154 57.9328 0.0000 4.9074 0.0000
# 2 26.2154 27.3135 14.4616 0.0000 -7.5616 0.0000
# 3 57.9328 14.4616 66.1295 0.0000 22.6107 0.0000
# 4 0.0000 0.0000 0.0000 14.8084 0.0000 -4.4905
# 5 4.9074 -7.5616 22.6107 0.0000 34.9499 0.0000
# 6 0.0000 0.0000 0.0000 -4.4905 0.0000 13.7208
#
#
#
# Elastic Compliance Matrix: (Units=1/GPa)
#
#
# Indices 1 2 3 4 5 6 
#
# 1 0.012448 -0.004531 -0.011532 0.000000 0.004732 0.000000
# 2 -0.004531 0.055983 -0.016220 0.000000 0.023242 0.000000
# 3 -0.011532 -0.016220 0.037773 0.000000 -0.026327 0.000000
# 4 0.000000 0.000000 0.000000 0.074969 0.000000 0.024536
# 5 0.004732 0.023242 -0.026327 0.000000 0.050009 0.000000
# 6 0.000000 0.000000 0.000000 0.024536 0.000000 0.080912
#
#
# Mechanical properties :
#
#
# Convention : Reuss Voigt Hill
#
# Bulk Modulus (GPa) = 24.01658 48.03837 36.02748
# Shear Modulus (GPa) = 12.80277 21.79690 17.29983
#
# Velocity S-wave (km/s) = 2.53574 3.30864 2.94763
# Velocity P-wave (km/s) = 4.54260 6.22275 5.44783
#
# Compressibility (1/GPa) = 0.04163789
#
# Stress axis : x y z
#
# Youngs Moduli (GPa) = 80.33440 17.86250 26.47370
#
# Poissons Ratio (x) = 0.08094 0.30530
# Poissons Ratio (y) = 0.36403 0.42940
# Poissons Ratio (z) = 0.92643 0.28972
#
# Static dielectric constant tensor:
#      x y z
#    x 3.757870 0.000000 0.038440 
#    y 0.000000 3.262790 0.000000 
#    z 0.038440 0.000000 3.811950 
# 
# 
# High freq. dielectric constant tensor:
#      x y z
#    x 1.787040 0.000000 0.009840 
#    y 0.000000 1.741570 0.000000 
#    z 0.009840 0.000000 1.789090 
# 
# From -- ./inp_files/93113.got.cif
#   From: 2010.06.25/outbox.cif.g09.slc.cpg/sg10_47_cif.got.tgz:93113.got - 2010.06.27 22:07:45.
