data_PCOD8062701
_publ_section_title
;
Structure prediction by ZEFSAII (Michael W. Deem and Ramdas Pophale) SiO2 
 PCOD8062701
Probable space group: P 2/M
;
_chemical_formula_sum "Si O2"
_cell_formula_units_Z 28
_cell_length_a 10.016064
_cell_length_b 8.718274
_cell_length_c 25.474578
_cell_angle_alpha 90.000000
_cell_angle_beta 140.281531
_cell_angle_gamma 90.000000
_cell_volume 1421.497818
_symmetry_space_group_name_H-M "P 2/M"
_symmetry_group_IT_number 10
_symmetry_cell_setting 'monoclinic'
loop_
_space_group_symop_operation_xyz
x,y,z
-x,y,-z
-x,-y,-z
x,-y,z
loop_
_atom_site_type_symbol
_atom_site_label
_atom_site_fract_x
_atom_site_fract_y
_atom_site_fract_z
Si Si1 0.489199 0.318227 0.756280
Si Si2 0.499757 0.679231 0.059624
Si Si3 0.949795 0.321791 0.241558
Si Si4 0.630634 0.681607 0.488152
Si Si5 0.239104 0.180053 0.068838
Si Si6 0.951801 0.179388 0.352472
Si Si7 0.640221 0.680026 0.691056
O O1 0.498427 0.500000 0.760270
O O2 0.626545 0.260024 0.845796
O O3 0.251539 0.267322 0.689325
O O4 0.579888 0.249144 0.729228
O O5 0.446661 0.500000 0.047078
O O6 0.723452 0.717970 0.151481
O O7 0.323410 0.771762 0.037351
O O8 0.500000 0.736562 0.000000
O O9 0.970130 0.500000 0.264176
O O10 0.998110 0.218559 0.306183
O O11 0.118643 0.279693 0.248032
O O12 0.500000 0.729166 0.500000
O O13 0.667269 0.500000 0.498130
O O14 0.507212 0.743487 0.399889
O O15 0.852755 0.765994 0.553910
O O16 0.260783 0.000000 0.082933
O O17 0.000000 0.234530 0.000000
O O18 0.915648 0.000000 0.348413
O O19 0.606581 0.500000 0.683564
#
# Coordination Sequence:
#
# PCOD8062701 Si02
#       7
#     4   4   4   4   4   4   4
#     4  11  23  41  65  90 118 157 206 252 297 354
#     4  10  22  38  64  97 123 154 202 254 296 350
#     4  10  19  38  63  89 120 156 201 249 299 354
#     4  10  19  37  64  89 118 155 202 255 304 353
#     4  11  25  43  61  87 126 166 200 241 302 366
#     4  12  24  38  59  88 125 164 199 241 300 365
#     4   9  20  37  62  93 118 151 201 257 306 352
#
# _framework density 19.697534000000001
#
# number of rings (size 3 to 8) (size 9 to 14) (size 15 to 20)
#    0.000    1.571    2.857    2.143    2.000    2.286 
#    0.000    5.714    0.000    0.000    0.000    0.000 
#    0.000    0.000    0.000    0.000    0.000    0.000 
#
# Total GULP energy -347302.174636 kJ/mol
# GULP energy per Si atom -12403.649094 kJ/mol
# Density = 1.965270 g / cm^3
# Si number density = 19.697534 Si / 1000 Ang^3
#
#
#
# Elastic Constant Matrix: (Units=GPa)
#
#
# Indices 1 2 3 4 5 6 
#
# 1 152.2714 27.9069 55.9553 0.0000 6.4439 0.0000
# 2 27.9069 47.1938 32.3111 0.0000 3.6070 0.0000
# 3 55.9553 32.3111 96.4948 0.0000 17.1718 0.0000
# 4 0.0000 0.0000 0.0000 19.3346 0.0000 9.0852
# 5 6.4439 3.6070 17.1718 0.0000 37.9454 0.0000
# 6 0.0000 0.0000 0.0000 9.0852 0.0000 9.1554
#
#
#
# Elastic Compliance Matrix: (Units=1/GPa)
#
#
# Indices 1 2 3 4 5 6 
#
# 1 0.008528 -0.002107 -0.004370 0.000000 0.000729 0.000000
# 2 -0.002107 0.028112 -0.008461 0.000000 0.001514 0.000000
# 3 -0.004370 -0.008461 0.016809 0.000000 -0.006060 0.000000
# 4 0.000000 0.000000 0.000000 0.096908 0.000000 -0.096165
# 5 0.000729 0.001514 -0.006060 0.000000 0.028828 0.000000
# 6 0.000000 0.000000 0.000000 -0.096165 0.000000 0.204653
#
#
# Mechanical properties :
#
#
# Convention : Reuss Voigt Hill
#
# Bulk Modulus (GPa) = 42.41988 58.70072 50.56030
# Shear Modulus (GPa) = 11.86037 25.27286 18.56661
#
# Velocity S-wave (km/s) = 2.45649 3.58585 3.07349
# Velocity P-wave (km/s) = 5.44317 6.85640 6.19025
#
# Compressibility (1/GPa) = 0.02357385
#
# Stress axis : x y z
#
# Youngs Moduli (GPa) = 117.25785 35.57167 59.49300
#
# Poissons Ratio (x) = 0.07495 0.25996
# Poissons Ratio (y) = 0.24707 0.50337
# Poissons Ratio (z) = 0.51237 0.30097
#
# Static dielectric constant tensor:
#      x y z
#    x 3.869950 0.000000 -0.016150 
#    y 0.000000 3.365860 0.000000 
#    z -0.016150 0.000000 3.754980 
# 
# 
# High freq. dielectric constant tensor:
#      x y z
#    x 1.778440 0.000000 0.005420 
#    y 0.000000 1.745380 0.000000 
#    z 0.005420 0.000000 1.779860 
# 
# From -- ./inp_files/92108.got.cif
#   From: 2010.06.25/outbox.cif.g09.slc.cpg/sg10_47_cif.got.tgz:92108.got - 2010.06.27 22:07:45.
