data_PCOD8062817
_publ_section_title
;
Structure prediction by ZEFSAII (Michael W. Deem and Ramdas Pophale) SiO2 
 PCOD8062817
Probable space group: P 2/M
;
_chemical_formula_sum "Si O2"
_cell_formula_units_Z 30
_cell_length_a 22.637602
_cell_length_b 21.349967
_cell_length_c 24.910762
_cell_angle_alpha 90.000000
_cell_angle_beta 168.992738
_cell_angle_gamma 90.000000
_cell_volume 2298.775564
_symmetry_space_group_name_H-M "P 2/M"
_symmetry_group_IT_number 10
_symmetry_cell_setting 'monoclinic'
loop_
_space_group_symop_operation_xyz
x,y,z
-x,y,-z
-x,-y,-z
x,-y,z
loop_
_atom_site_type_symbol
_atom_site_label
_atom_site_fract_x
_atom_site_fract_y
_atom_site_fract_z
Si Si1 0.834275 0.925254 0.905437
Si Si2 0.137897 0.000000 0.681486
Si Si3 0.313320 0.073284 0.026288
Si Si4 0.857208 0.925497 0.711493
Si Si5 0.225525 0.690137 0.650646
Si Si6 0.990158 0.891546 0.628628
Si Si7 0.640505 0.432165 0.182841
Si Si8 0.722770 0.239391 0.147347
O O1 0.487946 0.898748 0.601098
O O2 0.833602 0.000000 0.903100
O O3 0.000000 0.898707 0.000000
O O4 0.012133 0.899737 0.115927
O O5 0.000000 0.000000 0.500000
O O6 0.021716 0.938263 0.607224
O O7 0.500000 0.000000 0.000000
O O8 0.061292 0.098697 0.843848
O O9 0.187252 0.083779 0.854316
O O10 0.384849 0.000000 0.098934
O O11 0.625798 0.112018 0.316979
O O12 0.853849 0.000000 0.708395
O O13 0.395380 0.621504 0.802882
O O14 0.000000 0.692365 0.500000
O O15 0.999032 0.708506 0.399598
O O16 0.503029 0.740529 0.902042
O O17 0.114843 0.825220 0.721086
O O18 0.485464 0.500000 0.060059
O O19 0.000000 0.444768 0.500000
O O20 0.500000 0.408661 0.000000
O O21 0.500000 0.232293 0.000000
#
# Coordination Sequence:
#
# PCOD8062817 Si02
#       8
#     4   2   4   4   4   4   4   4
#     4   9  15  24  37  57  79  96 111 128 151 191
#     4  12  24  36  46  56  68  80 103 148 201 242
#     4  11  20  34  46  57  71  89 116 149 185 225
#     4   9  17  26  40  56  72  94 113 133 164 202
#     4   9  16  28  41  55  73  92 110 133 164 207
#     4  12  22  35  46  57  69  88 115 152 193 237
#     4   9  15  23  37  57  77  95 112 128 151 189
#     4  10  20  31  43  55  69  89 114 144 184 232
#
# _framework density 13.050426
#
# number of rings (size 3 to 8) (size 9 to 14) (size 15 to 20)
#    0.000    2.000    1.333    5.200    0.000    5.333 
#    0.000    0.000    0.000    0.000    0.000    0.000 
#    0.000    0.000    0.000    0.000    0.000    0.000 
#
# Total GULP energy -371730.264301 kJ/mol
# GULP energy per Si atom -12391.008810 kJ/mol
# Density = 1.302072 g / cm^3
# Si number density = 13.050426 Si / 1000 Ang^3
#
#
#
# Elastic Constant Matrix: (Units=GPa)
#
#
# Indices 1 2 3 4 5 6 
#
# 1 40.9306 12.9711 14.5159 0.0000 -2.0492 0.0000
# 2 12.9711 60.5171 18.2783 0.0000 4.3069 0.0000
# 3 14.5159 18.2783 81.9647 0.0000 -3.1462 0.0000
# 4 0.0000 0.0000 0.0000 20.2062 0.0000 -3.6290
# 5 -2.0492 4.3069 -3.1462 0.0000 22.4197 0.0000
# 6 0.0000 0.0000 0.0000 -3.6290 0.0000 6.1236
#
#
#
# Elastic Compliance Matrix: (Units=1/GPa)
#
#
# Indices 1 2 3 4 5 6 
#
# 1 0.027452 -0.004997 -0.003634 0.000000 0.002959 0.000000
# 2 -0.004997 0.018988 -0.003526 0.000000 -0.004599 0.000000
# 3 -0.003634 -0.003526 0.013717 0.000000 0.002270 0.000000
# 4 0.000000 0.000000 0.000000 0.055385 0.000000 0.032822
# 5 0.002959 -0.004599 0.002270 0.000000 0.046076 0.000000
# 6 0.000000 0.000000 0.000000 0.032822 0.000000 0.182754
#
#
# Mechanical properties :
#
#
# Convention : Reuss Voigt Hill
#
# Bulk Modulus (GPa) = 27.89901 30.54921 29.22411
# Shear Modulus (GPa) = 13.13600 18.92636 16.03118
#
# Velocity S-wave (km/s) = 3.17607 3.81234 3.50866
# Velocity P-wave (km/s) = 5.90543 6.54508 6.23347
#
# Compressibility (1/GPa) = 0.03584357
#
# Stress axis : x y z
#
# Youngs Moduli (GPa) = 36.42713 52.66612 72.90053
#
# Poissons Ratio (x) = 0.26318 0.26491
# Poissons Ratio (y) = 0.18203 0.25703
# Poissons Ratio (z) = 0.13237 0.18569
#
# Static dielectric constant tensor:
#      x y z
#    x 2.550800 0.000000 -0.178950 
#    y 0.000000 2.623950 0.000000 
#    z -0.178950 0.000000 2.950200 
# 
# 
# High freq. dielectric constant tensor:
#      x y z
#    x 1.466340 0.000000 -0.026520 
#    y 0.000000 1.456830 0.000000 
#    z -0.026520 0.000000 1.516350 
# 
# From -- ./inp_files/90500.got.cif
#   From: 2010.06.25/outbox.cif.g09.slc.cpg/sg10_46_cif.got.tgz:90500.got - 2010.06.27 22:07:45.
