data_PCOD8062341
_publ_section_title
;
Structure prediction by ZEFSAII (Michael W. Deem and Ramdas Pophale) SiO2 
 PCOD8062341
Probable space group: P 2/M
;
_chemical_formula_sum "Si O2"
_cell_formula_units_Z 20
_cell_length_a 15.104605
_cell_length_b 15.302526
_cell_length_c 13.319669
_cell_angle_alpha 90.000000
_cell_angle_beta 160.126049
_cell_angle_gamma 90.000000
_cell_volume 1046.606818
_symmetry_space_group_name_H-M "P 2/M"
_symmetry_group_IT_number 10
_symmetry_cell_setting 'monoclinic'
loop_
_space_group_symop_operation_xyz
x,y,z
-x,y,-z
-x,-y,-z
x,-y,z
loop_
_atom_site_type_symbol
_atom_site_label
_atom_site_fract_x
_atom_site_fract_y
_atom_site_fract_z
Si Si1 0.054437 0.847572 0.671490
Si Si2 0.150261 0.324786 0.868154
Si Si3 0.328357 0.401535 0.543220
Si Si4 0.602246 0.098516 0.338981
Si Si5 0.485553 0.755844 0.600468
O O1 0.813239 0.878359 0.480603
O O2 0.000000 0.875573 0.500000
O O3 0.081077 0.741953 0.705227
O O4 0.317444 0.893952 0.987272
O O5 0.909320 0.387772 0.634075
O O6 0.402169 0.383869 0.108165
O O7 0.226617 0.264923 0.047473
O O8 0.321592 0.500000 0.493305
O O9 0.310547 0.332187 0.431831
O O10 0.639454 0.162729 0.473474
O O11 0.644713 0.000000 0.422901
O O12 0.500000 0.780292 0.500000
#
# Coordination Sequence:
#
# PCOD8062341 Si02
#       5
#     4   4   4   4   4
#     4  11  21  39  63  84 113 149 186 235 290 331
#     4   9  19  37  54  83 114 147 182 232 275 338
#     4  10  19  35  59  82 113 148 184 233 281 324
#     4  11  23  39  57  87 117 146 191 232 276 338
#     4   9  21  38  57  82 116 153 189 226 281 328
#
# _framework density 19.109373000000001
#
# number of rings (size 3 to 8) (size 9 to 14) (size 15 to 20)
#    1.200    0.800    2.000    1.800    0.000    4.000 
#    0.000    1.000    0.000    7.200    0.000    0.000 
#    0.000    0.000    0.000    0.000    0.000    0.000 
#
# Total GULP energy -247832.310340 kJ/mol
# GULP energy per Si atom -12391.615517 kJ/mol
# Density = 1.906588 g / cm^3
# Si number density = 19.109373 Si / 1000 Ang^3
#
#
#
# Elastic Constant Matrix: (Units=GPa)
#
#
# Indices 1 2 3 4 5 6 
#
# 1 85.4591 61.9011 38.3673 0.0000 13.7878 0.0000
# 2 61.9011 150.0982 7.0162 0.0000 0.9928 0.0000
# 3 38.3673 7.0162 27.8823 0.0000 16.0046 0.0000
# 4 0.0000 0.0000 0.0000 35.0693 0.0000 22.3959
# 5 13.7878 0.9928 16.0046 0.0000 30.7065 0.0000
# 6 0.0000 0.0000 0.0000 22.3959 0.0000 23.7139
#
#
#
# Elastic Compliance Matrix: (Units=1/GPa)
#
#
# Indices 1 2 3 4 5 6 
#
# 1 0.084260 -0.029103 -0.124776 0.000000 0.028141 0.000000
# 2 -0.029103 0.016813 0.040848 0.000000 -0.008766 0.000000
# 3 -0.124776 0.040848 0.236697 0.000000 -0.068663 0.000000
# 4 0.000000 0.000000 0.000000 0.071849 0.000000 -0.067856
# 5 0.028141 -0.008766 -0.068663 0.000000 0.056002 0.000000
# 6 0.000000 0.000000 0.000000 -0.067856 0.000000 0.106254
#
#
# Mechanical properties :
#
#
# Convention : Reuss Voigt Hill
#
# Bulk Modulus (GPa) = 8.95184 53.11208 31.03196
# Shear Modulus (GPa) = 5.98678 28.30827 17.14752
#
# Velocity S-wave (km/s) = 1.77192 3.85305 2.99881
# Velocity P-wave (km/s) = 2.98010 6.90280 5.31647
#
# Compressibility (1/GPa) = 0.11170882
#
# Stress axis : x y z
#
# Youngs Moduli (GPa) = 11.86798 59.47769 4.22481
#
# Poissons Ratio (x) = 1.73097 0.52715
# Poissons Ratio (y) = 0.34539 -0.17258
# Poissons Ratio (z) = 1.48084 -2.42955
#
# Static dielectric constant tensor:
#      x y z
#    x 3.138220 0.000000 0.250150 
#    y 0.000000 3.469260 0.000000 
#    z 0.250150 0.000000 3.543630 
# 
# 
# High freq. dielectric constant tensor:
#      x y z
#    x 1.709940 0.000000 0.027000 
#    y 0.000000 1.747480 0.000000 
#    z 0.027000 0.000000 1.742460 
# 
# From -- ./inp_files/47658.got.cif
#   From: 2010.06.25/outbox.cif.g09.slc.cpg/sg10_24_cif.got.tgz:47658.got - 2010.06.27 22:07:45.
