data_PCOD8062301
_publ_section_title
;
Structure prediction by ZEFSAII (Michael W. Deem and Ramdas Pophale) SiO2 
 PCOD8062301
Probable space group: P 2/M
;
_chemical_formula_sum "Si O2"
_cell_formula_units_Z 32
_cell_length_a 20.098327
_cell_length_b 9.208450
_cell_length_c 25.766615
_cell_angle_alpha 90.000000
_cell_angle_beta 21.461970
_cell_angle_gamma 90.000000
_cell_volume 1744.804342
_symmetry_space_group_name_H-M "P 2/M"
_symmetry_group_IT_number 10
_symmetry_cell_setting 'monoclinic'
loop_
_space_group_symop_operation_xyz
x,y,z
-x,y,-z
-x,-y,-z
x,-y,z
loop_
_atom_site_type_symbol
_atom_site_label
_atom_site_fract_x
_atom_site_fract_y
_atom_site_fract_z
Si Si1 0.299167 0.672005 0.159037
Si Si2 0.197332 0.831674 0.336631
Si Si3 0.661818 0.830204 0.561076
Si Si4 0.526727 0.832002 0.772406
Si Si5 0.987008 0.828293 0.093229
Si Si6 0.717769 0.828668 0.203231
Si Si7 0.155152 0.328885 0.060956
Si Si8 0.025271 0.670376 0.269071
O O1 0.297845 0.500000 0.165067
O O2 0.237114 0.736946 0.257992
O O3 0.163738 0.726222 0.212459
O O4 0.500000 0.729588 0.000000
O O5 0.342767 0.792771 0.274940
O O6 0.000000 0.787386 0.500000
O O7 0.204743 0.000000 0.315753
O O8 0.635750 0.796705 0.640755
O O9 0.486548 0.770482 0.656356
O O10 0.833546 0.747113 0.414498
O O11 0.692060 0.000000 0.529466
O O12 0.349851 0.733651 0.904037
O O13 0.465712 0.000000 0.817277
O O14 0.798346 0.785319 0.201093
O O15 0.996379 0.000000 0.097065
O O16 0.152904 0.772207 0.936841
O O17 0.998492 0.742545 0.138970
O O18 0.718673 0.000000 0.196960
O O19 0.156501 0.500000 0.051270
O O20 0.112171 0.286765 0.151138
O O21 0.992360 0.500000 0.297505
#
# Coordination Sequence:
#
# PCOD8062301 Si02
#       8
#     4   4   4   4   4   4   4   4
#     4  10  21  39  59  76 101 143 188 226 265 317
#     4  10  21  36  55  82 111 136 169 221 278 325
#     4  10  19  35  58  83 108 140 181 220 266 320
#     4  10  20  35  57  82 108 137 175 223 272 322
#     4   9  16  32  57  82 109 139 176 223 268 310
#     4   8  15  30  56  84 108 138 175 219 266 315
#     4  11  22  36  54  79 110 144 182 223 264 313
#     4  10  23  39  53  75 110 147 182 220 268 321
#
# _framework density 18.340166
#
# number of rings (size 3 to 8) (size 9 to 14) (size 15 to 20)
#    0.000    2.250    1.250    2.625    0.000    5.000 
#    0.000    2.500    0.000    3.750    0.000    0.000 
#    0.000    0.000    0.000    0.000    0.000    0.000 
#
# Total GULP energy -396820.189388 kJ/mol
# GULP energy per Si atom -12400.630918 kJ/mol
# Density = 1.829842 g / cm^3
# Si number density = 18.340166 Si / 1000 Ang^3
#
#
#
# Elastic Constant Matrix: (Units=GPa)
#
#
# Indices 1 2 3 4 5 6 
#
# 1 120.4244 35.0772 36.0357 0.0000 -18.7024 0.0000
# 2 35.0772 36.5223 27.2732 0.0000 -1.3365 0.0000
# 3 36.0357 27.2732 83.8897 0.0000 -15.4301 0.0000
# 4 0.0000 0.0000 0.0000 27.9079 0.0000 7.0945
# 5 -18.7024 -1.3365 -15.4301 0.0000 29.1168 0.0000
# 6 0.0000 0.0000 0.0000 7.0945 0.0000 26.3213
#
#
#
# Elastic Compliance Matrix: (Units=1/GPa)
#
#
# Indices 1 2 3 4 5 6 
#
# 1 0.013111 -0.012102 -0.000278 0.000000 0.007719 0.000000
# 2 -0.012102 0.048017 -0.012672 0.000000 -0.012285 0.000000
# 3 -0.000278 -0.012672 0.017750 0.000000 0.008646 0.000000
# 4 0.000000 0.000000 0.000000 0.038468 0.000000 -0.010368
# 5 0.007719 -0.012285 0.008646 0.000000 0.043321 0.000000
# 6 0.000000 0.000000 0.000000 -0.010368 0.000000 0.040787
#
#
# Mechanical properties :
#
#
# Convention : Reuss Voigt Hill
#
# Bulk Modulus (GPa) = 34.75305 48.62317 41.68811
# Shear Modulus (GPa) = 19.14626 26.16589 22.65607
#
# Velocity S-wave (km/s) = 3.23453 3.78126 3.51853
# Velocity P-wave (km/s) = 5.73933 6.75525 6.26790
#
# Compressibility (1/GPa) = 0.02877445
#
# Stress axis : x y z
#
# Youngs Moduli (GPa) = 76.27180 20.82593 56.33922
#
# Poissons Ratio (x) = 0.25204 0.01564
# Poissons Ratio (y) = 0.92307 0.71391
# Poissons Ratio (z) = 0.02117 0.26390
#
# Static dielectric constant tensor:
#      x y z
#    x 3.739890 0.000000 -0.235610 
#    y 0.000000 3.156830 0.000000 
#    z -0.235610 0.000000 3.371990 
# 
# 
# High freq. dielectric constant tensor:
#      x y z
#    x 1.729620 0.000000 -0.011540 
#    y 0.000000 1.689780 0.000000 
#    z -0.011540 0.000000 1.706310 
# 
# From -- ./inp_files/93644.got.cif
#   From: 2010.06.25/outbox.cif.g09.slc.cpg/sg10_47_cif.got.tgz:93644.got - 2010.06.27 22:07:45.
