data_PCOD8062191
_publ_section_title
;
Structure prediction by ZEFSAII (Michael W. Deem and Ramdas Pophale) SiO2 
 PCOD8062191
Probable space group: P 2/M
;
_chemical_formula_sum "Si O2"
_cell_formula_units_Z 32
_cell_length_a 12.035854
_cell_length_b 14.829424
_cell_length_c 17.785287
_cell_angle_alpha 90.000000
_cell_angle_beta 30.065692
_cell_angle_gamma 90.000000
_cell_volume 1590.352468
_symmetry_space_group_name_H-M "P 2/M"
_symmetry_group_IT_number 10
_symmetry_cell_setting 'monoclinic'
loop_
_space_group_symop_operation_xyz
x,y,z
-x,y,-z
-x,-y,-z
x,-y,z
loop_
_atom_site_type_symbol
_atom_site_label
_atom_site_fract_x
_atom_site_fract_y
_atom_site_fract_z
Si Si1 0.077215 0.902782 0.819210
Si Si2 0.594530 0.100071 0.861677
Si Si3 0.246369 0.681243 0.134791
Si Si4 0.480115 0.106838 0.362603
Si Si5 0.346272 0.401408 0.924535
Si Si6 0.671646 0.202951 0.105993
Si Si7 0.984305 0.148635 0.305573
Si Si8 0.858290 0.599198 0.649162
O O1 0.333336 0.876379 0.683256
O O2 0.031945 0.916504 0.756892
O O3 0.030953 0.000000 0.883831
O O4 0.919726 0.833221 0.953665
O O5 0.479518 0.177074 0.878235
O O6 0.858232 0.115967 0.717876
O O7 0.552923 0.000000 0.851122
O O8 0.500000 0.105644 0.000000
O O9 0.126131 0.647182 0.280197
O O10 0.086262 0.762793 0.205846
O O11 0.500000 0.713707 0.000000
O O12 0.248679 0.608558 0.066377
O O13 0.552417 0.157723 0.245399
O O14 0.259294 0.158576 0.517477
O O15 0.436010 0.000000 0.374578
O O16 0.256434 0.500000 0.946765
O O17 0.294478 0.311620 0.906120
O O18 0.607786 0.407618 0.770638
O O19 0.962487 0.500000 0.599028
O O20 0.000000 0.649483 0.500000
#
# Coordination Sequence:
#
# PCOD8062191 Si02
#       8
#     4   4   4   4   4   4   4   4
#     4  11  22  42  67  86 115 161 211 252 290 352
#     4  11  20  33  57  87 123 160 196 238 292 364
#     4  10  19  35  55  86 121 162 204 241 295 359
#     4  11  26  42  60  90 124 159 203 255 302 347
#     4  10  20  36  58  85 117 154 201 252 299 358
#     4  12  23  40  62  92 120 158 203 248 303 365
#     4  12  22  37  60  91 125 161 198 243 298 361
#     4   9  18  31  53  84 119 158 197 241 299 363
#
# _framework density 20.121326
#
# number of rings (size 3 to 8) (size 9 to 14) (size 15 to 20)
#    0.000    1.250    2.500    5.250    1.750    4.000 
#    0.000    1.250    0.000    1.500    0.000    0.875 
#    0.000    0.000    0.000    0.000    0.000    0.000 
#
# Total GULP energy -396489.193311 kJ/mol
# GULP energy per Si atom -12390.287291 kJ/mol
# Density = 2.007553 g / cm^3
# Si number density = 20.121326 Si / 1000 Ang^3
#
#
#
# Elastic Constant Matrix: (Units=GPa)
#
#
# Indices 1 2 3 4 5 6 
#
# 1 57.0543 28.1947 31.7616 0.0000 -7.8890 0.0000
# 2 28.1947 120.2469 44.2609 0.0000 -7.9375 0.0000
# 3 31.7616 44.2609 128.9914 0.0000 5.2084 0.0000
# 4 0.0000 0.0000 0.0000 28.1549 0.0000 -0.9808
# 5 -7.8890 -7.9375 5.2084 0.0000 35.8643 0.0000
# 6 0.0000 0.0000 0.0000 -0.9808 0.0000 16.9205
#
#
#
# Elastic Compliance Matrix: (Units=1/GPa)
#
#
# Indices 1 2 3 4 5 6 
#
# 1 0.022353 -0.003229 -0.004592 0.000000 0.004869 0.000000
# 2 -0.003229 0.010231 -0.002795 0.000000 0.001960 0.000000
# 3 -0.004592 -0.002795 0.009966 0.000000 -0.003076 0.000000
# 4 0.000000 0.000000 0.000000 0.035590 0.000000 0.002063
# 5 0.004869 0.001960 -0.003076 0.000000 0.029834 0.000000
# 6 0.000000 0.000000 0.000000 0.002063 0.000000 0.059219
#
#
# Mechanical properties :
#
#
# Convention : Reuss Voigt Hill
#
# Bulk Modulus (GPa) = 46.90935 57.19190 52.05062
# Shear Modulus (GPa) = 25.57112 29.65965 27.61539
#
# Velocity S-wave (km/s) = 3.56876 3.84349 3.70867
# Velocity P-wave (km/s) = 6.35179 6.94131 6.65308
#
# Compressibility (1/GPa) = 0.02131771
#
# Stress axis : x y z
#
# Youngs Moduli (GPa) = 44.73706 97.73756 100.33698
#
# Poissons Ratio (x) = 0.31563 0.46079
# Poissons Ratio (y) = 0.14447 0.28041
# Poissons Ratio (z) = 0.20545 0.27315
#
# Static dielectric constant tensor:
#      x y z
#    x 3.597580 0.000000 -0.001950 
#    y 0.000000 3.974460 0.000000 
#    z -0.001950 0.000000 3.820310 
# 
# 
# High freq. dielectric constant tensor:
#      x y z
#    x 1.756050 0.000000 0.007630 
#    y 0.000000 1.786390 0.000000 
#    z 0.007630 0.000000 1.790300 
# 
# From -- ./inp_files/76973.got.cif
#   From: 2010.06.25/outbox.cif.g09.slc.cpg/sg10_39_cif.got.tgz:76973.got - 2010.06.27 22:07:45.
