data_PCOD8062903
_publ_section_title
;
Structure prediction by ZEFSAII (Michael W. Deem and Ramdas Pophale) SiO2 
 PCOD8062903
Probable space group: P 2/M
;
_chemical_formula_sum "Si O2"
_cell_formula_units_Z 30
_cell_length_a 25.738665
_cell_length_b 16.246257
_cell_length_c 26.105710
_cell_angle_alpha 90.000000
_cell_angle_beta 168.628628
_cell_angle_gamma 90.000000
_cell_volume 2152.336747
_symmetry_space_group_name_H-M "P 2/M"
_symmetry_group_IT_number 10
_symmetry_cell_setting 'monoclinic'
loop_
_space_group_symop_operation_xyz
x,y,z
-x,y,-z
-x,-y,-z
x,-y,z
loop_
_atom_site_type_symbol
_atom_site_label
_atom_site_fract_x
_atom_site_fract_y
_atom_site_fract_z
Si Si1 0.952272 0.309541 0.013900
Si Si2 0.037734 0.139383 0.152807
Si Si3 0.528538 0.904889 0.353099
Si Si4 0.450786 0.591546 0.512287
Si Si5 0.883574 0.901767 0.235875
Si Si6 0.436288 0.097882 0.728548
Si Si7 0.776050 0.901836 0.245704
Si Si8 0.783072 0.000000 0.747588
O O1 0.971284 0.225191 0.062590
O O2 0.162294 0.371341 0.241928
O O3 0.666451 0.349536 0.747055
O O4 0.000000 0.292835 0.000000
O O5 0.247981 0.148977 0.402152
O O6 0.186285 0.081537 0.256097
O O7 0.762055 0.100990 0.904052
O O8 0.519219 0.870994 0.286198
O O9 0.619885 0.000000 0.443738
O O10 0.500000 0.585384 0.500000
O O11 0.464305 0.500000 0.549676
O O12 0.826161 0.867454 0.237186
O O13 0.162912 0.867873 0.486597
O O14 0.880416 0.000000 0.233544
O O15 0.665730 0.866672 0.986421
O O16 0.439860 0.000000 0.733200
O O17 0.000000 0.868023 0.500000
O O18 0.776769 0.000000 0.245653
O O19 0.500000 0.867991 0.000000
O O20 0.500000 0.000000 0.500000
O O21 0.000000 0.000000 0.000000
#
# Coordination Sequence:
#
# PCOD8062903 Si02
#       8
#     4   4   4   4   4   4   4   2
#     4  10  20  32  47  67  87 105 126 154 187 230
#     4  12  22  35  47  62  82 105 133 166 198 238
#     4  11  20  34  46  58  74 100 136 169 207 237
#     4   9  17  31  50  69  87 105 123 145 179 226
#     4   9  15  24  34  50  66  83 112 147 187 227
#     4   9  17  26  40  52  64  85 117 162 195 225
#     4   9  15  21  30  44  65  89 107 130 171 231
#     4  12  24  36  48  60  78 106 136 160 190 234
#
# _framework density 13.938338999999999
#
# number of rings (size 3 to 8) (size 9 to 14) (size 15 to 20)
#    0.000    2.000    1.333    4.000    0.000    8.533 
#    0.000    0.000    0.000    0.000    0.000    0.000 
#    0.000    0.000    0.000    0.000    0.000    0.000 
#
# Total GULP energy -371983.967893 kJ/mol
# GULP energy per Si atom -12399.465596 kJ/mol
# Density = 1.390661 g / cm^3
# Si number density = 13.938339 Si / 1000 Ang^3
#
#
#
# Elastic Constant Matrix: (Units=GPa)
#
#
# Indices 1 2 3 4 5 6 
#
# 1 87.9584 25.2423 48.0786 0.0000 -6.7098 0.0000
# 2 25.2423 51.7138 22.8217 0.0000 -5.1268 0.0000
# 3 48.0786 22.8217 127.2701 0.0000 -7.9990 0.0000
# 4 0.0000 0.0000 0.0000 7.7118 0.0000 -1.2005
# 5 -6.7098 -5.1268 -7.9990 0.0000 28.2349 0.0000
# 6 0.0000 0.0000 0.0000 -1.2005 0.0000 3.7885
#
#
#
# Elastic Compliance Matrix: (Units=1/GPa)
#
#
# Indices 1 2 3 4 5 6 
#
# 1 0.015678 -0.005366 -0.004874 0.000000 0.001370 0.000000
# 2 -0.005366 0.023054 -0.001959 0.000000 0.002356 0.000000
# 3 -0.004874 -0.001959 0.010135 0.000000 0.001357 0.000000
# 4 0.000000 0.000000 0.000000 0.136400 0.000000 0.043222
# 5 0.001370 0.002356 0.001357 0.000000 0.036555 0.000000
# 6 0.000000 0.000000 0.000000 0.043222 0.000000 0.277655
#
#
# Mechanical properties :
#
#
# Convention : Reuss Voigt Hill
#
# Bulk Modulus (GPa) = 40.86711 51.02527 45.94619
# Shear Modulus (GPa) = 9.39794 19.33369 14.36582
#
# Velocity S-wave (km/s) = 2.59945 3.72840 3.21389
# Velocity P-wave (km/s) = 6.19622 7.43115 6.84160
#
# Compressibility (1/GPa) = 0.02446955
#
# Stress axis : x y z
#
# Youngs Moduli (GPa) = 63.78508 43.37581 98.66580
#
# Poissons Ratio (x) = 0.23274 0.48092
# Poissons Ratio (y) = 0.34224 0.19329
# Poissons Ratio (z) = 0.31090 0.08497
#
# Static dielectric constant tensor:
#      x y z
#    x 2.794660 0.000000 -0.032510 
#    y 0.000000 2.351840 0.000000 
#    z -0.032510 0.000000 3.044450 
# 
# 
# High freq. dielectric constant tensor:
#      x y z
#    x 1.521240 0.000000 -0.001310 
#    y 0.000000 1.463860 0.000000 
#    z -0.001310 0.000000 1.559880 
# 
# From -- ./inp_files/12607.got.cif
#   From: 2010.06.25/outbox.cif.g09.slc.cpg/sg10_7_cif.got.tgz:12607.got - 2010.06.27 22:07:45.
