data_PCOD8062619
_publ_section_title
;
Structure prediction by ZEFSAII (Michael W. Deem and Ramdas Pophale) SiO2 
 PCOD8062619
Probable space group: P 2/M
;
_chemical_formula_sum "Si O2"
_cell_formula_units_Z 24
_cell_length_a 12.093479
_cell_length_b 8.940368
_cell_length_c 11.430085
_cell_angle_alpha 90.000000
_cell_angle_beta 68.692829
_cell_angle_gamma 90.000000
_cell_volume 1151.348821
_symmetry_space_group_name_H-M "P 2/M"
_symmetry_group_IT_number 10
_symmetry_cell_setting 'monoclinic'
loop_
_space_group_symop_operation_xyz
x,y,z
-x,y,-z
-x,-y,-z
x,-y,z
loop_
_atom_site_type_symbol
_atom_site_label
_atom_site_fract_x
_atom_site_fract_y
_atom_site_fract_z
Si Si1 0.111675 0.171989 0.035564
Si Si2 0.040181 0.324502 0.289786
Si Si3 0.659575 0.172448 0.206749
Si Si4 0.541292 0.323653 0.855883
Si Si5 0.762484 0.827581 0.660067
Si Si6 0.789944 0.828481 0.387006
O O1 0.113416 0.279587 0.146194
O O2 0.104005 0.000000 0.079632
O O3 0.229265 0.204998 0.918245
O O4 0.000000 0.215160 0.000000
O O5 0.043780 0.500000 0.307919
O O6 0.107741 0.246274 0.372205
O O7 0.905347 0.272846 0.330720
O O8 0.551407 0.274250 0.207378
O O9 0.693770 0.217793 0.326249
O O10 0.619512 0.000000 0.215330
O O11 0.556196 0.500000 0.846477
O O12 0.667570 0.251269 0.779623
O O13 0.500000 0.268424 0.000000
O O14 0.728558 0.807969 0.536748
O O15 0.768774 0.000000 0.693813
O O16 0.830046 0.000000 0.350340
#
# Coordination Sequence:
#
# PCOD8062619 Si02
#       6
#     4   4   4   4   4   4
#     4  10  19  36  62  89 120 159 204 251 296 352
#     4  12  24  37  59  92 131 165 200 252 311 367
#     4  10  21  39  65  92 121 158 204 254 300 356
#     4  11  25  44  64  89 124 160 198 249 308 369
#     4  11  24  42  66  89 117 162 212 256 300 359
#     4  10  22  42  64  90 122 160 208 255 301 360
#
# _framework density 20.845115
#
# number of rings (size 3 to 8) (size 9 to 14) (size 15 to 20)
#    0.000    1.333    1.667    4.000    0.000    9.667 
#    0.000    3.333    0.000    0.000    0.000    0.000 
#    0.000    0.000    0.000    0.000    0.000    0.000 
#
# Total GULP energy -297740.849574 kJ/mol
# GULP energy per Si atom -12405.868732 kJ/mol
# Density = 2.079767 g / cm^3
# Si number density = 20.845115 Si / 1000 Ang^3
#
#
#
# Elastic Constant Matrix: (Units=GPa)
#
#
# Indices 1 2 3 4 5 6 
#
# 1 100.1830 45.5774 25.3237 0.0000 13.5989 0.0000
# 2 45.5774 109.5497 42.7433 0.0000 4.9144 0.0000
# 3 25.3237 42.7433 94.0442 0.0000 13.5886 0.0000
# 4 0.0000 0.0000 0.0000 2.5504 0.0000 -3.5061
# 5 13.5989 4.9144 13.5886 0.0000 33.4392 0.0000
# 6 0.0000 0.0000 0.0000 -3.5061 0.0000 29.8061
#
#
#
# Elastic Compliance Matrix: (Units=1/GPa)
#
#
# Indices 1 2 3 4 5 6 
#
# 1 0.012981 -0.004967 -0.000617 0.000000 -0.004298 0.000000
# 2 -0.004967 0.013003 -0.004874 0.000000 0.002090 0.000000
# 3 -0.000617 -0.004874 0.013678 0.000000 -0.004591 0.000000
# 4 0.000000 0.000000 0.000000 0.467721 0.000000 0.055018
# 5 -0.004298 0.002090 -0.004591 0.000000 0.033212 0.000000
# 6 0.000000 0.000000 0.000000 0.055018 0.000000 0.040022
#
#
# Mechanical properties :
#
#
# Convention : Reuss Voigt Hill
#
# Bulk Modulus (GPa) = 53.34604 59.00728 56.17666
# Shear Modulus (GPa) = 8.22665 25.83466 17.03065
#
# Velocity S-wave (km/s) = 1.98875 3.52428 2.86144
# Velocity P-wave (km/s) = 5.56064 6.70296 6.15834
#
# Compressibility (1/GPa) = 0.01874553
#
# Stress axis : x y z
#
# Youngs Moduli (GPa) = 77.03656 76.90610 73.10943
#
# Poissons Ratio (x) = 0.38200 0.04509
# Poissons Ratio (y) = 0.38265 0.35636
# Poissons Ratio (z) = 0.04751 0.37486
#
# Static dielectric constant tensor:
#      x y z
#    x 3.857840 0.000000 0.167830 
#    y 0.000000 3.638790 0.000000 
#    z 0.167830 0.000000 3.919020 
# 
# 
# High freq. dielectric constant tensor:
#      x y z
#    x 1.821400 0.000000 0.010020 
#    y 0.000000 1.806150 0.000000 
#    z 0.010020 0.000000 1.825490 
# 
# From -- ./inp_files/45045.got.cif
#   From: 2010.06.25/outbox.cif.g09.slc.cpg/sg10_23_cif.got.tgz:45045.got - 2010.06.27 22:07:45.
