data_PCOD8062884
_publ_section_title
;
Structure prediction by ZEFSAII (Michael W. Deem and Ramdas Pophale) SiO2 
 PCOD8062884
Probable space group: P 2/M
;
_chemical_formula_sum "Si O2"
_cell_formula_units_Z 32
_cell_length_a 12.458554
_cell_length_b 9.304936
_cell_length_c 17.454371
_cell_angle_alpha 90.000000
_cell_angle_beta 90.027581
_cell_angle_gamma 90.000000
_cell_volume 2023.416009
_symmetry_space_group_name_H-M "P 2/M"
_symmetry_group_IT_number 10
_symmetry_cell_setting 'monoclinic'
loop_
_space_group_symop_operation_xyz
x,y,z
-x,y,-z
-x,-y,-z
x,-y,z
loop_
_atom_site_type_symbol
_atom_site_label
_atom_site_fract_x
_atom_site_fract_y
_atom_site_fract_z
Si Si1 0.707540 0.166108 0.909514
Si Si2 0.874549 0.333000 0.812792
Si Si3 0.125140 0.667004 0.812936
Si Si4 0.707796 0.833892 0.090327
Si Si5 0.499872 0.337048 0.908919
Si Si6 0.127432 0.340888 0.641593
Si Si7 0.871718 0.839519 0.499924
Si Si8 0.872434 0.340892 0.641440
O O1 0.813060 0.231559 0.871441
O O2 0.604402 0.253201 0.878692
O O3 0.694161 0.000000 0.886426
O O4 0.720702 0.183779 0.999916
O O5 0.848092 0.500000 0.828655
O O6 0.838629 0.290154 0.726434
O O7 0.999840 0.303396 0.824966
O O8 0.151583 0.500000 0.828807
O O9 0.186580 0.768402 0.871681
O O10 0.161145 0.709886 0.726623
O O11 0.604736 0.746818 0.121228
O O12 0.694505 0.000000 0.113429
O O13 0.499818 0.500000 0.876758
O O14 0.500000 0.337793 0.000000
O O15 0.173073 0.500000 0.625417
O O16 0.174201 0.236093 0.576541
O O17 0.999935 0.345571 0.637150
O O18 0.825729 0.763924 0.576343
O O19 0.000000 0.836197 0.500000
O O20 0.826731 0.000000 0.499893
O O21 0.826816 0.500000 0.625191
#
# Coordination Sequence:
#
# PCOD8062884 Si02
#       8
#     4   4   4   4   4   4   4   4
#     4  10  20  32  46  65  89 115 143 179 224 268
#     4   9  18  31  45  62  86 118 154 186 215 253
#     4   9  18  31  45  62  86 118 154 186 215 253
#     4  10  20  32  46  65  89 115 143 179 224 268
#     4   9  17  31  51  69  83 104 139 182 223 261
#     4   8  14  25  39  54  76 108 143 177 212 249
#     4   9  15  21  33  55  79 104 137 174 211 253
#     4   8  14  25  39  54  76 108 143 177 212 249
#
# _framework density 15.814840999999999
#
# number of rings (size 3 to 8) (size 9 to 14) (size 15 to 20)
#    0.000    3.000    0.000    3.000    0.000    6.500 
#    0.000    5.000    0.000    0.000    0.000    0.000 
#    0.000    1.000    0.000   10.500    0.000    8.000 
#
# Total GULP energy -396685.466215 kJ/mol
# GULP energy per Si atom -12396.420819 kJ/mol
# Density = 1.577885 g / cm^3
# Si number density = 15.814841 Si / 1000 Ang^3
#
#
#
# Elastic Constant Matrix: (Units=GPa)
#
#
# Indices 1 2 3 4 5 6 
#
# 1 56.2483 51.2032 34.6896 0.0000 -0.0748 0.0000
# 2 51.2032 131.5589 57.4616 0.0000 -0.0910 0.0000
# 3 34.6896 57.4616 60.8892 0.0000 -0.0724 0.0000
# 4 0.0000 0.0000 0.0000 24.1519 0.0000 -0.0150
# 5 -0.0748 -0.0910 -0.0724 0.0000 0.8120 0.0000
# 6 0.0000 0.0000 0.0000 -0.0150 0.0000 23.2734
#
#
#
# Elastic Compliance Matrix: (Units=1/GPa)
#
#
# Indices 1 2 3 4 5 6 
#
# 1 0.031178 -0.007445 -0.010735 0.000000 0.001082 0.000000
# 2 -0.007445 0.014709 -0.009640 0.000000 0.000103 0.000000
# 3 -0.010735 -0.009640 0.031637 0.000000 0.000751 0.000000
# 4 0.000000 0.000000 0.000000 0.041405 0.000000 0.000027
# 5 0.001082 0.000103 0.000751 0.000000 1.231751 0.000000
# 6 0.000000 0.000000 0.000000 0.000027 0.000000 0.042968
#
#
# Mechanical properties :
#
#
# Convention : Reuss Voigt Hill
#
# Bulk Modulus (GPa) = 45.69461 59.48948 52.59204
# Shear Modulus (GPa) = 3.43270 16.67024 10.05147
#
# Velocity S-wave (km/s) = 1.47488 3.25020 2.52379
# Velocity P-wave (km/s) = 5.64416 7.19604 6.46682
#
# Compressibility (1/GPa) = 0.02188442
#
# Stress axis : x y z
#
# Youngs Moduli (GPa) = 32.07438 67.98542 31.60831
#
# Poissons Ratio (x) = 0.50613 0.33933
# Poissons Ratio (y) = 0.23878 0.30469
# Poissons Ratio (z) = 0.34433 0.65535
#
# Static dielectric constant tensor:
#      x y z
#    x 2.629970 0.000000 -0.000350 
#    y 0.000000 3.202170 0.000000 
#    z -0.000350 0.000000 3.027520 
# 
# 
# High freq. dielectric constant tensor:
#      x y z
#    x 1.557600 0.000000 -0.000050 
#    y 0.000000 1.618220 0.000000 
#    z -0.000050 0.000000 1.597950 
# 
# From -- ./inp_files/54932.got.cif
#   From: 2010.06.25/outbox.cif.g09.slc.cpg/sg10_28_cif.got.tgz:54932.got - 2010.06.27 22:07:45.
