data_PCOD8062748
_publ_section_title
;
Structure prediction by ZEFSAII (Michael W. Deem and Ramdas Pophale) SiO2 
 PCOD8062748
Probable space group: P 2/M
;
_chemical_formula_sum "Si O2"
_cell_formula_units_Z 28
_cell_length_a 27.123545
_cell_length_b 8.889753
_cell_length_c 9.219949
_cell_angle_alpha 90.000000
_cell_angle_beta 38.363127
_cell_angle_gamma 90.000000
_cell_volume 1379.770121
_symmetry_space_group_name_H-M "P 2/M"
_symmetry_group_IT_number 10
_symmetry_cell_setting 'monoclinic'
loop_
_space_group_symop_operation_xyz
x,y,z
-x,y,-z
-x,-y,-z
x,-y,z
loop_
_atom_site_type_symbol
_atom_site_label
_atom_site_fract_x
_atom_site_fract_y
_atom_site_fract_z
Si Si1 0.871946 0.678263 0.447893
Si Si2 0.007013 0.173619 0.317474
Si Si3 0.726847 0.678532 0.976673
Si Si4 0.705926 0.322442 0.347722
Si Si5 0.540648 0.167823 0.753175
Si Si6 0.437385 0.332955 0.770898
Si Si7 0.839331 0.826021 0.218109
O O1 0.869243 0.500000 0.439036
O O2 0.952378 0.725365 0.341453
O O3 0.798886 0.739954 0.713122
O O4 0.869424 0.747794 0.294495
O O5 0.000000 0.228481 0.500000
O O6 0.980756 0.000000 0.363720
O O7 0.096799 0.197934 0.056919
O O8 0.724750 0.500000 0.983874
O O9 0.736056 0.735590 0.120917
O O10 0.644459 0.738131 0.099937
O O11 0.715474 0.500000 0.342275
O O12 0.613916 0.281897 0.578738
O O13 0.756518 0.244175 0.357089
O O14 0.470085 0.218178 0.811819
O O15 0.569745 0.000000 0.644183
O O16 0.500000 0.169396 0.000000
O O17 0.500000 0.348496 0.500000
O O18 0.422878 0.500000 0.871575
O O19 0.825779 0.000000 0.284047
#
# Coordination Sequence:
#
# PCOD8062748 Si02
#       7
#     4   4   4   4   4   4   4
#     4  11  23  39  62  93 125 159 200 247 297 353
#     4  10  22  42  66  90 121 162 202 242 298 359
#     4   9  20  38  60  89 120 151 197 253 302 352
#     4  11  22  41  65  88 116 156 203 249 300 355
#     4  11  25  41  57  86 125 159 199 248 301 357
#     4  10  19  38  64  87 114 155 204 251 300 351
#     4  11  24  41  61  89 126 160 196 246 300 355
#
# _framework density 20.293234999999999
#
# number of rings (size 3 to 8) (size 9 to 14) (size 15 to 20)
#    0.000    1.571    1.429    3.000    2.000    4.571 
#    0.000    2.857    0.000    0.000    0.000    0.000 
#    0.000    0.000    0.000    0.000    0.000    0.000 
#
# Total GULP energy -347298.479649 kJ/mol
# GULP energy per Si atom -12403.517130 kJ/mol
# Density = 2.024705 g / cm^3
# Si number density = 20.293235 Si / 1000 Ang^3
#
#
#
# Elastic Constant Matrix: (Units=GPa)
#
#
# Indices 1 2 3 4 5 6 
#
# 1 137.6171 46.2686 23.6645 0.0000 8.0604 0.0000
# 2 46.2686 81.0756 30.1656 0.0000 8.9548 0.0000
# 3 23.6645 30.1656 60.5423 0.0000 5.9592 0.0000
# 4 0.0000 0.0000 0.0000 27.0970 0.0000 -2.5283
# 5 8.0604 8.9548 5.9592 0.0000 37.2342 0.0000
# 6 0.0000 0.0000 0.0000 -2.5283 0.0000 37.7463
#
#
#
# Elastic Compliance Matrix: (Units=1/GPa)
#
#
# Indices 1 2 3 4 5 6 
#
# 1 0.009076 -0.004679 -0.001152 0.000000 -0.000655 0.000000
# 2 -0.004679 0.017780 -0.006817 0.000000 -0.002172 0.000000
# 3 -0.001152 -0.006817 0.020501 0.000000 -0.001392 0.000000
# 4 0.000000 0.000000 0.000000 0.037137 0.000000 0.002487
# 5 -0.000655 -0.002172 -0.001392 0.000000 0.027744 0.000000
# 6 0.000000 0.000000 0.000000 0.002487 0.000000 0.026659
#
#
# Mechanical properties :
#
#
# Convention : Reuss Voigt Hill
#
# Bulk Modulus (GPa) = 45.32436 53.27027 49.29732
# Shear Modulus (GPa) = 29.14666 32.35790 30.75228
#
# Velocity S-wave (km/s) = 3.79393 3.99747 3.89703
# Velocity P-wave (km/s) = 6.44788 6.90026 6.67790
#
# Compressibility (1/GPa) = 0.02206319
#
# Stress axis : x y z
#
# Youngs Moduli (GPa) = 110.18066 56.24188 48.77775
#
# Poissons Ratio (x) = 0.26313 0.05619
# Poissons Ratio (y) = 0.51549 0.33250
# Poissons Ratio (z) = 0.12692 0.38338
#
# Static dielectric constant tensor:
#      x y z
#    x 3.687130 0.000000 0.040810 
#    y 0.000000 3.696010 0.000000 
#    z 0.040810 0.000000 3.800140 
# 
# 
# High freq. dielectric constant tensor:
#      x y z
#    x 1.805180 0.000000 0.000000 
#    y 0.000000 1.783130 0.000000 
#    z 0.000000 0.000000 1.799580 
# 
# From -- ./inp_files/36694.got.cif
#   From: 2010.06.25/outbox.cif.g09.slc.cpg/sg10_19_cif.got.tgz:36694.got - 2010.06.27 22:07:45.
