data_PCOD8062657
_publ_section_title
;
Structure prediction by ZEFSAII (Michael W. Deem and Ramdas Pophale) SiO2 
 PCOD8062657
Probable space group: P 2/M
;
_chemical_formula_sum "Si O2"
_cell_formula_units_Z 24
_cell_length_a 9.238502
_cell_length_b 15.416199
_cell_length_c 15.311021
_cell_angle_alpha 90.000000
_cell_angle_beta 142.843711
_cell_angle_gamma 90.000000
_cell_volume 1317.084611
_symmetry_space_group_name_H-M "P 2/M"
_symmetry_group_IT_number 10
_symmetry_cell_setting 'monoclinic'
loop_
_space_group_symop_operation_xyz
x,y,z
-x,y,-z
-x,-y,-z
x,-y,z
loop_
_atom_site_type_symbol
_atom_site_label
_atom_site_fract_x
_atom_site_fract_y
_atom_site_fract_z
Si Si1 0.604839 0.500000 0.769653
Si Si2 0.844042 0.688307 0.135822
Si Si3 0.923684 0.101471 0.364233
Si Si4 0.737016 0.658796 0.408824
Si Si5 0.888185 0.500000 0.079774
Si Si6 0.572064 0.244723 0.166678
Si Si7 0.245738 0.776142 0.415714
O O1 0.439850 0.579494 0.664949
O O2 0.845571 0.500000 0.829539
O O3 0.679797 0.500000 0.907009
O O4 0.855051 0.586346 0.120824
O O5 0.722095 0.695651 0.172019
O O6 0.102892 0.733679 0.265505
O O7 0.703835 0.745248 0.994980
O O8 0.671118 0.145984 0.214946
O O9 0.000000 0.125427 0.500000
O O10 0.127214 0.136455 0.396637
O O11 0.891548 0.000000 0.335625
O O12 0.606365 0.723697 0.280749
O O13 0.754470 0.703230 0.510487
O O14 0.000000 0.631503 0.500000
O O15 0.500000 0.803176 0.500000
#
# Coordination Sequence:
#
# PCOD8062657 Si02
#       7
#     2   4   4   4   2   4   4
#     4  11  25  34  55  82 112 159 202 238 277 330
#     4  10  21  36  58  81 117 151 190 238 286 326
#     4  10  19  37  65  89 112 147 190 238 285 342
#     4  12  20  40  58  80 115 151 198 242 276 332
#     4  11  22  39  50  80 120 156 197 232 286 344
#     4  10  19  37  59  86 109 145 196 234 285 339
#     4  11  22  38  58  87 120 151 188 233 291 348
#
# _framework density 18.222062999999999
#
# number of rings (size 3 to 8) (size 9 to 14) (size 15 to 20)
#    0.000    1.333    6.667    1.250    0.000    3.000 
#    0.000    8.333    0.000    0.000    0.000    2.333 
#    0.000    0.000    0.000    0.000    0.000    0.000 
#
# Total GULP energy -297518.177209 kJ/mol
# GULP energy per Si atom -12396.590717 kJ/mol
# Density = 1.818059 g / cm^3
# Si number density = 18.222063 Si / 1000 Ang^3
#
#
#
# Elastic Constant Matrix: (Units=GPa)
#
#
# Indices 1 2 3 4 5 6 
#
# 1 58.7374 43.3439 40.5331 0.0000 6.5025 0.0000
# 2 43.3439 136.0414 62.1407 0.0000 -1.3865 0.0000
# 3 40.5331 62.1407 132.7874 0.0000 4.6891 0.0000
# 4 0.0000 0.0000 0.0000 35.9966 0.0000 -4.0618
# 5 6.5025 -1.3865 4.6891 0.0000 19.3246 0.0000
# 6 0.0000 0.0000 0.0000 -4.0618 0.0000 10.7394
#
#
#
# Elastic Compliance Matrix: (Units=1/GPa)
#
#
# Indices 1 2 3 4 5 6 
#
# 1 0.025648 -0.006110 -0.004689 0.000000 -0.007931 0.000000
# 2 -0.006110 0.010864 -0.003348 0.000000 0.003648 0.000000
# 3 -0.004689 -0.003348 0.010572 0.000000 -0.001228 0.000000
# 4 0.000000 0.000000 0.000000 0.029019 0.000000 0.010975
# 5 -0.007931 0.003648 -0.001228 0.000000 0.054976 0.000000
# 6 0.000000 0.000000 0.000000 0.010975 0.000000 0.097266
#
#
# Mechanical properties :
#
#
# Convention : Reuss Voigt Hill
#
# Bulk Modulus (GPa) = 53.22234 68.84463 61.03349
# Shear Modulus (GPa) = 19.01847 25.31537 22.16692
#
# Velocity S-wave (km/s) = 3.23415 3.73133 3.49160
# Velocity P-wave (km/s) = 6.57399 7.51177 7.05847
#
# Compressibility (1/GPa) = 0.01878910
#
# Stress axis : x y z
#
# Youngs Moduli (GPa) = 38.98940 92.04871 94.58789
#
# Poissons Ratio (x) = 0.56246 0.44356
# Poissons Ratio (y) = 0.23824 0.31664
# Poissons Ratio (z) = 0.18284 0.30814
#
# Static dielectric constant tensor:
#      x y z
#    x 3.265900 0.000000 0.061070 
#    y 0.000000 -0.405850 0.000000 
#    z 0.061070 0.000000 3.882430 
# 
# 
# High freq. dielectric constant tensor:
#      x y z
#    x 1.692990 0.000000 -0.002510 
#    y 0.000000 1.694640 0.000000 
#    z -0.002510 0.000000 1.726190 
# 
# From -- ./inp_files/29339.got.cif
#   From: 2010.06.25/outbox.cif.g09.slc.cpg/sg10_15_cif.got.tgz:29339.got - 2010.06.27 22:07:45.
