data_PCOD8062051
_publ_section_title
;
Structure prediction by ZEFSAII (Michael W. Deem and Ramdas Pophale) SiO2 
 PCOD8062051
Probable space group: P 2/M
;
_chemical_formula_sum "Si O2"
_cell_formula_units_Z 28
_cell_length_a 9.335195
_cell_length_b 8.899816
_cell_length_c 29.231776
_cell_angle_alpha 90.000000
_cell_angle_beta 37.170430
_cell_angle_gamma 90.000000
_cell_volume 1467.343132
_symmetry_space_group_name_H-M "P 2/M"
_symmetry_group_IT_number 10
_symmetry_cell_setting 'monoclinic'
loop_
_space_group_symop_operation_xyz
x,y,z
-x,y,-z
-x,-y,-z
x,-y,z
loop_
_atom_site_type_symbol
_atom_site_label
_atom_site_fract_x
_atom_site_fract_y
_atom_site_fract_z
Si Si1 0.075220 0.322386 0.709589
Si Si2 0.671919 0.824725 0.866789
Si Si3 0.400193 0.174493 0.699713
Si Si4 0.827957 0.326450 0.001874
Si Si5 0.100940 0.322742 0.425101
Si Si6 0.982574 0.171769 0.873580
Si Si7 0.764448 0.678081 0.430063
O O1 0.078998 0.500000 0.713767
O O2 0.292746 0.258235 0.683380
O O3 0.109825 0.270147 0.648612
O O4 0.822081 0.261365 0.790254
O O5 0.402579 0.774258 0.932775
O O6 0.773379 0.788923 0.891231
O O7 0.693526 0.000000 0.850504
O O8 0.654607 0.239679 0.646970
O O9 0.235600 0.200519 0.785784
O O10 0.416325 0.000000 0.683256
O O11 0.753462 0.500000 0.018466
O O12 0.963802 0.282219 0.921110
O O13 0.000000 0.293017 0.000000
O O14 0.144791 0.500000 0.410372
O O15 0.000000 0.276871 0.500000
O O16 0.915983 0.263189 0.434419
O O17 0.957668 0.000000 0.896628
O O18 0.500000 0.747168 0.500000
O O19 0.747614 0.500000 0.436589
#
# Coordination Sequence:
#
# PCOD8062051 Si02
#       7
#     4   4   4   4   4   4   4
#     4  10  19  34  58  84 110 141 180 225 271 321
#     4  10  21  38  59  82 110 143 181 223 270 327
#     4  10  21  37  56  81 113 144 179 223 270 324
#     4  11  24  38  54  81 113 143 181 227 270 317
#     4  10  20  35  57  82 108 143 186 228 273 323
#     4   9  20  38  58  80 106 141 182 222 269 326
#     4   9  18  33  54  81 110 140 179 227 273 319
#
# _framework density 19.082107000000001
#
# number of rings (size 3 to 8) (size 9 to 14) (size 15 to 20)
#    0.000    2.143    0.000    3.857    0.000   10.000 
#    0.000    5.714    0.000    3.000    0.000    0.000 
#    0.000    0.000    0.000    0.000    0.000    0.000 
#
# Total GULP energy -347311.659854 kJ/mol
# GULP energy per Si atom -12403.987852 kJ/mol
# Density = 1.903867 g / cm^3
# Si number density = 19.082107 Si / 1000 Ang^3
#
#
#
# Elastic Constant Matrix: (Units=GPa)
#
#
# Indices 1 2 3 4 5 6 
#
# 1 134.7935 48.3849 86.2124 0.0000 5.1203 0.0000
# 2 48.3849 66.5332 45.1330 0.0000 2.8458 0.0000
# 3 86.2124 45.1330 120.4238 0.0000 0.2338 0.0000
# 4 0.0000 0.0000 0.0000 21.8812 0.0000 -9.0450
# 5 5.1203 2.8458 0.2338 0.0000 35.9855 0.0000
# 6 0.0000 0.0000 0.0000 -9.0450 0.0000 19.5087
#
#
#
# Elastic Compliance Matrix: (Units=1/GPa)
#
#
# Indices 1 2 3 4 5 6 
#
# 1 0.014835 -0.004713 -0.008851 0.000000 -0.001681 0.000000
# 2 -0.004713 0.021737 -0.004771 0.000000 -0.001017 0.000000
# 3 -0.008851 -0.004771 0.016426 0.000000 0.001530 0.000000
# 4 0.000000 0.000000 0.000000 0.056537 0.000000 0.026213
# 5 -0.001681 -0.001017 0.001530 0.000000 0.028099 0.000000
# 6 0.000000 0.000000 0.000000 0.026213 0.000000 0.063413
#
#
# Mechanical properties :
#
#
# Convention : Reuss Voigt Hill
#
# Bulk Modulus (GPa) = 61.24210 75.69013 68.46611
# Shear Modulus (GPa) = 20.56267 24.94310 22.75289
#
# Velocity S-wave (km/s) = 3.28623 3.61937 3.45681
# Velocity P-wave (km/s) = 6.82369 7.56426 7.20350
#
# Compressibility (1/GPa) = 0.01632864
#
# Stress axis : x y z
#
# Youngs Moduli (GPa) = 67.40637 46.00421 60.87955
#
# Poissons Ratio (x) = 0.21680 0.53886
# Poissons Ratio (y) = 0.31765 0.29046
# Poissons Ratio (z) = 0.59664 0.21949
#
# Static dielectric constant tensor:
#      x y z
#    x 3.547140 0.000000 0.009530 
#    y 0.000000 3.382510 0.000000 
#    z 0.009530 0.000000 3.559280 
# 
# 
# High freq. dielectric constant tensor:
#      x y z
#    x 1.742690 0.000000 -0.001760 
#    y 0.000000 1.733890 0.000000 
#    z -0.001760 0.000000 1.754280 
# 
# From -- ./inp_files/37297.got.cif
#   From: 2010.06.25/outbox.cif.g09.slc.cpg/sg10_19_cif.got.tgz:37297.got - 2010.06.27 22:07:45.
