data_PCOD8062039
_publ_section_title
;
Structure prediction by ZEFSAII (Michael W. Deem and Ramdas Pophale) SiO2 
 PCOD8062039
Probable space group: P 2/M
;
_chemical_formula_sum "Si O2"
_cell_formula_units_Z 32
_cell_length_a 12.643317
_cell_length_b 8.972499
_cell_length_c 31.133367
_cell_angle_alpha 90.000000
_cell_angle_beta 28.031020
_cell_angle_gamma 90.000000
_cell_volume 1659.784672
_symmetry_space_group_name_H-M "P 2/M"
_symmetry_group_IT_number 10
_symmetry_cell_setting 'monoclinic'
loop_
_space_group_symop_operation_xyz
x,y,z
-x,y,-z
-x,-y,-z
x,-y,z
loop_
_atom_site_type_symbol
_atom_site_label
_atom_site_fract_x
_atom_site_fract_y
_atom_site_fract_z
Si Si1 0.374666 0.832944 0.671564
Si Si2 0.429041 0.825664 0.787144
Si Si3 0.420471 0.323547 0.881420
Si Si4 0.063742 0.673659 0.153604
Si Si5 0.758598 0.174012 0.595930
Si Si6 0.930160 0.827065 0.934727
Si Si7 0.850360 0.675654 0.781807
Si Si8 0.303662 0.168521 0.599444
O O1 0.613575 0.792038 0.605791
O O2 0.406679 0.828325 0.609657
O O3 0.199947 0.709267 0.749700
O O4 0.295996 0.000000 0.714939
O O5 0.449770 0.730712 0.822591
O O6 0.629756 0.766324 0.684439
O O7 0.195256 0.796805 0.845873
O O8 0.451288 0.000000 0.790454
O O9 0.396572 0.500000 0.890602
O O10 0.632376 0.270258 0.834055
O O11 0.195038 0.252590 0.981202
O O12 0.105379 0.500000 0.130674
O O13 0.162921 0.761343 0.077118
O O14 0.174494 0.726785 0.159202
O O15 0.000000 0.251573 0.500000
O O16 0.794338 0.000000 0.590533
O O17 0.870657 0.000000 0.957431
O O18 0.881564 0.500000 0.769144
O O19 0.069618 0.743771 0.680412
O O20 0.500000 0.242005 0.500000
O O21 0.254322 0.000000 0.601758
#
# Coordination Sequence:
#
# PCOD8062039 Si02
#       8
#     4   4   4   4   4   4   4   4
#     4   9  16  31  51  75 109 144 179 226 277 325
#     4  10  21  38  58  82 113 148 188 233 280 335
#     4  11  24  40  57  81 114 152 190 232 282 335
#     4  10  19  34  58  82 106 143 186 227 274 330
#     4   9  17  31  54  82 109 144 184 223 275 334
#     4  11  22  38  60  86 113 145 186 232 284 337
#     4   9  21  39  55  77 113 152 187 228 281 338
#     4   9  18  31  53  84 111 141 187 238 279 325
#
# _framework density 19.279610000000002
#
# number of rings (size 3 to 8) (size 9 to 14) (size 15 to 20)
#    0.000    2.250    1.250    1.500    0.000    5.750 
#    0.000    5.000    0.000    1.500    0.000    0.000 
#    0.000    0.000    0.000    0.000    0.000    0.000 
#
# Total GULP energy -396745.101769 kJ/mol
# GULP energy per Si atom -12398.284430 kJ/mol
# Density = 1.923573 g / cm^3
# Si number density = 19.279610 Si / 1000 Ang^3
#
#
#
# Elastic Constant Matrix: (Units=GPa)
#
#
# Indices 1 2 3 4 5 6 
#
# 1 89.0544 36.1198 35.7932 0.0000 5.9338 0.0000
# 2 36.1198 54.6071 31.2328 0.0000 2.8383 0.0000
# 3 35.7932 31.2328 111.9209 0.0000 12.5979 0.0000
# 4 0.0000 0.0000 0.0000 24.1117 0.0000 4.1684
# 5 5.9338 2.8383 12.5979 0.0000 27.7040 0.0000
# 6 0.0000 0.0000 0.0000 4.1684 0.0000 29.0436
#
#
#
# Elastic Compliance Matrix: (Units=1/GPa)
#
#
# Indices 1 2 3 4 5 6 
#
# 1 0.015993 -0.009127 -0.002411 0.000000 -0.001394 0.000000
# 2 -0.009127 0.027008 -0.004771 0.000000 0.001357 0.000000
# 3 -0.002411 -0.004771 0.011513 0.000000 -0.004230 0.000000
# 4 0.000000 0.000000 0.000000 0.042529 0.000000 -0.006104
# 5 -0.001394 0.001357 -0.004230 0.000000 0.038179 0.000000
# 6 0.000000 0.000000 0.000000 -0.006104 0.000000 0.035307
#
#
# Mechanical properties :
#
#
# Convention : Reuss Voigt Hill
#
# Bulk Modulus (GPa) = 45.66849 51.31936 48.49393
# Shear Modulus (GPa) = 23.75916 26.33429 25.04672
#
# Velocity S-wave (km/s) = 3.51429 3.69984 3.60826
# Velocity P-wave (km/s) = 6.34081 6.70283 6.52433
#
# Compressibility (1/GPa) = 0.02189693
#
# Stress axis : x y z
#
# Youngs Moduli (GPa) = 62.52806 37.02624 86.85578
#
# Poissons Ratio (x) = 0.33795 0.20938
# Poissons Ratio (y) = 0.57071 0.41436
# Poissons Ratio (z) = 0.15073 0.17664
#
# Static dielectric constant tensor:
#      x y z
#    x 3.673060 0.000000 0.051620 
#    y 0.000000 3.357950 0.000000 
#    z 0.051620 0.000000 3.616520 
# 
# 
# High freq. dielectric constant tensor:
#      x y z
#    x 1.757400 0.000000 0.008750 
#    y 0.000000 1.729820 0.000000 
#    z 0.008750 0.000000 1.750260 
# 
# From -- ./inp_files/49857.got.cif
#   From: 2010.06.25/outbox.cif.g09.slc.cpg/sg10_25_cif.got.tgz:49857.got - 2010.06.27 22:07:45.
