data_PCOD8062787
_publ_section_title
;
Structure prediction by ZEFSAII (Michael W. Deem and Ramdas Pophale) SiO2 
 PCOD8062787
Probable space group: P 2/M
;
_chemical_formula_sum "Si O2"
_cell_formula_units_Z 24
_cell_length_a 8.910669
_cell_length_b 13.709230
_cell_length_c 12.936469
_cell_angle_alpha 90.000000
_cell_angle_beta 107.835113
_cell_angle_gamma 90.000000
_cell_volume 1504.352307
_symmetry_space_group_name_H-M "P 2/M"
_symmetry_group_IT_number 10
_symmetry_cell_setting 'monoclinic'
loop_
_space_group_symop_operation_xyz
x,y,z
-x,y,-z
-x,-y,-z
x,-y,z
loop_
_atom_site_type_symbol
_atom_site_label
_atom_site_fract_x
_atom_site_fract_y
_atom_site_fract_z
Si Si1 0.748473 0.615539 0.340866
Si Si2 0.330406 0.757730 0.511887
Si Si3 0.029031 0.609886 0.891401
Si Si4 0.378552 0.391294 0.897449
Si Si5 0.026046 0.728964 0.316935
Si Si6 0.138611 0.891314 0.611828
O O1 0.752632 0.500000 0.342876
O O2 0.666257 0.654509 0.427123
O O3 0.647161 0.656392 0.221113
O O4 0.930159 0.652090 0.368917
O O5 0.500000 0.781929 0.500000
O O6 0.201583 0.748858 0.394402
O O7 0.287926 0.841047 0.587045
O O8 0.958089 0.500000 0.860240
O O9 0.214464 0.605028 0.920533
O O10 0.955470 0.686837 0.794755
O O11 0.000000 0.649737 0.000000
O O12 0.446398 0.500000 0.893298
O O13 0.500000 0.334325 0.000000
O O14 0.923101 0.829363 0.301986
O O15 0.000000 0.894611 0.500000
O O16 0.185780 0.000000 0.658558
#
# Coordination Sequence:
#
# PCOD8062787 Si02
#       6
#     4   4   4   4   4   4
#     4   9  17  29  43  58  83 121 154 176 206 253
#     4  10  20  29  40  65  93 112 139 180 223 259
#     4   9  17  28  43  63  87 117 149 177 208 247
#     4   8  14  25  40  57  77 105 144 182 208 236
#     4   9  17  30  46  62  85 115 148 180 208 255
#     4   8  15  30  50  66  81 108 143 175 213 265
#
# _framework density 15.953709
#
# number of rings (size 3 to 8) (size 9 to 14) (size 15 to 20)
#    0.000    3.167    0.000    3.000    0.000    4.000 
#    0.000    1.667    0.000    0.500    0.000    0.000 
#    0.000   55.333    0.000    0.000    0.000    0.000 
#
# Total GULP energy -297335.709960 kJ/mol
# GULP energy per Si atom -12388.987915 kJ/mol
# Density = 1.591740 g / cm^3
# Si number density = 15.953709 Si / 1000 Ang^3
#
#
#
# Elastic Constant Matrix: (Units=GPa)
#
#
# Indices 1 2 3 4 5 6 
#
# 1 80.3348 29.5770 42.7129 0.0000 0.0028 0.0000
# 2 29.5770 96.5389 41.8424 0.0000 -6.3021 0.0000
# 3 42.7129 41.8424 84.2612 0.0000 -9.7523 0.0000
# 4 0.0000 0.0000 0.0000 14.5291 0.0000 -2.5762
# 5 0.0028 -6.3021 -9.7523 0.0000 28.1111 0.0000
# 6 0.0000 0.0000 0.0000 -2.5762 0.0000 12.8852
#
#
#
# Elastic Compliance Matrix: (Units=1/GPa)
#
#
# Indices 1 2 3 4 5 6 
#
# 1 0.017608 -0.002009 -0.008314 0.000000 -0.003337 0.000000
# 2 -0.002009 0.013442 -0.005530 0.000000 0.001095 0.000000
# 3 -0.008314 -0.005530 0.019467 0.000000 0.005514 0.000000
# 4 0.000000 0.000000 0.000000 0.071357 0.000000 0.014267
# 5 -0.003337 0.001095 0.005514 0.000000 0.037732 0.000000
# 6 0.000000 0.000000 0.000000 0.014267 0.000000 0.080461
#
#
# Mechanical properties :
#
#
# Convention : Reuss Voigt Hill
#
# Bulk Modulus (GPa) = 53.16113 54.37773 53.76943
# Shear Modulus (GPa) = 17.98270 20.90524 19.44397
#
# Velocity S-wave (km/s) = 3.36099 3.62383 3.49488
# Velocity P-wave (km/s) = 6.96104 7.18806 7.07546
#
# Compressibility (1/GPa) = 0.01881074
#
# Stress axis : x y z
#
# Youngs Moduli (GPa) = 56.79140 74.39161 51.36914
#
# Poissons Ratio (x) = 0.14944 0.42711
# Poissons Ratio (y) = 0.11409 0.28408
# Poissons Ratio (z) = 0.47219 0.41140
#
# Static dielectric constant tensor:
#      x y z
#    x 2.879270 0.000000 0.021280 
#    y 0.000000 3.102100 0.000000 
#    z 0.021280 0.000000 3.092710 
# 
# 
# High freq. dielectric constant tensor:
#      x y z
#    x 1.598640 0.000000 -0.002140 
#    y 0.000000 1.584990 0.000000 
#    z -0.002140 0.000000 1.603570 
# 
# From -- ./inp_files/24564.got.cif
#   From: 2010.06.25/outbox.cif.g09.slc.cpg/sg10_13_cif.got.tgz:24564.got - 2010.06.27 22:07:45.
