data_PCOD8062305
_publ_section_title
;
Structure prediction by ZEFSAII (Michael W. Deem and Ramdas Pophale) SiO2 
 PCOD8062305
Probable space group: P 2/M
;
_chemical_formula_sum "Si O2"
_cell_formula_units_Z 32
_cell_length_a 19.780743
_cell_length_b 8.791449
_cell_length_c 25.337069
_cell_angle_alpha 90.000000
_cell_angle_beta 158.064803
_cell_angle_gamma 90.000000
_cell_volume 1645.951793
_symmetry_space_group_name_H-M "P 2/M"
_symmetry_group_IT_number 10
_symmetry_cell_setting 'monoclinic'
loop_
_space_group_symop_operation_xyz
x,y,z
-x,y,-z
-x,-y,-z
x,-y,z
loop_
_atom_site_type_symbol
_atom_site_label
_atom_site_fract_x
_atom_site_fract_y
_atom_site_fract_z
Si Si1 0.334842 0.825834 0.141872
Si Si2 0.017132 0.673402 0.074660
Si Si3 0.388614 0.679903 0.578850
Si Si4 0.153790 0.675594 0.569840
Si Si5 0.487973 0.825382 0.140105
Si Si6 0.057637 0.179510 0.391530
Si Si7 0.340639 0.820678 0.921427
Si Si8 0.581725 0.318945 0.613605
O O1 0.476140 0.723855 0.276142
O O2 0.361644 0.801304 0.099137
O O3 0.366801 0.000000 0.181563
O O4 0.130149 0.779170 0.004853
O O5 0.989531 0.500000 0.073830
O O6 0.212410 0.738283 0.232743
O O7 0.000000 0.683371 0.000000
O O8 0.371990 0.500000 0.566246
O O9 0.190325 0.749726 0.443804
O O10 0.465511 0.742602 0.578931
O O11 0.150640 0.500000 0.550258
O O12 0.340961 0.715396 0.733400
O O13 0.129637 0.779533 0.501333
O O14 0.000000 0.715206 0.500000
O O15 0.554340 0.000000 0.183478
O O16 0.374442 0.776874 0.006582
O O17 0.855154 0.246143 0.236980
O O18 0.062045 0.000000 0.387513
O O19 0.335768 0.000000 0.909326
O O20 0.500000 0.750697 0.000000
O O21 0.500000 0.254248 0.500000
O O22 0.578962 0.500000 0.612644
#
# Coordination Sequence:
#
# PCOD8062305 Si02
#       8
#     4   4   4   4   4   4   4   4
#     4  11  22  35  56  87 118 149 191 241 292 343
#     4  10  19  35  58  83 109 149 195 233 283 340
#     4  11  21  37  60  84 117 154 192 241 292 345
#     4  11  23  37  56  85 117 149 191 242 290 341
#     4  10  21  38  59  84 114 151 193 238 288 346
#     4  11  22  37  60  88 116 153 197 239 292 356
#     4   9  19  37  60  84 113 152 195 237 286 347
#     4   9  19  36  58  84 114 151 196 239 283 344
#
# _framework density 19.441638000000001
#
# number of rings (size 3 to 8) (size 9 to 14) (size 15 to 20)
#    0.000    1.750    2.500    2.250    0.000    3.750 
#    0.000    1.250    0.000    6.000    0.000    0.000 
#    0.000    0.000    0.000    0.000    0.000    0.000 
#
# Total GULP energy -396907.892746 kJ/mol
# GULP energy per Si atom -12403.371648 kJ/mol
# Density = 1.939739 g / cm^3
# Si number density = 19.441638 Si / 1000 Ang^3
#
#
#
# Elastic Constant Matrix: (Units=GPa)
#
#
# Indices 1 2 3 4 5 6 
#
# 1 117.7548 28.7798 49.5672 0.0000 9.4249 0.0000
# 2 28.7798 46.0467 16.7821 0.0000 10.0946 0.0000
# 3 49.5672 16.7821 130.4130 0.0000 12.0256 0.0000
# 4 0.0000 0.0000 0.0000 28.5239 0.0000 3.9436
# 5 9.4249 10.0946 12.0256 0.0000 42.5251 0.0000
# 6 0.0000 0.0000 0.0000 3.9436 0.0000 29.8915
#
#
#
# Elastic Compliance Matrix: (Units=1/GPa)
#
#
# Indices 1 2 3 4 5 6 
#
# 1 0.011432 -0.005808 -0.003585 0.000000 -0.000141 0.000000
# 2 -0.005808 0.026690 -0.000782 0.000000 -0.004827 0.000000
# 3 -0.003585 -0.000782 0.009283 0.000000 -0.001645 0.000000
# 4 0.000000 0.000000 0.000000 0.035710 0.000000 -0.004711
# 5 -0.000141 -0.004827 -0.001645 0.000000 0.025158 0.000000
# 6 0.000000 0.000000 0.000000 -0.004711 0.000000 0.034076
#
#
# Mechanical properties :
#
#
# Convention : Reuss Voigt Hill
#
# Bulk Modulus (GPa) = 36.96025 53.83031 45.39528
# Shear Modulus (GPa) = 29.11789 33.46046 31.28917
#
# Velocity S-wave (km/s) = 3.87422 4.15308 4.01607
# Velocity P-wave (km/s) = 6.25019 7.12360 6.70114
#
# Compressibility (1/GPa) = 0.02705610
#
# Stress axis : x y z
#
# Youngs Moduli (GPa) = 87.47501 37.46688 107.72709
#
# Poissons Ratio (x) = 0.21759 0.38616
# Poissons Ratio (y) = 0.50802 0.08426
# Poissons Ratio (z) = 0.31356 0.02930
#
# Static dielectric constant tensor:
#      x y z
#    x 3.734910 0.000000 0.116810 
#    y 0.000000 3.313560 0.000000 
#    z 0.116810 0.000000 3.687490 
# 
# 
# High freq. dielectric constant tensor:
#      x y z
#    x 1.768260 0.000000 0.008350 
#    y 0.000000 1.732960 0.000000 
#    z 0.008350 0.000000 1.763290 
# 
# From -- ./inp_files/93733.got.cif
#   From: 2010.06.25/outbox.cif.g09.slc.cpg/sg10_47_cif.got.tgz:93733.got - 2010.06.27 22:07:45.
