data_PCOD8062621
_publ_section_title
;
Structure prediction by ZEFSAII (Michael W. Deem and Ramdas Pophale) SiO2 
 PCOD8062621
Probable space group: P 2/M
;
_chemical_formula_sum "Si O2"
_cell_formula_units_Z 32
_cell_length_a 13.803603
_cell_length_b 17.811244
_cell_length_c 11.215237
_cell_angle_alpha 90.000000
_cell_angle_beta 31.830722
_cell_angle_gamma 90.000000
_cell_volume 1454.268872
_symmetry_space_group_name_H-M "P 2/M"
_symmetry_group_IT_number 10
_symmetry_cell_setting 'monoclinic'
loop_
_space_group_symop_operation_xyz
x,y,z
-x,y,-z
-x,-y,-z
x,-y,z
loop_
_atom_site_type_symbol
_atom_site_label
_atom_site_fract_x
_atom_site_fract_y
_atom_site_fract_z
Si Si1 0.579394 0.842591 0.169896
Si Si2 0.553978 0.318826 0.078268
Si Si3 0.182951 0.828155 0.519931
Si Si4 0.176166 0.587256 0.078936
Si Si5 0.795604 0.344422 0.441799
Si Si6 0.712917 0.678764 0.260170
Si Si7 0.288037 0.916119 0.190173
Si Si8 0.880486 0.167731 0.018136
O O1 0.588880 0.755108 0.122144
O O2 0.364004 0.864956 0.395578
O O3 0.672112 0.859361 0.203419
O O4 0.715172 0.888791 0.941758
O O5 0.396173 0.372032 0.301371
O O6 0.500000 0.295640 0.000000
O O7 0.736437 0.369204 0.898737
O O8 0.190295 0.738723 0.515947
O O9 0.172581 0.860144 0.396237
O O10 0.999281 0.851514 0.778109
O O11 0.213536 0.500000 0.053643
O O12 0.959689 0.602795 0.311824
O O13 0.269530 0.614044 0.857133
O O14 0.790230 0.348918 0.305058
O O15 0.500000 0.704510 0.500000
O O16 0.851659 0.744607 0.075358
O O17 0.206663 0.000000 0.287910
O O18 0.500000 0.912922 0.000000
O O19 0.000000 0.130076 0.000000
#
# Coordination Sequence:
#
# PCOD8062621 Si02
#       8
#     4   4   4   4   4   4   4   4
#     4  10  20  38  63  94 125 162 206 253 310 367
#     4  11  23  42  65  89 122 163 216 264 309 382
#     4  10  19  36  62  91 128 165 203 250 308 367
#     4  12  26  42  62  91 125 167 211 265 333 380
#     4  11  21  40  65  93 124 164 212 263 312 376
#     4  12  21  41  66  93 126 159 210 269 323 374
#     4   9  19  38  67 102 134 163 203 258 316 369
#     4  12  22  34  60  93 123 159 208 259 305 364
#
# _framework density 22.004183999999999
#
# number of rings (size 3 to 8) (size 9 to 14) (size 15 to 20)
#    0.000    1.125    5.000    3.000    0.000    3.000 
#    0.000    5.625    0.000    1.500    0.000    3.500 
#    0.000    0.000    0.000    0.000    0.000    0.000 
#
# Total GULP energy -396439.478328 kJ/mol
# GULP energy per Si atom -12388.733698 kJ/mol
# Density = 2.195410 g / cm^3
# Si number density = 22.004184 Si / 1000 Ang^3
#
#
#
# Elastic Constant Matrix: (Units=GPa)
#
#
# Indices 1 2 3 4 5 6 
#
# 1 116.0469 13.6144 15.7425 0.0000 -14.9051 0.0000
# 2 13.6144 58.0493 8.9312 0.0000 1.0006 0.0000
# 3 15.7425 8.9312 84.4955 0.0000 -10.9685 0.0000
# 4 0.0000 0.0000 0.0000 20.1352 0.0000 5.0787
# 5 -14.9051 1.0006 -10.9685 0.0000 25.9138 0.0000
# 6 0.0000 0.0000 0.0000 5.0787 0.0000 11.0068
#
#
#
# Elastic Compliance Matrix: (Units=1/GPa)
#
#
# Indices 1 2 3 4 5 6 
#
# 1 0.009676 -0.002224 -0.000882 0.000000 0.005278 0.000000
# 2 -0.002224 0.018082 -0.001855 0.000000 -0.002763 0.000000
# 3 -0.000882 -0.001855 0.012845 0.000000 0.005001 0.000000
# 4 0.000000 0.000000 0.000000 0.056206 0.000000 -0.025934
# 5 0.005278 -0.002763 0.005001 0.000000 0.043849 0.000000
# 6 0.000000 0.000000 0.000000 -0.025934 0.000000 0.102820
#
#
# Mechanical properties :
#
#
# Convention : Reuss Voigt Hill
#
# Bulk Modulus (GPa) = 32.59754 37.24087 34.91920
# Shear Modulus (GPa) = 18.96624 26.09805 22.53214
#
# Velocity S-wave (km/s) = 2.93906 3.44764 3.20346
# Velocity P-wave (km/s) = 5.13457 5.72796 5.43936
#
# Compressibility (1/GPa) = 0.03067717
#
# Stress axis : x y z
#
# Youngs Moduli (GPa) = 103.35117 55.30497 77.85335
#
# Poissons Ratio (x) = 0.12302 0.06870
# Poissons Ratio (y) = 0.22990 0.14445
# Poissons Ratio (z) = 0.09121 0.10262
#
# Static dielectric constant tensor:
#      x y z
#    x 4.247060 0.000000 -0.106900 
#    y 0.000000 3.512950 0.000000 
#    z -0.106900 0.000000 4.419460 
# 
# 
# High freq. dielectric constant tensor:
#      x y z
#    x 1.879280 0.000000 -0.017320 
#    y 0.000000 1.808610 0.000000 
#    z -0.017320 0.000000 1.875090 
# 
# From -- ./inp_files/51949.got.cif
#   From: 2010.06.25/outbox.cif.g09.slc.cpg/sg10_26_cif.got.tgz:51949.got - 2010.06.27 22:07:45.
