data_PCOD8062033
_publ_section_title
;
Structure prediction by ZEFSAII (Michael W. Deem and Ramdas Pophale) SiO2 
 PCOD8062033
Probable space group: P 2/M
;
_chemical_formula_sum "Si O2"
_cell_formula_units_Z 32
_cell_length_a 21.613208
_cell_length_b 9.092782
_cell_length_c 28.050743
_cell_angle_alpha 90.000000
_cell_angle_beta 18.845637
_cell_angle_gamma 90.000000
_cell_volume 1780.693917
_symmetry_space_group_name_H-M "P 2/M"
_symmetry_group_IT_number 10
_symmetry_cell_setting 'monoclinic'
loop_
_space_group_symop_operation_xyz
x,y,z
-x,y,-z
-x,-y,-z
x,-y,z
loop_
_atom_site_type_symbol
_atom_site_label
_atom_site_fract_x
_atom_site_fract_y
_atom_site_fract_z
Si Si1 0.484793 0.174544 0.956770
Si Si2 0.789185 0.172122 0.658389
Si Si3 0.798361 0.329987 0.354501
Si Si4 0.870611 0.827428 0.203060
Si Si5 0.566874 0.827302 0.343030
Si Si6 0.786287 0.330582 0.913528
Si Si7 0.727098 0.171272 0.127678
Si Si8 0.457190 0.830009 0.833621
O O1 0.669901 0.230279 0.791372
O O2 0.464860 0.000000 0.968007
O O3 0.500000 0.228692 0.000000
O O4 0.293221 0.244338 0.074397
O O5 0.670722 0.208404 0.696469
O O6 0.000000 0.246985 0.500000
O O7 0.817856 0.000000 0.644356
O O8 0.753658 0.500000 0.377878
O O9 0.815979 0.253165 0.290960
O O10 0.630212 0.257092 0.507015
O O11 0.986592 0.309107 0.249478
O O12 0.706217 0.793498 0.285051
O O13 0.887746 0.000000 0.201687
O O14 0.070456 0.761934 0.037227
O O15 0.661854 0.761672 0.225566
O O16 0.523671 0.000000 0.369836
O O17 0.727554 0.500000 0.951818
O O18 0.698810 0.267512 0.025932
O O19 0.561624 0.201833 0.208954
O O20 0.762317 0.000000 0.110031
O O21 0.409884 0.000000 0.879747
#
# Coordination Sequence:
#
# PCOD8062033 Si02
#       8
#     4   4   4   4   4   4   4   4
#     4   9  18  33  53  79 104 130 167 210 254 299
#     4   8  14  26  46  73 103 127 153 195 243 293
#     4  11  23  37  52  74 106 142 180 218 258 308
#     4  10  19  34  58  79 100 133 174 220 268 318
#     4  10  21  35  52  79 108 135 169 217 275 322
#     4  10  20  34  53  75 101 138 179 212 250 300
#     4   9  17  32  54  80 104 129 170 219 266 317
#     4   9  16  30  54  77  99 132 171 210 255 303
#
# _framework density 17.970521999999999
#
# number of rings (size 3 to 8) (size 9 to 14) (size 15 to 20)
#    0.000    2.500    1.250    2.250    0.000    5.250 
#    2.250    1.250    0.000    7.500    0.000    0.000 
#    0.000    0.000    0.000    0.000    0.000    0.000 
#
# Total GULP energy -396735.569125 kJ/mol
# GULP energy per Si atom -12397.986535 kJ/mol
# Density = 1.792962 g / cm^3
# Si number density = 17.970522 Si / 1000 Ang^3
#
#
#
# Elastic Constant Matrix: (Units=GPa)
#
#
# Indices 1 2 3 4 5 6 
#
# 1 104.6254 35.7381 47.4813 0.0000 2.0206 0.0000
# 2 35.7381 43.6102 31.5561 0.0000 -3.6713 0.0000
# 3 47.4813 31.5561 116.4645 0.0000 -6.1100 0.0000
# 4 0.0000 0.0000 0.0000 11.3926 0.0000 -11.3290
# 5 2.0206 -3.6713 -6.1100 0.0000 28.8968 0.0000
# 6 0.0000 0.0000 0.0000 -11.3290 0.0000 9.2116
#
#
#
# Elastic Compliance Matrix: (Units=1/GPa)
#
#
# Indices 1 2 3 4 5 6 
#
# 1 0.014461 -0.009604 -0.003449 0.000000 -0.002961 0.000000
# 2 -0.009604 0.035018 -0.005363 0.000000 0.003986 0.000000
# 3 -0.003449 -0.005363 0.011550 0.000000 0.002002 0.000000
# 4 0.000000 0.000000 0.000000 -0.393613 0.000000 -0.484090
# 5 -0.002961 0.003986 0.002002 0.000000 0.035743 0.000000
# 6 0.000000 0.000000 0.000000 -0.484090 0.000000 -0.486807
#
#
# Mechanical properties :
#
#
# Convention : Reuss Voigt Hill
#
# Bulk Modulus (GPa) = 41.32838 54.91680 48.12259
# Shear Modulus (GPa) = -6.76819 19.89516 6.56349
#
# Velocity S-wave (km/s) = -1.94279 3.33092 1.91319
# Velocity P-wave (km/s) = 4.24443 6.73937 5.63180
#
# Compressibility (1/GPa) = 0.02419645
#
# Stress axis : x y z
#
# Youngs Moduli (GPa) = 69.15266 28.55710 86.57676
#
# Poissons Ratio (x) = 0.27427 0.29856
# Poissons Ratio (y) = 0.66417 0.46434
# Poissons Ratio (z) = 0.23847 0.15316
#
# Static dielectric constant tensor:
#      x y z
#    x 3.457290 0.000000 -0.046080 
#    y 0.000000 3.069400 0.000000 
#    z -0.046080 0.000000 3.503220 
# 
# 
# High freq. dielectric constant tensor:
#      x y z
#    x 1.704030 0.000000 -0.007720 
#    y 0.000000 1.664330 0.000000 
#    z -0.007720 0.000000 1.693810 
# 
# From -- ./inp_files/86882.got.cif
#   From: 2010.06.25/outbox.cif.g09.slc.cpg/sg10_44_cif.got.tgz:86882.got - 2010.06.27 22:07:45.
