data_PCOD8062144
_publ_section_title
;
Structure prediction by ZEFSAII (Michael W. Deem and Ramdas Pophale) SiO2 
 PCOD8062144
Probable space group: P 2/M
;
_chemical_formula_sum "Si O2"
_cell_formula_units_Z 30
_cell_length_a 11.751408
_cell_length_b 13.466560
_cell_length_c 9.715835
_cell_angle_alpha 90.000000
_cell_angle_beta 116.773642
_cell_angle_gamma 90.000000
_cell_volume 1372.706064
_symmetry_space_group_name_H-M "P 2/M"
_symmetry_group_IT_number 10
_symmetry_cell_setting 'monoclinic'
loop_
_space_group_symop_operation_xyz
x,y,z
-x,y,-z
-x,-y,-z
x,-y,z
loop_
_atom_site_type_symbol
_atom_site_label
_atom_site_fract_x
_atom_site_fract_y
_atom_site_fract_z
Si Si1 0.827296 0.261757 0.535187
Si Si2 0.643409 0.612271 0.628155
Si Si3 0.567299 0.288769 0.854117
Si Si4 0.696983 0.685368 0.198955
Si Si5 0.836457 0.109636 0.760493
Si Si6 0.049518 0.612055 0.756786
Si Si7 0.000000 0.266755 0.000000
Si Si8 0.547642 0.891563 0.669780
O O1 0.731690 0.324829 0.577338
O O2 0.767428 0.245290 0.350868
O O3 0.844008 0.151968 0.608469
O O4 0.960783 0.322474 0.606221
O O5 0.500000 0.618524 0.500000
O O6 0.694477 0.500000 0.658302
O O7 0.653040 0.655740 0.787867
O O8 0.439359 0.355483 0.816679
O O9 0.510893 0.183709 0.770664
O O10 0.655503 0.261828 0.033503
O O11 0.804816 0.604034 0.221004
O O12 0.891293 0.192646 0.890857
O O13 0.696810 0.094927 0.740989
O O14 0.903755 0.000000 0.799435
O O15 0.996371 0.500000 0.736812
O O16 0.050806 0.662822 0.906920
O O17 0.500000 0.844889 0.500000
O O18 0.483662 0.000000 0.661310
#
# Coordination Sequence:
#
# PCOD8062144 Si02
#       8
#     4   4   4   4   4   4   2   4
#     4  11  22  42  65  91 129 167 211 267 313 369
#     4  11  22  38  64  92 122 165 216 259 312 377
#     4  11  22  42  61  90 130 168 207 263 314 373
#     4  11  25  40  62  86 130 175 205 256 320 375
#     4  10  20  36  65  97 124 162 211 260 317 376
#     4  11  25  42  65  93 124 169 217 259 319 384
#     4  10  22  42  66  92 128 158 208 274 316 364
#     4  10  19  34  63  97 125 160 209 261 315 371
#
# _framework density 21.854642999999999
#
# number of rings (size 3 to 8) (size 9 to 14) (size 15 to 20)
#    0.000    1.333    2.667    3.200    1.867    2.667 
#    0.000    3.333    0.000   11.200    0.000    0.000 
#    0.000    0.000    0.000    0.000    0.000    0.000 
#
# Total GULP energy -371685.104173 kJ/mol
# GULP energy per Si atom -12389.503472 kJ/mol
# Density = 2.180490 g / cm^3
# Si number density = 21.854643 Si / 1000 Ang^3
#
#
#
# Elastic Constant Matrix: (Units=GPa)
#
#
# Indices 1 2 3 4 5 6 
#
# 1 90.8806 24.6112 27.5528 0.0000 3.4817 0.0000
# 2 24.6112 117.3178 32.2502 0.0000 -5.4893 0.0000
# 3 27.5528 32.2502 157.5821 0.0000 0.7771 0.0000
# 4 0.0000 0.0000 0.0000 7.8143 0.0000 7.2864
# 5 3.4817 -5.4893 0.7771 0.0000 28.8598 0.0000
# 6 0.0000 0.0000 0.0000 7.2864 0.0000 19.1228
#
#
#
# Elastic Compliance Matrix: (Units=1/GPa)
#
#
# Indices 1 2 3 4 5 6 
#
# 1 0.012171 -0.002179 -0.001673 0.000000 -0.001838 0.000000
# 2 -0.002179 0.009513 -0.001576 0.000000 0.002115 0.000000
# 3 -0.001673 -0.001576 0.006962 0.000000 -0.000285 0.000000
# 4 0.000000 0.000000 0.000000 0.198494 0.000000 -0.075632
# 5 -0.001838 0.002115 -0.000285 0.000000 0.035282 0.000000
# 6 0.000000 0.000000 0.000000 -0.075632 0.000000 0.081112
#
#
# Mechanical properties :
#
#
# Convention : Reuss Voigt Hill
#
# Bulk Modulus (GPa) = 56.21281 59.40097 57.80689
# Shear Modulus (GPa) = 13.87650 29.91714 21.89682
#
# Velocity S-wave (km/s) = 2.52255 3.70390 3.16876
# Velocity P-wave (km/s) = 5.85332 6.74766 6.31634
#
# Compressibility (1/GPa) = 0.01778954
#
# Stress axis : x y z
#
# Youngs Moduli (GPa) = 82.16061 105.11559 143.62790
#
# Poissons Ratio (x) = 0.22909 0.24029
# Poissons Ratio (y) = 0.17906 0.22641
# Poissons Ratio (z) = 0.13746 0.16570
#
# Static dielectric constant tensor:
#      x y z
#    x 4.178530 0.000000 0.112420 
#    y 0.000000 4.296590 0.000000 
#    z 0.112420 0.000000 4.326540 
# 
# 
# High freq. dielectric constant tensor:
#      x y z
#    x 1.859640 0.000000 0.010710 
#    y 0.000000 1.836300 0.000000 
#    z 0.010710 0.000000 1.871900 
# 
# From -- ./inp_files/25374.got.cif
#   From: 2010.06.25/outbox.cif.g09.slc.cpg/sg10_13_cif.got.tgz:25374.got - 2010.06.27 22:07:45.
