data_PCOD8062892
_publ_section_title
;
Structure prediction by ZEFSAII (Michael W. Deem and Ramdas Pophale) SiO2 
 PCOD8062892
Probable space group: P 2/M
;
_chemical_formula_sum "Si O2"
_cell_formula_units_Z 32
_cell_length_a 15.128308
_cell_length_b 14.258441
_cell_length_c 10.079168
_cell_angle_alpha 90.000000
_cell_angle_beta 118.797869
_cell_angle_gamma 90.000000
_cell_volume 1905.250511
_symmetry_space_group_name_H-M "P 2/M"
_symmetry_group_IT_number 10
_symmetry_cell_setting 'monoclinic'
loop_
_space_group_symop_operation_xyz
x,y,z
-x,y,-z
-x,-y,-z
x,-y,z
loop_
_atom_site_type_symbol
_atom_site_label
_atom_site_fract_x
_atom_site_fract_y
_atom_site_fract_z
Si Si1 0.156959 0.102634 0.552218
Si Si2 0.886129 0.293506 0.153319
Si Si3 0.554725 0.390834 0.172170
Si Si4 0.908427 0.389545 0.640389
Si Si5 0.234090 0.706743 0.670860
Si Si6 0.797910 0.610819 0.831915
Si Si7 0.428238 0.390194 0.336097
Si Si8 0.037407 0.897414 0.738220
O O1 0.237948 0.186358 0.618431
O O2 0.090888 0.106113 0.635851
O O3 0.082163 0.118418 0.372942
O O4 0.210181 0.000000 0.578038
O O5 0.796378 0.298050 0.196261
O O6 0.916553 0.185919 0.139254
O O7 0.981535 0.344740 0.287141
O O8 0.853949 0.342169 0.995115
O O9 0.584493 0.500000 0.189451
O O10 0.655095 0.332889 0.268765
O O11 0.475289 0.367884 0.228617
O O12 0.500000 0.357741 0.000000
O O13 0.919478 0.500000 0.634895
O O14 0.844349 0.353405 0.470522
O O15 0.855408 0.361767 0.739896
O O16 0.798231 0.500000 0.858076
O O17 0.684424 0.651665 0.738931
O O18 0.500000 0.344024 0.500000
O O19 0.419619 0.500000 0.358406
O O20 0.055313 0.000000 0.818324
#
# Coordination Sequence:
#
# PCOD8062892 Si02
#       8
#     4   4   4   4   4   4   4   4
#     4   8  14  27  47  70  95 122 155 195 238 282
#     4  11  20  31  48  72 101 131 158 189 234 290
#     4  10  20  32  46  68  98 125 153 200 250 280
#     4  11  22  33  45  67 101 136 165 192 225 279
#     4  11  20  31  50  75  97 123 162 201 239 283
#     4  10  21  35  49  66  95 135 168 195 236 283
#     4   9  17  32  51  66  83 117 167 209 234 266
#     4   8  14  27  47  69  94 124 158 195 233 275
#
# _framework density 16.795691000000001
#
# number of rings (size 3 to 8) (size 9 to 14) (size 15 to 20)
#    0.000    2.250    1.250    3.750    0.000    6.500 
#    0.000    0.000    0.000    2.625    0.000    0.875 
#    0.000    2.000    0.000    0.000    0.000    0.000 
#
# Total GULP energy -396708.047360 kJ/mol
# GULP energy per Si atom -12397.126480 kJ/mol
# Density = 1.675746 g / cm^3
# Si number density = 16.795691 Si / 1000 Ang^3
#
#
#
# Elastic Constant Matrix: (Units=GPa)
#
#
# Indices 1 2 3 4 5 6 
#
# 1 34.9820 15.8804 1.7697 0.0000 14.6055 0.0000
# 2 15.8804 69.9603 15.5743 0.0000 3.5848 0.0000
# 3 1.7697 15.5743 64.6455 0.0000 5.1873 0.0000
# 4 0.0000 0.0000 0.0000 1.5859 0.0000 -6.7437
# 5 14.6055 3.5848 5.1873 0.0000 25.3512 0.0000
# 6 0.0000 0.0000 0.0000 -6.7437 0.0000 5.7348
#
#
#
# Elastic Compliance Matrix: (Units=1/GPa)
#
#
# Indices 1 2 3 4 5 6 
#
# 1 0.042496 -0.009080 0.002934 0.000000 -0.023800 0.000000
# 2 -0.009080 0.017094 -0.004164 0.000000 0.003666 0.000000
# 3 0.002934 -0.004164 0.016755 0.000000 -0.004530 0.000000
# 4 0.000000 0.000000 0.000000 -0.157625 0.000000 -0.185354
# 5 -0.023800 0.003666 -0.004530 0.000000 0.053566 0.000000
# 6 0.000000 0.000000 0.000000 -0.185354 0.000000 -0.043588
#
#
# Mechanical properties :
#
#
# Convention : Reuss Voigt Hill
#
# Bulk Modulus (GPa) = 17.94496 26.22628 22.08562
# Shear Modulus (GPa) = -155.73519 15.62528 -70.05496
#
# Velocity S-wave (km/s) = -9.63974 3.05341 -6.46534
# Velocity P-wave (km/s) = 10.63917 5.29905 6.52350
#
# Compressibility (1/GPa) = 0.05572596
#
# Stress axis : x y z
#
# Youngs Moduli (GPa) = 23.53141 58.50009 59.68252
#
# Poissons Ratio (x) = 0.53118 -0.17511
# Poissons Ratio (y) = 0.21366 0.24851
# Poissons Ratio (z) = -0.06904 0.24359
#
# Static dielectric constant tensor:
#      x y z
#    x 3.150160 0.000000 0.138280 
#    y 0.000000 3.377780 0.000000 
#    z 0.138280 0.000000 3.182330 
# 
# 
# High freq. dielectric constant tensor:
#      x y z
#    x 1.632760 0.000000 0.001560 
#    y 0.000000 1.631950 0.000000 
#    z 0.001560 0.000000 1.643320 
# 
# From -- ./inp_files/29522.got.cif
#   From: 2010.06.25/outbox.cif.g09.slc.cpg/sg10_15_cif.got.tgz:29522.got - 2010.06.27 22:07:45.
