data_PCOD8062639
_publ_section_title
;
Structure prediction by ZEFSAII (Michael W. Deem and Ramdas Pophale) SiO2 
 PCOD8062639
Probable space group: P 2/M
;
_chemical_formula_sum "Si O2"
_cell_formula_units_Z 32
_cell_length_a 9.258949
_cell_length_b 14.286530
_cell_length_c 24.267717
_cell_angle_alpha 90.000000
_cell_angle_beta 150.889774
_cell_angle_gamma 90.000000
_cell_volume 1561.681510
_symmetry_space_group_name_H-M "P 2/M"
_symmetry_group_IT_number 10
_symmetry_cell_setting 'monoclinic'
loop_
_space_group_symop_operation_xyz
x,y,z
-x,y,-z
-x,-y,-z
x,-y,z
loop_
_atom_site_type_symbol
_atom_site_label
_atom_site_fract_x
_atom_site_fract_y
_atom_site_fract_z
Si Si1 0.384220 0.109556 0.901477
Si Si2 0.293504 0.104334 0.629277
Si Si3 0.238929 0.392966 0.952285
Si Si4 0.416222 0.392620 0.306675
Si Si5 0.607799 0.715103 0.478229
Si Si6 0.302480 0.105293 0.337516
Si Si7 0.297713 0.252629 0.069329
Si Si8 0.300496 0.720707 0.697655
O O1 0.563370 0.163167 0.914159
O O2 0.039307 0.135865 0.779737
O O3 0.440484 0.000000 0.911565
O O4 0.500000 0.141515 0.000000
O O5 0.577351 0.106904 0.684632
O O6 0.361794 0.170933 0.703131
O O7 0.000000 0.142265 0.500000
O O8 0.231734 0.000000 0.631326
O O9 0.302678 0.500000 0.990175
O O10 0.932986 0.382510 0.818046
O O11 0.500000 0.354281 0.000000
O O12 0.219162 0.334350 0.001051
O O13 0.517443 0.500000 0.343753
O O14 0.477440 0.342542 0.384398
O O15 0.599843 0.346133 0.318597
O O16 0.500000 0.671103 0.500000
O O17 0.492290 0.822674 0.437381
O O18 0.957934 0.706276 0.594803
O O19 0.338210 0.000000 0.373934
O O20 0.521371 0.299896 0.187449
O O21 0.000000 0.217983 0.000000
#
# Coordination Sequence:
#
# PCOD8062639 Si02
#       8
#     4   4   4   4   4   4   4   4
#     4  10  24  43  64  93 132 180 225 265 322 394
#     4  10  19  36  64  94 125 167 218 265 310 377
#     4  10  24  46  73  99 126 170 226 277 325 394
#     4  11  25  47  70  93 130 175 217 265 332 402
#     4  12  26  41  66 100 134 168 216 273 322 390
#     4  10  21  40  66  94 128 173 218 266 320 375
#     4  12  26  41  68  99 133 175 216 275 334 384
#     4  12  24  42  64  99 133 171 215 265 329 392
#
# _framework density 20.490734
#
# number of rings (size 3 to 8) (size 9 to 14) (size 15 to 20)
#    0.000    1.125    3.750    1.500    7.000    3.000 
#    0.000    0.000    0.000    0.000    0.000    0.000 
#    0.000    0.000    0.000    0.000    0.000    0.000 
#
# Total GULP energy -396949.907878 kJ/mol
# GULP energy per Si atom -12404.684621 kJ/mol
# Density = 2.044410 g / cm^3
# Si number density = 20.490734 Si / 1000 Ang^3
#
#
#
# Elastic Constant Matrix: (Units=GPa)
#
#
# Indices 1 2 3 4 5 6 
#
# 1 149.5722 52.8899 61.1693 0.0000 11.3947 0.0000
# 2 52.8899 93.6804 43.4522 0.0000 -0.6293 0.0000
# 3 61.1693 43.4522 114.9870 0.0000 10.7878 0.0000
# 4 0.0000 0.0000 0.0000 27.4424 0.0000 6.2512
# 5 11.3947 -0.6293 10.7878 0.0000 47.0095 0.0000
# 6 0.0000 0.0000 0.0000 6.2512 0.0000 2.9135
#
#
#
# Elastic Compliance Matrix: (Units=1/GPa)
#
#
# Indices 1 2 3 4 5 6 
#
# 1 0.009584 -0.003789 -0.003520 0.000000 -0.001566 0.000000
# 2 -0.003789 0.014522 -0.003655 0.000000 0.001952 0.000000
# 3 -0.003520 -0.003655 0.012136 0.000000 -0.001981 0.000000
# 4 0.000000 0.000000 0.000000 0.071277 0.000000 -0.152934
# 5 -0.001566 0.001952 -0.001981 0.000000 0.022133 0.000000
# 6 0.000000 0.000000 0.000000 -0.152934 0.000000 0.671375
#
#
# Mechanical properties :
#
#
# Convention : Reuss Voigt Hill
#
# Bulk Modulus (GPa) = 69.85845 74.80692 72.33268
# Shear Modulus (GPa) = 6.04063 28.85494 17.44779
#
# Velocity S-wave (km/s) = 1.71883 3.75666 2.92121
# Velocity P-wave (km/s) = 6.17300 7.44336 6.83775
#
# Compressibility (1/GPa) = 0.01431466
#
# Stress axis : x y z
#
# Youngs Moduli (GPa) = 104.33691 68.85939 82.39832
#
# Poissons Ratio (x) = 0.26091 0.29002
# Poissons Ratio (y) = 0.39534 0.30119
# Poissons Ratio (z) = 0.36724 0.25170
#
# Static dielectric constant tensor:
#      x y z
#    x 3.757450 0.000000 0.136830 
#    y 0.000000 3.827540 0.000000 
#    z 0.136830 0.000000 3.909240 
# 
# 
# High freq. dielectric constant tensor:
#      x y z
#    x 1.806500 0.000000 0.012490 
#    y 0.000000 1.802720 0.000000 
#    z 0.012490 0.000000 1.808980 
# 
# From -- ./inp_files/88269.got.cif
#   From: 2010.06.25/outbox.cif.g09.slc.cpg/sg10_45_cif.got.tgz:88269.got - 2010.06.27 22:07:45.
