data_PCOD8062805
_publ_section_title
;
Structure prediction by ZEFSAII (Michael W. Deem and Ramdas Pophale) SiO2 
 PCOD8062805
Probable space group: P 2/M
;
_chemical_formula_sum "Si O2"
_cell_formula_units_Z 32
_cell_length_a 15.662453
_cell_length_b 9.093262
_cell_length_c 12.321587
_cell_angle_alpha 90.000000
_cell_angle_beta 76.741059
_cell_angle_gamma 90.000000
_cell_volume 1708.095927
_symmetry_space_group_name_H-M "P 2/M"
_symmetry_group_IT_number 10
_symmetry_cell_setting 'monoclinic'
loop_
_space_group_symop_operation_xyz
x,y,z
-x,y,-z
-x,-y,-z
x,-y,z
loop_
_atom_site_type_symbol
_atom_site_label
_atom_site_fract_x
_atom_site_fract_y
_atom_site_fract_z
Si Si1 0.136987 0.825920 0.984481
Si Si2 0.981247 0.173888 0.177094
Si Si3 0.454089 0.674156 0.799716
Si Si4 0.746895 0.674530 0.526356
Si Si5 0.069145 0.825465 0.571447
Si Si6 0.351397 0.674396 0.230578
Si Si7 0.308477 0.673889 0.006145
Si Si8 0.589725 0.674530 0.422151
O O1 0.096372 0.775801 0.881000
O O2 0.149681 0.000000 0.985277
O O3 0.229101 0.747413 0.966678
O O4 0.074020 0.771345 0.101199
O O5 0.965825 0.235918 0.302556
O O6 0.983356 0.000000 0.179893
O O7 0.462526 0.500000 0.792430
O O8 0.551595 0.742336 0.779834
O O9 0.406462 0.728595 0.703499
O O10 0.397524 0.723255 0.919786
O O11 0.759972 0.500000 0.515037
O O12 0.838161 0.753104 0.479608
O O13 0.713154 0.723802 0.654804
O O14 0.675713 0.732938 0.459721
O O15 0.000000 0.776647 0.500000
O O16 0.081293 0.000000 0.569721
O O17 0.359778 0.500000 0.224699
O O18 0.312773 0.732522 0.128080
O O19 0.296045 0.500000 0.004406
O O20 0.500000 0.737905 0.500000
O O21 0.588592 0.500000 0.433559
#
# Coordination Sequence:
#
# PCOD8062805 Si02
#       8
#     4   4   4   4   4   4   4   4
#     4   9  18  35  57  73  92 130 171 204 245 300
#     4   8  17  36  56  72  94 129 170 203 241 303
#     4   9  16  28  47  71 102 137 170 201 240 295
#     4  10  20  33  53  79 105 135 172 211 255 301
#     4  10  22  38  56  77 103 134 170 211 256 308
#     4   9  17  31  48  71 105 140 168 200 246 300
#     4  10  20  30  48  78 105 127 164 213 254 287
#     4   9  15  27  48  75 103 134 172 210 245 295
#
# _framework density 18.734310000000001
#
# number of rings (size 3 to 8) (size 9 to 14) (size 15 to 20)
#    0.000    2.750    1.250    1.125    3.500    1.750 
#    0.000    1.875    0.000    2.625    0.000    0.000 
#    0.000    0.000    0.000    0.000    0.000    0.000 
#
# Total GULP energy -396690.867887 kJ/mol
# GULP energy per Si atom -12396.589621 kJ/mol
# Density = 1.869167 g / cm^3
# Si number density = 18.734310 Si / 1000 Ang^3
#
#
#
# Elastic Constant Matrix: (Units=GPa)
#
#
# Indices 1 2 3 4 5 6 
#
# 1 129.1656 23.4985 56.5081 0.0000 0.4873 0.0000
# 2 23.4985 15.2076 19.2530 0.0000 -2.3951 0.0000
# 3 56.5081 19.2530 145.1694 0.0000 8.0823 0.0000
# 4 0.0000 0.0000 0.0000 -22.4072 0.0000 87.0976
# 5 0.4873 -2.3951 8.0823 0.0000 31.1234 0.0000
# 6 0.0000 0.0000 0.0000 87.0976 0.0000 -193.4055
#
#
#
# Elastic Compliance Matrix: (Units=1/GPa)
#
#
# Indices 1 2 3 4 5 6 
#
# 1 0.011517 -0.014749 -0.002490 0.000000 -0.000669 0.000000
# 2 -0.014749 0.100439 -0.008140 0.000000 0.010074 0.000000
# 3 -0.002490 -0.008140 0.009102 0.000000 -0.002951 0.000000
# 4 0.000000 0.000000 0.000000 0.059467 0.000000 0.026780
# 5 -0.000669 0.010074 -0.002951 0.000000 0.033682 0.000000
# 6 0.000000 0.000000 0.000000 0.026780 0.000000 0.006890
#
#
# Mechanical properties :
#
#
# Convention : Reuss Voigt Hill
#
# Bulk Modulus (GPa) = 14.22493 54.22907 34.22700
# Shear Modulus (GPa) = 16.93264 -24.25234 -3.65985
#
# Velocity S-wave (km/s) = 3.00964 -3.60188 -1.39921
# Velocity P-wave (km/s) = 4.43697 3.42216 3.96219
#
# Compressibility (1/GPa) = 0.07029910
#
# Stress axis : x y z
#
# Youngs Moduli (GPa) = 86.82832 9.95631 109.87146
#
# Poissons Ratio (x) = 0.14685 0.27355
# Poissons Ratio (y) = 1.28064 0.89439
# Poissons Ratio (z) = 0.21618 0.08105
#
# Static dielectric constant tensor:
#      x y z
#    x 3.502430 0.000000 0.129230 
#    y 0.000000 2.811750 0.000000 
#    z 0.129230 0.000000 3.928280 
# 
# 
# High freq. dielectric constant tensor:
#      x y z
#    x 1.737340 0.000000 0.003580 
#    y 0.000000 1.661620 0.000000 
#    z 0.003580 0.000000 1.745580 
# 
# From -- ./inp_files/50694.got.cif
#   From: 2010.06.25/outbox.cif.g09.slc.cpg/sg10_26_cif.got.tgz:50694.got - 2010.06.27 22:07:45.
