data_PCOD8062293
_publ_section_title
;
Structure prediction by ZEFSAII (Michael W. Deem and Ramdas Pophale) SiO2 
 PCOD8062293
Probable space group: P 2/M
;
_chemical_formula_sum "Si O2"
_cell_formula_units_Z 28
_cell_length_a 15.805792
_cell_length_b 8.784202
_cell_length_c 11.955554
_cell_angle_alpha 90.000000
_cell_angle_beta 121.135170
_cell_angle_gamma 90.000000
_cell_volume 1420.811967
_symmetry_space_group_name_H-M "P 2/M"
_symmetry_group_IT_number 10
_symmetry_cell_setting 'monoclinic'
loop_
_space_group_symop_operation_xyz
x,y,z
-x,y,-z
-x,-y,-z
x,-y,z
loop_
_atom_site_type_symbol
_atom_site_label
_atom_site_fract_x
_atom_site_fract_y
_atom_site_fract_z
Si Si1 0.300577 0.679600 0.129150
Si Si2 0.383856 0.827564 0.404517
Si Si3 0.023808 0.820293 0.695737
Si Si4 0.150835 0.820113 0.579480
Si Si5 0.353073 0.818589 0.628807
Si Si6 0.466482 0.819121 0.100523
Si Si7 0.076511 0.679600 0.961228
O O1 0.302332 0.500000 0.114954
O O2 0.349414 0.720925 0.280843
O O3 0.361005 0.751269 0.066191
O O4 0.188115 0.743977 0.051769
O O5 0.500000 0.823265 0.500000
O O6 0.340130 0.765162 0.491717
O O7 0.348893 0.000000 0.354613
O O8 0.924563 0.762567 0.566901
O O9 0.115999 0.774670 0.679508
O O10 0.032528 0.725409 0.813064
O O11 0.022276 0.000000 0.719997
O O12 0.259539 0.752112 0.632730
O O13 0.152409 0.000000 0.570703
O O14 0.452489 0.757558 0.755302
O O15 0.356809 0.000000 0.635242
O O16 0.456567 0.000000 0.095882
O O17 0.500000 0.763953 0.000000
O O18 0.080240 0.500000 0.975213
O O19 0.000000 0.748201 0.000000
#
# Coordination Sequence:
#
# PCOD8062293 Si02
#       7
#     4   4   4   4   4   4   4
#     4  11  24  40  58  80 112 152 190 235 285 331
#     4  10  19  35  58  82 111 142 181 230 275 327
#     4   9  18  34  58  85 110 138 182 235 281 330
#     4   8  16  31  53  85 117 140 170 227 291 329
#     4   9  17  31  53  82 115 146 176 221 279 331
#     4  10  21  37  60  88 116 150 190 226 273 339
#     4  10  24  43  57  74 110 155 192 231 282 334
#
# _framework density 19.707042000000001
#
# number of rings (size 3 to 8) (size 9 to 14) (size 15 to 20)
#    0.000    2.429    1.429    1.286    4.000    2.000 
#    0.000    1.429    0.000    1.714    0.000    0.000 
#    0.000    0.000    0.000    0.000    0.000    0.000 
#
# Total GULP energy -347101.295153 kJ/mol
# GULP energy per Si atom -12396.474827 kJ/mol
# Density = 1.966219 g / cm^3
# Si number density = 19.707042 Si / 1000 Ang^3
#
#
#
# Elastic Constant Matrix: (Units=GPa)
#
#
# Indices 1 2 3 4 5 6 
#
# 1 175.2323 23.4042 58.9909 0.0000 -7.0645 0.0000
# 2 23.4042 17.5823 14.1317 0.0000 0.6360 0.0000
# 3 58.9909 14.1317 94.8576 0.0000 -15.2718 0.0000
# 4 0.0000 0.0000 0.0000 24.7428 0.0000 -5.4186
# 5 -7.0645 0.6360 -15.2718 0.0000 32.5400 0.0000
# 6 0.0000 0.0000 0.0000 -5.4186 0.0000 24.7582
#
#
#
# Elastic Compliance Matrix: (Units=1/GPa)
#
#
# Indices 1 2 3 4 5 6 
#
# 1 0.008017 -0.007587 -0.003841 0.000000 0.000086 0.000000
# 2 -0.007587 0.072990 -0.007194 0.000000 -0.006450 0.000000
# 3 -0.003841 -0.007194 0.015027 0.000000 0.006359 0.000000
# 4 0.000000 0.000000 0.000000 0.042450 0.000000 0.009291
# 5 0.000086 -0.006450 0.006359 0.000000 0.033861 0.000000
# 6 0.000000 0.000000 0.000000 0.009291 0.000000 0.042424
#
#
# Mechanical properties :
#
#
# Convention : Reuss Voigt Hill
#
# Bulk Modulus (GPa) = 17.01019 53.41399 35.21209
# Shear Modulus (GPa) = 18.40884 29.15121 23.78003
#
# Velocity S-wave (km/s) = 3.05966 3.85025 3.47749
# Velocity P-wave (km/s) = 4.59699 6.85045 5.83357
#
# Compressibility (1/GPa) = 0.05878828
#
# Stress axis : x y z
#
# Youngs Moduli (GPa) = 124.74045 13.70057 66.54867
#
# Poissons Ratio (x) = 0.10394 0.25564
# Poissons Ratio (y) = 0.94637 0.47876
# Poissons Ratio (z) = 0.47918 0.09856
#
# Static dielectric constant tensor:
#      x y z
#    x 4.321150 0.000000 -0.009220 
#    y 0.000000 3.107130 0.000000 
#    z -0.009220 0.000000 3.710490 
# 
# 
# High freq. dielectric constant tensor:
#      x y z
#    x 1.787960 0.000000 -0.004160 
#    y 0.000000 1.719820 0.000000 
#    z -0.004160 0.000000 1.771530 
# 
# From -- ./inp_files/49131.got.cif
#   From: 2010.06.25/outbox.cif.g09.slc.cpg/sg10_25_cif.got.tgz:49131.got - 2010.06.27 22:07:45.
