data_PCOD8062351
_publ_section_title
;
Structure prediction by ZEFSAII (Michael W. Deem and Ramdas Pophale) SiO2 
 PCOD8062351
Probable space group: P 2/M
;
_chemical_formula_sum "Si O2"
_cell_formula_units_Z 32
_cell_length_a 11.871798
_cell_length_b 8.927829
_cell_length_c 29.041372
_cell_angle_alpha 90.000000
_cell_angle_beta 31.279876
_cell_angle_gamma 90.000000
_cell_volume 1598.196008
_symmetry_space_group_name_H-M "P 2/M"
_symmetry_group_IT_number 10
_symmetry_cell_setting 'monoclinic'
loop_
_space_group_symop_operation_xyz
x,y,z
-x,y,-z
-x,-y,-z
x,-y,z
loop_
_atom_site_type_symbol
_atom_site_label
_atom_site_fract_x
_atom_site_fract_y
_atom_site_fract_z
Si Si1 0.627367 0.678262 0.500296
Si Si2 0.106589 0.328486 0.917724
Si Si3 0.275481 0.329055 0.018696
Si Si4 0.058783 0.171372 0.173281
Si Si5 0.399486 0.322101 0.671496
Si Si6 0.668781 0.171527 0.833795
Si Si7 0.120914 0.675769 0.325655
Si Si8 0.532164 0.324154 0.723350
O O1 0.500000 0.740417 0.500000
O O2 0.620796 0.500000 0.503015
O O3 0.516460 0.743715 0.585192
O O4 0.874988 0.734873 0.413149
O O5 0.151437 0.500000 0.915898
O O6 0.336247 0.253341 0.822656
O O7 0.950402 0.314620 0.928877
O O8 0.000000 0.248220 0.000000
O O9 0.329140 0.500000 0.012540
O O10 0.252795 0.234668 0.073565
O O11 0.463465 0.266329 0.921057
O O12 0.134155 0.187395 0.199382
O O13 0.846089 0.268706 0.240646
O O14 0.012195 0.000000 0.176225
O O15 0.398073 0.500000 0.669465
O O16 0.526185 0.263173 0.672869
O O17 0.747977 0.234226 0.757933
O O18 0.596616 0.000000 0.853569
O O19 0.130462 0.500000 0.310515
O O20 0.235199 0.710205 0.334909
O O21 0.486884 0.500000 0.736542
#
# Coordination Sequence:
#
# PCOD8062351 Si02
#       8
#     4   4   4   4   4   4   4   4
#     4   9  18  32  54  87 118 143 183 239 286 327
#     4   9  16  28  49  77 109 141 178 227 273 317
#     4  11  21  35  58  84 110 147 191 233 282 339
#     4  11  23  38  55  79 115 152 188 234 283 336
#     4  10  19  35  59  83 113 149 187 236 285 338
#     4  11  24  39  54  78 115 153 188 234 286 334
#     4  10  20  36  59  84 111 147 189 232 283 339
#     4   9  17  31  53  83 113 143 186 234 282 332
#
# _framework density 20.022576000000001
#
# number of rings (size 3 to 8) (size 9 to 14) (size 15 to 20)
#    0.000    2.000    1.250    3.000    0.000    7.000 
#    0.000    3.750    0.000    3.750    0.000    1.750 
#    0.000    0.000    0.000    0.000    0.000    0.000 
#
# Total GULP energy -396800.404731 kJ/mol
# GULP energy per Si atom -12400.012648 kJ/mol
# Density = 1.997700 g / cm^3
# Si number density = 20.022576 Si / 1000 Ang^3
#
#
#
# Elastic Constant Matrix: (Units=GPa)
#
#
# Indices 1 2 3 4 5 6 
#
# 1 120.7846 20.6516 62.0152 0.0000 5.8246 0.0000
# 2 20.6516 31.0224 7.7038 0.0000 2.0146 0.0000
# 3 62.0152 7.7038 126.0948 0.0000 6.0693 0.0000
# 4 0.0000 0.0000 0.0000 5.5205 0.0000 1.8892
# 5 5.8246 2.0146 6.0693 0.0000 41.5751 0.0000
# 6 0.0000 0.0000 0.0000 1.8892 0.0000 14.2920
#
#
#
# Elastic Compliance Matrix: (Units=1/GPa)
#
#
# Indices 1 2 3 4 5 6 
#
# 1 0.012363 -0.006792 -0.005637 0.000000 -0.000580 0.000000
# 2 -0.006792 0.036534 0.001156 0.000000 -0.000988 0.000000
# 3 -0.005637 0.001156 0.010672 0.000000 -0.000824 0.000000
# 4 0.000000 0.000000 0.000000 0.189726 0.000000 -0.025079
# 5 -0.000580 -0.000988 -0.000824 0.000000 0.024302 0.000000
# 6 0.000000 0.000000 0.000000 -0.025079 0.000000 0.073284
#
#
# Mechanical properties :
#
#
# Convention : Reuss Voigt Hill
#
# Bulk Modulus (GPa) = 27.01154 50.96034 38.98594
# Shear Modulus (GPa) = 13.09692 24.77960 18.93826
#
# Velocity S-wave (km/s) = 2.56033 3.52175 3.07880
# Velocity P-wave (km/s) = 4.71807 6.48411 5.67027
#
# Compressibility (1/GPa) = 0.03702121
#
# Stress axis : x y z
#
# Youngs Moduli (GPa) = 80.88678 27.37213 93.70208
#
# Poissons Ratio (x) = 0.18592 0.52823
# Poissons Ratio (y) = 0.54942 -0.10833
# Poissons Ratio (z) = 0.45599 -0.03165
#
# Static dielectric constant tensor:
#      x y z
#    x 3.843850 0.000000 0.123400 
#    y 0.000000 3.225570 0.000000 
#    z 0.123400 0.000000 3.758860 
# 
# 
# High freq. dielectric constant tensor:
#      x y z
#    x 1.796310 0.000000 0.003320 
#    y 0.000000 1.732690 0.000000 
#    z 0.003320 0.000000 1.786850 
# 
# From -- ./inp_files/63774.got.cif
#   From: 2010.06.25/outbox.cif.g09.slc.cpg/sg10_32_cif.got.tgz:63774.got - 2010.06.27 22:07:45.
