data_PCOD8062801
_publ_section_title
;
Structure prediction by ZEFSAII (Michael W. Deem and Ramdas Pophale) SiO2 
 PCOD8062801
Probable space group: P 2/M
;
_chemical_formula_sum "Si O2"
_cell_formula_units_Z 30
_cell_length_a 19.511895
_cell_length_b 14.107035
_cell_length_c 12.596931
_cell_angle_alpha 90.000000
_cell_angle_beta 29.016405
_cell_angle_gamma 90.000000
_cell_volume 1681.881630
_symmetry_space_group_name_H-M "P 2/M"
_symmetry_group_IT_number 10
_symmetry_cell_setting 'monoclinic'
loop_
_space_group_symop_operation_xyz
x,y,z
-x,y,-z
-x,-y,-z
x,-y,z
loop_
_atom_site_type_symbol
_atom_site_label
_atom_site_fract_x
_atom_site_fract_y
_atom_site_fract_z
Si Si1 0.562051 0.392633 0.530024
Si Si2 0.500000 0.271633 0.000000
Si Si3 0.037311 0.893533 0.618721
Si Si4 0.771580 0.892884 0.846126
Si Si5 0.202454 0.265120 0.477269
Si Si6 0.153061 0.390777 0.749152
Si Si7 0.849672 0.395086 0.651718
Si Si8 0.387411 0.293288 0.937583
O O1 0.500000 0.366369 0.500000
O O2 0.518228 0.500000 0.619459
O O3 0.731947 0.380984 0.310884
O O4 0.491340 0.317522 0.703096
O O5 0.357546 0.218918 0.237407
O O6 0.548087 0.331342 0.037454
O O7 0.136896 0.876801 0.382629
O O8 0.089691 0.820873 0.638528
O O9 0.874470 0.874741 0.807431
O O10 0.053438 0.000000 0.640692
O O11 0.710825 0.000000 0.932152
O O12 0.639820 0.820364 0.026058
O O13 0.202817 0.322690 0.586542
O O14 0.151346 0.334559 0.453794
O O15 0.147146 0.500000 0.717170
O O16 0.000000 0.359208 0.000000
O O17 0.794862 0.500000 0.697820
O O18 0.000000 0.398918 0.500000
O O19 0.759403 0.349039 0.870243
#
# Coordination Sequence:
#
# PCOD8062801 Si02
#       8
#     4   2   4   4   4   4   4   4
#     4  10  22  39  57  78 107 146 191 232 271 322
#     4  10  20  30  50  80 108 138 174 216 268 340
#     4   9  17  30  50  76 106 139 175 217 271 333
#     4   9  17  30  50  76 106 139 175 217 271 333
#     4  11  19  34  52  76 108 142 177 221 275 334
#     4  10  22  39  57  78 107 146 191 232 271 322
#     4  10  20  30  45  76 109 137 172 218 273 328
#     4  11  19  34  52  76 108 142 177 221 275 334
#
# _framework density 17.837164000000001
#
# number of rings (size 3 to 8) (size 9 to 14) (size 15 to 20)
#    0.000    2.000    4.000    2.400    0.000    2.133 
#    0.000    6.000    0.000    0.800    0.000    0.000 
#    0.000    0.000    0.000    0.000    0.000    0.000 
#
# Total GULP energy -371662.221571 kJ/mol
# GULP energy per Si atom -12388.740719 kJ/mol
# Density = 1.779657 g / cm^3
# Si number density = 17.837164 Si / 1000 Ang^3
#
#
#
# Elastic Constant Matrix: (Units=GPa)
#
#
# Indices 1 2 3 4 5 6 
#
# 1 95.0639 43.5595 40.7898 0.0000 -5.1629 0.0000
# 2 43.5595 98.6631 35.1010 0.0000 -6.3367 0.0000
# 3 40.7898 35.1010 82.0841 0.0000 -4.2457 0.0000
# 4 0.0000 0.0000 0.0000 15.1135 0.0000 -1.4968
# 5 -5.1629 -6.3367 -4.2457 0.0000 18.3239 0.0000
# 6 0.0000 0.0000 0.0000 -1.4968 0.0000 16.9977
#
#
#
# Elastic Compliance Matrix: (Units=1/GPa)
#
#
# Indices 1 2 3 4 5 6 
#
# 1 0.015040 -0.004621 -0.005426 0.000000 0.001382 0.000000
# 2 -0.004621 0.013537 -0.003358 0.000000 0.002601 0.000000
# 3 -0.005426 -0.003358 0.016372 0.000000 0.001103 0.000000
# 4 0.000000 0.000000 0.000000 0.066748 0.000000 0.005878
# 5 0.001382 0.002601 0.001103 0.000000 0.056118 0.000000
# 6 0.000000 0.000000 0.000000 0.005878 0.000000 0.059349
#
#
# Mechanical properties :
#
#
# Convention : Reuss Voigt Hill
#
# Bulk Modulus (GPa) = 55.12973 57.19019 56.15996
# Shear Modulus (GPa) = 19.22916 20.51107 19.87012
#
# Velocity S-wave (km/s) = 3.28691 3.39471 3.34124
# Velocity P-wave (km/s) = 6.73642 6.89183 6.81457
#
# Compressibility (1/GPa) = 0.01813903
#
# Stress axis : x y z
#
# Youngs Moduli (GPa) = 66.48969 73.86967 61.07925
#
# Poissons Ratio (x) = 0.34134 0.33143
# Poissons Ratio (y) = 0.30724 0.20511
# Poissons Ratio (z) = 0.36079 0.24806
#
# Static dielectric constant tensor:
#      x y z
#    x 3.418230 0.000000 -0.328200 
#    y 0.000000 3.400360 0.000000 
#    z -0.328200 0.000000 3.206540 
# 
# 
# High freq. dielectric constant tensor:
#      x y z
#    x 1.686420 0.000000 -0.029180 
#    y 0.000000 1.677640 0.000000 
#    z -0.029180 0.000000 1.667980 
# 
# From -- ./inp_files/53897.got.cif
#   From: 2010.06.25/outbox.cif.g09.slc.cpg/sg10_27_cif.got.tgz:53897.got - 2010.06.27 22:07:45.
