data_PCOD8062145
_publ_section_title
;
Structure prediction by ZEFSAII (Michael W. Deem and Ramdas Pophale) SiO2 
 PCOD8062145
Probable space group: P 2/M
;
_chemical_formula_sum "Si O2"
_cell_formula_units_Z 32
_cell_length_a 21.184741
_cell_length_b 15.895326
_cell_length_c 18.925711
_cell_angle_alpha 90.000000
_cell_angle_beta 160.576484
_cell_angle_gamma 90.000000
_cell_volume 2119.334197
_symmetry_space_group_name_H-M "P 2/M"
_symmetry_group_IT_number 10
_symmetry_cell_setting 'monoclinic'
loop_
_space_group_symop_operation_xyz
x,y,z
-x,y,-z
-x,-y,-z
x,-y,z
loop_
_atom_site_type_symbol
_atom_site_label
_atom_site_fract_x
_atom_site_fract_y
_atom_site_fract_z
Si Si1 0.721959 0.598914 0.529183
Si Si2 0.526505 0.598142 0.605241
Si Si3 0.518677 0.909038 0.101875
Si Si4 0.221561 0.211241 0.814932
Si Si5 0.610763 0.352804 0.916943
Si Si6 0.215367 0.761493 0.646108
Si Si7 0.142326 0.597710 0.948209
Si Si8 0.398987 0.408585 0.819859
O O1 0.702274 0.500000 0.487591
O O2 0.664582 0.611948 0.550610
O O3 0.578987 0.653545 0.330697
O O4 0.932535 0.635873 0.738431
O O5 0.500000 0.640594 0.500000
O O6 0.567705 0.500000 0.638902
O O7 0.708147 0.638156 0.838097
O O8 0.665286 0.832417 0.269783
O O9 0.578436 0.000000 0.198871
O O10 0.500000 0.924151 0.000000
O O11 0.312602 0.882094 0.915809
O O12 0.267229 0.245363 0.783995
O O13 0.999120 0.210579 0.593486
O O14 0.327733 0.263335 0.987406
O O15 0.785188 0.388989 0.055214
O O16 0.562105 0.411911 0.932176
O O17 0.253236 0.668860 0.652623
O O18 0.126614 0.500000 0.947344
O O19 0.293050 0.500000 0.706732
O O20 0.500000 0.394251 0.000000
#
# Coordination Sequence:
#
# PCOD8062145 Si02
#       8
#     4   4   4   4   4   4   4   4
#     4   9  18  30  42  58  81 109 145 182 217 261
#     4   8  14  26  43  61  80 101 131 177 226 265
#     4   9  17  32  52  69  85 103 128 174 237 290
#     4  10  20  31  49  62  85 109 140 183 229 275
#     4  11  19  31  42  57  80 114 145 186 222 261
#     4  10  19  35  46  64  86 106 141 190 234 274
#     4   9  18  29  40  58  81 108 145 181 218 263
#     4  11  20  32  46  58  80 115 154 194 233 266
#
# _framework density 15.099081
#
# number of rings (size 3 to 8) (size 9 to 14) (size 15 to 20)
#    0.000    2.375    2.500    2.250    1.750    1.000 
#    0.000    7.500    0.000    0.000    0.000    0.000 
#    0.000    0.000    0.000    0.000    0.000   10.000 
#
# Total GULP energy -396434.000047 kJ/mol
# GULP energy per Si atom -12388.562501 kJ/mol
# Density = 1.506471 g / cm^3
# Si number density = 15.099081 Si / 1000 Ang^3
#
#
#
# Elastic Constant Matrix: (Units=GPa)
#
#
# Indices 1 2 3 4 5 6 
#
# 1 91.7981 17.8705 54.5282 0.0000 7.0733 0.0000
# 2 17.8705 89.2738 35.9920 0.0000 13.4219 0.0000
# 3 54.5282 35.9920 87.6819 0.0000 17.4239 0.0000
# 4 0.0000 0.0000 0.0000 9.2880 0.0000 3.7265
# 5 7.0733 13.4219 17.4239 0.0000 27.7925 0.0000
# 6 0.0000 0.0000 0.0000 3.7265 0.0000 -10.8036
#
#
#
# Elastic Compliance Matrix: (Units=1/GPa)
#
#
# Indices 1 2 3 4 5 6 
#
# 1 0.017503 0.000851 -0.011728 0.000000 0.002487 0.000000
# 2 0.000851 0.013762 -0.005500 0.000000 -0.003415 0.000000
# 3 -0.011728 -0.005500 0.022658 0.000000 -0.008564 0.000000
# 4 0.000000 0.000000 0.000000 0.094577 0.000000 0.032622
# 5 0.002487 -0.003415 -0.008564 0.000000 0.042366 0.000000
# 6 0.000000 0.000000 0.000000 0.032622 0.000000 -0.081309
#
#
# Mechanical properties :
#
#
# Convention : Reuss Voigt Hill
#
# Bulk Modulus (GPa) = 47.24027 53.94838 50.59433
# Shear Modulus (GPa) = 33.47466 15.94624 24.71045
#
# Velocity S-wave (km/s) = 4.71361 3.25331 4.04982
# Velocity P-wave (km/s) = 7.80890 7.06535 7.44641
#
# Compressibility (1/GPa) = 0.02116838
#
# Stress axis : x y z
#
# Youngs Moduli (GPa) = 57.13370 72.66503 44.13486
#
# Poissons Ratio (x) = -0.06182 0.51763
# Poissons Ratio (y) = -0.04861 0.24272
# Poissons Ratio (z) = 0.67008 0.39962
#
# Static dielectric constant tensor:
#      x y z
#    x 3.011770 0.000000 0.114360 
#    y 0.000000 2.754680 0.000000 
#    z 0.114360 0.000000 3.033670 
# 
# 
# High freq. dielectric constant tensor:
#      x y z
#    x 1.570140 0.000000 0.019320 
#    y 0.000000 1.531980 0.000000 
#    z 0.019320 0.000000 1.571320 
# 
# From -- ./inp_files/79753.got.cif
#   From: 2010.06.25/outbox.cif.g09.slc.cpg/sg10_40_cif.got.tgz:79753.got - 2010.06.27 22:07:45.
