data_PCOD8062512
_publ_section_title
;
Structure prediction by ZEFSAII (Michael W. Deem and Ramdas Pophale) SiO2 
 PCOD8062512
Probable space group: P 2/M
;
_chemical_formula_sum "Si O2"
_cell_formula_units_Z 24
_cell_length_a 21.957199
_cell_length_b 8.895789
_cell_length_c 11.535765
_cell_angle_alpha 90.000000
_cell_angle_beta 148.580103
_cell_angle_gamma 90.000000
_cell_volume 1174.628529
_symmetry_space_group_name_H-M "P 2/M"
_symmetry_group_IT_number 10
_symmetry_cell_setting 'monoclinic'
loop_
_space_group_symop_operation_xyz
x,y,z
-x,y,-z
-x,-y,-z
x,-y,z
loop_
_atom_site_type_symbol
_atom_site_label
_atom_site_fract_x
_atom_site_fract_y
_atom_site_fract_z
Si Si1 0.952108 0.171715 0.609732
Si Si2 0.468440 0.677893 0.074719
Si Si3 0.878342 0.828429 0.747214
Si Si4 0.243069 0.677432 0.843166
Si Si5 0.314572 0.323749 0.423807
Si Si6 0.780736 0.177715 0.957356
O O1 0.884050 0.189196 0.619197
O O2 0.884951 0.269821 0.405323
O O3 0.084562 0.229499 0.838571
O O4 0.951435 0.000000 0.565444
O O5 0.471184 0.500000 0.067289
O O6 0.561704 0.728715 0.322880
O O7 0.500000 0.749387 0.000000
O O8 0.340818 0.732055 0.909655
O O9 0.781444 0.715481 0.635858
O O10 0.849194 0.000000 0.737045
O O11 0.000000 0.778618 0.000000
O O12 0.244001 0.500000 0.859523
O O13 0.273629 0.750826 0.015835
O O14 0.310650 0.500000 0.391392
O O15 0.293986 0.235154 0.272046
O O16 0.770389 0.000000 0.946526
#
# Coordination Sequence:
#
# PCOD8062512 Si02
#       6
#     4   4   4   4   4   4
#     4  10  21  38  60  84 118 161 197 235 293 358
#     4   9  20  40  62  85 119 156 188 236 303 355
#     4  10  19  36  58  84 119 158 192 231 292 352
#     4  11  23  39  61  88 117 152 200 250 292 344
#     4  11  22  37  61  91 119 153 200 248 291 342
#     4  11  23  41  60  83 121 162 195 237 300 360
#
# _framework density 20.431989999999999
#
# number of rings (size 3 to 8) (size 9 to 14) (size 15 to 20)
#    0.000    1.667    1.667    3.000    0.000    6.333 
#    0.000    6.667    0.000    6.000    0.000    0.000 
#    0.000    0.000    0.000    0.000    0.000    0.000 
#
# Total GULP energy -297696.051510 kJ/mol
# GULP energy per Si atom -12404.002146 kJ/mol
# Density = 2.038549 g / cm^3
# Si number density = 20.431990 Si / 1000 Ang^3
#
#
#
# Elastic Constant Matrix: (Units=GPa)
#
#
# Indices 1 2 3 4 5 6 
#
# 1 107.3928 36.4798 46.3050 0.0000 -16.4927 0.0000
# 2 36.4798 66.8091 40.4925 0.0000 -4.1183 0.0000
# 3 46.3050 40.4925 123.8128 0.0000 -7.1493 0.0000
# 4 0.0000 0.0000 0.0000 14.6275 0.0000 -9.4479
# 5 -16.4927 -4.1183 -7.1493 0.0000 29.0286 0.0000
# 6 0.0000 0.0000 0.0000 -9.4479 0.0000 32.6199
#
#
#
# Elastic Compliance Matrix: (Units=1/GPa)
#
#
# Indices 1 2 3 4 5 6 
#
# 1 0.013235 -0.005070 -0.002941 0.000000 0.006076 0.000000
# 2 -0.005070 0.020649 -0.004924 0.000000 -0.001164 0.000000
# 3 -0.002941 -0.004924 0.010804 0.000000 0.000291 0.000000
# 4 0.000000 0.000000 0.000000 0.084097 0.000000 0.024358
# 5 0.006076 -0.001164 0.000291 0.000000 0.037808 0.000000
# 6 0.000000 0.000000 0.000000 0.024358 0.000000 0.037711
#
#
# Mechanical properties :
#
#
# Convention : Reuss Voigt Hill
#
# Bulk Modulus (GPa) = 53.14061 60.50772 56.82416
# Shear Modulus (GPa) = 21.14650 26.90436 24.02543
#
# Velocity S-wave (km/s) = 3.22058 3.63268 3.43282
# Velocity P-wave (km/s) = 6.31621 6.87558 6.60182
#
# Compressibility (1/GPa) = 0.01881800
#
# Stress axis : x y z
#
# Youngs Moduli (GPa) = 75.55822 48.42818 92.55917
#
# Poissons Ratio (x) = 0.24551 0.27220
# Poissons Ratio (y) = 0.38305 0.45580
# Poissons Ratio (z) = 0.22221 0.23848
#
# Static dielectric constant tensor:
#      x y z
#    x 3.864620 0.000000 -0.037940 
#    y 0.000000 3.477140 0.000000 
#    z -0.037940 0.000000 3.800510 
# 
# 
# High freq. dielectric constant tensor:
#      x y z
#    x 1.807770 0.000000 -0.009120 
#    y 0.000000 1.779890 0.000000 
#    z -0.009120 0.000000 1.805480 
# 
# From -- ./inp_files/45249.got.cif
#   From: 2010.06.25/outbox.cif.g09.slc.cpg/sg10_23_cif.got.tgz:45249.got - 2010.06.27 22:07:45.
