data_PCOD8062919
_publ_section_title
;
Structure prediction by ZEFSAII (Michael W. Deem and Ramdas Pophale) SiO2 
 PCOD8062919
Probable space group: P 2/M
;
_chemical_formula_sum "Si O2"
_cell_formula_units_Z 28
_cell_length_a 26.246551
_cell_length_b 9.452451
_cell_length_c 9.417122
_cell_angle_alpha 90.000000
_cell_angle_beta 140.414763
_cell_angle_gamma 90.000000
_cell_volume 1488.771260
_symmetry_space_group_name_H-M "P 2/M"
_symmetry_group_IT_number 10
_symmetry_cell_setting 'monoclinic'
loop_
_space_group_symop_operation_xyz
x,y,z
-x,y,-z
-x,-y,-z
x,-y,z
loop_
_atom_site_type_symbol
_atom_site_label
_atom_site_fract_x
_atom_site_fract_y
_atom_site_fract_z
Si Si1 0.675901 0.334497 0.156186
Si Si2 0.251676 0.835064 0.443443
Si Si3 0.995373 0.661229 0.654707
Si Si4 0.732543 0.836204 0.848647
Si Si5 0.819290 0.661445 0.255711
Si Si6 0.587775 0.835992 0.740682
Si Si7 0.069358 0.164688 0.044066
O O1 0.656188 0.500000 0.135065
O O2 0.688047 0.259208 0.333694
O O3 0.756732 0.307744 0.244150
O O4 0.604937 0.259744 0.915934
O O5 0.269041 0.790053 0.318703
O O6 0.271514 0.000000 0.510611
O O7 0.159502 0.803608 0.289815
O O8 0.017697 0.500000 0.737622
O O9 0.904924 0.698318 0.507784
O O10 0.000000 0.694200 0.500000
O O11 0.058298 0.759015 0.870155
O O12 0.647624 0.800879 0.739590
O O13 0.754244 0.000000 0.907749
O O14 0.802519 0.753556 0.080037
O O15 0.817291 0.500000 0.198931
O O16 0.500000 0.796242 0.500000
O O17 0.594578 0.000000 0.800222
O O18 0.057028 0.000000 0.990897
O O19 0.000000 0.223002 0.000000
#
# Coordination Sequence:
#
# PCOD8062919 Si02
#       7
#     4   4   4   4   4   4   4
#     4  10  20  33  52  76 100 130 165 198 237 288
#     4  10  20  34  50  71 101 132 165 205 244 287
#     4  10  20  32  47  69  96 127 165 208 252 295
#     4   9  18  32  52  76  98 126 164 202 243 290
#     4   9  18  32  48  69  97 128 165 206 246 291
#     4   9  18  35  58  80 101 126 157 195 241 292
#     4  10  21  34  48  69  97 131 170 209 248 287
#
# _framework density 18.807455999999998
#
# number of rings (size 3 to 8) (size 9 to 14) (size 15 to 20)
#    0.000    2.429    0.000    2.143    0.000    3.143 
#    0.000    0.714    0.000    4.286    0.000    0.000 
#    0.000    0.000    0.000    0.000    0.000    0.000 
#
# Total GULP energy -347212.147192 kJ/mol
# GULP energy per Si atom -12400.433828 kJ/mol
# Density = 1.876465 g / cm^3
# Si number density = 18.807456 Si / 1000 Ang^3
#
#
#
# Elastic Constant Matrix: (Units=GPa)
#
#
# Indices 1 2 3 4 5 6 
#
# 1 46.3242 20.7002 22.6242 0.0000 -10.8331 0.0000
# 2 20.7002 68.3049 52.6492 0.0000 -20.4984 0.0000
# 3 22.6242 52.6492 93.2933 0.0000 -26.5679 0.0000
# 4 0.0000 0.0000 0.0000 24.5574 0.0000 -4.6140
# 5 -10.8331 -20.4984 -26.5679 0.0000 17.6705 0.0000
# 6 0.0000 0.0000 0.0000 -4.6140 0.0000 21.0995
#
#
#
# Elastic Compliance Matrix: (Units=1/GPa)
#
#
# Indices 1 2 3 4 5 6 
#
# 1 0.026269 -0.004089 -0.001447 0.000000 0.009186 0.000000
# 2 -0.004089 0.028731 -0.011271 0.000000 0.013876 0.000000
# 3 -0.001447 -0.011271 0.023529 0.000000 0.021414 0.000000
# 4 0.000000 0.000000 0.000000 0.042466 0.000000 0.009286
# 5 0.009186 0.013876 0.021414 0.000000 0.110517 0.000000
# 6 0.000000 0.000000 0.000000 0.009286 0.000000 0.049425
#
#
# Mechanical properties :
#
#
# Convention : Reuss Voigt Hill
#
# Bulk Modulus (GPa) = 22.26414 44.42994 33.34704
# Shear Modulus (GPa) = 15.17347 20.12873 17.65110
#
# Velocity S-wave (km/s) = 2.84347 3.27502 3.06684
# Velocity P-wave (km/s) = 4.75858 6.16246 5.50545
#
# Compressibility (1/GPa) = 0.04491527
#
# Stress axis : x y z
#
# Youngs Moduli (GPa) = 38.06773 34.80517 42.50126
#
# Poissons Ratio (x) = 0.14232 0.06149
# Poissons Ratio (y) = 0.15566 0.47903
# Poissons Ratio (z) = 0.05508 0.39229
#
# Static dielectric constant tensor:
#      x y z
#    x 3.465680 0.000000 0.064230 
#    y 0.000000 3.384530 0.000000 
#    z 0.064230 0.000000 3.406550 
# 
# 
# High freq. dielectric constant tensor:
#      x y z
#    x 1.722430 0.000000 -0.004120 
#    y 0.000000 1.726910 0.000000 
#    z -0.004120 0.000000 1.726110 
# 
# From -- ./inp_files/37273.got.cif
#   From: 2010.06.25/outbox.cif.g09.slc.cpg/sg10_19_cif.got.tgz:37273.got - 2010.06.27 22:07:45.
