data_PCOD8062869
_publ_section_title
;
Structure prediction by ZEFSAII (Michael W. Deem and Ramdas Pophale) SiO2 
 PCOD8062869
Probable space group: P 2/M
;
_chemical_formula_sum "Si O2"
_cell_formula_units_Z 24
_cell_length_a 5.173594
_cell_length_b 18.038853
_cell_length_c 20.021591
_cell_angle_alpha 90.000000
_cell_angle_beta 119.012578
_cell_angle_gamma 90.000000
_cell_volume 1634.053406
_symmetry_space_group_name_H-M "P 2/M"
_symmetry_group_IT_number 10
_symmetry_cell_setting 'monoclinic'
loop_
_space_group_symop_operation_xyz
x,y,z
-x,y,-z
-x,-y,-z
x,-y,z
loop_
_atom_site_type_symbol
_atom_site_label
_atom_site_fract_x
_atom_site_fract_y
_atom_site_fract_z
Si Si1 0.332595 0.315919 0.048770
Si Si2 0.713242 0.915221 0.089619
Si Si3 0.666594 0.412017 0.193257
Si Si4 0.662759 0.587998 0.716046
Si Si5 0.333173 0.588441 0.544318
Si Si6 0.210909 0.842705 0.086700
O O1 0.526267 0.377435 0.109582
O O2 0.300243 0.243091 0.090783
O O3 0.500000 0.296840 0.000000
O O4 0.000000 0.348285 0.000000
O O5 0.512801 0.890659 0.127648
O O6 0.006890 0.862768 0.125235
O O7 0.815337 0.000000 0.108660
O O8 0.500000 0.901232 0.000000
O O9 0.648891 0.500000 0.183226
O O10 0.495271 0.383164 0.236990
O O11 0.001691 0.383910 0.241965
O O12 0.650823 0.500000 0.711895
O O13 0.494417 0.620389 0.630313
O O14 0.500000 0.618641 0.500000
O O15 0.336354 0.500000 0.545951
O O16 0.000000 0.618666 0.500000
O O17 0.000000 0.868976 0.000000
#
# Coordination Sequence:
#
# PCOD8062869 Si02
#       6
#     4   4   4   4   4   4
#     4  11  21  32  44  55  70  94 127 169 211 242
#     4   9  15  23  37  55  73  91 109 132 172 229
#     4  10  20  32  44  56  71  95 127 165 208 241
#     4   9  17  29  42  57  77  96 117 149 190 234
#     4   9  15  23  38  59  79  97 114 134 170 223
#     4   9  16  26  37  52  72  91 113 145 187 229
#
# _framework density 14.687404000000001
#
# number of rings (size 3 to 8) (size 9 to 14) (size 15 to 20)
#    0.000    2.500    0.000    5.000    0.000    6.667 
#    0.000    0.000    0.000    0.000    0.000    0.000 
#    0.000    0.000    0.000    0.000    0.000    0.000 
#
# Total GULP energy -297441.178300 kJ/mol
# GULP energy per Si atom -12393.382429 kJ/mol
# Density = 1.465397 g / cm^3
# Si number density = 14.687404 Si / 1000 Ang^3
#
#
#
# Elastic Constant Matrix: (Units=GPa)
#
#
# Indices 1 2 3 4 5 6 
#
# 1 137.6796 33.0230 37.6724 0.0000 10.5788 0.0000
# 2 33.0230 37.8744 25.9150 0.0000 3.5132 0.0000
# 3 37.6724 25.9150 63.7188 0.0000 9.1886 0.0000
# 4 0.0000 0.0000 0.0000 0.3565 0.0000 0.4672
# 5 10.5788 3.5132 9.1886 0.0000 21.0454 0.0000
# 6 0.0000 0.0000 0.0000 0.4672 0.0000 14.5768
#
#
#
# Elastic Compliance Matrix: (Units=1/GPa)
#
#
# Indices 1 2 3 4 5 6 
#
# 1 0.009754 -0.006338 -0.002812 0.000000 -0.002617 0.000000
# 2 -0.006338 0.040705 -0.013113 0.000000 0.002116 0.000000
# 3 -0.002812 -0.013113 0.023660 0.000000 -0.006728 0.000000
# 4 0.000000 0.000000 0.000000 2.927740 0.000000 -0.093837
# 5 -0.002617 0.002116 -0.006728 0.000000 0.051416 0.000000
# 6 0.000000 0.000000 0.000000 -0.093837 0.000000 0.071610
#
#
# Mechanical properties :
#
#
# Convention : Reuss Voigt Hill
#
# Bulk Modulus (GPa) = 33.79135 48.05485 40.92310
# Shear Modulus (GPa) = 1.57269 16.70659 9.13964
#
# Velocity S-wave (km/s) = 1.03590 3.37631 2.49725
# Velocity P-wave (km/s) = 4.94851 6.92739 6.01982
#
# Compressibility (1/GPa) = 0.02959337
#
# Stress axis : x y z
#
# Youngs Moduli (GPa) = 102.52390 24.56681 42.26588
#
# Poissons Ratio (x) = 0.15570 0.11884
# Poissons Ratio (y) = 0.64978 0.55424
# Poissons Ratio (z) = 0.28826 0.32215
#
# Static dielectric constant tensor:
#      x y z
#    x 3.355010 0.000000 0.059260 
#    y 0.000000 2.437590 0.000000 
#    z 0.059260 0.000000 2.567240 
# 
# 
# High freq. dielectric constant tensor:
#      x y z
#    x 1.596580 0.000000 0.006460 
#    y 0.000000 1.514090 0.000000 
#    z 0.006460 0.000000 1.509750 
# 
# From -- ./inp_files/59035.got.cif
#   From: 2010.06.25/outbox.cif.g09.slc.cpg/sg10_30_cif.got.tgz:59035.got - 2010.06.27 22:07:45.
