data_PCOD8062332
_publ_section_title
;
Structure prediction by ZEFSAII (Michael W. Deem and Ramdas Pophale) SiO2 
 PCOD8062332
Probable space group: P 2/M
;
_chemical_formula_sum "Si O2"
_cell_formula_units_Z 24
_cell_length_a 15.103480
_cell_length_b 8.921006
_cell_length_c 14.817041
_cell_angle_alpha 90.000000
_cell_angle_beta 40.278862
_cell_angle_gamma 90.000000
_cell_volume 1290.703501
_symmetry_space_group_name_H-M "P 2/M"
_symmetry_group_IT_number 10
_symmetry_cell_setting 'monoclinic'
loop_
_space_group_symop_operation_xyz
x,y,z
-x,y,-z
-x,-y,-z
x,-y,z
loop_
_atom_site_type_symbol
_atom_site_label
_atom_site_fract_x
_atom_site_fract_y
_atom_site_fract_z
Si Si1 0.087726 0.822512 0.297542
Si Si2 0.196971 0.822518 0.398379
Si Si3 0.712823 0.826663 0.169602
Si Si4 0.589273 0.821935 0.627725
Si Si5 0.213434 0.172927 0.682815
Si Si6 0.074740 0.676725 0.122848
O O1 0.187482 0.768180 0.301794
O O2 0.134156 0.741691 0.170246
O O3 0.933988 0.769566 0.441704
O O4 0.096831 0.000000 0.275880
O O5 0.335049 0.764059 0.339725
O O6 0.192672 0.000000 0.401043
O O7 0.565415 0.760760 0.253581
O O8 0.722414 0.807357 0.269001
O O9 0.731235 0.000000 0.127234
O O10 0.829963 0.729877 0.032551
O O11 0.674129 0.765693 0.474997
O O12 0.583146 0.000000 0.629228
O O13 0.077504 0.268832 0.778390
O O14 0.175542 0.000000 0.692051
O O15 0.076382 0.500000 0.126448
#
# Coordination Sequence:
#
# PCOD8062332 Si02
#       6
#     4   4   4   4   4   4
#     4   9  16  31  56  82 105 133 172 219 266 310
#     4   8  14  27  55  87 107 127 164 220 272 309
#     4  10  21  35  55  81 108 140 175 216 267 316
#     4   9  16  31  57  87 110 129 167 221 271 317
#     4  10  19  35  59  82 104 134 177 225 266 310
#     4  12  24  36  51  75 109 148 182 216 259 308
#
# _framework density 18.59451
#
# number of rings (size 3 to 8) (size 9 to 14) (size 15 to 20)
#    0.000    2.333    1.667    3.500    0.000    4.667 
#    0.000    3.333    0.000    7.000    0.000    0.000 
#    0.000    0.000    0.000    0.000    0.000    0.000 
#
# Total GULP energy -297543.874642 kJ/mol
# GULP energy per Si atom -12397.661443 kJ/mol
# Density = 1.855219 g / cm^3
# Si number density = 18.594510 Si / 1000 Ang^3
#
#
#
# Elastic Constant Matrix: (Units=GPa)
#
#
# Indices 1 2 3 4 5 6 
#
# 1 111.7074 28.2145 23.7653 0.0000 -3.3863 0.0000
# 2 28.2145 59.2486 21.9233 0.0000 -3.6216 0.0000
# 3 23.7653 21.9233 56.9568 0.0000 -14.2332 0.0000
# 4 0.0000 0.0000 0.0000 -4.8997 0.0000 0.0031
# 5 -3.3863 -3.6216 -14.2332 0.0000 20.5876 0.0000
# 6 0.0000 0.0000 0.0000 0.0031 0.0000 4.6777
#
#
#
# Elastic Compliance Matrix: (Units=1/GPa)
#
#
# Indices 1 2 3 4 5 6 
#
# 1 0.010589 -0.003931 -0.003195 0.000000 -0.001158 0.000000
# 2 -0.003931 0.021219 -0.006958 0.000000 -0.001724 0.000000
# 3 -0.003195 -0.006958 0.025544 0.000000 0.015911 0.000000
# 4 0.000000 0.000000 0.000000 -0.204094 0.000000 0.000134
# 5 -0.001158 -0.001724 0.015911 0.000000 0.059079 0.000000
# 6 0.000000 0.000000 0.000000 0.000134 0.000000 0.213780
#
#
# Mechanical properties :
#
#
# Convention : Reuss Voigt Hill
#
# Bulk Modulus (GPa) = 34.26445 41.74656 38.00551
# Shear Modulus (GPa) = 30.48484 14.34043 22.41264
#
# Velocity S-wave (km/s) = 4.05341 2.78010 3.47556
# Velocity P-wave (km/s) = 6.35406 5.72756 6.04893
#
# Compressibility (1/GPa) = 0.02918477
#
# Stress axis : x y z
#
# Youngs Moduli (GPa) = 94.43321 47.12652 39.14747
#
# Poissons Ratio (x) = 0.18528 0.12506
# Poissons Ratio (y) = 0.37126 0.27239
# Poissons Ratio (z) = 0.30169 0.32791
#
# Static dielectric constant tensor:
#      x y z
#    x 3.905950 0.000000 0.022460 
#    y 0.000000 2.961470 0.000000 
#    z 0.022460 0.000000 3.373030 
# 
# 
# High freq. dielectric constant tensor:
#      x y z
#    x 1.741940 0.000000 0.008280 
#    y 0.000000 1.670940 0.000000 
#    z 0.008280 0.000000 1.710200 
# 
# From -- ./inp_files/27016.got.cif
#   From: 2010.06.25/outbox.cif.g09.slc.cpg/sg10_14_cif.got.tgz:27016.got - 2010.06.27 22:07:45.
