data_PCOD8062808
_publ_section_title
;
Structure prediction by ZEFSAII (Michael W. Deem and Ramdas Pophale) SiO2 
 PCOD8062808
Probable space group: P 2/M
;
_chemical_formula_sum "Si O2"
_cell_formula_units_Z 30
_cell_length_a 30.789578
_cell_length_b 9.156099
_cell_length_c 11.720614
_cell_angle_alpha 90.000000
_cell_angle_beta 29.713987
_cell_angle_gamma 90.000000
_cell_volume 1637.788549
_symmetry_space_group_name_H-M "P 2/M"
_symmetry_group_IT_number 10
_symmetry_cell_setting 'monoclinic'
loop_
_space_group_symop_operation_xyz
x,y,z
-x,y,-z
-x,-y,-z
x,-y,z
loop_
_atom_site_type_symbol
_atom_site_label
_atom_site_fract_x
_atom_site_fract_y
_atom_site_fract_z
Si Si1 0.725937 0.173128 0.308045
Si Si2 0.599549 0.329124 0.752526
Si Si3 0.733415 0.665110 0.644303
Si Si4 0.991933 0.841608 0.264602
Si Si5 0.208054 0.166542 0.279740
Si Si6 0.804346 0.664407 0.920860
Si Si7 0.858026 0.665953 0.163147
Si Si8 0.000000 0.252128 0.500000
O O1 0.635009 0.239813 0.562687
O O2 0.803792 0.219539 0.213315
O O3 0.718186 0.000000 0.318967
O O4 0.749490 0.235480 0.131346
O O5 0.609364 0.500000 0.702203
O O6 0.655076 0.288978 0.738317
O O7 0.500000 0.282382 0.000000
O O8 0.719472 0.500000 0.720305
O O9 0.732241 0.774571 0.753234
O O10 0.826622 0.676115 0.365394
O O11 0.892395 0.824059 0.453113
O O12 0.001528 0.841266 0.380484
O O13 0.027336 0.000000 0.144246
O O14 0.041503 0.712933 0.083626
O O15 0.221174 0.270437 0.142523
O O16 0.235344 0.000000 0.189025
O O17 0.768856 0.500000 0.009027
O O18 0.909305 0.656809 0.704881
O O19 0.844943 0.500000 0.147459
#
# Coordination Sequence:
#
# PCOD8062808 Si02
#       8
#     4   4   4   4   4   4   4   2
#     4  11  21  33  53  82 115 144 176 222 276 327
#     4   9  19  38  64  90 113 138 172 217 270 329
#     4   9  19  36  55  77 105 138 175 216 264 321
#     4  10  20  32  47  69 102 141 184 229 274 318
#     4  10  22  36  50  73 105 145 186 222 267 320
#     4  11  21  34  53  77 107 144 189 232 272 317
#     4  10  20  33  51  74 102 138 184 230 273 317
#     4  10  20  30  50  74 104 140 188 236 274 316
#
# _framework density 18.317381999999998
#
# number of rings (size 3 to 8) (size 9 to 14) (size 15 to 20)
#    0.000    2.000    1.333    3.600    0.000    7.200 
#    0.000    2.667    0.000    0.800    0.000    5.600 
#    0.000    0.000    0.000    0.000    0.000    0.000 
#
# Total GULP energy -371892.815748 kJ/mol
# GULP energy per Si atom -12396.427192 kJ/mol
# Density = 1.827569 g / cm^3
# Si number density = 18.317382 Si / 1000 Ang^3
#
#
#
# Elastic Constant Matrix: (Units=GPa)
#
#
# Indices 1 2 3 4 5 6 
#
# 1 80.5569 40.1938 36.6680 0.0000 5.6561 0.0000
# 2 40.1938 127.7743 53.0109 0.0000 8.3889 0.0000
# 3 36.6680 53.0109 94.2790 0.0000 3.7980 0.0000
# 4 0.0000 0.0000 0.0000 25.3290 0.0000 1.5467
# 5 5.6561 8.3889 3.7980 0.0000 15.3981 0.0000
# 6 0.0000 0.0000 0.0000 1.5467 0.0000 19.1341
#
#
#
# Elastic Compliance Matrix: (Units=1/GPa)
#
#
# Indices 1 2 3 4 5 6 
#
# 1 0.016180 -0.003029 -0.004461 0.000000 -0.003193 0.000000
# 2 -0.003029 0.011049 -0.004885 0.000000 -0.003702 0.000000
# 3 -0.004461 -0.004885 0.015065 0.000000 0.000584 0.000000
# 4 0.000000 0.000000 0.000000 0.039676 0.000000 -0.003207
# 5 -0.003193 -0.003702 0.000584 0.000000 0.067988 0.000000
# 6 0.000000 0.000000 0.000000 -0.003207 0.000000 0.052522
#
#
# Mechanical properties :
#
#
# Convention : Reuss Voigt Hill
#
# Bulk Modulus (GPa) = 57.00295 62.48395 59.74345
# Shear Modulus (GPa) = 21.45194 23.48808 22.47001
#
# Velocity S-wave (km/s) = 3.42588 3.58478 3.50623
# Velocity P-wave (km/s) = 6.84369 7.16381 7.00558
#
# Compressibility (1/GPa) = 0.01754295
#
# Stress axis : x y z
#
# Youngs Moduli (GPa) = 61.80582 90.50527 66.37838
#
# Poissons Ratio (x) = 0.27417 0.29610
# Poissons Ratio (y) = 0.18723 0.32428
# Poissons Ratio (z) = 0.27571 0.44215
#
# Static dielectric constant tensor:
#      x y z
#    x 3.135890 0.000000 0.112910 
#    y 0.000000 3.369330 0.000000 
#    z 0.112910 0.000000 3.381720 
# 
# 
# High freq. dielectric constant tensor:
#      x y z
#    x 1.690520 0.000000 0.016220 
#    y 0.000000 1.717860 0.000000 
#    z 0.016220 0.000000 1.690340 
# 
# From -- ./inp_files/58004.got.cif
#   From: 2010.06.25/outbox.cif.g09.slc.cpg/sg10_30_cif.got.tgz:58004.got - 2010.06.27 22:07:45.
