data_PCOD8062296
_publ_section_title
;
Structure prediction by ZEFSAII (Michael W. Deem and Ramdas Pophale) SiO2 
 PCOD8062296
Probable space group: P 2/M
;
_chemical_formula_sum "Si O2"
_cell_formula_units_Z 28
_cell_length_a 27.143745
_cell_length_b 7.763140
_cell_length_c 10.182402
_cell_angle_alpha 90.000000
_cell_angle_beta 138.106848
_cell_angle_gamma 90.000000
_cell_volume 1432.739228
_symmetry_space_group_name_H-M "P 2/M"
_symmetry_group_IT_number 10
_symmetry_cell_setting 'monoclinic'
loop_
_space_group_symop_operation_xyz
x,y,z
-x,y,-z
-x,-y,-z
x,-y,z
loop_
_atom_site_type_symbol
_atom_site_label
_atom_site_fract_x
_atom_site_fract_y
_atom_site_fract_z
Si Si1 0.170855 0.296124 0.353938
Si Si2 0.835379 0.805215 0.152635
Si Si3 0.431017 0.500000 0.267308
Si Si4 0.320116 0.801607 0.044529
Si Si5 0.431335 0.500000 0.960001
Si Si6 0.078429 0.296039 0.424094
Si Si7 0.676213 0.807835 0.249987
Si Si8 0.915649 0.693839 0.064099
O O1 0.181465 0.500000 0.367608
O O2 0.123580 0.241085 0.385774
O O3 0.251489 0.211785 0.517510
O O4 0.129616 0.218229 0.144320
O O5 0.885565 0.794106 0.380228
O O6 0.867712 0.689423 0.101162
O O7 0.835749 0.000000 0.102601
O O8 0.751971 0.745924 0.017162
O O9 0.500000 0.500000 0.500000
O O10 0.385731 0.672690 0.212737
O O11 0.454584 0.500000 0.160206
O O12 0.343481 0.000000 0.120017
O O13 0.299279 0.776381 0.851194
O O14 0.385398 0.670317 0.832304
O O15 0.500000 0.500000 0.000000
O O16 0.078775 0.500000 0.448257
O O17 0.995505 0.219802 0.245437
O O18 0.643392 0.000000 0.204422
O O19 0.931692 0.500000 0.050162
#
# Coordination Sequence:
#
# PCOD8062296 Si02
#       8
#     4   4   2   4   2   4   4   4
#     4  10  19  35  58  82 114 153 197 247 294 345
#     4  11  22  36  54  79 112 154 198 242 291 342
#     4  10  22  40  66  94 113 151 188 224 285 349
#     4   9  20  37  60  88 118 152 195 237 276 340
#     4  10  22  42  64  90 123 147 182 230 283 345
#     4  10  20  34  58  80 108 151 203 246 293 347
#     4  10  19  36  63  89 114 154 197 232 279 343
#     4  10  22  36  50  81 117 154 192 247 303 344
#
# _framework density 19.542983
#
# number of rings (size 3 to 8) (size 9 to 14) (size 15 to 20)
#    0.000    2.000    2.143    1.286    2.000    5.143 
#    2.571    0.000    0.000    2.571    0.000    0.000 
#    0.000    0.000    0.000    0.000    0.000    0.000 
#
# Total GULP energy -347217.378214 kJ/mol
# GULP energy per Si atom -12400.620650 kJ/mol
# Density = 1.949850 g / cm^3
# Si number density = 19.542983 Si / 1000 Ang^3
#
#
#
# Elastic Constant Matrix: (Units=GPa)
#
#
# Indices 1 2 3 4 5 6 
#
# 1 126.3521 34.6290 57.2498 0.0000 11.9734 0.0000
# 2 34.6290 76.7094 34.3903 0.0000 14.1253 0.0000
# 3 57.2498 34.3903 143.6363 0.0000 12.0457 0.0000
# 4 0.0000 0.0000 0.0000 10.6888 0.0000 6.6200
# 5 11.9734 14.1253 12.0457 0.0000 31.9246 0.0000
# 6 0.0000 0.0000 0.0000 6.6200 0.0000 5.5289
#
#
#
# Elastic Compliance Matrix: (Units=1/GPa)
#
#
# Indices 1 2 3 4 5 6 
#
# 1 0.010345 -0.002943 -0.003307 0.000000 -0.001330 0.000000
# 2 -0.002943 0.016368 -0.002304 0.000000 -0.005269 0.000000
# 3 -0.003307 -0.002304 0.008925 0.000000 -0.001108 0.000000
# 4 0.000000 0.000000 0.000000 0.362016 0.000000 -0.433460
# 5 -0.001330 -0.005269 -0.001108 0.000000 0.034572 0.000000
# 6 0.000000 0.000000 0.000000 -0.433460 0.000000 0.699874
#
#
# Mechanical properties :
#
#
# Convention : Reuss Voigt Hill
#
# Bulk Modulus (GPa) = 53.96678 66.58177 60.27427
# Shear Modulus (GPa) = 4.32756 24.32370 14.32563
#
# Velocity S-wave (km/s) = 1.48969 3.53175 2.71039
# Velocity P-wave (km/s) = 5.53473 7.12562 6.37996
#
# Compressibility (1/GPa) = 0.01852992
#
# Stress axis : x y z
#
# Youngs Moduli (GPa) = 96.66078 61.09539 112.04710
#
# Poissons Ratio (x) = 0.17978 0.37058
# Poissons Ratio (y) = 0.28443 0.25818
# Poissons Ratio (z) = 0.31969 0.14077
#
# Static dielectric constant tensor:
#      x y z
#    x 3.416860 0.000000 0.014780 
#    y 0.000000 3.620830 0.000000 
#    z 0.014780 0.000000 3.507200 
# 
# 
# High freq. dielectric constant tensor:
#      x y z
#    x 1.750190 0.000000 0.001880 
#    y 0.000000 1.761370 0.000000 
#    z 0.001880 0.000000 1.754500 
# 
# From -- ./inp_files/37430.got.cif
#   From: 2010.06.25/outbox.cif.g09.slc.cpg/sg10_19_cif.got.tgz:37430.got - 2010.06.27 22:07:45.
