data_PCOD8062295
_publ_section_title
;
Structure prediction by ZEFSAII (Michael W. Deem and Ramdas Pophale) SiO2 
 PCOD8062295
Probable space group: P 2/M
;
_chemical_formula_sum "Si O2"
_cell_formula_units_Z 24
_cell_length_a 31.741735
_cell_length_b 7.795631
_cell_length_c 8.940746
_cell_angle_alpha 90.000000
_cell_angle_beta 32.714246
_cell_angle_gamma 90.000000
_cell_volume 1195.668648
_symmetry_space_group_name_H-M "P 2/M"
_symmetry_group_IT_number 10
_symmetry_cell_setting 'monoclinic'
loop_
_space_group_symop_operation_xyz
x,y,z
-x,y,-z
-x,-y,-z
x,-y,z
loop_
_atom_site_type_symbol
_atom_site_label
_atom_site_fract_x
_atom_site_fract_y
_atom_site_fract_z
Si Si1 0.587931 0.500000 0.061803
Si Si2 0.850144 0.193874 0.099835
Si Si3 0.999188 0.702187 0.830301
Si Si4 0.155672 0.306677 0.208157
Si Si5 0.414251 0.500000 0.576858
Si Si6 0.301096 0.802134 0.264875
Si Si7 0.307956 0.190428 0.897714
O O1 0.501472 0.500000 0.248512
O O2 0.581452 0.500000 0.258559
O O3 0.631515 0.673665 0.878319
O O4 0.777746 0.253221 0.417073
O O5 0.838175 0.000000 0.081739
O O6 0.855559 0.309649 0.936570
O O7 0.927864 0.205120 0.964264
O O8 0.989001 0.500000 0.840054
O O9 0.078538 0.768812 0.516829
O O10 0.000000 0.757530 0.000000
O O11 0.169838 0.500000 0.222334
O O12 0.229760 0.194960 0.033646
O O13 0.369879 0.329450 0.652232
O O14 0.325057 0.000000 0.226431
O O15 0.285749 0.772117 0.135518
O O16 0.344678 0.000000 0.771248
#
# Coordination Sequence:
#
# PCOD8062295 Si02
#       7
#     2   4   4   4   2   4   4
#     4   9  18  32  59  82 117 150 175 229 284 333
#     4  11  23  37  54  80 113 148 189 233 278 331
#     4  10  22  38  57  81 110 146 188 235 281 327
#     4  11  22  36  55  81 112 148 193 234 276 334
#     4   9  18  34  53  90 115 142 187 223 280 343
#     4   9  20  35  55  85 113 146 190 230 277 334
#     4  10  19  35  58  82 114 149 185 233 280 330
#
# _framework density 20.07245
#
# number of rings (size 3 to 8) (size 9 to 14) (size 15 to 20)
#    0.000    2.000    0.833    2.500    2.333    4.333 
#    0.000    3.333    0.000    2.000    0.000    3.500 
#    0.000    0.000    0.000    0.000    0.000    0.000 
#
# Total GULP energy -297664.423356 kJ/mol
# GULP energy per Si atom -12402.684307 kJ/mol
# Density = 2.002676 g / cm^3
# Si number density = 20.072450 Si / 1000 Ang^3
#
#
#
# Elastic Constant Matrix: (Units=GPa)
#
#
# Indices 1 2 3 4 5 6 
#
# 1 85.5394 32.8628 69.5265 0.0000 -5.1527 0.0000
# 2 32.8628 99.9168 51.0132 0.0000 -15.5538 0.0000
# 3 69.5265 51.0132 111.1009 0.0000 -37.2569 0.0000
# 4 0.0000 0.0000 0.0000 21.9747 0.0000 -2.0237
# 5 -5.1527 -15.5538 -37.2569 0.0000 29.1606 0.0000
# 6 0.0000 0.0000 0.0000 -2.0237 0.0000 23.3663
#
#
#
# Elastic Compliance Matrix: (Units=1/GPa)
#
#
# Indices 1 2 3 4 5 6 
#
# 1 0.044984 0.000444 -0.044807 0.000000 -0.049062 0.000000
# 2 0.000444 0.013102 -0.006866 0.000000 -0.001705 0.000000
# 3 -0.044807 -0.006866 0.063530 0.000000 0.069589 0.000000
# 4 0.000000 0.000000 0.000000 0.045873 0.000000 0.003973
# 5 -0.049062 -0.001705 0.069589 0.000000 0.113624 0.000000
# 6 0.000000 0.000000 0.000000 0.003973 0.000000 0.043141
#
#
# Mechanical properties :
#
#
# Convention : Reuss Voigt Hill
#
# Bulk Modulus (GPa) = 52.19784 67.04021 59.61902
# Shear Modulus (GPa) = 11.54476 24.44397 17.99436
#
# Velocity S-wave (km/s) = 2.40084 3.49347 2.99736
# Velocity P-wave (km/s) = 5.80918 7.05295 6.46106
#
# Compressibility (1/GPa) = 0.01915788
#
# Stress axis : x y z
#
# Youngs Moduli (GPa) = 22.23012 76.32332 15.74070
#
# Poissons Ratio (x) = -0.03389 0.70530
# Poissons Ratio (y) = -0.00987 0.10807
# Poissons Ratio (z) = 0.99607 0.52400
#
# Static dielectric constant tensor:
#      x y z
#    x 3.364040 0.000000 -0.088480 
#    y 0.000000 3.671780 0.000000 
#    z -0.088480 0.000000 3.726700 
# 
# 
# High freq. dielectric constant tensor:
#      x y z
#    x 1.764320 0.000000 -0.006130 
#    y 0.000000 1.792040 0.000000 
#    z -0.006130 0.000000 1.777020 
# 
# From -- ./inp_files/37888.got.cif
#   From: 2010.06.25/outbox.cif.g09.slc.cpg/sg10_19_cif.got.tgz:37888.got - 2010.06.27 22:07:45.
