data_PCOD8062103
_publ_section_title
;
Structure prediction by ZEFSAII (Michael W. Deem and Ramdas Pophale) SiO2 
 PCOD8062103
Probable space group: P 2/M
;
_chemical_formula_sum "Si O2"
_cell_formula_units_Z 24
_cell_length_a 15.049060
_cell_length_b 8.606500
_cell_length_c 14.563647
_cell_angle_alpha 90.000000
_cell_angle_beta 140.078789
_cell_angle_gamma 90.000000
_cell_volume 1210.489049
_symmetry_space_group_name_H-M "P 2/M"
_symmetry_group_IT_number 10
_symmetry_cell_setting 'monoclinic'
loop_
_space_group_symop_operation_xyz
x,y,z
-x,y,-z
-x,-y,-z
x,-y,z
loop_
_atom_site_type_symbol
_atom_site_label
_atom_site_fract_x
_atom_site_fract_y
_atom_site_fract_z
Si Si1 0.323216 0.817242 0.221406
Si Si2 0.200935 0.319040 0.620714
Si Si3 0.072029 0.819866 0.892628
Si Si4 0.065542 0.820011 0.678110
Si Si5 0.620752 0.818430 0.385469
Si Si6 0.218401 0.680483 0.321141
O O1 0.467619 0.764284 0.291615
O O2 0.307934 0.724521 0.303555
O O3 0.321981 0.000000 0.242095
O O4 0.202799 0.768526 0.056186
O O5 0.205533 0.500000 0.645382
O O6 0.190657 0.228912 0.709729
O O7 0.339359 0.267987 0.677233
O O8 0.069280 0.280416 0.452633
O O9 0.110582 0.785110 0.817684
O O10 0.941817 0.720528 0.823699
O O11 0.035852 0.000000 0.879525
O O12 0.028464 0.000000 0.634211
O O13 0.729495 0.778270 0.551103
O O14 0.627642 0.000000 0.371826
O O15 0.236582 0.500000 0.357479
#
# Coordination Sequence:
#
# PCOD8062103 Si02
#       6
#     4   4   4   4   4   4
#     4  10  23  41  60  83 114 153 195 238 284 337
#     4  11  21  34  56  86 118 147 185 237 289 338
#     4  10  21  39  62  86 114 150 193 238 283 335
#     4  10  19  34  59  86 113 148 190 233 283 338
#     4  11  22  39  61  84 113 152 196 239 283 337
#     4  12  24  37  58  87 117 151 192 237 287 342
#
# _framework density 19.826696999999999
#
# number of rings (size 3 to 8) (size 9 to 14) (size 15 to 20)
#    0.000    1.333    1.667    6.000    0.000    6.667 
#    0.000    0.833    0.000    5.000    0.000    0.000 
#    0.000    0.000    0.000    0.000    0.000    0.000 
#
# Total GULP energy -297741.797219 kJ/mol
# GULP energy per Si atom -12405.908217 kJ/mol
# Density = 1.978157 g / cm^3
# Si number density = 19.826697 Si / 1000 Ang^3
#
#
#
# Elastic Constant Matrix: (Units=GPa)
#
#
# Indices 1 2 3 4 5 6 
#
# 1 140.9402 27.8498 19.1396 0.0000 9.0792 0.0000
# 2 27.8498 60.4530 5.9167 0.0000 3.2367 0.0000
# 3 19.1396 5.9167 42.1344 0.0000 14.5382 0.0000
# 4 0.0000 0.0000 0.0000 5.0577 0.0000 1.9156
# 5 9.0792 3.2367 14.5382 0.0000 29.6011 0.0000
# 6 0.0000 0.0000 0.0000 1.9156 0.0000 18.8417
#
#
#
# Elastic Compliance Matrix: (Units=1/GPa)
#
#
# Indices 1 2 3 4 5 6 
#
# 1 0.008233 -0.003461 -0.003026 0.000000 -0.000661 0.000000
# 2 -0.003461 0.018244 -0.000804 0.000000 -0.000538 0.000000
# 3 -0.003026 -0.000804 0.029945 0.000000 -0.013691 0.000000
# 4 0.000000 0.000000 0.000000 0.205638 0.000000 -0.020907
# 5 -0.000661 -0.000538 -0.013691 0.000000 0.040768 0.000000
# 6 0.000000 0.000000 0.000000 -0.020907 0.000000 0.055199
#
#
# Mechanical properties :
#
#
# Convention : Reuss Voigt Hill
#
# Bulk Modulus (GPa) = 23.90064 38.81551 31.35808
# Shear Modulus (GPa) = 12.93478 23.40820 18.17149
#
# Velocity S-wave (km/s) = 2.55697 3.43977 3.03069
# Velocity P-wave (km/s) = 4.56053 5.94945 5.30068
#
# Compressibility (1/GPa) = 0.04183988
#
# Stress axis : x y z
#
# Youngs Moduli (GPa) = 121.46878 54.81323 33.39471
#
# Poissons Ratio (x) = 0.18971 0.10104
# Poissons Ratio (y) = 0.42042 0.02684
# Poissons Ratio (z) = 0.36753 0.04406
#
# Static dielectric constant tensor:
#      x y z
#    x 3.964830 0.000000 -0.072820 
#    y 0.000000 3.548000 0.000000 
#    z -0.072820 0.000000 3.443490 
# 
# 
# High freq. dielectric constant tensor:
#      x y z
#    x 1.793920 0.000000 -0.006610 
#    y 0.000000 1.772410 0.000000 
#    z -0.006610 0.000000 1.747980 
# 
# From -- ./inp_files/33783.got.cif
#   From: 2010.06.25/outbox.cif.g09.slc.cpg/sg10_17_cif.got.tgz:33783.got - 2010.06.27 22:07:45.
