data_PCOD8062247
_publ_section_title
;
Structure prediction by ZEFSAII (Michael W. Deem and Ramdas Pophale) SiO2 
 PCOD8062247
Probable space group: P 2/M
;
_chemical_formula_sum "Si O2"
_cell_formula_units_Z 28
_cell_length_a 11.698486
_cell_length_b 9.221030
_cell_length_c 14.516249
_cell_angle_alpha 90.000000
_cell_angle_beta 110.705914
_cell_angle_gamma 90.000000
_cell_volume 1464.752913
_symmetry_space_group_name_H-M "P 2/M"
_symmetry_group_IT_number 10
_symmetry_cell_setting 'monoclinic'
loop_
_space_group_symop_operation_xyz
x,y,z
-x,y,-z
-x,-y,-z
x,-y,z
loop_
_atom_site_type_symbol
_atom_site_label
_atom_site_fract_x
_atom_site_fract_y
_atom_site_fract_z
Si Si1 0.379983 0.830846 0.519896
Si Si2 0.671722 0.831691 0.289615
Si Si3 0.841134 0.672407 0.041425
Si Si4 0.384593 0.328377 0.906350
Si Si5 0.165371 0.670553 0.357475
Si Si6 0.111273 0.329327 0.143807
Si Si7 0.046642 0.834325 0.616187
O O1 0.500000 0.778322 0.500000
O O2 0.394830 0.796564 0.632321
O O3 0.264581 0.746248 0.448587
O O4 0.354094 0.000000 0.496322
O O5 0.604229 0.740971 0.191474
O O6 0.813026 0.785515 0.337786
O O7 0.659582 0.000000 0.261957
O O8 0.832284 0.500000 0.043606
O O9 0.735483 0.736022 0.076820
O O10 0.972720 0.732643 0.111895
O O11 0.821019 0.726255 0.929473
O O12 0.379429 0.500000 0.892053
O O13 0.500000 0.281380 0.000000
O O14 0.170596 0.500000 0.376672
O O15 0.189201 0.710740 0.256719
O O16 0.030092 0.727085 0.341542
O O17 0.094601 0.500000 0.130630
O O18 0.000000 0.815359 0.500000
O O19 0.029028 0.000000 0.644019
#
# Coordination Sequence:
#
# PCOD8062247 Si02
#       7
#     4   4   4   4   4   4   4
#     4  10  22  41  59  74 103 150 194 224 266 332
#     4  10  21  38  59  81 106 143 187 233 278 321
#     4   8  14  29  49  70 102 139 175 209 256 323
#     4  10  21  35  54  80 108 141 179 223 275 330
#     4  11  21  32  53  87 117 139 176 229 281 328
#     4   8  15  27  47  74 103 137 170 211 264 319
#     4  10  19  35  57  79 110 148 186 224 270 333
#
# _framework density 19.115850999999999
#
# number of rings (size 3 to 8) (size 9 to 14) (size 15 to 20)
#    0.000    2.429    1.429    2.143    0.000    4.286 
#    0.000    1.429    0.000    1.714    0.000    7.000 
#    0.000    0.000    0.000    0.000    0.000    0.000 
#
# Total GULP energy -347126.582874 kJ/mol
# GULP energy per Si atom -12397.377960 kJ/mol
# Density = 1.907234 g / cm^3
# Si number density = 19.115851 Si / 1000 Ang^3
#
#
#
# Elastic Constant Matrix: (Units=GPa)
#
#
# Indices 1 2 3 4 5 6 
#
# 1 104.9842 27.5071 47.5711 0.0000 -14.9395 0.0000
# 2 27.5071 36.7957 40.6353 0.0000 -3.7594 0.0000
# 3 47.5711 40.6353 132.3043 0.0000 -9.6058 0.0000
# 4 0.0000 0.0000 0.0000 23.6233 0.0000 -0.7870
# 5 -14.9395 -3.7594 -9.6058 0.0000 27.7406 0.0000
# 6 0.0000 0.0000 0.0000 -0.7870 0.0000 16.8668
#
#
#
# Elastic Compliance Matrix: (Units=1/GPa)
#
#
# Indices 1 2 3 4 5 6 
#
# 1 0.013069 -0.006754 -0.002237 0.000000 0.005349 0.000000
# 2 -0.006754 0.044658 -0.011399 0.000000 -0.001532 0.000000
# 3 -0.002237 -0.011399 0.011965 0.000000 0.001394 0.000000
# 4 0.000000 0.000000 0.000000 0.042397 0.000000 0.001978
# 5 0.005349 -0.001532 0.001394 0.000000 0.039204 0.000000
# 6 0.000000 0.000000 0.000000 0.001978 0.000000 0.059381
#
#
# Mechanical properties :
#
#
# Convention : Reuss Voigt Hill
#
# Bulk Modulus (GPa) = 34.58597 56.16793 45.37695
# Shear Modulus (GPa) = 19.15057 24.20420 21.67738
#
# Velocity S-wave (km/s) = 3.16858 3.56221 3.37115
# Velocity P-wave (km/s) = 5.61415 6.80924 6.24037
#
# Compressibility (1/GPa) = 0.02891345
#
# Stress axis : x y z
#
# Youngs Moduli (GPa) = 76.51474 22.39257 83.57933
#
# Poissons Ratio (x) = 0.15123 0.18693
# Poissons Ratio (y) = 0.51676 0.95271
# Poissons Ratio (z) = 0.17113 0.25525
#
# Static dielectric constant tensor:
#      x y z
#    x 3.694810 0.000000 -0.215750 
#    y 0.000000 3.121810 0.000000 
#    z -0.215750 0.000000 3.634630 
# 
# 
# High freq. dielectric constant tensor:
#      x y z
#    x 1.741790 0.000000 -0.011570 
#    y 0.000000 1.705740 0.000000 
#    z -0.011570 0.000000 1.754210 
# 
# From -- ./inp_files/63513.got.cif
#   From: 2010.06.25/outbox.cif.g09.slc.cpg/sg10_32_cif.got.tgz:63513.got - 2010.06.27 22:07:45.
