data_PCOD8062603
_publ_section_title
;
Structure prediction by ZEFSAII (Michael W. Deem and Ramdas Pophale) SiO2 
 PCOD8062603
Probable space group: P 2/M
;
_chemical_formula_sum "Si O2"
_cell_formula_units_Z 28
_cell_length_a 24.951820
_cell_length_b 8.872138
_cell_length_c 9.573632
_cell_angle_alpha 90.000000
_cell_angle_beta 139.004867
_cell_angle_gamma 90.000000
_cell_volume 1390.297435
_symmetry_space_group_name_H-M "P 2/M"
_symmetry_group_IT_number 10
_symmetry_cell_setting 'monoclinic'
loop_
_space_group_symop_operation_xyz
x,y,z
-x,y,-z
-x,-y,-z
x,-y,z
loop_
_atom_site_type_symbol
_atom_site_label
_atom_site_fract_x
_atom_site_fract_y
_atom_site_fract_z
Si Si1 0.849891 0.175077 0.350876
Si Si2 0.590525 0.679027 0.212833
Si Si3 0.687093 0.328732 0.662363
Si Si4 0.415778 0.328218 0.271086
Si Si5 0.861940 0.320907 0.077705
Si Si6 0.002230 0.825363 0.842835
Si Si7 0.679374 0.823702 0.142684
O O1 0.876757 0.259414 0.262958
O O2 0.914640 0.204417 0.600999
O O3 0.763786 0.235672 0.241392
O O4 0.843363 0.000000 0.299612
O O5 0.585156 0.500000 0.196884
O O6 0.622274 0.742444 0.425460
O O7 0.661028 0.736024 0.248332
O O8 0.500000 0.745707 0.000000
O O9 0.697229 0.500000 0.634135
O O10 0.654598 0.315670 0.754157
O O11 0.777347 0.254861 0.845479
O O12 0.500000 0.270836 0.500000
O O13 0.424763 0.500000 0.232226
O O14 0.395248 0.215867 0.106156
O O15 0.858713 0.500000 0.083418
O O16 0.932887 0.272811 0.113319
O O17 0.027561 0.000000 0.882023
O O18 0.000000 0.773217 0.000000
O O19 0.683132 0.000000 0.180979
#
# Coordination Sequence:
#
# PCOD8062603 Si02
#       7
#     4   4   4   4   4   4   4
#     4  10  22  41  61  85 118 157 196 234 286 354
#     4  10  21  39  61  83 113 157 202 242 290 348
#     4   9  19  35  56  86 117 147 191 243 289 338
#     4  10  19  36  62  86 113 154 200 240 282 341
#     4  11  22  38  61  90 121 151 191 243 297 344
#     4  10  23  42  64  87 116 155 196 235 284 351
#     4  11  23  37  57  88 122 153 192 242 294 345
#
# _framework density 20.139576000000002
#
# number of rings (size 3 to 8) (size 9 to 14) (size 15 to 20)
#    0.000    1.857    1.429    2.143    2.000    6.000 
#    0.000    1.429    0.000    0.000    0.000    0.000 
#    0.000    0.000    0.000    0.000    0.000    0.000 
#
# Total GULP energy -347170.542834 kJ/mol
# GULP energy per Si atom -12398.947958 kJ/mol
# Density = 2.009374 g / cm^3
# Si number density = 20.139576 Si / 1000 Ang^3
#
#
#
# Elastic Constant Matrix: (Units=GPa)
#
#
# Indices 1 2 3 4 5 6 
#
# 1 91.9289 25.3406 29.2024 0.0000 -1.2957 0.0000
# 2 25.3406 35.0716 28.0711 0.0000 -0.6482 0.0000
# 3 29.2024 28.0711 119.7020 0.0000 -6.8145 0.0000
# 4 0.0000 0.0000 0.0000 24.7904 0.0000 -1.4624
# 5 -1.2957 -0.6482 -6.8145 0.0000 37.3511 0.0000
# 6 0.0000 0.0000 0.0000 -1.4624 0.0000 30.4870
#
#
#
# Elastic Compliance Matrix: (Units=1/GPa)
#
#
# Indices 1 2 3 4 5 6 
#
# 1 0.013736 -0.008920 -0.001254 0.000000 0.000093 0.000000
# 2 -0.008920 0.040924 -0.007476 0.000000 -0.000963 0.000000
# 3 -0.001254 -0.007476 0.010512 0.000000 0.001745 0.000000
# 4 0.000000 0.000000 0.000000 0.040453 0.000000 0.001940
# 5 0.000093 -0.000963 0.001745 0.000000 0.027078 0.000000
# 6 0.000000 0.000000 0.000000 0.001940 0.000000 0.032894
#
#
# Mechanical properties :
#
#
# Convention : Reuss Voigt Hill
#
# Bulk Modulus (GPa) = 33.47440 45.77010 39.62225
# Shear Modulus (GPa) = 23.71315 29.46493 26.58904
#
# Velocity S-wave (km/s) = 3.43511 3.82912 3.63745
# Velocity P-wave (km/s) = 5.69127 6.50579 6.11211
#
# Compressibility (1/GPa) = 0.02987357
#
# Stress axis : x y z
#
# Youngs Moduli (GPa) = 72.79936 24.43580 95.12501
#
# Poissons Ratio (x) = 0.21796 0.11930
# Poissons Ratio (y) = 0.64934 0.71113
# Poissons Ratio (z) = 0.09130 0.18268
#
# Static dielectric constant tensor:
#      x y z
#    x 3.704770 0.000000 0.060800 
#    y 0.000000 3.376360 0.000000 
#    z 0.060800 0.000000 3.973140 
# 
# 
# High freq. dielectric constant tensor:
#      x y z
#    x 1.794560 0.000000 0.003060 
#    y 0.000000 1.755560 0.000000 
#    z 0.003060 0.000000 1.803410 
# 
# From -- ./inp_files/37232.got.cif
#   From: 2010.06.25/outbox.cif.g09.slc.cpg/sg10_19_cif.got.tgz:37232.got - 2010.06.27 22:07:45.
