data_PCOD8062907
_publ_section_title
;
Structure prediction by ZEFSAII (Michael W. Deem and Ramdas Pophale) SiO2 
 PCOD8062907
Probable space group: P 2/M
;
_chemical_formula_sum "Si O2"
_cell_formula_units_Z 32
_cell_length_a 27.664649
_cell_length_b 13.648699
_cell_length_c 13.831388
_cell_angle_alpha 90.000000
_cell_angle_beta 159.636221
_cell_angle_gamma 90.000000
_cell_volume 1817.338317
_symmetry_space_group_name_H-M "P 2/M"
_symmetry_group_IT_number 10
_symmetry_cell_setting 'monoclinic'
loop_
_space_group_symop_operation_xyz
x,y,z
-x,y,-z
-x,-y,-z
x,-y,z
loop_
_atom_site_type_symbol
_atom_site_label
_atom_site_fract_x
_atom_site_fract_y
_atom_site_fract_z
Si Si1 0.562027 0.697217 0.259988
Si Si2 0.037568 0.765360 0.465058
Si Si3 0.339642 0.197277 0.088488
Si Si4 0.307343 0.384368 0.666450
Si Si5 0.772692 0.111896 0.935578
Si Si6 0.429615 0.111246 0.611832
Si Si7 0.869846 0.393095 0.497084
Si Si8 0.416596 0.607402 0.154854
O O1 0.695687 0.657068 0.449790
O O2 0.574185 0.813410 0.305540
O O3 0.548287 0.638386 0.335440
O O4 0.425452 0.678146 0.941161
O O5 0.190147 0.812460 0.755579
O O6 0.028414 0.681815 0.365847
O O7 0.000000 0.719930 0.500000
O O8 0.928433 0.847659 0.230357
O O9 0.330558 0.165042 0.182561
O O10 0.440229 0.129048 0.214844
O O11 0.392750 0.310185 0.191623
O O12 0.344366 0.500000 0.736889
O O13 0.160756 0.365650 0.447258
O O14 0.780241 0.000000 0.981694
O O15 0.711471 0.125496 0.713987
O O16 0.439180 0.000000 0.669769
O O17 0.940940 0.500000 0.624183
O O18 0.719643 0.396402 0.166253
O O19 0.444730 0.500000 0.253945
#
# Coordination Sequence:
#
# PCOD8062907 Si02
#       8
#     4   4   4   4   4   4   4   4
#     4   9  15  25  44  68  93 121 153 189 226 270
#     4   9  18  30  46  71  95 119 156 196 231 268
#     4   9  17  29  49  72  92 120 160 200 232 267
#     4   9  15  26  48  75  97 120 153 188 228 279
#     4  10  20  33  47  63  89 127 163 195 234 280
#     4  10  20  32  47  67  94 126 157 191 237 285
#     4   8  14  25  43  67  93 118 145 180 223 273
#     4   8  13  23  41  67  97 122 145 179 227 279
#
# _framework density 17.608169
#
# number of rings (size 3 to 8) (size 9 to 14) (size 15 to 20)
#    0.000    3.000    0.000    3.750    0.000    4.000 
#    0.000    3.125    0.000   13.500    0.000    3.500 
#    0.000    0.000    0.000    0.000    0.000    0.000 
#
# Total GULP energy -396528.072632 kJ/mol
# GULP energy per Si atom -12391.502270 kJ/mol
# Density = 1.756809 g / cm^3
# Si number density = 17.608169 Si / 1000 Ang^3
#
#
#
# Elastic Constant Matrix: (Units=GPa)
#
#
# Indices 1 2 3 4 5 6 
#
# 1 90.2383 66.2932 22.7916 0.0000 6.8775 0.0000
# 2 66.2932 153.2754 28.3841 0.0000 -2.6472 0.0000
# 3 22.7916 28.3841 34.3926 0.0000 3.8273 0.0000
# 4 0.0000 0.0000 0.0000 7.0059 0.0000 -0.2890
# 5 6.8775 -2.6472 3.8273 0.0000 12.5419 0.0000
# 6 0.0000 0.0000 0.0000 -0.2890 0.0000 30.9588
#
#
#
# Elastic Compliance Matrix: (Units=1/GPa)
#
#
# Indices 1 2 3 4 5 6 
#
# 1 0.018434 -0.007190 -0.005164 0.000000 -0.010051 0.000000
# 2 -0.007190 0.010674 -0.004901 0.000000 0.007691 0.000000
# 3 -0.005164 -0.004901 0.037620 0.000000 -0.009683 0.000000
# 4 0.000000 0.000000 0.000000 0.142792 0.000000 0.001333
# 5 -0.010051 0.007691 -0.009683 0.000000 0.089822 0.000000
# 6 0.000000 0.000000 0.000000 0.001333 0.000000 0.032313
#
#
# Mechanical properties :
#
#
# Convention : Reuss Voigt Hill
#
# Bulk Modulus (GPa) = 31.03695 56.98266 44.00980
# Shear Modulus (GPa) = 13.26594 20.79716 17.03155
#
# Velocity S-wave (km/s) = 2.74778 3.44045 3.11344
# Velocity P-wave (km/s) = 5.26610 6.94363 6.16222
#
# Compressibility (1/GPa) = 0.03221966
#
# Stress axis : x y z
#
# Youngs Moduli (GPa) = 54.24656 93.68153 26.58175
#
# Poissons Ratio (x) = 0.67361 0.13726
# Poissons Ratio (y) = 0.39006 0.13026
# Poissons Ratio (z) = 0.28010 0.45909
#
# Static dielectric constant tensor:
#      x y z
#    x 3.569890 0.000000 0.153190 
#    y 0.000000 3.411060 0.000000 
#    z 0.153190 0.000000 2.858500 
# 
# 
# High freq. dielectric constant tensor:
#      x y z
#    x 1.675810 0.000000 0.013660 
#    y 0.000000 1.681700 0.000000 
#    z 0.013660 0.000000 1.634610 
# 
# From -- ./inp_files/72700.got.cif
#   From: 2010.06.25/outbox.cif.g09.slc.cpg/sg10_37_cif.got.tgz:72700.got - 2010.06.27 22:07:45.
