data_PCOD8062091
_publ_section_title
;
Structure prediction by ZEFSAII (Michael W. Deem and Ramdas Pophale) SiO2 
 PCOD8062091
Probable space group: P 2/M
;
_chemical_formula_sum "Si O2"
_cell_formula_units_Z 32
_cell_length_a 12.575023
_cell_length_b 16.862583
_cell_length_c 15.462303
_cell_angle_alpha 90.000000
_cell_angle_beta 150.375979
_cell_angle_gamma 90.000000
_cell_volume 1620.702350
_symmetry_space_group_name_H-M "P 2/M"
_symmetry_group_IT_number 10
_symmetry_cell_setting 'monoclinic'
loop_
_space_group_symop_operation_xyz
x,y,z
-x,y,-z
-x,-y,-z
x,-y,z
loop_
_atom_site_type_symbol
_atom_site_label
_atom_site_fract_x
_atom_site_fract_y
_atom_site_fract_z
Si Si1 0.160156 0.909854 0.441596
Si Si2 0.437965 0.593220 0.051249
Si Si3 0.813582 0.409207 0.438214
Si Si4 0.730969 0.208165 0.630999
Si Si5 0.720566 0.163875 0.106260
Si Si6 0.773939 0.915810 0.804499
Si Si7 0.545427 0.090342 0.815909
Si Si8 0.028974 0.318517 0.745049
O O1 0.270461 0.847722 0.453893
O O2 0.284604 0.898858 0.622243
O O3 0.904660 0.895308 0.271561
O O4 0.194264 0.000000 0.432633
O O5 0.465266 0.500000 0.069291
O O6 0.598320 0.625406 0.239589
O O7 0.500000 0.626966 0.000000
O O8 0.190742 0.615432 0.898026
O O9 0.782633 0.500000 0.448462
O O10 0.000000 0.405648 0.500000
O O11 0.872060 0.354310 0.561053
O O12 0.500000 0.239692 0.500000
O O13 0.818435 0.153309 0.768441
O O14 0.883027 0.283823 0.719614
O O15 0.814031 0.251740 0.183964
O O16 0.500000 0.149630 0.000000
O O17 0.662554 0.148693 0.965158
O O18 0.622573 0.886632 0.774719
O O19 0.681853 0.000000 0.700229
O O20 0.000000 0.939266 0.000000
O O21 0.604863 0.000000 0.883906
#
# Coordination Sequence:
#
# PCOD8062091 Si02
#       8
#     4   4   4   4   4   4   4   4
#     4  10  21  38  60  83 108 151 209 265 303 342
#     4  10  19  36  65  95 123 156 194 237 287 340
#     4  10  20  37  66  97 123 153 195 242 282 339
#     4  11  22  38  56  83 120 157 196 247 314 363
#     4  11  25  40  54  84 125 165 193 233 302 376
#     4  10  19  34  59  85 108 144 202 267 315 345
#     4  10  21  38  60  82 109 150 207 263 300 346
#     4  11  23  38  56  90 127 160 192 237 295 362
#
# _framework density 19.744523999999998
#
# number of rings (size 3 to 8) (size 9 to 14) (size 15 to 20)
#    0.000    1.625    2.500    3.000    0.000    5.000 
#    2.250    1.250    0.000    1.500    0.000    1.750 
#    0.000    0.000    0.000    0.000    0.000    0.000 
#
# Total GULP energy -396469.806080 kJ/mol
# GULP energy per Si atom -12389.681440 kJ/mol
# Density = 1.969958 g / cm^3
# Si number density = 19.744524 Si / 1000 Ang^3
#
#
#
# Elastic Constant Matrix: (Units=GPa)
#
#
# Indices 1 2 3 4 5 6 
#
# 1 80.6013 37.4362 44.5879 0.0000 10.2525 0.0000
# 2 37.4362 56.1894 45.1287 0.0000 -10.0752 0.0000
# 3 44.5879 45.1287 158.3944 0.0000 -1.0784 0.0000
# 4 0.0000 0.0000 0.0000 42.7971 0.0000 -1.2955
# 5 10.2525 -10.0752 -1.0784 0.0000 36.1987 0.0000
# 6 0.0000 0.0000 0.0000 -1.2955 0.0000 31.9265
#
#
#
# Elastic Compliance Matrix: (Units=1/GPa)
#
#
# Indices 1 2 3 4 5 6 
#
# 1 0.021609 -0.014646 -0.001980 0.000000 -0.010256 0.000000
# 2 -0.014646 0.034499 -0.005614 0.000000 0.013583 0.000000
# 3 -0.001980 -0.005614 0.008465 0.000000 -0.000750 0.000000
# 4 0.000000 0.000000 0.000000 0.023395 0.000000 0.000949
# 5 -0.010256 0.013583 -0.000750 0.000000 0.034288 0.000000
# 6 0.000000 0.000000 0.000000 0.000949 0.000000 0.031360
#
#
# Mechanical properties :
#
#
# Convention : Reuss Voigt Hill
#
# Bulk Modulus (GPa) = 49.76654 61.05452 55.41053
# Shear Modulus (GPa) = 24.41485 33.38662 28.90073
#
# Velocity S-wave (km/s) = 3.52026 4.11655 3.83003
# Velocity P-wave (km/s) = 6.46397 7.32011 6.90532
#
# Compressibility (1/GPa) = 0.02009382
#
# Stress axis : x y z
#
# Youngs Moduli (GPa) = 46.27739 28.98636 118.13166
#
# Poissons Ratio (x) = 0.42452 0.23390
# Poissons Ratio (y) = 0.67776 0.66320
# Poissons Ratio (z) = 0.09163 0.16273
#
# Static dielectric constant tensor:
#      x y z
#    x 3.380800 0.000000 0.130620 
#    y 0.000000 3.530490 0.000000 
#    z 0.130620 0.000000 4.079490 
# 
# 
# High freq. dielectric constant tensor:
#      x y z
#    x 1.734440 0.000000 0.008920 
#    y 0.000000 1.754900 0.000000 
#    z 0.008920 0.000000 1.795760 
# 
# From -- ./inp_files/65423.got.cif
#   From: 2010.06.25/outbox.cif.g09.slc.cpg/sg10_33_cif.got.tgz:65423.got - 2010.06.27 22:07:45.
