data_PCOD8062668
_publ_section_title
;
Structure prediction by ZEFSAII (Michael W. Deem and Ramdas Pophale) SiO2 
 PCOD8062668
Probable space group: P 2/M
;
_chemical_formula_sum "Si O2"
_cell_formula_units_Z 32
_cell_length_a 13.000388
_cell_length_b 13.565605
_cell_length_c 18.619628
_cell_angle_alpha 90.000000
_cell_angle_beta 151.267903
_cell_angle_gamma 90.000000
_cell_volume 1578.534116
_symmetry_space_group_name_H-M "P 2/M"
_symmetry_group_IT_number 10
_symmetry_cell_setting 'monoclinic'
loop_
_space_group_symop_operation_xyz
x,y,z
-x,y,-z
-x,-y,-z
x,-y,z
loop_
_atom_site_type_symbol
_atom_site_label
_atom_site_fract_x
_atom_site_fract_y
_atom_site_fract_z
Si Si1 0.185199 0.112549 0.941803
Si Si2 0.810755 0.311540 0.536200
Si Si3 0.240602 0.611419 0.739062
Si Si4 0.493728 0.611187 0.236895
Si Si5 0.741581 0.616099 0.647871
Si Si6 0.992179 0.889468 0.665602
Si Si7 0.592789 0.814511 0.129851
Si Si8 0.054238 0.286147 0.949987
O O1 0.078152 0.127134 0.798685
O O2 0.055086 0.174569 0.920972
O O3 0.181283 0.000000 0.964312
O O4 0.430138 0.153127 0.092740
O O5 0.579057 0.341106 0.363328
O O6 0.852574 0.352684 0.641449
O O7 0.992737 0.359935 0.597076
O O8 0.811836 0.192119 0.539339
O O9 0.284638 0.500000 0.796016
O O10 0.308359 0.615887 0.697300
O O11 0.382383 0.695926 0.864131
O O12 0.424460 0.500000 0.211313
O O13 0.286138 0.665593 0.078836
O O14 0.500000 0.658797 0.500000
O O15 0.739371 0.500000 0.653124
O O16 0.873436 0.655341 0.796263
O O17 0.178949 0.868660 0.721163
O O18 0.900520 0.000000 0.599247
O O19 0.500000 0.858445 0.000000
O O20 0.000000 0.286879 0.000000
#
# Coordination Sequence:
#
# PCOD8062668 Si02
#       8
#     4   4   4   4   4   4   4   4
#     4  10  19  37  61  86 120 158 200 251 311 361
#     4  11  21  38  62  90 125 163 208 250 296 359
#     4  10  20  33  55  87 128 167 200 238 296 365
#     4  11  23  39  60  89 128 169 200 239 303 368
#     4  11  24  43  66  91 119 158 207 253 302 360
#     4   9  18  34  61  90 119 158 205 253 300 354
#     4   9  17  31  54  88 123 160 200 243 297 362
#     4  12  25  42  62  90 121 158 205 259 308 362
#
# _framework density 20.271972999999999
#
# number of rings (size 3 to 8) (size 9 to 14) (size 15 to 20)
#    0.000    1.625    2.500    3.000    0.000    5.000 
#    0.000    0.625    0.000    4.500    0.000    0.000 
#    0.000    0.000    0.000    0.000    0.000    0.000 
#
# Total GULP energy -396661.645467 kJ/mol
# GULP energy per Si atom -12395.676421 kJ/mol
# Density = 2.022583 g / cm^3
# Si number density = 20.271973 Si / 1000 Ang^3
#
#
#
# Elastic Constant Matrix: (Units=GPa)
#
#
# Indices 1 2 3 4 5 6 
#
# 1 80.0010 35.4640 22.8699 0.0000 1.4766 0.0000
# 2 35.4640 156.6116 45.6061 0.0000 6.1926 0.0000
# 3 22.8699 45.6061 75.2991 0.0000 2.3125 0.0000
# 4 0.0000 0.0000 0.0000 23.8122 0.0000 -5.2627
# 5 1.4766 6.1926 2.3125 0.0000 19.9547 0.0000
# 6 0.0000 0.0000 0.0000 -5.2627 0.0000 23.7327
#
#
#
# Elastic Compliance Matrix: (Units=1/GPa)
#
#
# Indices 1 2 3 4 5 6 
#
# 1 0.014402 -0.002414 -0.002913 0.000000 0.000021 0.000000
# 2 -0.002414 0.008227 -0.004192 0.000000 -0.001889 0.000000
# 3 -0.002913 -0.004192 0.016717 0.000000 -0.000421 0.000000
# 4 0.000000 0.000000 0.000000 0.044159 0.000000 0.009792
# 5 0.000021 -0.001889 -0.000421 0.000000 0.050747 0.000000
# 6 0.000000 0.000000 0.000000 0.009792 0.000000 0.044307
#
#
# Mechanical properties :
#
#
# Convention : Reuss Voigt Hill
#
# Bulk Modulus (GPa) = 49.23896 57.75464 53.49680
# Shear Modulus (GPa) = 24.46584 27.36472 25.91528
#
# Velocity S-wave (km/s) = 3.47779 3.67806 3.57932
# Velocity P-wave (km/s) = 6.36149 6.82563 6.59764
#
# Compressibility (1/GPa) = 0.02030912
#
# Stress axis : x y z
#
# Youngs Moduli (GPa) = 69.43362 121.54818 59.82005
#
# Poissons Ratio (x) = 0.29341 0.17425
# Poissons Ratio (y) = 0.16761 0.25075
# Poissons Ratio (z) = 0.20225 0.50950
#
# Static dielectric constant tensor:
#      x y z
#    x 3.590800 0.000000 0.138190 
#    y 0.000000 3.760410 0.000000 
#    z 0.138190 0.000000 3.492200 
# 
# 
# High freq. dielectric constant tensor:
#      x y z
#    x 1.782180 0.000000 0.005750 
#    y 0.000000 1.798260 0.000000 
#    z 0.005750 0.000000 1.771180 
# 
# From -- ./inp_files/77062.got.cif
#   From: 2010.06.25/outbox.cif.g09.slc.cpg/sg10_39_cif.got.tgz:77062.got - 2010.06.27 22:07:45.
