data_PCOD8062343
_publ_section_title
;
Structure prediction by ZEFSAII (Michael W. Deem and Ramdas Pophale) SiO2 
 PCOD8062343
Probable space group: P 2/M
;
_chemical_formula_sum "Si O2"
_cell_formula_units_Z 32
_cell_length_a 8.909746
_cell_length_b 15.788519
_cell_length_c 21.545141
_cell_angle_alpha 90.000000
_cell_angle_beta 148.311388
_cell_angle_gamma 90.000000
_cell_volume 1592.082449
_symmetry_space_group_name_H-M "P 2/M"
_symmetry_group_IT_number 10
_symmetry_cell_setting 'monoclinic'
loop_
_space_group_symop_operation_xyz
x,y,z
-x,y,-z
-x,-y,-z
x,-y,z
loop_
_atom_site_type_symbol
_atom_site_label
_atom_site_fract_x
_atom_site_fract_y
_atom_site_fract_z
Si Si1 0.640540 0.404227 0.742336
Si Si2 0.803524 0.312330 0.604546
Si Si3 0.484740 0.748707 0.386404
Si Si4 0.323635 0.902004 0.993440
Si Si5 0.419762 0.647250 0.791977
Si Si6 0.295496 0.599429 0.981578
Si Si7 0.333592 0.096297 0.250416
Si Si8 0.333943 0.823262 0.124349
O O1 0.615965 0.500000 0.705879
O O2 0.477439 0.334113 0.644332
O O3 0.506489 0.410549 0.764304
O O4 0.968613 0.372414 0.857868
O O5 0.500000 0.367462 0.500000
O O6 0.800781 0.260811 0.669675
O O7 0.762655 0.249890 0.530139
O O8 0.088567 0.367612 0.695695
O O9 0.489435 0.836083 0.349666
O O10 0.999575 0.885353 0.861302
O O11 0.390291 0.000000 0.025355
O O12 0.500000 0.860526 0.000000
O O13 0.437412 0.858784 0.095519
O O14 0.616791 0.629120 0.919756
O O15 0.475761 0.743005 0.790881
O O16 0.323544 0.500000 0.988575
O O17 0.500000 0.639438 0.000000
O O18 0.404032 0.108772 0.202565
O O19 0.415798 0.000000 0.298662
O O20 0.000000 0.800528 0.000000
#
# Coordination Sequence:
#
# PCOD8062343 Si02
#       8
#     4   4   4   4   4   4   4   4
#     4  11  22  38  62  93 124 154 194 243 294 357
#     4   8  23  42  61  81 115 155 199 256 295 344
#     4   9  20  43  60  83 117 152 201 245 294 348
#     4   9  19  31  48  81 119 151 190 238 283 348
#     4  12  21  36  60  86 115 160 196 244 298 347
#     4  10  22  37  57  88 126 159 193 236 290 358
#     4  10  19  35  59  82 115 157 194 241 297 353
#     4  10  20  32  51  85 120 151 190 231 296 360
#
# _framework density 20.099461000000002
#
# number of rings (size 3 to 8) (size 9 to 14) (size 15 to 20)
#    0.750    1.250    1.250    2.625    3.500    3.500 
#    0.000    5.000    0.000    2.250    0.000    0.000 
#    0.000    0.000    0.000    0.000    0.000    0.000 
#
# Total GULP energy -396420.148819 kJ/mol
# GULP energy per Si atom -12388.129651 kJ/mol
# Density = 2.005371 g / cm^3
# Si number density = 20.099461 Si / 1000 Ang^3
#
#
#
# Elastic Constant Matrix: (Units=GPa)
#
#
# Indices 1 2 3 4 5 6 
#
# 1 107.1231 11.7492 19.6076 0.0000 -20.2089 0.0000
# 2 11.7492 99.8115 16.1832 0.0000 -21.7547 0.0000
# 3 19.6076 16.1832 44.8619 0.0000 -14.4628 0.0000
# 4 0.0000 0.0000 0.0000 8.5947 0.0000 -1.9294
# 5 -20.2089 -21.7547 -14.4628 0.0000 39.3147 0.0000
# 6 0.0000 0.0000 0.0000 -1.9294 0.0000 25.0413
#
#
#
# Elastic Compliance Matrix: (Units=1/GPa)
#
#
# Indices 1 2 3 4 5 6 
#
# 1 0.010759 0.000244 -0.003363 0.000000 0.004428 0.000000
# 2 0.000244 0.011622 -0.002480 0.000000 0.005644 0.000000
# 3 -0.003363 -0.002480 0.026838 0.000000 0.006772 0.000000
# 4 0.000000 0.000000 0.000000 0.118398 0.000000 0.009122
# 5 0.004428 0.005644 0.006772 0.000000 0.033327 0.000000
# 6 0.000000 0.000000 0.000000 0.009122 0.000000 0.040637
#
#
# Mechanical properties :
#
#
# Convention : Reuss Voigt Hill
#
# Bulk Modulus (GPa) = 26.29985 38.54185 32.42085
# Shear Modulus (GPa) = 18.83574 28.20726 23.52150
#
# Velocity S-wave (km/s) = 3.06457 3.75024 3.42461
# Velocity P-wave (km/s) = 5.06314 6.16195 5.63937
#
# Compressibility (1/GPa) = 0.03802302
#
# Stress axis : x y z
#
# Youngs Moduli (GPa) = 92.94326 86.04041 37.26036
#
# Poissons Ratio (x) = -0.02099 0.12530
# Poissons Ratio (y) = -0.02267 0.09239
# Poissons Ratio (z) = 0.31255 0.21334
#
# Static dielectric constant tensor:
#      x y z
#    x 4.077130 0.000000 -0.177530 
#    y 0.000000 3.429310 0.000000 
#    z -0.177530 0.000000 3.445610 
# 
# 
# High freq. dielectric constant tensor:
#      x y z
#    x 1.799100 0.000000 -0.017880 
#    y 0.000000 1.761870 0.000000 
#    z -0.017880 0.000000 1.763900 
# 
# From -- ./inp_files/82843.got.cif
#   From: 2010.06.25/outbox.cif.g09.slc.cpg/sg10_42_cif.got.tgz:82843.got - 2010.06.27 22:07:45.
