data_PCOD8062793
_publ_section_title
;
Structure prediction by ZEFSAII (Michael W. Deem and Ramdas Pophale) SiO2 
 PCOD8062793
Probable space group: P 2/M
;
_chemical_formula_sum "Si O2"
_cell_formula_units_Z 20
_cell_length_a 8.394200
_cell_length_b 13.913234
_cell_length_c 9.790883
_cell_angle_alpha 90.000000
_cell_angle_beta 92.502564
_cell_angle_gamma 90.000000
_cell_volume 1142.391241
_symmetry_space_group_name_H-M "P 2/M"
_symmetry_group_IT_number 10
_symmetry_cell_setting 'monoclinic'
loop_
_space_group_symop_operation_xyz
x,y,z
-x,y,-z
-x,-y,-z
x,-y,z
loop_
_atom_site_type_symbol
_atom_site_label
_atom_site_fract_x
_atom_site_fract_y
_atom_site_fract_z
Si Si1 0.416952 0.393974 0.852084
Si Si2 0.684719 0.894323 0.540350
Si Si3 0.395050 0.778578 0.216970
Si Si4 0.828132 0.743732 0.046179
Si Si5 0.717554 0.887927 0.241149
O O1 0.395695 0.500000 0.784885
O O2 0.526187 0.327247 0.757017
O O3 0.500000 0.403915 0.000000
O O4 0.245001 0.345340 0.871338
O O5 0.500000 0.903317 0.500000
O O6 0.710831 0.812655 0.656797
O O7 0.767872 0.864988 0.400410
O O8 0.746202 0.000000 0.592337
O O9 0.283951 0.776836 0.081442
O O10 0.538592 0.853339 0.197738
O O11 0.844300 0.834010 0.149373
O O12 0.000000 0.711326 0.000000
O O13 0.727084 0.000000 0.211154
#
# Coordination Sequence:
#
# PCOD8062793 Si02
#       5
#     4   4   4   4   4
#     4   8  15  29  48  68  87 109 143 184 222 261
#     4   8  14  26  46  68  87 112 146 181 218 258
#     4   9  16  28  48  68  87 112 146 184 219 257
#     4  10  20  30  42  65  93 120 148 178 216 258
#     4   9  17  30  47  65  88 118 149 183 220 256
#
# _framework density 17.507137
#
# number of rings (size 3 to 8) (size 9 to 14) (size 15 to 20)
#    0.000    3.200    0.000    3.600    0.000    3.200 
#    0.000    1.000    0.000   17.400    0.000    0.000 
#    0.000   32.000    0.000    0.000    0.000    0.000 
#
# Total GULP energy -247809.075603 kJ/mol
# GULP energy per Si atom -12390.453780 kJ/mol
# Density = 1.746729 g / cm^3
# Si number density = 17.507137 Si / 1000 Ang^3
#
#
#
# Elastic Constant Matrix: (Units=GPa)
#
#
# Indices 1 2 3 4 5 6 
#
# 1 44.2890 31.4232 22.0741 0.0000 -16.2943 0.0000
# 2 31.4232 151.0957 63.5264 0.0000 -15.7464 0.0000
# 3 22.0741 63.5264 83.8057 0.0000 -14.0369 0.0000
# 4 0.0000 0.0000 0.0000 14.0264 0.0000 0.8796
# 5 -16.2943 -15.7464 -14.0369 0.0000 12.1225 0.0000
# 6 0.0000 0.0000 0.0000 0.8796 0.0000 8.7271
#
#
#
# Elastic Compliance Matrix: (Units=1/GPa)
#
#
# Indices 1 2 3 4 5 6 
#
# 1 0.046340 -0.003747 0.000313 0.000000 0.057782 0.000000
# 2 -0.003747 0.010276 -0.006712 0.000000 0.000539 0.000000
# 3 0.000313 -0.006712 0.019289 0.000000 0.014037 0.000000
# 4 0.000000 0.000000 0.000000 0.071747 0.000000 -0.007232
# 5 0.057782 0.000539 0.014037 0.000000 0.177111 0.000000
# 6 0.000000 0.000000 0.000000 -0.007232 0.000000 0.115315
#
#
# Mechanical properties :
#
#
# Convention : Reuss Voigt Hill
#
# Bulk Modulus (GPa) = 17.98175 57.02644 37.50410
# Shear Modulus (GPa) = 10.44041 17.78631 14.11336
#
# Velocity S-wave (km/s) = 2.44468 3.19085 2.84236
# Velocity P-wave (km/s) = 4.27341 6.79848 5.67809
#
# Compressibility (1/GPa) = 0.05561195
#
# Stress axis : x y z
#
# Youngs Moduli (GPa) = 21.57961 97.31661 51.84322
#
# Poissons Ratio (x) = 0.36464 -0.01621
# Poissons Ratio (y) = 0.08086 0.34797
# Poissons Ratio (z) = -0.00675 0.65319
#
# Static dielectric constant tensor:
#      x y z
#    x 2.928060 0.000000 -0.286270 
#    y 0.000000 3.587890 0.000000 
#    z -0.286270 0.000000 3.603670 
# 
# 
# High freq. dielectric constant tensor:
#      x y z
#    x 1.637470 0.000000 -0.012600 
#    y 0.000000 1.672130 0.000000 
#    z -0.012600 0.000000 1.664560 
# 
# From -- ./inp_files/18385.got.cif
#   From: 2010.06.25/outbox.cif.g09.slc.cpg/sg10_10_cif.got.tgz:18385.got - 2010.06.27 22:07:45.
