data_PCOD8062576
_publ_section_title
;
Structure prediction by ZEFSAII (Michael W. Deem and Ramdas Pophale) SiO2 
 PCOD8062576
Probable space group: P 2/M
;
_chemical_formula_sum "Si O2"
_cell_formula_units_Z 32
_cell_length_a 21.279282
_cell_length_b 9.476869
_cell_length_c 26.355735
_cell_angle_alpha 90.000000
_cell_angle_beta 160.260580
_cell_angle_gamma 90.000000
_cell_volume 1795.077616
_symmetry_space_group_name_H-M "P 2/M"
_symmetry_group_IT_number 10
_symmetry_cell_setting 'monoclinic'
loop_
_space_group_symop_operation_xyz
x,y,z
-x,y,-z
-x,-y,-z
x,-y,z
loop_
_atom_site_type_symbol
_atom_site_label
_atom_site_fract_x
_atom_site_fract_y
_atom_site_fract_z
Si Si1 0.394172 0.833990 0.059123
Si Si2 0.020339 0.163084 0.227498
Si Si3 0.960704 0.160912 0.410935
Si Si4 0.203008 0.341528 0.287297
Si Si5 0.401975 0.338953 0.871867
Si Si6 0.338758 0.166838 0.648757
Si Si7 0.570822 0.658927 0.633722
Si Si8 0.375629 0.165751 0.563392
O O1 0.472559 0.745827 0.072236
O O2 0.497214 0.785326 0.188907
O O3 0.427874 0.000000 0.074247
O O4 0.177508 0.796482 0.899170
O O5 0.047616 0.242869 0.194657
O O6 0.176745 0.204478 0.387454
O O7 0.029549 0.000000 0.220442
O O8 0.794982 0.264034 0.270720
O O9 0.000000 0.165353 0.500000
O O10 0.140745 0.221615 0.518660
O O11 0.913071 0.000000 0.358159
O O12 0.123812 0.500000 0.225358
O O13 0.256170 0.291534 0.270430
O O14 0.386511 0.335351 0.460381
O O15 0.374142 0.500000 0.831912
O O16 0.500000 0.335916 0.000000
O O17 0.376343 0.226706 0.621069
O O18 0.329364 0.000000 0.638999
O O19 0.605904 0.500000 0.679878
O O20 0.546207 0.761061 0.663170
O O21 0.412852 0.000000 0.590033
#
# Coordination Sequence:
#
# PCOD8062576 Si02
#       8
#     4   4   4   4   4   4   4   4
#     4  10  20  37  56  74 100 136 172 207 250 306
#     4   9  18  29  47  75 101 125 162 207 249 294
#     4  10  19  36  61  82  99 131 177 216 254 306
#     4   8  14  26  45  67  96 131 162 198 246 295
#     4  11  25  40  53  77 110 138 168 212 262 307
#     4   9  18  33  53  76 101 129 165 207 252 302
#     4   8  14  26  44  68  96 128 165 200 240 295
#     4   9  17  29  46  73 102 126 157 206 255 292
#
# _framework density 17.826526999999999
#
# number of rings (size 3 to 8) (size 9 to 14) (size 15 to 20)
#    0.000    2.750    1.250    1.125    1.750    2.250 
#    0.000    3.750    0.000    0.750    0.000    5.250 
#    0.000    0.000    0.000    0.000    0.000    0.000 
#
# Total GULP energy -396699.270123 kJ/mol
# GULP energy per Si atom -12396.852191 kJ/mol
# Density = 1.778595 g / cm^3
# Si number density = 17.826527 Si / 1000 Ang^3
#
#
#
# Elastic Constant Matrix: (Units=GPa)
#
#
# Indices 1 2 3 4 5 6 
#
# 1 141.2692 50.1880 27.7387 0.0000 1.7558 0.0000
# 2 50.1880 64.4539 29.7901 0.0000 1.0990 0.0000
# 3 27.7387 29.7901 49.3759 0.0000 -5.3961 0.0000
# 4 0.0000 0.0000 0.0000 21.1175 0.0000 10.6935
# 5 1.7558 1.0990 -5.3961 0.0000 11.3042 0.0000
# 6 0.0000 0.0000 0.0000 10.6935 0.0000 37.1830
#
#
#
# Elastic Compliance Matrix: (Units=1/GPa)
#
#
# Indices 1 2 3 4 5 6 
#
# 1 0.009867 -0.006953 -0.001521 0.000000 -0.001583 0.000000
# 2 -0.006953 0.027266 -0.013416 0.000000 -0.007975 0.000000
# 3 -0.001521 -0.013416 0.030986 0.000000 0.016332 0.000000
# 4 0.000000 0.000000 0.000000 0.055426 0.000000 -0.015940
# 5 -0.001583 -0.007975 0.016332 0.000000 0.097279 0.000000
# 6 0.000000 0.000000 0.000000 -0.015940 0.000000 0.031478
#
#
# Mechanical properties :
#
#
# Convention : Reuss Voigt Hill
#
# Bulk Modulus (GPa) = 41.08582 52.28139 46.68360
# Shear Modulus (GPa) = 16.43677 23.74642 20.09159
#
# Velocity S-wave (km/s) = 3.03981 3.65373 3.36082
# Velocity P-wave (km/s) = 5.95132 6.86958 6.42687
#
# Compressibility (1/GPa) = 0.02433930
#
# Stress axis : x y z
#
# Youngs Moduli (GPa) = 101.34500 36.67602 32.27238
#
# Poissons Ratio (x) = 0.25502 0.04909
# Poissons Ratio (y) = 0.70468 0.43295
# Poissons Ratio (z) = 0.15416 0.49203
#
# Static dielectric constant tensor:
#      x y z
#    x 3.632420 0.000000 0.141180 
#    y 0.000000 3.279310 0.000000 
#    z 0.141180 0.000000 3.164420 
# 
# 
# High freq. dielectric constant tensor:
#      x y z
#    x 1.700460 0.000000 0.012480 
#    y 0.000000 1.672360 0.000000 
#    z 0.012480 0.000000 1.665980 
# 
# From -- ./inp_files/93701.got.cif
#   From: 2010.06.25/outbox.cif.g09.slc.cpg/sg10_47_cif.got.tgz:93701.got - 2010.06.27 22:07:45.
