data_PCOD8062072
_publ_section_title
;
Structure prediction by ZEFSAII (Michael W. Deem and Ramdas Pophale) SiO2 
 PCOD8062072
Probable space group: P 2/M
;
_chemical_formula_sum "Si O2"
_cell_formula_units_Z 22
_cell_length_a 12.713813
_cell_length_b 9.690561
_cell_length_c 9.102126
_cell_angle_alpha 90.000000
_cell_angle_beta 107.026992
_cell_angle_gamma 90.000000
_cell_volume 1072.262935
_symmetry_space_group_name_H-M "P 2/M"
_symmetry_group_IT_number 10
_symmetry_cell_setting 'monoclinic'
loop_
_space_group_symop_operation_xyz
x,y,z
-x,y,-z
-x,-y,-z
x,-y,z
loop_
_atom_site_type_symbol
_atom_site_label
_atom_site_fract_x
_atom_site_fract_y
_atom_site_fract_z
Si Si1 0.285076 0.342158 0.424130
Si Si2 0.968108 0.659060 0.654091
Si Si3 0.302338 0.653590 0.102066
Si Si4 0.846526 0.161926 0.146667
Si Si5 0.660670 0.847000 0.299491
Si Si6 0.500000 0.743979 0.000000
O O1 0.298386 0.500000 0.478017
O O2 0.157622 0.299269 0.371995
O O3 0.334998 0.313645 0.283608
O O4 0.354266 0.255996 0.570765
O O5 0.990852 0.500000 0.707876
O O6 0.000000 0.685616 0.500000
O O7 0.037890 0.760964 0.785905
O O8 0.249083 0.500000 0.071146
O O9 0.215619 0.768678 0.015960
O O10 0.411119 0.650031 0.046561
O O11 0.774578 0.186129 0.263172
O O12 0.864700 0.000000 0.121129
O O13 0.663466 0.000000 0.366434
O O14 0.559628 0.838936 0.144766
#
# Coordination Sequence:
#
# PCOD8062072 Si02
#       6
#     4   4   4   4   4   2
#     4  10  22  38  58  87 119 147 188 239 283 332
#     4  10  19  34  58  86 116 155 191 228 278 336
#     4  10  22  40  60  84 114 150 191 239 286 335
#     4  10  21  36  58  86 118 155 193 232 276 337
#     4  10  21  38  60  85 115 151 189 234 285 340
#     4  10  22  40  62  86 108 148 194 236 286 344
#
# _framework density 20.517355999999999
#
# number of rings (size 3 to 8) (size 9 to 14) (size 15 to 20)
#    0.000    2.000    1.818    1.091    0.000    7.636 
#    0.000    6.364    0.000    0.000    0.000    0.000 
#    0.000    0.000    0.000    0.000    0.000    0.000 
#
# Total GULP energy -272835.661110 kJ/mol
# GULP energy per Si atom -12401.620960 kJ/mol
# Density = 2.047066 g / cm^3
# Si number density = 20.517356 Si / 1000 Ang^3
#
#
#
# Elastic Constant Matrix: (Units=GPa)
#
#
# Indices 1 2 3 4 5 6 
#
# 1 66.2569 27.7866 44.2382 0.0000 9.2406 0.0000
# 2 27.7866 121.4739 73.5404 0.0000 12.7886 0.0000
# 3 44.2382 73.5404 129.0727 0.0000 6.6753 0.0000
# 4 0.0000 0.0000 0.0000 31.8336 0.0000 7.4218
# 5 9.2406 12.7886 6.6753 0.0000 30.7463 0.0000
# 6 0.0000 0.0000 0.0000 7.4218 0.0000 16.6396
#
#
#
# Elastic Compliance Matrix: (Units=1/GPa)
#
#
# Indices 1 2 3 4 5 6 
#
# 1 0.020202 -0.000138 -0.006608 0.000000 -0.004579 0.000000
# 2 -0.000138 0.013002 -0.007163 0.000000 -0.003811 0.000000
# 3 -0.006608 -0.007163 0.013994 0.000000 0.001927 0.000000
# 4 0.000000 0.000000 0.000000 0.035059 0.000000 -0.015638
# 5 -0.004579 -0.003811 0.001927 0.000000 0.035067 0.000000
# 6 0.000000 0.000000 0.000000 -0.015638 0.000000 0.067073
#
#
# Mechanical properties :
#
#
# Convention : Reuss Voigt Hill
#
# Bulk Modulus (GPa) = 51.60561 67.54821 59.57691
# Shear Modulus (GPa) = 22.86490 27.25978 25.06234
#
# Velocity S-wave (km/s) = 3.34191 3.64898 3.49882
# Velocity P-wave (km/s) = 6.33229 7.12372 6.73963
#
# Compressibility (1/GPa) = 0.01937774
#
# Stress axis : x y z
#
# Youngs Moduli (GPa) = 49.50106 76.91232 71.45818
#
# Poissons Ratio (x) = 0.01064 0.47221
# Poissons Ratio (y) = 0.00685 0.51188
# Poissons Ratio (z) = 0.32711 0.55095
#
# Static dielectric constant tensor:
#      x y z
#    x 3.672490 0.000000 -0.064220 
#    y 0.000000 3.610570 0.000000 
#    z -0.064220 0.000000 3.606190 
# 
# 
# High freq. dielectric constant tensor:
#      x y z
#    x 1.792990 0.000000 0.000850 
#    y 0.000000 1.800010 0.000000 
#    z 0.000850 0.000000 1.799920 
# 
# From -- ./inp_files/27323.got.cif
#   From: 2010.06.25/outbox.cif.g09.slc.cpg/sg10_14_cif.got.tgz:27323.got - 2010.06.27 22:07:45.
