data_PCOD8062000
_publ_section_title
;
Structure prediction by ZEFSAII (Michael W. Deem and Ramdas Pophale) SiO2 
 PCOD8062000
Probable space group: P 2/M
;
_chemical_formula_sum "Si O2"
_cell_formula_units_Z 32
_cell_length_a 12.874212
_cell_length_b 8.964308
_cell_length_c 31.628375
_cell_angle_alpha 90.000000
_cell_angle_beta 26.967877
_cell_angle_gamma 90.000000
_cell_volume 1655.323447
_symmetry_space_group_name_H-M "P 2/M"
_symmetry_group_IT_number 10
_symmetry_cell_setting 'monoclinic'
loop_
_space_group_symop_operation_xyz
x,y,z
-x,y,-z
-x,-y,-z
x,-y,z
loop_
_atom_site_type_symbol
_atom_site_label
_atom_site_fract_x
_atom_site_fract_y
_atom_site_fract_z
Si Si1 0.162855 0.323328 0.703907
Si Si2 0.247127 0.823279 0.899790
Si Si3 0.097021 0.831040 0.642288
Si Si4 0.429665 0.831948 0.145131
Si Si5 0.547928 0.329098 0.630136
Si Si6 0.578660 0.176234 0.708087
Si Si7 0.027009 0.672073 0.582908
Si Si8 0.653045 0.675733 0.906944
O O1 0.166483 0.500000 0.695233
O O2 0.217484 0.247600 0.638797
O O3 0.353917 0.272202 0.668047
O O4 0.917038 0.268065 0.811469
O O5 0.418702 0.761958 0.872897
O O6 0.347737 0.778271 0.817458
O O7 0.233119 0.000000 0.908022
O O8 0.000000 0.751526 0.000000
O O9 0.146560 0.744411 0.580762
O O10 0.827433 0.827844 0.745876
O O11 0.190006 0.000000 0.605113
O O12 0.471920 0.726985 0.090041
O O13 0.503357 0.000000 0.106530
O O14 0.500100 0.500000 0.660282
O O15 0.542042 0.229325 0.673846
O O16 0.796269 0.312120 0.519549
O O17 0.795409 0.248471 0.652573
O O18 0.619413 0.000000 0.693989
O O19 0.973741 0.500000 0.612313
O O20 0.650344 0.500000 0.910752
O O21 0.500000 0.745596 0.000000
#
# Coordination Sequence:
#
# PCOD8062000 Si02
#       8
#     4   4   4   4   4   4   4   4
#     4   9  19  37  56  76 110 151 185 223 278 335
#     4   9  18  34  55  80 110 143 177 220 277 332
#     4  10  19  34  57  84 111 139 181 234 280 326
#     4   9  17  32  52  75 104 137 175 219 265 321
#     4  10  23  40  56  79 113 153 191 229 277 338
#     4  11  22  38  59  84 113 146 187 235 282 328
#     4  11  22  37  59  82 108 148 193 230 278 340
#     4   9  18  32  52  78 105 138 178 221 270 322
#
# _framework density 19.331568000000001
#
# number of rings (size 3 to 8) (size 9 to 14) (size 15 to 20)
#    0.000    2.250    1.250    1.500    0.000    5.250 
#    0.000    2.500    0.000    2.625    0.000    0.000 
#    0.000    0.000    0.000    0.000    0.000    0.000 
#
# Total GULP energy -396758.153315 kJ/mol
# GULP energy per Si atom -12398.692291 kJ/mol
# Density = 1.928757 g / cm^3
# Si number density = 19.331568 Si / 1000 Ang^3
#
#
#
# Elastic Constant Matrix: (Units=GPa)
#
#
# Indices 1 2 3 4 5 6 
#
# 1 126.1906 41.2953 49.2768 0.0000 7.6541 0.0000
# 2 41.2953 63.3260 37.3992 0.0000 3.8361 0.0000
# 3 49.2768 37.3992 84.7582 0.0000 12.1582 0.0000
# 4 0.0000 0.0000 0.0000 20.0653 0.0000 4.2208
# 5 7.6541 3.8361 12.1582 0.0000 28.6878 0.0000
# 6 0.0000 0.0000 0.0000 4.2208 0.0000 36.0188
#
#
#
# Elastic Compliance Matrix: (Units=1/GPa)
#
#
# Indices 1 2 3 4 5 6 
#
# 1 0.011195 -0.004691 -0.004366 0.000000 -0.000509 0.000000
# 2 -0.004691 0.023362 -0.007786 0.000000 0.001427 0.000000
# 3 -0.004366 -0.007786 0.018585 0.000000 -0.005671 0.000000
# 4 0.000000 0.000000 0.000000 0.051097 0.000000 -0.005988
# 5 -0.000509 0.001427 -0.005671 0.000000 0.037206 0.000000
# 6 0.000000 0.000000 0.000000 -0.005988 0.000000 0.028465
#
#
# Mechanical properties :
#
#
# Convention : Reuss Voigt Hill
#
# Bulk Modulus (GPa) = 51.39469 58.91305 55.15387
# Shear Modulus (GPa) = 23.80017 26.70794 25.25406
#
# Velocity S-wave (km/s) = 3.51259 3.72098 3.61829
# Velocity P-wave (km/s) = 6.56465 7.00015 6.78590
#
# Compressibility (1/GPa) = 0.01945726
#
# Stress axis : x y z
#
# Youngs Moduli (GPa) = 89.32196 42.80407 53.80626
#
# Poissons Ratio (x) = 0.20082 0.23490
# Poissons Ratio (y) = 0.41905 0.41892
# Poissons Ratio (z) = 0.38995 0.33326
#
# Static dielectric constant tensor:
#      x y z
#    x 3.645660 0.000000 0.040270 
#    y 0.000000 3.442650 0.000000 
#    z 0.040270 0.000000 3.703350 
# 
# 
# High freq. dielectric constant tensor:
#      x y z
#    x 1.759720 0.000000 0.004840 
#    y 0.000000 1.737420 0.000000 
#    z 0.004840 0.000000 1.752510 
# 
# From -- ./inp_files/49921.got.cif
#   From: 2010.06.25/outbox.cif.g09.slc.cpg/sg10_25_cif.got.tgz:49921.got - 2010.06.27 22:07:45.
