data_PCOD8062274
_publ_section_title
;
Structure prediction by ZEFSAII (Michael W. Deem and Ramdas Pophale) SiO2 
 PCOD8062274
Probable space group: P 2/M
;
_chemical_formula_sum "Si O2"
_cell_formula_units_Z 18
_cell_length_a 9.766779
_cell_length_b 12.444309
_cell_length_c 7.892671
_cell_angle_alpha 90.000000
_cell_angle_beta 70.941257
_cell_angle_gamma 90.000000
_cell_volume 906.697964
_symmetry_space_group_name_H-M "P 2/M"
_symmetry_group_IT_number 10
_symmetry_cell_setting 'monoclinic'
loop_
_space_group_symop_operation_xyz
x,y,z
-x,y,-z
-x,-y,-z
x,-y,z
loop_
_atom_site_type_symbol
_atom_site_label
_atom_site_fract_x
_atom_site_fract_y
_atom_site_fract_z
Si Si1 0.801983 0.874571 0.371557
Si Si2 0.000000 0.256132 0.500000
Si Si3 0.433534 0.378133 0.199264
Si Si4 0.127825 0.379603 0.170262
Si Si5 0.000000 0.783355 0.000000
Si Si6 0.500000 0.238978 0.500000
O O1 0.640346 0.832352 0.400317
O O2 0.860898 0.820436 0.521951
O O3 0.789476 0.000000 0.408715
O O4 0.919490 0.855673 0.172883
O O5 0.000626 0.334509 0.661526
O O6 0.492157 0.500000 0.200133
O O7 0.262893 0.376093 0.241290
O O8 0.476168 0.311897 0.345691
O O9 0.500000 0.328346 0.000000
O O10 0.098411 0.500000 0.114973
O O11 0.129918 0.295836 0.013647
#
# Coordination Sequence:
#
# PCOD8062274 Si02
#       6
#     4   2   4   4   2   2
#     4  11  23  40  62  85 118 160 210 259 305 355
#     4  10  20  38  58  84 114 156 196 246 300 362
#     4  10  21  37  59  89 127 164 198 245 308 379
#     4  10  19  35  57  88 119 151 192 243 303 369
#     4  10  22  38  62  88 120 162 200 254 312 368
#     4  12  22  40  64  92 124 160 210 256 312 360
#
# _framework density 19.852255
#
# number of rings (size 3 to 8) (size 9 to 14) (size 15 to 20)
#    0.000    1.556    2.222    3.333    0.000    0.000 
#    0.000    2.222    0.000    2.667    0.000    0.000 
#    0.000    0.000    0.000    0.000    0.000    0.000 
#
# Total GULP energy -223037.211690 kJ/mol
# GULP energy per Si atom -12390.956205 kJ/mol
# Density = 1.980707 g / cm^3
# Si number density = 19.852255 Si / 1000 Ang^3
#
#
#
# Elastic Constant Matrix: (Units=GPa)
#
#
# Indices 1 2 3 4 5 6 
#
# 1 91.9242 31.1877 11.3323 0.0000 0.9396 0.0000
# 2 31.1877 93.4250 22.5382 0.0000 0.1844 0.0000
# 3 11.3323 22.5382 76.7143 0.0000 0.4526 0.0000
# 4 0.0000 0.0000 0.0000 18.8606 0.0000 -0.6639
# 5 0.9396 0.1844 0.4526 0.0000 31.0406 0.0000
# 6 0.0000 0.0000 0.0000 -0.6639 0.0000 25.2067
#
#
#
# Elastic Compliance Matrix: (Units=1/GPa)
#
#
# Indices 1 2 3 4 5 6 
#
# 1 0.012302 -0.003948 -0.000655 0.000000 -0.000339 0.000000
# 2 -0.003948 0.012787 -0.003174 0.000000 0.000090 0.000000
# 3 -0.000655 -0.003174 0.014066 0.000000 -0.000166 0.000000
# 4 0.000000 0.000000 0.000000 0.053070 0.000000 0.001398
# 5 -0.000339 0.000090 -0.000166 0.000000 0.032228 0.000000
# 6 0.000000 0.000000 0.000000 0.001398 0.000000 0.039709
#
#
# Mechanical properties :
#
#
# Convention : Reuss Voigt Hill
#
# Bulk Modulus (GPa) = 42.37264 43.57553 42.97408
# Shear Modulus (GPa) = 26.65479 28.15529 27.40504
#
# Velocity S-wave (km/s) = 3.66820 3.77004 3.71947
# Velocity P-wave (km/s) = 6.27147 6.39910 6.33561
#
# Compressibility (1/GPa) = 0.02360014
#
# Stress axis : x y z
#
# Youngs Moduli (GPa) = 81.28582 78.20265 71.09483
#
# Poissons Ratio (x) = 0.30875 0.04659
# Poissons Ratio (y) = 0.32092 0.22567
# Poissons Ratio (z) = 0.05327 0.24823
#
# Static dielectric constant tensor:
#      x y z
#    x 3.763220 0.000000 0.144950 
#    y 0.000000 3.604250 0.000000 
#    z 0.144950 0.000000 3.575340 
# 
# 
# High freq. dielectric constant tensor:
#      x y z
#    x 1.777690 0.000000 0.009720 
#    y 0.000000 1.773290 0.000000 
#    z 0.009720 0.000000 1.772070 
# 
# From -- ./inp_files/17793.got.cif
#   From: 2010.06.25/outbox.cif.g09.slc.cpg/sg10_9_cif.got.tgz:17793.got - 2010.06.27 22:07:45.
