data_PCOD8062011
_publ_section_title
;
Structure prediction by ZEFSAII (Michael W. Deem and Ramdas Pophale) SiO2 
 PCOD8062011
Probable space group: P 2/M
;
_chemical_formula_sum "Si O2"
_cell_formula_units_Z 28
_cell_length_a 5.876041
_cell_length_b 13.442012
_cell_length_c 18.366622
_cell_angle_alpha 90.000000
_cell_angle_beta 107.707570
_cell_angle_gamma 90.000000
_cell_volume 1381.970185
_symmetry_space_group_name_H-M "P 2/M"
_symmetry_group_IT_number 10
_symmetry_cell_setting 'monoclinic'
loop_
_space_group_symop_operation_xyz
x,y,z
-x,y,-z
-x,-y,-z
x,-y,z
loop_
_atom_site_type_symbol
_atom_site_label
_atom_site_fract_x
_atom_site_fract_y
_atom_site_fract_z
Si Si1 0.135337 0.744686 0.360629
Si Si2 0.328678 0.233614 0.757533
Si Si3 0.000000 0.775749 0.500000
Si Si4 0.066469 0.271443 0.879466
Si Si5 0.449313 0.890784 0.579134
Si Si6 0.500000 0.222191 0.000000
Si Si7 0.679916 0.116311 0.875345
Si Si8 0.286075 0.616248 0.245673
O O1 0.351964 0.820336 0.364405
O O2 0.164902 0.649611 0.310605
O O3 0.884112 0.798998 0.317064
O O4 0.126548 0.712914 0.446323
O O5 0.220196 0.262030 0.823122
O O6 0.515079 0.143389 0.788988
O O7 0.459938 0.330065 0.737001
O O8 0.811683 0.843581 0.438486
O O9 0.933968 0.169972 0.889349
O O10 0.873507 0.357663 0.842144
O O11 0.265212 0.292152 0.962054
O O12 0.500000 0.902785 0.500000
O O13 0.454820 0.000000 0.616942
O O14 0.448957 0.151223 0.063452
O O15 0.729790 0.000000 0.882769
O O16 0.330520 0.500000 0.252953
#
# Coordination Sequence:
#
# PCOD8062011 Si02
#       8
#     4   4   2   4   4   2   4   4
#     4  10  20  36  57  84 113 145 185 233 283 338
#     4   9  20  37  55  78 110 148 188 232 278 325
#     4  10  19  34  57  84 120 152 181 224 279 334
#     4   9  20  36  55  82 113 146 186 231 273 325
#     4   9  18  32  52  79 111 147 182 214 256 316
#     4  10  19  34  57  84 122 156 183 222 271 322
#     4  10  20  34  55  85 120 157 192 223 264 323
#     4  10  21  40  62  80 103 141 188 237 292 347
#
# _framework density 20.260929000000001
#
# number of rings (size 3 to 8) (size 9 to 14) (size 15 to 20)
#    0.000    2.429    0.000    1.714    0.000    6.857 
#    0.000   10.714    0.000   19.286    0.000    0.000 
#    0.000    0.000    0.000    0.000    0.000    0.000 
#
# Total GULP energy -346873.448768 kJ/mol
# GULP energy per Si atom -12388.337456 kJ/mol
# Density = 2.021481 g / cm^3
# Si number density = 20.260929 Si / 1000 Ang^3
#
#
#
# Elastic Constant Matrix: (Units=GPa)
#
#
# Indices 1 2 3 4 5 6 
#
# 1 108.0982 37.4964 45.9013 0.0000 20.1200 0.0000
# 2 37.4964 98.5803 51.0568 0.0000 0.3188 0.0000
# 3 45.9013 51.0568 93.4709 0.0000 18.1358 0.0000
# 4 0.0000 0.0000 0.0000 17.9588 0.0000 -3.5033
# 5 20.1200 0.3188 18.1358 0.0000 52.3841 0.0000
# 6 0.0000 0.0000 0.0000 -3.5033 0.0000 14.6847
#
#
#
# Elastic Compliance Matrix: (Units=1/GPa)
#
#
# Indices 1 2 3 4 5 6 
#
# 1 0.012519 -0.002661 -0.004036 0.000000 -0.003395 0.000000
# 2 -0.002661 0.015098 -0.007634 0.000000 0.003573 0.000000
# 3 -0.004036 -0.007634 0.017732 0.000000 -0.004542 0.000000
# 4 0.000000 0.000000 0.000000 0.058401 0.000000 0.013933
# 5 -0.003395 0.003573 -0.004542 0.000000 0.021945 0.000000
# 6 0.000000 0.000000 0.000000 0.013933 0.000000 0.071422
#
#
# Mechanical properties :
#
#
# Convention : Reuss Voigt Hill
#
# Bulk Modulus (GPa) = 59.92153 63.22870 61.57511
# Shear Modulus (GPa) = 21.61322 28.05186 24.83254
#
# Velocity S-wave (km/s) = 3.26965 3.72496 3.50471
# Velocity P-wave (km/s) = 6.62520 7.05517 6.84356
#
# Compressibility (1/GPa) = 0.01668849
#
# Stress axis : x y z
#
# Youngs Moduli (GPa) = 79.87587 66.23318 56.39667
#
# Poissons Ratio (x) = 0.17623 0.22761
# Poissons Ratio (y) = 0.21252 0.43052
# Poissons Ratio (z) = 0.32237 0.50561
#
# Static dielectric constant tensor:
#      x y z
#    x 4.061520 0.000000 0.286280 
#    y 0.000000 3.215500 0.000000 
#    z 0.286280 0.000000 4.267220 
# 
# 
# High freq. dielectric constant tensor:
#      x y z
#    x 1.817630 0.000000 0.002050 
#    y 0.000000 1.730690 0.000000 
#    z 0.002050 0.000000 1.804540 
# 
# From -- ./inp_files/81230.got.cif
#   From: 2010.06.25/outbox.cif.g09.slc.cpg/sg10_41_cif.got.tgz:81230.got - 2010.06.27 22:07:45.
