data_PCOD8062984
_publ_section_title
;
Structure prediction by ZEFSAII (Michael W. Deem and Ramdas Pophale) SiO2 
 PCOD8062984
Probable space group: P 2/M
;
_chemical_formula_sum "Si O2"
_cell_formula_units_Z 32
_cell_length_a 17.258570
_cell_length_b 9.160047
_cell_length_c 22.939539
_cell_angle_alpha 90.000000
_cell_angle_beta 29.366031
_cell_angle_gamma 90.000000
_cell_volume 1778.387012
_symmetry_space_group_name_H-M "P 2/M"
_symmetry_group_IT_number 10
_symmetry_cell_setting 'monoclinic'
loop_
_space_group_symop_operation_xyz
x,y,z
-x,y,-z
-x,-y,-z
x,-y,z
loop_
_atom_site_type_symbol
_atom_site_label
_atom_site_fract_x
_atom_site_fract_y
_atom_site_fract_z
Si Si1 0.084929 0.172709 0.673772
Si Si2 0.552811 0.173221 0.875983
Si Si3 0.353861 0.328979 0.425241
Si Si4 0.109218 0.170486 0.792192
Si Si5 0.197471 0.832503 0.935539
Si Si6 0.701061 0.329625 0.240708
Si Si7 0.544156 0.830560 0.752104
Si Si8 0.744165 0.826783 0.859146
O O1 0.217915 0.253521 0.550640
O O2 0.103924 0.215758 0.728513
O O3 0.916474 0.234178 0.761898
O O4 0.100253 0.000000 0.654062
O O5 0.586164 0.230553 0.788927
O O6 0.695627 0.220934 0.825214
O O7 0.538409 0.000000 0.883111
O O8 0.386519 0.235198 0.009919
O O9 0.321883 0.500000 0.441731
O O10 0.518218 0.293447 0.349488
O O11 0.354776 0.262890 0.359746
O O12 0.251780 0.258030 0.728812
O O13 0.142628 0.000000 0.777819
O O14 0.943377 0.216101 0.929841
O O15 0.191099 0.737558 0.881126
O O16 0.358052 0.805992 0.865467
O O17 0.180210 0.000000 0.927401
O O18 0.734387 0.500000 0.221261
O O19 0.589914 0.000000 0.714398
O O20 0.746350 0.000000 0.862717
#
# Coordination Sequence:
#
# PCOD8062984 Si02
#       8
#     4   4   4   4   4   4   4   4
#     4  10  20  34  52  73  97 127 164 201 237 283
#     4   8  13  24  48  81 109 128 150 188 239 288
#     4  10  22  38  51  65  92 130 168 206 245 281
#     4  10  20  32  49  74 100 125 155 196 246 294
#     4   9  17  30  49  74 103 128 152 191 242 291
#     4  10  21  35  50  69  94 126 164 203 241 284
#     4   9  16  29  52  77  98 126 164 198 232 281
#     4   8  14  26  47  78 110 130 149 189 241 286
#
# _framework density 17.993832999999999
#
# number of rings (size 3 to 8) (size 9 to 14) (size 15 to 20)
#    0.000    2.750    0.000    2.625    0.000    7.500 
#    0.000    3.125    0.000    6.750    0.000    1.750 
#    0.000    0.000    0.000    0.000    0.000    0.000 
#
# Total GULP energy -396783.493535 kJ/mol
# GULP energy per Si atom -12399.484173 kJ/mol
# Density = 1.795288 g / cm^3
# Si number density = 17.993833 Si / 1000 Ang^3
#
#
#
# Elastic Constant Matrix: (Units=GPa)
#
#
# Indices 1 2 3 4 5 6 
#
# 1 161.4895 54.6205 84.8750 0.0000 18.3231 0.0000
# 2 54.6205 48.0474 49.3479 0.0000 5.2406 0.0000
# 3 84.8750 49.3479 132.7533 0.0000 15.0969 0.0000
# 4 0.0000 0.0000 0.0000 7.6593 0.0000 -8.8311
# 5 18.3231 5.2406 15.0969 0.0000 18.5436 0.0000
# 6 0.0000 0.0000 0.0000 -8.8311 0.0000 7.1133
#
#
#
# Elastic Compliance Matrix: (Units=1/GPa)
#
#
# Indices 1 2 3 4 5 6 
#
# 1 0.011829 -0.009266 -0.003402 0.000000 -0.006300 0.000000
# 2 -0.009266 0.040934 -0.009938 0.000000 0.005678 0.000000
# 3 -0.003402 -0.009938 0.013996 0.000000 -0.005225 0.000000
# 4 0.000000 0.000000 0.000000 -0.302623 0.000000 -0.375705
# 5 -0.006300 0.005678 -0.005225 0.000000 0.062801 0.000000
# 6 0.000000 0.000000 0.000000 -0.375705 0.000000 -0.325854
#
#
# Mechanical properties :
#
#
# Convention : Reuss Voigt Hill
#
# Bulk Modulus (GPa) = 46.40909 79.99743 63.20326
# Shear Modulus (GPa) = -11.19766 16.89302 2.84768
#
# Velocity S-wave (km/s) = -2.49731 3.06735 1.25937
# Velocity P-wave (km/s) = 4.18715 7.55643 6.10867
#
# Compressibility (1/GPa) = 0.02154750
#
# Stress axis : x y z
#
# Youngs Moduli (GPa) = 84.53520 24.42947 71.44884
#
# Poissons Ratio (x) = 0.22637 0.24307
# Poissons Ratio (y) = 0.78334 0.71003
# Poissons Ratio (z) = 0.28759 0.24277
#
# Static dielectric constant tensor:
#      x y z
#    x 3.609150 0.000000 0.025420 
#    y 0.000000 3.021930 0.000000 
#    z 0.025420 0.000000 3.295730 
# 
# 
# High freq. dielectric constant tensor:
#      x y z
#    x 1.706530 0.000000 0.004000 
#    y 0.000000 1.662780 0.000000 
#    z 0.004000 0.000000 1.689740 
# 
# From -- ./inp_files/89948.got.cif
#   From: 2010.06.25/outbox.cif.g09.slc.cpg/sg10_45_cif.got.tgz:89948.got - 2010.06.27 22:07:45.
