data_PCOD8062159
_publ_section_title
;
Structure prediction by ZEFSAII (Michael W. Deem and Ramdas Pophale) SiO2 
 PCOD8062159
Probable space group: P 2/M
;
_chemical_formula_sum "Si O2"
_cell_formula_units_Z 32
_cell_length_a 23.213482
_cell_length_b 12.469093
_cell_length_c 17.729853
_cell_angle_alpha 90.000000
_cell_angle_beta 20.493689
_cell_angle_gamma 90.000000
_cell_volume 1796.708479
_symmetry_space_group_name_H-M "P 2/M"
_symmetry_group_IT_number 10
_symmetry_cell_setting 'monoclinic'
loop_
_space_group_symop_operation_xyz
x,y,z
-x,y,-z
-x,-y,-z
x,-y,z
loop_
_atom_site_type_symbol
_atom_site_label
_atom_site_fract_x
_atom_site_fract_y
_atom_site_fract_z
Si Si1 0.318703 0.880502 0.012916
Si Si2 0.322933 0.124173 0.755414
Si Si3 0.098454 0.378419 0.157418
Si Si4 0.768317 0.623897 0.310181
Si Si5 0.071550 0.294136 0.024618
Si Si6 0.338532 0.120457 0.161909
Si Si7 0.576429 0.270078 0.233929
Si Si8 0.010503 0.756428 0.573558
O O1 0.441018 0.796146 0.822277
O O2 0.334752 0.000000 0.958465
O O3 0.373794 0.880915 0.030683
O O4 0.129081 0.844561 0.239332
O O5 0.500000 0.137907 0.500000
O O6 0.342124 0.182555 0.811189
O O7 0.275953 0.000000 0.823159
O O8 0.169990 0.180117 0.897940
O O9 0.048072 0.500000 0.210800
O O10 0.048178 0.323665 0.140351
O O11 0.000729 0.335968 0.350239
O O12 0.293132 0.366416 0.933946
O O13 0.769866 0.500000 0.336916
O O14 0.590964 0.677085 0.534522
O O15 0.890856 0.701206 0.207757
O O16 0.817748 0.623215 0.160865
O O17 0.184156 0.189613 0.375212
O O18 0.310580 0.000000 0.226812
O O19 0.500000 0.173448 0.000000
O O20 0.000000 0.712002 0.500000
#
# Coordination Sequence:
#
# PCOD8062159 Si02
#       8
#     4   4   4   4   4   4   4   4
#     4   9  17  31  50  73 101 131 166 206 252 306
#     4  10  19  35  54  74 102 134 168 210 258 309
#     4  10  20  34  53  76 101 132 175 219 258 304
#     4  11  21  36  55  75 106 141 177 225 267 303
#     4  10  21  37  54  77 102 137 179 216 261 312
#     4   9  17  30  50  75 100 128 163 203 248 301
#     4  10  20  33  52  79 102 134 174 216 261 310
#     4   9  18  32  51  74 100 131 164 204 255 309
#
# _framework density 17.810345999999999
#
# number of rings (size 3 to 8) (size 9 to 14) (size 15 to 20)
#    0.000    2.250    1.250    2.625    0.000    2.750 
#    0.000    5.000    0.000    0.375    0.000    0.000 
#    0.000    0.000    0.000    0.000    0.000    0.000 
#
# Total GULP energy -396547.227632 kJ/mol
# GULP energy per Si atom -12392.100864 kJ/mol
# Density = 1.776981 g / cm^3
# Si number density = 17.810346 Si / 1000 Ang^3
#
#
#
# Elastic Constant Matrix: (Units=GPa)
#
#
# Indices 1 2 3 4 5 6 
#
# 1 72.4151 34.2857 41.1810 0.0000 -1.1255 0.0000
# 2 34.2857 86.6586 23.5049 0.0000 -3.8791 0.0000
# 3 41.1810 23.5049 77.1133 0.0000 0.9619 0.0000
# 4 0.0000 0.0000 0.0000 18.1547 0.0000 0.8902
# 5 -1.1255 -3.8791 0.9619 0.0000 31.6803 0.0000
# 6 0.0000 0.0000 0.0000 0.8902 0.0000 23.6832
#
#
#
# Elastic Compliance Matrix: (Units=1/GPa)
#
#
# Indices 1 2 3 4 5 6 
#
# 1 0.022485 -0.006129 -0.010144 0.000000 0.000356 0.000000
# 2 -0.006129 0.014338 -0.001117 0.000000 0.001572 0.000000
# 3 -0.010144 -0.001117 0.018739 0.000000 -0.001066 0.000000
# 4 0.000000 0.000000 0.000000 0.055184 0.000000 -0.002074
# 5 0.000356 0.001572 -0.001066 0.000000 0.031803 0.000000
# 6 0.000000 0.000000 0.000000 -0.002074 0.000000 0.042302
#
#
# Mechanical properties :
#
#
# Convention : Reuss Voigt Hill
#
# Bulk Modulus (GPa) = 48.11804 48.23670 48.17737
# Shear Modulus (GPa) = 22.06941 23.85132 22.96036
#
# Velocity S-wave (km/s) = 3.52395 3.66346 3.59438
# Velocity P-wave (km/s) = 6.60554 6.71095 6.65846
#
# Compressibility (1/GPa) = 0.02078223
#
# Stress axis : x y z
#
# Youngs Moduli (GPa) = 44.47343 69.74663 53.36448
#
# Poissons Ratio (x) = 0.42746 0.54134
# Poissons Ratio (y) = 0.27256 0.05960
# Poissons Ratio (z) = 0.45115 0.07790
#
# Static dielectric constant tensor:
#      x y z
#    x 3.376850 0.000000 0.118550 
#    y 0.000000 3.274810 0.000000 
#    z 0.118550 0.000000 3.300480 
# 
# 
# High freq. dielectric constant tensor:
#      x y z
#    x 1.689010 0.000000 0.006910 
#    y 0.000000 1.677310 0.000000 
#    z 0.006910 0.000000 1.687510 
# 
# From -- ./inp_files/28592.got.cif
#   From: 2010.06.25/outbox.cif.g09.slc.cpg/sg10_15_cif.got.tgz:28592.got - 2010.06.27 22:07:45.
