data_PCOD8062924
_publ_section_title
;
Structure prediction by ZEFSAII (Michael W. Deem and Ramdas Pophale) SiO2 
 PCOD8062924
Probable space group: P 2/M
;
_chemical_formula_sum "Si O2"
_cell_formula_units_Z 28
_cell_length_a 19.163026
_cell_length_b 8.811485
_cell_length_c 14.997942
_cell_angle_alpha 90.000000
_cell_angle_beta 37.706155
_cell_angle_gamma 90.000000
_cell_volume 1548.891109
_symmetry_space_group_name_H-M "P 2/M"
_symmetry_group_IT_number 10
_symmetry_cell_setting 'monoclinic'
loop_
_space_group_symop_operation_xyz
x,y,z
-x,y,-z
-x,-y,-z
x,-y,z
loop_
_atom_site_type_symbol
_atom_site_label
_atom_site_fract_x
_atom_site_fract_y
_atom_site_fract_z
Si Si1 0.912885 0.821211 0.777464
Si Si2 0.574808 0.665056 0.053714
Si Si3 0.615233 0.320264 0.634899
Si Si4 0.148599 0.322352 0.520779
Si Si5 0.528496 0.822445 0.370180
Si Si6 0.215780 0.318604 0.255190
Si Si7 0.727560 0.667698 0.073129
O O1 0.874890 0.750051 0.721785
O O2 0.043297 0.774548 0.662773
O O3 0.899800 0.000000 0.784888
O O4 0.841339 0.761804 0.934687
O O5 0.539308 0.500000 0.052822
O O6 0.459067 0.747043 0.205302
O O7 0.655637 0.651102 0.056971
O O8 0.654342 0.744303 0.897480
O O9 0.590825 0.500000 0.653425
O O10 0.747442 0.285628 0.517561
O O11 0.574487 0.244100 0.584965
O O12 0.118007 0.500000 0.551818
O O13 0.182122 0.268197 0.387806
O O14 0.500000 0.781636 0.500000
O O15 0.652036 0.751878 0.223776
O O16 0.535577 0.000000 0.345207
O O17 0.214636 0.500000 0.244609
O O18 0.761470 0.500000 0.074236
#
# Coordination Sequence:
#
# PCOD8062924 Si02
#       7
#     4   4   4   4   4   4   4
#     4  11  21  32  48  70  99 135 174 214 255 296
#     4   7  12  25  45  68  92 120 157 202 246 284
#     4   9  18  32  50  73 101 134 171 207 247 297
#     4  10  20  32  47  69  99 137 178 216 251 290
#     4  10  20  34  55  83 110 131 153 189 242 302
#     4   9  17  30  48  69  96 132 175 219 255 290
#     4   9  17  32  54  76  98 127 165 206 246 290
#
# _framework density 18.077449999999999
#
# number of rings (size 3 to 8) (size 9 to 14) (size 15 to 20)
#    0.000    2.714    0.000    4.286    0.000    4.571 
#    0.000    2.857    0.000    0.857    0.000   13.000 
#    0.000    0.000    0.000    0.000    0.000    0.000 
#
# Total GULP energy -346972.385285 kJ/mol
# GULP energy per Si atom -12391.870903 kJ/mol
# Density = 1.803630 g / cm^3
# Si number density = 18.077450 Si / 1000 Ang^3
#
#
#
# Elastic Constant Matrix: (Units=GPa)
#
#
# Indices 1 2 3 4 5 6 
#
# 1 69.4639 35.6616 59.3072 0.0000 -3.9817 0.0000
# 2 35.6616 77.4495 58.2623 0.0000 -1.1548 0.0000
# 3 59.3072 58.2623 134.6073 0.0000 4.9226 0.0000
# 4 0.0000 0.0000 0.0000 24.6875 0.0000 1.1345
# 5 -3.9817 -1.1548 4.9226 0.0000 16.1398 0.0000
# 6 0.0000 0.0000 0.0000 1.1345 0.0000 14.0854
#
#
#
# Elastic Compliance Matrix: (Units=1/GPa)
#
#
# Indices 1 2 3 4 5 6 
#
# 1 0.025325 -0.004286 -0.009628 0.000000 0.008877 0.000000
# 2 -0.004286 0.020122 -0.006912 0.000000 0.002491 0.000000
# 3 -0.009628 -0.006912 0.014934 0.000000 -0.007425 0.000000
# 4 0.000000 0.000000 0.000000 0.040657 0.000000 -0.003275
# 5 0.008877 0.002491 -0.007425 0.000000 0.066591 0.000000
# 6 0.000000 0.000000 0.000000 -0.003275 0.000000 0.071259
#
#
# Mechanical properties :
#
#
# Convention : Reuss Voigt Hill
#
# Bulk Modulus (GPa) = 53.39102 65.33142 59.36122
# Shear Modulus (GPa) = 17.43476 19.53519 18.48497
#
# Velocity S-wave (km/s) = 3.10893 3.29087 3.20119
# Velocity P-wave (km/s) = 6.51812 7.11744 6.82437
#
# Compressibility (1/GPa) = 0.01872974
#
# Stress axis : x y z
#
# Youngs Moduli (GPa) = 39.48643 49.69682 66.96049
#
# Poissons Ratio (x) = 0.21301 0.64467
# Poissons Ratio (y) = 0.16924 0.46284
# Poissons Ratio (z) = 0.38016 0.34351
#
# Static dielectric constant tensor:
#      x y z
#    x 2.993830 0.000000 -0.125480 
#    y 0.000000 3.172520 0.000000 
#    z -0.125480 0.000000 3.711950 
# 
# 
# High freq. dielectric constant tensor:
#      x y z
#    x 1.662420 0.000000 -0.011390 
#    y 0.000000 1.679650 0.000000 
#    z -0.011390 0.000000 1.713880 
# 
# From -- ./inp_files/54977.got.cif
#   From: 2010.06.25/outbox.cif.g09.slc.cpg/sg10_28_cif.got.tgz:54977.got - 2010.06.27 22:07:45.
