data_PCOD8062216
_publ_section_title
;
Structure prediction by ZEFSAII (Michael W. Deem and Ramdas Pophale) SiO2 
 PCOD8062216
Probable space group: P 2/M
;
_chemical_formula_sum "Si O2"
_cell_formula_units_Z 32
_cell_length_a 14.855613
_cell_length_b 9.179312
_cell_length_c 23.030774
_cell_angle_alpha 90.000000
_cell_angle_beta 148.858319
_cell_angle_gamma 90.000000
_cell_volume 1624.167796
_symmetry_space_group_name_H-M "P 2/M"
_symmetry_group_IT_number 10
_symmetry_cell_setting 'monoclinic'
loop_
_space_group_symop_operation_xyz
x,y,z
-x,y,-z
-x,-y,-z
x,-y,z
loop_
_atom_site_type_symbol
_atom_site_label
_atom_site_fract_x
_atom_site_fract_y
_atom_site_fract_z
Si Si1 0.956165 0.668735 0.241305
Si Si2 0.813538 0.827777 0.416401
Si Si3 0.631938 0.836077 0.019953
Si Si4 0.486941 0.336049 0.561244
Si Si5 0.134844 0.330170 0.224558
Si Si6 0.181343 0.829230 0.448963
Si Si7 0.538531 0.828712 0.837853
Si Si8 0.120765 0.672538 0.011913
O O1 0.940852 0.500000 0.248551
O O2 0.778706 0.719982 0.114726
O O3 0.106238 0.700758 0.276833
O O4 0.005811 0.755205 0.327092
O O5 0.786692 0.780166 0.467807
O O6 0.649250 0.769228 0.288294
O O7 0.000000 0.760621 0.500000
O O8 0.821466 0.000000 0.413456
O O9 0.708608 0.000000 0.058478
O O10 0.500000 0.825420 0.000000
O O11 0.545600 0.793295 0.910607
O O12 0.500000 0.341670 0.500000
O O13 0.443063 0.500000 0.559826
O O14 0.672957 0.277439 0.687953
O O15 0.346391 0.220996 0.503717
O O16 0.125888 0.500000 0.207142
O O17 0.983613 0.261655 0.101252
O O18 0.155017 0.000000 0.428338
O O19 0.691230 0.750342 0.885236
O O20 0.556001 0.000000 0.835384
O O21 0.154774 0.500000 0.028240
O O22 0.000000 0.713975 0.000000
#
# Coordination Sequence:
#
# PCOD8062216 Si02
#       8
#     4   4   4   4   4   4   4   4
#     4  11  21  38  61  85 118 155 194 238 293 358
#     4   9  21  41  63  83 113 160 202 241 296 357
#     4  10  22  38  61  92 119 147 190 244 298 352
#     4  10  19  35  56  79 112 155 194 231 287 354
#     4   9  18  34  54  78 112 153 192 230 283 348
#     4  11  23  37  58  88 118 151 201 251 290 340
#     4  10  21  39  62  89 119 152 195 246 297 348
#     4  10  21  37  58  84 116 159 200 236 286 351
#
# _framework density 19.702397999999999
#
# number of rings (size 3 to 8) (size 9 to 14) (size 15 to 20)
#    0.000    2.000    2.500    0.750    3.500    0.750 
#    0.000    1.250    0.000    1.875    0.000    0.000 
#    0.000    0.000    0.000    0.000    0.000    0.000 
#
# Total GULP energy -396674.317154 kJ/mol
# GULP energy per Si atom -12396.072411 kJ/mol
# Density = 1.965755 g / cm^3
# Si number density = 19.702398 Si / 1000 Ang^3
#
#
#
# Elastic Constant Matrix: (Units=GPa)
#
#
# Indices 1 2 3 4 5 6 
#
# 1 96.0780 44.3631 57.9925 0.0000 -0.3156 0.0000
# 2 44.3631 59.5474 44.2149 0.0000 -4.9625 0.0000
# 3 57.9925 44.2149 164.8667 0.0000 -3.8222 0.0000
# 4 0.0000 0.0000 0.0000 27.1219 0.0000 -5.8011
# 5 -0.3156 -4.9625 -3.8222 0.0000 31.3257 0.0000
# 6 0.0000 0.0000 0.0000 -5.8011 0.0000 -8.0395
#
#
#
# Elastic Compliance Matrix: (Units=1/GPa)
#
#
# Indices 1 2 3 4 5 6 
#
# 1 0.017272 -0.010591 -0.003279 0.000000 -0.001904 0.000000
# 2 -0.010591 0.027684 -0.003610 0.000000 0.003838 0.000000
# 3 -0.003279 -0.003610 0.008196 0.000000 0.000395 0.000000
# 4 0.000000 0.000000 0.000000 0.031941 0.000000 -0.023048
# 5 -0.001904 0.003838 0.000395 0.000000 0.032560 0.000000
# 6 0.000000 0.000000 0.000000 -0.023048 0.000000 -0.107755
#
#
# Mechanical properties :
#
#
# Convention : Reuss Voigt Hill
#
# Bulk Modulus (GPa) = 54.97111 68.18146 61.57628
# Shear Modulus (GPa) = 98.18790 21.67639 59.93215
#
# Velocity S-wave (km/s) = 7.06709 3.32051 5.52130
# Velocity P-wave (km/s) = 9.72383 7.02722 8.48336
#
# Compressibility (1/GPa) = 0.01819137
#
# Stress axis : x y z
#
# Youngs Moduli (GPa) = 57.89834 36.12149 122.00723
#
# Poissons Ratio (x) = 0.38258 0.40007
# Poissons Ratio (y) = 0.61322 0.44045
# Poissons Ratio (z) = 0.18985 0.13040
#
# Static dielectric constant tensor:
#      x y z
#    x 1.617830 0.000000 -1.595040 
#    y 0.000000 3.332210 0.000000 
#    z -1.595040 0.000000 2.830070 
# 
# 
# High freq. dielectric constant tensor:
#      x y z
#    x 1.765360 0.000000 -0.002050 
#    y 0.000000 1.736290 0.000000 
#    z -0.002050 0.000000 1.786770 
# 
# From -- ./inp_files/89591.got.cif
#   From: 2010.06.25/outbox.cif.g09.slc.cpg/sg10_45_cif.got.tgz:89591.got - 2010.06.27 22:07:45.
