data_PCOD8062206
_publ_section_title
;
Structure prediction by ZEFSAII (Michael W. Deem and Ramdas Pophale) SiO2 
 PCOD8062206
Probable space group: P 2/M
;
_chemical_formula_sum "Si O2"
_cell_formula_units_Z 32
_cell_length_a 14.633602
_cell_length_b 9.076917
_cell_length_c 14.286351
_cell_angle_alpha 90.000000
_cell_angle_beta 121.629998
_cell_angle_gamma 90.000000
_cell_volume 1615.739465
_symmetry_space_group_name_H-M "P 2/M"
_symmetry_group_IT_number 10
_symmetry_cell_setting 'monoclinic'
loop_
_space_group_symop_operation_xyz
x,y,z
-x,y,-z
-x,-y,-z
x,-y,z
loop_
_atom_site_type_symbol
_atom_site_label
_atom_site_fract_x
_atom_site_fract_y
_atom_site_fract_z
Si Si1 0.605902 0.335257 0.518081
Si Si2 0.840338 0.326510 0.657497
Si Si3 0.888996 0.670788 0.891478
Si Si4 0.516734 0.335297 0.273557
Si Si5 0.385144 0.170108 0.968061
Si Si6 0.692240 0.169603 0.267580
Si Si7 0.313515 0.824852 0.130866
Si Si8 0.106695 0.825530 0.503510
O O1 0.500000 0.249900 0.500000
O O2 0.605322 0.500000 0.562220
O O3 0.719233 0.260873 0.605090
O O4 0.599427 0.339256 0.403384
O O5 0.835855 0.500000 0.632224
O O6 0.901365 0.293014 0.787356
O O7 0.897029 0.246333 0.601241
O O8 0.858760 0.500000 0.889030
O O9 0.799669 0.769117 0.892688
O O10 0.000000 0.711990 0.000000
O O11 0.486288 0.500000 0.224975
O O12 0.580727 0.251945 0.227143
O O13 0.408726 0.247036 0.243897
O O14 0.295077 0.189838 0.837845
O O15 0.407732 0.000000 0.000938
O O16 0.500000 0.242549 0.000000
O O17 0.335129 0.236007 0.036721
O O18 0.793847 0.232531 0.379594
O O19 0.675925 0.000000 0.286118
O O20 0.315746 0.000000 0.140416
O O21 0.000000 0.776172 0.500000
O O22 0.111529 0.000000 0.493186
#
# Coordination Sequence:
#
# PCOD8062206 Si02
#       8
#     4   4   4   4   4   4   4   4
#     4   9  17  30  51  79 110 147 187 225 278 344
#     4  10  20  38  62  85 114 154 195 236 288 350
#     4  10  23  43  64  86 116 154 195 244 298 342
#     4  11  20  32  54  83 117 150 188 238 290 344
#     4   9  17  32  54  79 111 153 194 231 283 348
#     4  10  19  35  56  77 110 152 193 236 286 343
#     4  11  22  37  60  88 117 155 200 241 287 348
#     4  10  22  38  58  86 119 153 192 243 295 339
#
# _framework density 19.805173
#
# number of rings (size 3 to 8) (size 9 to 14) (size 15 to 20)
#    0.000    2.000    2.500    1.500    0.000    4.000 
#    0.000    3.125    0.000    1.875    0.000    0.000 
#    0.000    0.000    0.000    0.000    0.000    0.000 
#
# Total GULP energy -396647.765204 kJ/mol
# GULP energy per Si atom -12395.242663 kJ/mol
# Density = 1.976010 g / cm^3
# Si number density = 19.805173 Si / 1000 Ang^3
#
#
#
# Elastic Constant Matrix: (Units=GPa)
#
#
# Indices 1 2 3 4 5 6 
#
# 1 127.8969 41.7067 53.6333 0.0000 4.1523 0.0000
# 2 41.7067 60.2006 32.4592 0.0000 6.4310 0.0000
# 3 53.6333 32.4592 126.3726 0.0000 5.4570 0.0000
# 4 0.0000 0.0000 0.0000 21.1938 0.0000 0.4872
# 5 4.1523 6.4310 5.4570 0.0000 31.1987 0.0000
# 6 0.0000 0.0000 0.0000 0.4872 0.0000 23.9610
#
#
#
# Elastic Compliance Matrix: (Units=1/GPa)
#
#
# Indices 1 2 3 4 5 6 
#
# 1 0.011103 -0.006010 -0.003182 0.000000 0.000318 0.000000
# 2 -0.006010 0.022843 -0.003172 0.000000 -0.003354 0.000000
# 3 -0.003182 -0.003172 0.010108 0.000000 -0.000691 0.000000
# 4 0.000000 0.000000 0.000000 0.047206 0.000000 -0.000960
# 5 0.000318 -0.003354 -0.000691 0.000000 0.032823 0.000000
# 6 0.000000 0.000000 0.000000 -0.000960 0.000000 0.041754
#
#
# Mechanical properties :
#
#
# Convention : Reuss Voigt Hill
#
# Bulk Modulus (GPa) = 51.74323 63.34094 57.54208
# Shear Modulus (GPa) = 25.37985 27.71543 26.54764
#
# Velocity S-wave (km/s) = 3.58365 3.74492 3.66517
# Velocity P-wave (km/s) = 6.58075 7.12395 6.85773
#
# Compressibility (1/GPa) = 0.01932620
#
# Stress axis : x y z
#
# Youngs Moduli (GPa) = 90.06764 43.77626 98.93038
#
# Poissons Ratio (x) = 0.26310 0.31480
# Poissons Ratio (y) = 0.54132 0.31379
# Poissons Ratio (z) = 0.28660 0.13885
#
# Static dielectric constant tensor:
#      x y z
#    x 3.574810 0.000000 -0.021070 
#    y 0.000000 3.321260 0.000000 
#    z -0.021070 0.000000 3.736110 
# 
# 
# High freq. dielectric constant tensor:
#      x y z
#    x 1.766490 0.000000 -0.004330 
#    y 0.000000 1.738770 0.000000 
#    z -0.004330 0.000000 1.784890 
# 
# From -- ./inp_files/66565.got.cif
#   From: 2010.06.25/outbox.cif.g09.slc.cpg/sg10_34_cif.got.tgz:66565.got - 2010.06.27 22:07:45.
