data_PCOD8062013
_publ_section_title
;
Structure prediction by ZEFSAII (Michael W. Deem and Ramdas Pophale) SiO2 
 PCOD8062013
Probable space group: P 2/M
;
_chemical_formula_sum "Si O2"
_cell_formula_units_Z 26
_cell_length_a 9.346158
_cell_length_b 9.165727
_cell_length_c 18.933269
_cell_angle_alpha 90.000000
_cell_angle_beta 50.610432
_cell_angle_gamma 90.000000
_cell_volume 1253.488526
_symmetry_space_group_name_H-M "P 2/M"
_symmetry_group_IT_number 10
_symmetry_cell_setting 'monoclinic'
loop_
_space_group_symop_operation_xyz
x,y,z
-x,y,-z
-x,-y,-z
x,-y,z
loop_
_atom_site_type_symbol
_atom_site_label
_atom_site_fract_x
_atom_site_fract_y
_atom_site_fract_z
Si Si1 0.000000 0.744469 0.000000
Si Si2 0.926222 0.333058 0.634897
Si Si3 0.990858 0.163078 0.847750
Si Si4 0.714046 0.173391 0.821822
Si Si5 0.604446 0.173765 0.287774
Si Si6 0.284669 0.665408 0.445316
Si Si7 0.404944 0.336607 0.851860
O O1 0.972545 0.839873 0.938305
O O2 0.185682 0.649146 0.935155
O O3 0.909003 0.500000 0.667448
O O4 0.142336 0.294339 0.552744
O O5 0.847124 0.219368 0.715895
O O6 0.816625 0.313363 0.596987
O O7 0.187204 0.233387 0.762377
O O8 0.815140 0.232089 0.862094
O O9 0.996569 0.000000 0.817694
O O10 0.516270 0.256496 0.880286
O O11 0.677573 0.000000 0.832556
O O12 0.464653 0.229263 0.392246
O O13 0.542255 0.243140 0.233103
O O14 0.598060 0.000000 0.282529
O O15 0.354284 0.500000 0.432283
O O16 0.482601 0.500000 0.817527
#
# Coordination Sequence:
#
# PCOD8062013 Si02
#       7
#     2   4   4   4   4   4   4
#     4  10  22  42  64  84 105 146 191 228 277 342
#     4   9  18  33  53  81 117 154 189 230 278 327
#     4   9  21  39  59  83 116 148 184 233 285 335
#     4  11  22  37  57  86 117 150 186 229 282 336
#     4  10  19  34  57  85 112 150 195 233 277 331
#     4   9  17  31  54  82 115 152 192 234 275 323
#     4  11  22  38  59  84 116 146 182 232 282 335
#
# _framework density 20.742111999999999
#
# number of rings (size 3 to 8) (size 9 to 14) (size 15 to 20)
#    0.000    2.154    1.538    2.769    0.000    3.077 
#    0.000   13.846    0.000    4.615    0.000    0.000 
#    0.000    0.000    0.000    0.000    0.000    0.000 
#
# Total GULP energy -322175.893920 kJ/mol
# GULP energy per Si atom -12391.380535 kJ/mol
# Density = 2.069490 g / cm^3
# Si number density = 20.742112 Si / 1000 Ang^3
#
#
#
# Elastic Constant Matrix: (Units=GPa)
#
#
# Indices 1 2 3 4 5 6 
#
# 1 121.8766 40.2219 35.4849 0.0000 -13.0467 0.0000
# 2 40.2219 96.3365 26.3217 0.0000 -11.6102 0.0000
# 3 35.4849 26.3217 97.8105 0.0000 -24.5777 0.0000
# 4 0.0000 0.0000 0.0000 19.2475 0.0000 -8.5468
# 5 -13.0467 -11.6102 -24.5777 0.0000 29.7155 0.0000
# 6 0.0000 0.0000 0.0000 -8.5468 0.0000 13.0456
#
#
#
# Elastic Compliance Matrix: (Units=1/GPa)
#
#
# Indices 1 2 3 4 5 6 
#
# 1 0.010182 -0.003440 -0.002503 0.000000 0.001056 0.000000
# 2 -0.003440 0.012501 -0.001601 0.000000 0.002050 0.000000
# 3 -0.002503 -0.001601 0.014049 0.000000 0.009896 0.000000
# 4 0.000000 0.000000 0.000000 0.073270 0.000000 0.048002
# 5 0.001056 0.002050 0.009896 0.000000 0.043102 0.000000
# 6 0.000000 0.000000 0.000000 0.048002 0.000000 0.108102
#
#
# Mechanical properties :
#
#
# Convention : Reuss Voigt Hill
#
# Bulk Modulus (GPa) = 46.20092 57.78673 51.99382
# Shear Modulus (GPa) = 17.63612 26.66809 22.15210
#
# Velocity S-wave (km/s) = 2.91908 3.58955 3.27154
# Velocity P-wave (km/s) = 5.80377 6.71565 6.27629
#
# Compressibility (1/GPa) = 0.02164459
#
# Stress axis : x y z
#
# Youngs Moduli (GPa) = 98.21172 79.99350 71.17790
#
# Poissons Ratio (x) = 0.27518 0.17814
# Poissons Ratio (y) = 0.33785 0.11396
# Poissons Ratio (z) = 0.24580 0.12808
#
# Static dielectric constant tensor:
#      x y z
#    x 3.921190 0.000000 -0.285610 
#    y 0.000000 3.514260 0.000000 
#    z -0.285610 0.000000 3.943370 
# 
# 
# High freq. dielectric constant tensor:
#      x y z
#    x 1.803730 0.000000 -0.026220 
#    y 0.000000 1.793360 0.000000 
#    z -0.026220 0.000000 1.810220 
# 
# From -- ./inp_files/78771.got.cif
#   From: 2010.06.25/outbox.cif.g09.slc.cpg/sg10_40_cif.got.tgz:78771.got - 2010.06.27 22:07:45.
