data_PCOD8062363
_publ_section_title
;
Structure prediction by ZEFSAII (Michael W. Deem and Ramdas Pophale) SiO2 
 PCOD8062363
Probable space group: P 2/M
;
_chemical_formula_sum "Si O2"
_cell_formula_units_Z 28
_cell_length_a 8.916386
_cell_length_b 8.565727
_cell_length_c 22.337853
_cell_angle_alpha 90.000000
_cell_angle_beta 53.531436
_cell_angle_gamma 90.000000
_cell_volume 1371.985302
_symmetry_space_group_name_H-M "P 2/M"
_symmetry_group_IT_number 10
_symmetry_cell_setting 'monoclinic'
loop_
_space_group_symop_operation_xyz
x,y,z
-x,y,-z
-x,-y,-z
x,-y,z
loop_
_atom_site_type_symbol
_atom_site_label
_atom_site_fract_x
_atom_site_fract_y
_atom_site_fract_z
Si Si1 0.779062 0.681340 0.703033
Si Si2 0.795745 0.819396 0.570633
Si Si3 0.170807 0.174824 0.004669
Si Si4 0.532687 0.681026 0.424073
Si Si5 0.392387 0.318012 0.853135
Si Si6 0.908298 0.819677 0.291353
Si Si7 0.063273 0.318417 0.843681
O O1 0.771787 0.500000 0.686283
O O2 0.779631 0.787743 0.644575
O O3 0.599512 0.728686 0.784615
O O4 0.962849 0.712864 0.697695
O O5 0.654568 0.710627 0.568240
O O6 0.000000 0.772864 0.500000
O O7 0.751433 0.000000 0.568090
O O8 0.121612 0.282854 0.073252
O O9 0.208189 0.000000 0.018671
O O10 0.352517 0.235152 0.926123
O O11 0.000000 0.182597 0.000000
O O12 0.500000 0.731953 0.500000
O O13 0.588036 0.500000 0.405924
O O14 0.694672 0.784906 0.357383
O O15 0.368085 0.500000 0.870204
O O16 0.248290 0.265148 0.835628
O O17 0.947179 0.783096 0.213265
O O18 0.952254 0.000000 0.293538
O O19 0.069406 0.500000 0.825250
#
# Coordination Sequence:
#
# PCOD8062363 Si02
#       7
#     4   4   4   4   4   4   4
#     4  11  23  40  61  85 117 156 199 243 290 349
#     4  11  24  41  63  92 124 156 192 238 292 345
#     4   9  17  30  52  83 116 149 187 234 289 346
#     4  11  24  42  65  91 119 155 198 240 286 344
#     4   9  19  35  57  84 112 147 191 239 289 344
#     4  12  25  40  59  85 119 155 195 244 297 349
#     4  10  19  35  59  85 115 151 194 240 289 349
#
# _framework density 20.408380999999999
#
# number of rings (size 3 to 8) (size 9 to 14) (size 15 to 20)
#    0.000    1.571    0.000    5.143    0.000    9.143 
#    0.000    0.714    0.000    4.286    0.000    0.000 
#    0.000    0.000    0.000    0.000    0.000    0.000 
#
# Total GULP energy -347367.561184 kJ/mol
# GULP energy per Si atom -12405.984328 kJ/mol
# Density = 2.036193 g / cm^3
# Si number density = 20.408381 Si / 1000 Ang^3
#
#
#
# Elastic Constant Matrix: (Units=GPa)
#
#
# Indices 1 2 3 4 5 6 
#
# 1 85.1849 11.3226 41.1978 0.0000 -0.3598 0.0000
# 2 11.3226 58.4550 32.1165 0.0000 -1.2188 0.0000
# 3 41.1978 32.1165 129.9241 0.0000 -0.4685 0.0000
# 4 0.0000 0.0000 0.0000 31.8653 0.0000 2.8335
# 5 -0.3598 -1.2188 -0.4685 0.0000 29.0297 0.0000
# 6 0.0000 0.0000 0.0000 2.8335 0.0000 25.4922
#
#
#
# Elastic Compliance Matrix: (Units=1/GPa)
#
#
# Indices 1 2 3 4 5 6 
#
# 1 0.013871 -0.000311 -0.004321 0.000000 0.000089 0.000000
# 2 -0.000311 0.019819 -0.004798 0.000000 0.000751 0.000000
# 3 -0.004321 -0.004798 0.010253 0.000000 -0.000090 0.000000
# 4 0.000000 0.000000 0.000000 0.031695 0.000000 -0.003523
# 5 0.000089 0.000751 -0.000090 0.000000 0.034479 0.000000
# 6 0.000000 0.000000 0.000000 -0.003523 0.000000 0.039619
#
#
# Mechanical properties :
#
#
# Convention : Reuss Voigt Hill
#
# Bulk Modulus (GPa) = 39.86782 49.20420 44.53601
# Shear Modulus (GPa) = 28.25556 29.87258 29.06407
#
# Velocity S-wave (km/s) = 3.72493 3.83004 3.77785
# Velocity P-wave (km/s) = 6.17071 6.61219 6.39526
#
# Compressibility (1/GPa) = 0.02508289
#
# Stress axis : x y z
#
# Youngs Moduli (GPa) = 72.09450 50.45636 97.53528
#
# Poissons Ratio (x) = 0.01568 0.42146
# Poissons Ratio (y) = 0.02240 0.46797
# Poissons Ratio (z) = 0.31153 0.24209
#
# Static dielectric constant tensor:
#      x y z
#    x 3.661850 0.000000 -0.042210 
#    y 0.000000 3.646670 0.000000 
#    z -0.042210 0.000000 3.897510 
# 
# 
# High freq. dielectric constant tensor:
#      x y z
#    x 1.780640 0.000000 -0.000450 
#    y 0.000000 1.802470 0.000000 
#    z -0.000450 0.000000 1.815430 
# 
# From -- ./inp_files/37028.got.cif
#   From: 2010.06.25/outbox.cif.g09.slc.cpg/sg10_19_cif.got.tgz:37028.got - 2010.06.27 22:07:45.
