data_PCOD8062790
_publ_section_title
;
Structure prediction by ZEFSAII (Michael W. Deem and Ramdas Pophale) SiO2 
 PCOD8062790
Probable space group: P 2/M
;
_chemical_formula_sum "Si O2"
_cell_formula_units_Z 32
_cell_length_a 15.592484
_cell_length_b 9.392068
_cell_length_c 12.185998
_cell_angle_alpha 90.000000
_cell_angle_beta 76.342071
_cell_angle_gamma 90.000000
_cell_volume 1734.123462
_symmetry_space_group_name_H-M "P 2/M"
_symmetry_group_IT_number 10
_symmetry_cell_setting 'monoclinic'
loop_
_space_group_symop_operation_xyz
x,y,z
-x,y,-z
-x,-y,-z
x,-y,z
loop_
_atom_site_type_symbol
_atom_site_label
_atom_site_fract_x
_atom_site_fract_y
_atom_site_fract_z
Si Si1 0.744129 0.169510 0.021112
Si Si2 0.345646 0.169507 0.732058
Si Si3 0.860162 0.664791 0.524449
Si Si4 0.302450 0.832294 0.505987
Si Si5 0.015832 0.334893 0.314940
Si Si6 0.059322 0.831681 0.085801
Si Si7 0.457651 0.831696 0.306403
Si Si8 0.411398 0.830654 0.083809
O O1 0.713696 0.226595 0.149694
O O2 0.744557 0.000000 0.022209
O O3 0.841731 0.226554 0.964923
O O4 0.675563 0.229153 0.951164
O O5 0.300838 0.220156 0.632329
O O6 0.444533 0.234064 0.710255
O O7 0.351544 0.000000 0.732334
O O8 0.834589 0.500000 0.526098
O O9 0.773267 0.758073 0.540602
O O10 0.902838 0.700921 0.629198
O O11 0.926262 0.703573 0.405808
O O12 0.397132 0.787809 0.427226
O O13 0.287508 0.000000 0.500198
O O14 0.017470 0.500000 0.280984
O O15 0.019601 0.240199 0.205548
O O16 0.058117 0.000000 0.105217
O O17 0.000000 0.788369 0.000000
O O18 0.411423 0.775826 0.208889
O O19 0.467451 0.000000 0.295618
O O20 0.410133 0.000000 0.076369
O O21 0.500000 0.771876 0.000000
#
# Coordination Sequence:
#
# PCOD8062790 Si02
#       8
#     4   4   4   4   4   4   4   4
#     4   9  17  28  43  66 101 141 169 197 249 311
#     4   9  16  28  44  65 103 145 172 199 246 308
#     4   9  20  39  58  75  98 134 176 219 266 312
#     4  10  20  29  49  80 105 130 167 215 262 304
#     4   9  20  40  60  74  97 136 179 217 258 314
#     4  10  22  35  52  81 115 140 163 209 268 316
#     4   9  16  26  41  68 104 135 169 209 249 297
#     4   9  14  23  40  62  93 136 174 203 243 298
#
# _framework density 18.453126000000001
#
# number of rings (size 3 to 8) (size 9 to 14) (size 15 to 20)
#    0.000    2.750    1.250    1.125    3.500    2.750 
#    0.000    1.250    0.000    1.500    0.000    0.000 
#    0.000    3.000    0.000    0.000    0.000    0.000 
#
# Total GULP energy -396724.150128 kJ/mol
# GULP energy per Si atom -12397.629691 kJ/mol
# Density = 1.841113 g / cm^3
# Si number density = 18.453126 Si / 1000 Ang^3
#
#
#
# Elastic Constant Matrix: (Units=GPa)
#
#
# Indices 1 2 3 4 5 6 
#
# 1 105.8330 24.6125 30.1059 0.0000 4.6377 0.0000
# 2 24.6125 23.5429 29.1350 0.0000 1.5596 0.0000
# 3 30.1059 29.1350 108.6512 0.0000 11.4757 0.0000
# 4 0.0000 0.0000 0.0000 17.3361 0.0000 3.5891
# 5 4.6377 1.5596 11.4757 0.0000 28.0352 0.0000
# 6 0.0000 0.0000 0.0000 3.5891 0.0000 11.8474
#
#
#
# Elastic Compliance Matrix: (Units=1/GPa)
#
#
# Indices 1 2 3 4 5 6 
#
# 1 0.012539 -0.013323 0.000250 0.000000 -0.001435 0.000000
# 2 -0.013323 0.078076 -0.017788 0.000000 0.005142 0.000000
# 3 0.000250 -0.017788 0.014428 0.000000 -0.004958 0.000000
# 4 0.000000 0.000000 0.000000 0.061543 0.000000 -0.018644
# 5 -0.001435 0.005142 -0.004958 0.000000 0.037650 0.000000
# 6 0.000000 0.000000 0.000000 -0.018644 0.000000 0.090055
#
#
# Mechanical properties :
#
#
# Convention : Reuss Voigt Hill
#
# Bulk Modulus (GPa) = 23.08321 45.08153 34.08237
# Shear Modulus (GPa) = 13.49700 21.72198 17.60949
#
# Velocity S-wave (km/s) = 2.70741 3.43467 3.09250
# Velocity P-wave (km/s) = 4.72332 6.34134 5.59117
#
# Compressibility (1/GPa) = 0.04332154
#
# Stress axis : x y z
#
# Youngs Moduli (GPa) = 79.75091 12.80808 69.30972
#
# Poissons Ratio (x) = 0.17064 -0.01731
# Poissons Ratio (y) = 1.06249 1.23286
# Poissons Ratio (z) = -0.01991 0.22783
#
# Static dielectric constant tensor:
#      x y z
#    x 3.539580 0.000000 0.031410 
#    y 0.000000 2.737700 0.000000 
#    z 0.031410 0.000000 3.539780 
# 
# 
# High freq. dielectric constant tensor:
#      x y z
#    x 1.727330 0.000000 0.003180 
#    y 0.000000 1.644900 0.000000 
#    z 0.003180 0.000000 1.729800 
# 
# From -- ./inp_files/50721.got.cif
#   From: 2010.06.25/outbox.cif.g09.slc.cpg/sg10_26_cif.got.tgz:50721.got - 2010.06.27 22:07:45.
