data_PCOD8062447
_publ_section_title
;
Structure prediction by ZEFSAII (Michael W. Deem and Ramdas Pophale) SiO2 
 PCOD8062447
Probable space group: P 2/M
;
_chemical_formula_sum "Si O2"
_cell_formula_units_Z 30
_cell_length_a 11.943561
_cell_length_b 8.989558
_cell_length_c 14.364322
_cell_angle_alpha 90.000000
_cell_angle_beta 88.785559
_cell_angle_gamma 90.000000
_cell_volume 1541.912530
_symmetry_space_group_name_H-M "P 2/M"
_symmetry_group_IT_number 10
_symmetry_cell_setting 'monoclinic'
loop_
_space_group_symop_operation_xyz
x,y,z
-x,y,-z
-x,-y,-z
x,-y,z
loop_
_atom_site_type_symbol
_atom_site_label
_atom_site_fract_x
_atom_site_fract_y
_atom_site_fract_z
Si Si1 0.500000 0.293087 0.000000
Si Si2 0.307766 0.830259 0.699411
Si Si3 0.290818 0.323870 0.316903
Si Si4 0.889829 0.672087 0.819235
Si Si5 0.120687 0.170704 0.843698
Si Si6 0.259767 0.675348 0.998892
Si Si7 0.628276 0.675725 0.488055
Si Si8 0.503670 0.339564 0.207490
O O1 0.374375 0.220896 0.994082
O O2 0.512606 0.376390 0.901283
O O3 0.183864 0.812869 0.744016
O O4 0.312968 0.744198 0.602562
O O5 0.392134 0.766958 0.775375
O O6 0.339367 0.000000 0.679870
O O7 0.298806 0.500000 0.310396
O O8 0.172207 0.275230 0.274760
O O9 0.302275 0.268265 0.422934
O O10 0.394405 0.261210 0.253988
O O11 0.928667 0.500000 0.814234
O O12 0.994446 0.777925 0.831443
O O13 0.801457 0.696870 0.902777
O O14 0.176417 0.274397 0.919910
O O15 0.121979 0.000000 0.877966
O O16 0.292125 0.500000 0.983018
O O17 0.500000 0.729806 0.500000
O O18 0.633499 0.500000 0.478485
O O19 0.525572 0.500000 0.256154
#
# Coordination Sequence:
#
# PCOD8062447 Si02
#       8
#     2   4   4   4   4   4   4   4
#     4  12  21  32  61  98 125 150 183 230 291 348
#     4  11  24  39  55  82 117 154 194 238 283 336
#     4   9  18  34  58  89 118 142 181 236 288 342
#     4  10  21  38  60  85 113 148 194 243 282 330
#     4  11  25  42  56  76 113 160 203 238 278 331
#     4  11  21  35  60  91 118 148 189 234 284 341
#     4  10  19  35  62  91 116 147 183 228 293 356
#     4  11  19  34  59  87 120 154 186 229 286 344
#
# _framework density 19.456356
#
# number of rings (size 3 to 8) (size 9 to 14) (size 15 to 20)
#    0.000    1.467    4.000    2.400    0.000    4.000 
#    0.000    3.333    0.000    4.000    0.000    0.000 
#    0.000    0.000    0.000    0.000    0.000    0.000 
#
# Total GULP energy -371652.822221 kJ/mol
# GULP energy per Si atom -12388.427407 kJ/mol
# Density = 1.941207 g / cm^3
# Si number density = 19.456356 Si / 1000 Ang^3
#
#
#
# Elastic Constant Matrix: (Units=GPa)
#
#
# Indices 1 2 3 4 5 6 
#
# 1 124.2767 32.9053 42.4052 0.0000 18.5585 0.0000
# 2 32.9053 44.0173 33.1363 0.0000 -0.2177 0.0000
# 3 42.4052 33.1363 132.7706 0.0000 18.8758 0.0000
# 4 0.0000 0.0000 0.0000 13.1774 0.0000 -9.6790
# 5 18.5585 -0.2177 18.8758 0.0000 27.8982 0.0000
# 6 0.0000 0.0000 0.0000 -9.6790 0.0000 15.6642
#
#
#
# Elastic Compliance Matrix: (Units=1/GPa)
#
#
# Indices 1 2 3 4 5 6 
#
# 1 0.011512 -0.008198 -0.000590 0.000000 -0.007323 0.000000
# 2 -0.008198 0.034587 -0.007554 0.000000 0.010835 0.000000
# 3 -0.000590 -0.007554 0.010575 0.000000 -0.006822 0.000000
# 4 0.000000 0.000000 0.000000 0.138951 0.000000 0.085859
# 5 -0.007323 0.010835 -0.006822 0.000000 0.045416 0.000000
# 6 0.000000 0.000000 0.000000 0.085859 0.000000 0.116892
#
#
# Mechanical properties :
#
#
# Convention : Reuss Voigt Hill
#
# Bulk Modulus (GPa) = 41.68271 57.55091 49.61681
# Shear Modulus (GPa) = 12.54343 24.18915 18.36629
#
# Velocity S-wave (km/s) = 2.54184 3.52980 3.07575
# Velocity P-wave (km/s) = 5.48496 6.80120 6.17824
#
# Compressibility (1/GPa) = 0.02399076
#
# Stress axis : x y z
#
# Youngs Moduli (GPa) = 86.86604 28.91241 94.56023
#
# Poissons Ratio (x) = 0.23703 0.05575
# Poissons Ratio (y) = 0.71214 0.71431
# Poissons Ratio (z) = 0.05122 0.21841
#
# Static dielectric constant tensor:
#      x y z
#    x 3.642520 0.000000 0.071250 
#    y 0.000000 3.223450 0.000000 
#    z 0.071250 0.000000 3.732630 
# 
# 
# High freq. dielectric constant tensor:
#      x y z
#    x 1.760640 0.000000 0.001670 
#    y 0.000000 1.718450 0.000000 
#    z 0.001670 0.000000 1.769220 
# 
# From -- ./inp_files/63476.got.cif
#   From: 2010.06.25/outbox.cif.g09.slc.cpg/sg10_32_cif.got.tgz:63476.got - 2010.06.27 22:07:45.
