data_PCOD8062989
_publ_section_title
;
Structure prediction by ZEFSAII (Michael W. Deem and Ramdas Pophale) SiO2 
 PCOD8062989
Probable space group: P 2/M
;
_chemical_formula_sum "Si O2"
_cell_formula_units_Z 32
_cell_length_a 24.784288
_cell_length_b 9.835249
_cell_length_c 12.603323
_cell_angle_alpha 90.000000
_cell_angle_beta 35.761446
_cell_angle_gamma 90.000000
_cell_volume 1795.419081
_symmetry_space_group_name_H-M "P 2/M"
_symmetry_group_IT_number 10
_symmetry_cell_setting 'monoclinic'
loop_
_space_group_symop_operation_xyz
x,y,z
-x,y,-z
-x,-y,-z
x,-y,z
loop_
_atom_site_type_symbol
_atom_site_label
_atom_site_fract_x
_atom_site_fract_y
_atom_site_fract_z
Si Si1 0.192572 0.845021 0.824866
Si Si2 0.512622 0.339379 0.150158
Si Si3 0.645887 0.660573 0.752630
Si Si4 0.441662 0.660318 0.692133
Si Si5 0.008621 0.154076 0.781608
Si Si6 0.958086 0.656983 0.679335
Si Si7 0.798094 0.155164 0.430666
Si Si8 0.243855 0.342819 0.927259
O O1 0.225017 0.813488 0.654475
O O2 0.247732 0.745185 0.814212
O O3 0.215017 0.000000 0.821518
O O4 0.083274 0.817195 0.004683
O O5 0.514545 0.500000 0.154971
O O6 0.417239 0.294378 0.246986
O O7 0.523305 0.276038 0.251521
O O8 0.597413 0.294902 0.939675
O O9 0.666140 0.500000 0.717933
O O10 0.740647 0.743202 0.596104
O O11 0.500000 0.722125 0.500000
O O12 0.457690 0.500000 0.669067
O O13 0.333275 0.695481 0.853981
O O14 0.094119 0.182601 0.722131
O O15 0.014254 0.254330 0.673321
O O16 0.010030 0.000000 0.735871
O O17 0.976155 0.500000 0.677370
O O18 0.000000 0.697268 0.500000
O O19 0.848256 0.689751 0.857794
O O20 0.772305 0.000000 0.500406
O O21 0.246954 0.500000 0.887543
#
# Coordination Sequence:
#
# PCOD8062989 Si02
#       8
#     4   4   4   4   4   4   4   4
#     4   9  18  33  51  68  96 133 161 195 246 296
#     4   8  16  32  49  70 101 130 162 200 243 295
#     4   9  18  32  52  74  97 129 164 203 245 289
#     4   9  17  28  47  74 100 127 160 202 247 289
#     4   9  18  33  50  69  95 129 167 201 234 286
#     4   9  18  32  49  71 101 131 158 197 249 295
#     4  10  20  32  49  74  99 125 163 203 243 293
#     4   9  18  31  48  73  97 123 163 205 243 289
#
# _framework density 17.823136999999999
#
# number of rings (size 3 to 8) (size 9 to 14) (size 15 to 20)
#    0.000    3.000    0.000    1.125    1.750    3.750 
#    0.000    3.750    0.000    5.625    0.000    0.000 
#    0.000    0.000    0.000    0.000    0.000    0.000 
#
# Total GULP energy -396716.235368 kJ/mol
# GULP energy per Si atom -12397.382355 kJ/mol
# Density = 1.778257 g / cm^3
# Si number density = 17.823137 Si / 1000 Ang^3
#
#
#
# Elastic Constant Matrix: (Units=GPa)
#
#
# Indices 1 2 3 4 5 6 
#
# 1 95.2859 24.5292 35.5903 0.0000 11.9373 0.0000
# 2 24.5292 42.1757 25.9044 0.0000 4.3123 0.0000
# 3 35.5903 25.9044 76.3330 0.0000 10.7331 0.0000
# 4 0.0000 0.0000 0.0000 20.9797 0.0000 0.3947
# 5 11.9373 4.3123 10.7331 0.0000 25.5552 0.0000
# 6 0.0000 0.0000 0.0000 0.3947 0.0000 22.9177
#
#
#
# Elastic Compliance Matrix: (Units=1/GPa)
#
#
# Indices 1 2 3 4 5 6 
#
# 1 0.013852 -0.005089 -0.004190 0.000000 -0.003852 0.000000
# 2 -0.005089 0.031840 -0.008514 0.000000 0.000580 0.000000
# 3 -0.004190 -0.008514 0.018562 0.000000 -0.004402 0.000000
# 4 0.000000 0.000000 0.000000 0.047681 0.000000 -0.000821
# 5 -0.003852 0.000580 -0.004402 0.000000 0.042681 0.000000
# 6 0.000000 0.000000 0.000000 -0.000821 0.000000 0.043648
#
#
# Mechanical properties :
#
#
# Convention : Reuss Voigt Hill
#
# Bulk Modulus (GPa) = 34.88137 42.87137 38.87637
# Shear Modulus (GPa) = 20.54163 22.40857 21.47510
#
# Velocity S-wave (km/s) = 3.39857 3.54965 3.47493
# Velocity P-wave (km/s) = 5.91724 6.39578 6.16116
#
# Compressibility (1/GPa) = 0.02866860
#
# Stress axis : x y z
#
# Youngs Moduli (GPa) = 72.18966 31.40688 53.87224
#
# Poissons Ratio (x) = 0.15983 0.22572
# Poissons Ratio (y) = 0.36738 0.45867
# Poissons Ratio (z) = 0.30247 0.26740
#
# Static dielectric constant tensor:
#      x y z
#    x 3.458700 0.000000 0.099830 
#    y 0.000000 3.048330 0.000000 
#    z 0.099830 0.000000 3.316750 
# 
# 
# High freq. dielectric constant tensor:
#      x y z
#    x 1.686320 0.000000 -0.000330 
#    y 0.000000 1.659290 0.000000 
#    z -0.000330 0.000000 1.692430 
# 
# From -- ./inp_files/56963.got.cif
#   From: 2010.06.25/outbox.cif.g09.slc.cpg/sg10_29_cif.got.tgz:56963.got - 2010.06.27 22:07:45.
