data_PCOD8062019
_publ_section_title
;
Structure prediction by ZEFSAII (Michael W. Deem and Ramdas Pophale) SiO2 
 PCOD8062019
Probable space group: P 2/M
;
_chemical_formula_sum "Si O2"
_cell_formula_units_Z 28
_cell_length_a 29.060213
_cell_length_b 8.148535
_cell_length_c 5.121587
_cell_angle_alpha 90.000000
_cell_angle_beta 69.703002
_cell_angle_gamma 90.000000
_cell_volume 1137.477229
_symmetry_space_group_name_H-M "P 2/M"
_symmetry_group_IT_number 10
_symmetry_cell_setting 'monoclinic'
loop_
_space_group_symop_operation_xyz
x,y,z
-x,y,-z
-x,-y,-z
x,-y,z
loop_
_atom_site_type_symbol
_atom_site_label
_atom_site_fract_x
_atom_site_fract_y
_atom_site_fract_z
Si Si1 0.609069 0.809668 0.823267
Si Si2 0.735231 0.500000 0.078250
Si Si3 0.054064 0.687863 0.890894
Si Si4 0.555033 0.803755 0.428176
Si Si5 0.294111 0.818536 0.642175
Si Si6 0.181479 0.177114 0.765488
Si Si7 0.115092 0.309914 0.296133
Si Si8 0.801386 0.500000 0.459607
O O1 0.577690 0.731217 0.649035
O O2 0.667225 0.780566 0.664870
O O3 0.596470 0.000000 0.856149
O O4 0.590355 0.732375 0.130553
O O5 0.759026 0.500000 0.749904
O O6 0.702837 0.667013 0.160071
O O7 0.776733 0.500000 0.221189
O O8 0.048173 0.500000 0.810556
O O9 0.088211 0.772513 0.599706
O O10 0.077339 0.703498 0.129232
O O11 0.000000 0.770227 0.000000
O O12 0.500000 0.736668 0.500000
O O13 0.555329 0.000000 0.430285
O O14 0.239991 0.826488 0.628921
O O15 0.306460 0.000000 0.745047
O O16 0.164962 0.331186 0.605088
O O17 0.161063 0.000000 0.710397
O O18 0.163339 0.210415 0.099711
O O19 0.132002 0.500000 0.314243
#
# Coordination Sequence:
#
# PCOD8062019 Si02
#       8
#     4   2   4   4   4   4   4   2
#     4   9  17  29  47  73 107 143 184 231 281 340
#     4  10  22  38  60  82 113 152 195 242 286 338
#     4   9  18  33  57  86 114 149 193 239 290 346
#     4   9  16  27  46  74 106 140 182 235 289 340
#     4   9  20  38  59  86 119 158 198 240 289 345
#     4  10  21  39  61  87 122 160 198 241 290 347
#     4  10  19  34  57  85 117 151 191 238 288 342
#     4  10  22  40  58  84 113 152 199 238 286 338
#
# _framework density 24.615877999999999
#
# number of rings (size 3 to 8) (size 9 to 14) (size 15 to 20)
#    0.000    2.571    0.714    0.857    0.000    8.571 
#    0.000    7.857    0.000    2.571    0.000    3.000 
#    0.000    0.000    0.000    0.000    0.000    0.000 
#
# Total GULP energy -346949.762900 kJ/mol
# GULP energy per Si atom -12391.062961 kJ/mol
# Density = 2.455985 g / cm^3
# Si number density = 24.615878 Si / 1000 Ang^3
#
#
#
# Elastic Constant Matrix: (Units=GPa)
#
#
# Indices 1 2 3 4 5 6 
#
# 1 74.6656 -3.0405 24.0505 0.0000 -28.1960 0.0000
# 2 -3.0405 147.0759 42.2827 0.0000 -6.0721 0.0000
# 3 24.0505 42.2827 155.0103 0.0000 -28.0119 0.0000
# 4 0.0000 0.0000 0.0000 3.5862 0.0000 -10.9943
# 5 -28.1960 -6.0721 -28.0119 0.0000 42.9630 0.0000
# 6 0.0000 0.0000 0.0000 -10.9943 0.0000 6.5521
#
#
#
# Elastic Compliance Matrix: (Units=1/GPa)
#
#
# Indices 1 2 3 4 5 6 
#
# 1 0.018058 0.001148 -0.001070 0.000000 0.011316 0.000000
# 2 0.001148 0.007454 -0.002137 0.000000 0.000414 0.000000
# 3 -0.001070 -0.002137 0.007956 0.000000 0.004183 0.000000
# 4 0.000000 0.000000 0.000000 -0.067286 0.000000 -0.112904
# 5 0.011316 0.000414 0.004183 0.000000 0.033488 0.000000
# 6 0.000000 0.000000 0.000000 -0.112904 0.000000 -0.036828
#
#
# Mechanical properties :
#
#
# Convention : Reuss Voigt Hill
#
# Bulk Modulus (GPa) = 34.07089 55.92637 44.99863
# Shear Modulus (GPa) = -214.98528 31.51755 -91.73387
#
# Velocity S-wave (km/s) = -9.35551 3.58211 -6.11122
# Velocity P-wave (km/s) = 10.14050 6.31488 5.61035
#
# Compressibility (1/GPa) = 0.02935057
#
# Stress axis : x y z
#
# Youngs Moduli (GPa) = 55.37846 134.15073 125.69207
#
# Poissons Ratio (x) = -0.15402 0.13450
# Poissons Ratio (y) = -0.06358 0.26856
# Poissons Ratio (z) = 0.05926 0.28664
#
# Static dielectric constant tensor:
#      x y z
#    x 4.333070 0.000000 -0.196210 
#    y 0.000000 5.011740 0.000000 
#    z -0.196210 0.000000 4.720210 
# 
# 
# High freq. dielectric constant tensor:
#      x y z
#    x 1.974580 0.000000 -0.014350 
#    y 0.000000 1.936150 0.000000 
#    z -0.014350 0.000000 1.991740 
# 
# From -- ./inp_files/13598.got.cif
#   From: 2010.06.25/outbox.cif.g09.slc.cpg/sg10_7_cif.got.tgz:13598.got - 2010.06.27 22:07:45.
