data_PCOD8062442
_publ_section_title
;
Structure prediction by ZEFSAII (Michael W. Deem and Ramdas Pophale) SiO2 
 PCOD8062442
Probable space group: P 2/M
;
_chemical_formula_sum "Si O2"
_cell_formula_units_Z 28
_cell_length_a 11.821045
_cell_length_b 11.892537
_cell_length_c 19.718510
_cell_angle_alpha 90.000000
_cell_angle_beta 29.903026
_cell_angle_gamma 90.000000
_cell_volume 1381.970727
_symmetry_space_group_name_H-M "P 2/M"
_symmetry_group_IT_number 10
_symmetry_cell_setting 'monoclinic'
loop_
_space_group_symop_operation_xyz
x,y,z
-x,y,-z
-x,-y,-z
x,-y,z
loop_
_atom_site_type_symbol
_atom_site_label
_atom_site_fract_x
_atom_site_fract_y
_atom_site_fract_z
Si Si1 0.244700 0.625447 0.640592
Si Si2 0.555515 0.757421 0.892290
Si Si3 0.263001 0.371058 0.947507
Si Si4 0.157252 0.756252 0.809828
Si Si5 0.005381 0.624737 0.370184
Si Si6 0.554143 0.371359 0.667875
Si Si7 0.986503 0.000000 0.090482
Si Si8 0.445051 0.000000 0.946088
O O1 0.500000 0.668260 0.500000
O O2 0.236515 0.500000 0.677237
O O3 0.109137 0.713554 0.758288
O O4 0.134496 0.623219 0.625305
O O5 0.353354 0.680009 0.970229
O O6 0.795255 0.712658 0.742102
O O7 0.554078 0.884294 0.863151
O O8 0.500000 0.756422 0.000000
O O9 0.189521 0.500000 0.994594
O O10 0.471049 0.356312 0.787657
O O11 0.040464 0.299920 0.040571
O O12 0.405671 0.711050 0.699076
O O13 0.157740 0.890182 0.815253
O O14 0.105879 0.500000 0.333643
O O15 0.822250 0.660035 0.523646
O O16 0.519856 0.500000 0.660764
O O17 0.000000 0.000000 0.000000
O O18 0.200854 0.000000 0.032047
O O19 0.500000 0.000000 0.000000
#
# Coordination Sequence:
#
# PCOD8062442 Si02
#       8
#     4   4   4   4   4   4   2   2
#     4  10  19  35  61  92 129 167 203 255 328 393
#     4  11  23  41  63  87 118 162 214 266 315 382
#     4  11  22  35  60  92 122 159 209 263 317 386
#     4  12  22  38  62  92 125 168 213 268 318 383
#     4  10  21  37  60  91 128 166 202 254 323 391
#     4  10  21  38  60  91 130 166 203 256 330 396
#     4  12  26  44  68  96 130 176 222 278 336 378
#     4  10  24  46  65  89 125 173 218 265 325 379
#
# _framework density 20.260919999999999
#
# number of rings (size 3 to 8) (size 9 to 14) (size 15 to 20)
#    0.000    1.286    2.857    3.857    2.000    4.000 
#    0.000    3.214    0.000    0.857    0.000    0.000 
#    0.000    0.000    0.000    0.000    0.000    0.000 
#
# Total GULP energy -346871.418855 kJ/mol
# GULP energy per Si atom -12388.264959 kJ/mol
# Density = 2.021481 g / cm^3
# Si number density = 20.260920 Si / 1000 Ang^3
#
#
#
# Elastic Constant Matrix: (Units=GPa)
#
#
# Indices 1 2 3 4 5 6 
#
# 1 53.0513 16.8960 8.7787 0.0000 -2.7126 0.0000
# 2 16.8960 152.3039 64.4747 0.0000 -4.2368 0.0000
# 3 8.7787 64.4747 119.4210 0.0000 -7.5304 0.0000
# 4 0.0000 0.0000 0.0000 305.4763 0.0000 -4.3658
# 5 -2.7126 -4.2368 -7.5304 0.0000 31.4670 0.0000
# 6 0.0000 0.0000 0.0000 -4.3658 0.0000 11.0274
#
#
#
# Elastic Compliance Matrix: (Units=1/GPa)
#
#
# Indices 1 2 3 4 5 6 
#
# 1 0.019608 -0.002027 -0.000262 0.000000 0.001355 0.000000
# 2 -0.002027 0.008721 -0.004565 0.000000 -0.000093 0.000000
# 3 -0.000262 -0.004565 0.010983 0.000000 0.001991 0.000000
# 4 0.000000 0.000000 0.000000 0.003292 0.000000 0.001303
# 5 0.001355 -0.000093 0.001991 0.000000 0.032360 0.000000
# 6 0.000000 0.000000 0.000000 0.001303 0.000000 0.091199
#
#
# Mechanical properties :
#
#
# Convention : Reuss Voigt Hill
#
# Bulk Modulus (GPa) = 39.05569 56.11946 47.58757
# Shear Modulus (GPa) = 26.53855 85.23592 55.88723
#
# Velocity S-wave (km/s) = 3.62310 6.49311 5.25772
# Velocity P-wave (km/s) = 6.06800 9.16365 7.77152
#
# Compressibility (1/GPa) = 0.02560446
#
# Stress axis : x y z
#
# Youngs Moduli (GPa) = 51.00024 114.67098 91.04818
#
# Poissons Ratio (x) = 0.23241 0.02383
# Poissons Ratio (y) = 0.10336 0.41564
# Poissons Ratio (z) = 0.01335 0.52348
#
# Static dielectric constant tensor:
#      x y z
#    x 4.256710 0.000000 -0.584780 
#    y 0.000000 3.883380 0.000000 
#    z -0.584780 0.000000 4.913090 
# 
# 
# High freq. dielectric constant tensor:
#      x y z
#    x 1.801580 0.000000 -0.000500 
#    y 0.000000 1.778900 0.000000 
#    z -0.000500 0.000000 1.787900 
# 
# From -- ./inp_files/83981.got.cif
#   From: 2010.06.25/outbox.cif.g09.slc.cpg/sg10_42_cif.got.tgz:83981.got - 2010.06.27 22:07:45.
