data_PCOD8062146
_publ_section_title
;
Structure prediction by ZEFSAII (Michael W. Deem and Ramdas Pophale) SiO2 
 PCOD8062146
Probable space group: P 2/M
;
_chemical_formula_sum "Si O2"
_cell_formula_units_Z 24
_cell_length_a 11.787982
_cell_length_b 15.899553
_cell_length_c 15.093083
_cell_angle_alpha 90.000000
_cell_angle_beta 152.745959
_cell_angle_gamma 90.000000
_cell_volume 1295.411383
_symmetry_space_group_name_H-M "P 2/M"
_symmetry_group_IT_number 10
_symmetry_cell_setting 'monoclinic'
loop_
_space_group_symop_operation_xyz
x,y,z
-x,y,-z
-x,-y,-z
x,-y,z
loop_
_atom_site_type_symbol
_atom_site_label
_atom_site_fract_x
_atom_site_fract_y
_atom_site_fract_z
Si Si1 0.713035 0.096988 0.215016
Si Si2 0.673511 0.409024 0.537648
Si Si3 0.395606 0.288457 0.242983
Si Si4 0.744839 0.145350 0.429289
Si Si5 0.911355 0.261542 0.799277
Si Si6 0.250570 0.908717 0.379337
O O1 0.629151 0.105714 0.259256
O O2 0.956566 0.153892 0.369853
O O3 0.780166 0.000000 0.241361
O O4 0.500000 0.128474 0.000000
O O5 0.500000 0.423950 0.500000
O O6 0.802529 0.500000 0.606158
O O7 0.506299 0.381741 0.336673
O O8 0.859467 0.332190 0.688752
O O9 0.620301 0.235085 0.359356
O O10 0.302919 0.254606 0.274744
O O11 0.170921 0.290245 0.019385
O O12 0.682432 0.087325 0.470127
O O13 0.934862 0.168868 0.771105
O O14 0.500000 0.894187 0.500000
O O15 0.131353 0.000000 0.271049
#
# Coordination Sequence:
#
# PCOD8062146 Si02
#       6
#     4   4   4   4   4   4
#     4  10  23  40  56  75  99 136 193 246 282 319
#     4   9  17  32  53  77 111 150 183 220 270 325
#     4  10  20  32  55  77 112 147 182 223 270 325
#     4  11  20  37  55  76 105 144 181 230 275 319
#     4  10  19  35  49  79 118 149 182 220 266 325
#     4  11  20  33  53  77 111 152 186 219 268 327
#
# _framework density 18.526933
#
# number of rings (size 3 to 8) (size 9 to 14) (size 15 to 20)
#    0.000    1.833    3.333    2.500    2.333    0.667 
#    0.000    6.667    0.000    0.000    0.000    2.333 
#    0.000    6.667    0.000    0.000    0.000    0.000 
#
# Total GULP energy -297362.756141 kJ/mol
# GULP energy per Si atom -12390.114839 kJ/mol
# Density = 1.848476 g / cm^3
# Si number density = 18.526933 Si / 1000 Ang^3
#
#
#
# Elastic Constant Matrix: (Units=GPa)
#
#
# Indices 1 2 3 4 5 6 
#
# 1 77.3254 17.8076 45.9125 0.0000 -8.9828 0.0000
# 2 17.8076 153.1119 66.8315 0.0000 -6.3073 0.0000
# 3 45.9125 66.8315 126.4937 0.0000 -21.2653 0.0000
# 4 0.0000 0.0000 0.0000 17.4892 0.0000 0.0968
# 5 -8.9828 -6.3073 -21.2653 0.0000 26.6942 0.0000
# 6 0.0000 0.0000 0.0000 0.0968 0.0000 -19.1531
#
#
#
# Elastic Compliance Matrix: (Units=1/GPa)
#
#
# Indices 1 2 3 4 5 6 
#
# 1 0.016593 0.000878 -0.006366 0.000000 0.000720 0.000000
# 2 0.000878 0.008612 -0.005169 0.000000 -0.001788 0.000000
# 3 -0.006366 -0.005169 0.014296 0.000000 0.008025 0.000000
# 4 0.000000 0.000000 0.000000 0.057177 0.000000 0.000289
# 5 0.000720 -0.001788 0.008025 0.000000 0.043675 0.000000
# 6 0.000000 0.000000 0.000000 0.000289 0.000000 -0.052209
#
#
# Mechanical properties :
#
#
# Convention : Reuss Voigt Hill
#
# Bulk Modulus (GPa) = 54.98074 68.67048 61.82561
# Shear Modulus (GPa) = 43.28277 20.09801 31.69039
#
# Velocity S-wave (km/s) = 4.83868 3.29720 4.14031
# Velocity P-wave (km/s) = 7.80753 7.18617 7.50329
#
# Compressibility (1/GPa) = 0.01818819
#
# Stress axis : x y z
#
# Youngs Moduli (GPa) = 60.26458 116.12139 69.94779
#
# Poissons Ratio (x) = -0.10200 0.44528
# Poissons Ratio (y) = -0.05294 0.36158
# Poissons Ratio (z) = 0.38363 0.60026
#
# Static dielectric constant tensor:
#      x y z
#    x 3.392250 0.000000 -0.249210 
#    y 0.000000 3.527850 0.000000 
#    z -0.249210 0.000000 3.427100 
# 
# 
# High freq. dielectric constant tensor:
#      x y z
#    x 1.692940 0.000000 -0.019630 
#    y 0.000000 1.705680 0.000000 
#    z -0.019630 0.000000 1.714600 
# 
# From -- ./inp_files/65152.got.cif
#   From: 2010.06.25/outbox.cif.g09.slc.cpg/sg10_33_cif.got.tgz:65152.got - 2010.06.27 22:07:45.
