data_PCOD8062244
_publ_section_title
;
Structure prediction by ZEFSAII (Michael W. Deem and Ramdas Pophale) SiO2 
 PCOD8062244
Probable space group: P 2/M
;
_chemical_formula_sum "Si O2"
_cell_formula_units_Z 32
_cell_length_a 30.611277
_cell_length_b 8.808641
_cell_length_c 13.038433
_cell_angle_alpha 90.000000
_cell_angle_beta 152.538997
_cell_angle_gamma 90.000000
_cell_volume 1621.261456
_symmetry_space_group_name_H-M "P 2/M"
_symmetry_group_IT_number 10
_symmetry_cell_setting 'monoclinic'
loop_
_space_group_symop_operation_xyz
x,y,z
-x,y,-z
-x,-y,-z
x,-y,z
loop_
_atom_site_type_symbol
_atom_site_label
_atom_site_fract_x
_atom_site_fract_y
_atom_site_fract_z
Si Si1 0.599095 0.319835 0.972952
Si Si2 0.788962 0.180021 0.077830
Si Si3 0.566986 0.326791 0.237126
Si Si4 0.791714 0.319768 0.471760
Si Si5 0.114033 0.819923 0.926239
Si Si6 0.397816 0.320112 0.249756
Si Si7 0.766922 0.178947 0.631597
Si Si8 0.900402 0.180283 0.511456
O O1 0.598404 0.500000 0.972527
O O2 0.685804 0.262073 0.223399
O O3 0.497165 0.264714 0.802441
O O4 0.614708 0.257825 0.891510
O O5 0.845363 0.243587 0.096676
O O6 0.839178 0.237494 0.286706
O O7 0.785365 0.000000 0.068175
O O8 0.682894 0.244756 0.849066
O O9 0.601798 0.500000 0.326276
O O10 0.656974 0.219966 0.413601
O O11 0.500000 0.317783 0.000000
O O12 0.798861 0.500000 0.487255
O O13 0.815069 0.256658 0.633021
O O14 0.865054 0.255595 0.542290
O O15 0.007095 0.761966 0.716297
O O16 0.116018 0.000000 0.927377
O O17 0.177450 0.760217 0.152739
O O18 0.500000 0.265155 0.500000
O O19 0.387643 0.500000 0.235951
O O20 0.777377 0.000000 0.640964
O O21 0.894899 0.000000 0.511487
#
# Coordination Sequence:
#
# PCOD8062244 Si02
#       8
#     4   4   4   4   4   4   4   4
#     4   9  18  34  54  77 110 151 187 222 278 338
#     4  10  20  37  62  88 113 147 193 239 283 338
#     4  10  19  35  57  79 106 148 191 228 278 336
#     4  11  21  38  61  84 116 152 189 238 286 338
#     4   9  21  40  59  82 118 154 185 233 298 347
#     4  10  21  36  55  83 118 155 189 225 280 344
#     4  11  23  38  56  84 118 152 191 237 284 338
#     4  10  20  38  64  88 108 145 196 240 286 347
#
# _framework density 19.737717
#
# number of rings (size 3 to 8) (size 9 to 14) (size 15 to 20)
#    0.000    2.000    2.500    1.125    1.750    2.500 
#    0.000    5.625    0.000    1.500    0.000    0.000 
#    0.000    0.000    0.000    0.000    0.000    0.000 
#
# Total GULP energy -396827.443637 kJ/mol
# GULP energy per Si atom -12400.857614 kJ/mol
# Density = 1.969279 g / cm^3
# Si number density = 19.737717 Si / 1000 Ang^3
#
#
#
# Elastic Constant Matrix: (Units=GPa)
#
#
# Indices 1 2 3 4 5 6 
#
# 1 177.7853 32.1169 64.5694 0.0000 9.8069 0.0000
# 2 32.1169 35.4364 24.6219 0.0000 2.2492 0.0000
# 3 64.5694 24.6219 109.4304 0.0000 9.7093 0.0000
# 4 0.0000 0.0000 0.0000 14.0114 0.0000 -1.9028
# 5 9.8069 2.2492 9.7093 0.0000 34.6739 0.0000
# 6 0.0000 0.0000 0.0000 -1.9028 0.0000 23.7198
#
#
#
# Elastic Compliance Matrix: (Units=1/GPa)
#
#
# Indices 1 2 3 4 5 6 
#
# 1 0.007761 -0.004564 -0.003470 0.000000 -0.000927 0.000000
# 2 -0.004564 0.036133 -0.005480 0.000000 0.000481 0.000000
# 3 -0.003470 -0.005480 0.012613 0.000000 -0.002195 0.000000
# 4 0.000000 0.000000 0.000000 0.072156 0.000000 0.005788
# 5 -0.000927 0.000481 -0.002195 0.000000 0.029686 0.000000
# 6 0.000000 0.000000 0.000000 0.005788 0.000000 0.042623
#
#
# Mechanical properties :
#
#
# Convention : Reuss Voigt Hill
#
# Bulk Modulus (GPa) = 33.92169 62.80762 48.36465
# Shear Modulus (GPa) = 21.02380 27.90396 24.46388
#
# Velocity S-wave (km/s) = 3.26722 3.76405 3.52440
# Velocity P-wave (km/s) = 5.60861 7.12608 6.41239
#
# Compressibility (1/GPa) = 0.02947967
#
# Stress axis : x y z
#
# Youngs Moduli (GPa) = 128.85556 27.67579 79.28056
#
# Poissons Ratio (x) = 0.12631 0.27511
# Poissons Ratio (y) = 0.58806 0.43444
# Poissons Ratio (z) = 0.44713 0.15166
#
# Static dielectric constant tensor:
#      x y z
#    x 3.943980 0.000000 -0.050370 
#    y 0.000000 3.225700 0.000000 
#    z -0.050370 0.000000 3.708900 
# 
# 
# High freq. dielectric constant tensor:
#      x y z
#    x 1.789560 0.000000 0.000440 
#    y 0.000000 1.735270 0.000000 
#    z 0.000440 0.000000 1.770500 
# 
# From -- ./inp_files/58281.got.cif
#   From: 2010.06.25/outbox.cif.g09.slc.cpg/sg10_30_cif.got.tgz:58281.got - 2010.06.27 22:07:45.
