data_PCOD8062458
_publ_section_title
;
Structure prediction by ZEFSAII (Michael W. Deem and Ramdas Pophale) SiO2 
 PCOD8062458
Probable space group: P 2/M
;
_chemical_formula_sum "Si O2"
_cell_formula_units_Z 24
_cell_length_a 11.440313
_cell_length_b 17.245367
_cell_length_c 12.782228
_cell_angle_alpha 90.000000
_cell_angle_beta 34.413453
_cell_angle_gamma 90.000000
_cell_volume 1425.242881
_symmetry_space_group_name_H-M "P 2/M"
_symmetry_group_IT_number 10
_symmetry_cell_setting 'monoclinic'
loop_
_space_group_symop_operation_xyz
x,y,z
-x,y,-z
-x,-y,-z
x,-y,z
loop_
_atom_site_type_symbol
_atom_site_label
_atom_site_fract_x
_atom_site_fract_y
_atom_site_fract_z
Si Si1 0.616730 0.672822 0.119457
Si Si2 0.799143 0.589993 0.584252
Si Si3 0.411091 0.825129 0.965421
Si Si4 0.999866 0.587724 0.222304
Si Si5 0.679735 0.588474 0.285878
Si Si6 0.195494 0.908796 0.290007
O O1 0.398421 0.640976 0.238083
O O2 0.659732 0.648661 0.206645
O O3 0.630367 0.766630 0.099698
O O4 0.799089 0.640397 0.911761
O O5 0.751628 0.500000 0.642651
O O6 0.000000 0.617895 0.500000
O O7 0.835201 0.605378 0.434690
O O8 0.209004 0.870903 0.161771
O O9 0.500000 0.775553 0.000000
O O10 0.593000 0.887369 0.802332
O O11 0.077567 0.500000 0.175441
O O12 0.896837 0.601322 0.184914
O O13 0.500000 0.605331 0.500000
O O14 0.663375 0.500000 0.254800
O O15 0.000000 0.876250 0.500000
O O16 0.176069 0.000000 0.290316
#
# Coordination Sequence:
#
# PCOD8062458 Si02
#       6
#     4   4   4   4   4   4
#     4  12  21  32  51  70 101 135 160 212 278 307
#     4  10  22  34  46  66  93 131 177 216 255 311
#     4   8  20  30  43  78 109 130 154 190 244 307
#     4  10  21  35  52  69  88 129 187 235 262 295
#     4  10  19  36  55  69  87 128 192 241 265 289
#     4   8  15  33  57  74 101 138 164 189 224 288
#
# _framework density 16.839236
#
# number of rings (size 3 to 8) (size 9 to 14) (size 15 to 20)
#    1.000    1.167    1.667    3.000    2.333    3.333 
#    0.000    2.500    0.000    0.000    0.000    0.000 
#    0.000   13.333    0.000    0.000    0.000    0.000 
#
# Total GULP energy -297315.503098 kJ/mol
# GULP energy per Si atom -12388.145962 kJ/mol
# Density = 1.680091 g / cm^3
# Si number density = 16.839236 Si / 1000 Ang^3
#
#
#
# Elastic Constant Matrix: (Units=GPa)
#
#
# Indices 1 2 3 4 5 6 
#
# 1 53.5773 29.7719 12.8858 0.0000 3.1304 0.0000
# 2 29.7719 76.8635 45.0568 0.0000 5.4583 0.0000
# 3 12.8858 45.0568 111.6199 0.0000 -5.0112 0.0000
# 4 0.0000 0.0000 0.0000 14.2403 0.0000 4.6282
# 5 3.1304 5.4583 -5.0112 0.0000 21.1588 0.0000
# 6 0.0000 0.0000 0.0000 4.6282 0.0000 23.3252
#
#
#
# Elastic Compliance Matrix: (Units=1/GPa)
#
#
# Indices 1 2 3 4 5 6 
#
# 1 0.023932 -0.009934 0.001216 0.000000 -0.000690 0.000000
# 2 -0.009934 0.021980 -0.007999 0.000000 -0.006095 0.000000
# 3 0.001216 -0.007999 0.012263 0.000000 0.004788 0.000000
# 4 0.000000 0.000000 0.000000 0.075064 0.000000 -0.014894
# 5 -0.000690 -0.006095 0.004788 0.000000 0.050070 0.000000
# 6 0.000000 0.000000 0.000000 -0.014894 0.000000 0.045827
#
#
# Mechanical properties :
#
#
# Convention : Reuss Voigt Hill
#
# Bulk Modulus (GPa) = 40.41895 46.38776 43.40336
# Shear Modulus (GPa) = 18.46270 22.03461 20.24865
#
# Velocity S-wave (km/s) = 3.31480 3.62128 3.47143
# Velocity P-wave (km/s) = 6.22137 6.71507 6.47293
#
# Compressibility (1/GPa) = 0.02474087
#
# Stress axis : x y z
#
# Youngs Moduli (GPa) = 41.78426 45.49672 81.54924
#
# Poissons Ratio (x) = 0.45195 -0.09916
# Poissons Ratio (y) = 0.41507 0.65233
# Poissons Ratio (z) = -0.05081 0.36394
#
# Static dielectric constant tensor:
#      x y z
#    x 2.992940 0.000000 0.016340 
#    y 0.000000 2.788670 0.000000 
#    z 0.016340 0.000000 3.384330 
# 
# 
# High freq. dielectric constant tensor:
#      x y z
#    x 1.618090 0.000000 0.001430 
#    y 0.000000 1.611380 0.000000 
#    z 0.001430 0.000000 1.672700 
# 
# From -- ./inp_files/65014.got.cif
#   From: 2010.06.25/outbox.cif.g09.slc.cpg/sg10_33_cif.got.tgz:65014.got - 2010.06.27 22:07:45.
