data_PCOD8062364
_publ_section_title
;
Structure prediction by ZEFSAII (Michael W. Deem and Ramdas Pophale) SiO2 
 PCOD8062364
Probable space group: P 2/M
;
_chemical_formula_sum "Si O2"
_cell_formula_units_Z 28
_cell_length_a 9.488534
_cell_length_b 9.072334
_cell_length_c 28.598712
_cell_angle_alpha 90.000000
_cell_angle_beta 145.004602
_cell_angle_gamma 90.000000
_cell_volume 1411.907036
_symmetry_space_group_name_H-M "P 2/M"
_symmetry_group_IT_number 10
_symmetry_cell_setting 'monoclinic'
loop_
_space_group_symop_operation_xyz
x,y,z
-x,y,-z
-x,-y,-z
x,-y,z
loop_
_atom_site_type_symbol
_atom_site_label
_atom_site_fract_x
_atom_site_fract_y
_atom_site_fract_z
Si Si1 0.276952 0.324996 0.844018
Si Si2 0.589182 0.667740 0.424791
Si Si3 0.161677 0.675304 0.000816
Si Si4 0.422679 0.667441 0.685244
Si Si5 0.969799 0.831495 0.593041
Si Si6 0.973413 0.324984 0.850668
Si Si7 0.895054 0.169094 0.679901
O O1 0.252889 0.500000 0.832633
O O2 0.558082 0.272112 0.917905
O O3 0.157247 0.268665 0.860142
O O4 0.140682 0.250714 0.763377
O O5 0.545058 0.500000 0.429149
O O6 0.671820 0.673368 0.393568
O O7 0.801704 0.737085 0.513349
O O8 0.337736 0.755891 0.359923
O O9 0.148074 0.500000 0.996453
O O10 0.000000 0.737854 0.000000
O O11 0.056968 0.738963 0.923524
O O12 0.410056 0.500000 0.700860
O O13 0.698506 0.730143 0.764959
O O14 0.246304 0.769551 0.668134
O O15 0.864021 0.817404 0.616075
O O16 0.969290 0.000000 0.575784
O O17 0.982172 0.500000 0.853604
O O18 0.906463 0.000000 0.698913
#
# Coordination Sequence:
#
# PCOD8062364 Si02
#       7
#     4   4   4   4   4   4   4
#     4  10  19  35  59  85 115 152 194 237 287 341
#     4  11  22  40  63  89 114 146 197 246 293 345
#     4   9  18  30  53  90 121 147 184 234 289 343
#     4  10  21  37  59  87 118 150 193 244 290 341
#     4  11  25  40  56  83 119 158 196 236 293 350
#     4   9  17  33  54  83 119 150 184 235 290 339
#     4  11  24  40  58  83 119 157 196 240 288 346
#
# _framework density 19.831334999999999
#
# number of rings (size 3 to 8) (size 9 to 14) (size 15 to 20)
#    0.000    1.857    1.429    2.571    2.000    8.571 
#    0.000    0.000    0.000    3.000    0.000    0.000 
#    0.000    0.000    0.000    0.000    0.000    0.000 
#
# Total GULP energy -347289.337494 kJ/mol
# GULP energy per Si atom -12403.190625 kJ/mol
# Density = 1.978620 g / cm^3
# Si number density = 19.831335 Si / 1000 Ang^3
#
#
#
# Elastic Constant Matrix: (Units=GPa)
#
#
# Indices 1 2 3 4 5 6 
#
# 1 73.7467 28.4172 32.4177 0.0000 9.2095 0.0000
# 2 28.4172 58.9865 27.3154 0.0000 1.9440 0.0000
# 3 32.4177 27.3154 121.1395 0.0000 9.5866 0.0000
# 4 0.0000 0.0000 0.0000 4.1758 0.0000 -3.4794
# 5 9.2095 1.9440 9.5866 0.0000 29.3318 0.0000
# 6 0.0000 0.0000 0.0000 -3.4794 0.0000 20.2579
#
#
#
# Elastic Compliance Matrix: (Units=1/GPa)
#
#
# Indices 1 2 3 4 5 6 
#
# 1 0.018165 -0.007275 -0.002882 0.000000 -0.004279 0.000000
# 2 -0.007275 0.021844 -0.003126 0.000000 0.001858 0.000000
# 3 -0.002882 -0.003126 0.009899 0.000000 -0.002123 0.000000
# 4 0.000000 0.000000 0.000000 0.279474 0.000000 0.048001
# 5 -0.004279 0.001858 -0.002123 0.000000 0.036007 0.000000
# 6 0.000000 0.000000 0.000000 0.048001 0.000000 0.057608
#
#
# Mechanical properties :
#
#
# Convention : Reuss Voigt Hill
#
# Bulk Modulus (GPa) = 42.84130 47.79704 45.31917
# Shear Modulus (GPa) = 10.93270 21.80126 16.36698
#
# Velocity S-wave (km/s) = 2.35049 3.31922 2.87594
# Velocity P-wave (km/s) = 5.38666 6.23247 5.82494
#
# Compressibility (1/GPa) = 0.02334196
#
# Stress axis : x y z
#
# Youngs Moduli (GPa) = 55.05220 45.77875 101.02058
#
# Poissons Ratio (x) = 0.33306 0.29112
# Poissons Ratio (y) = 0.40053 0.31576
# Poissons Ratio (z) = 0.15865 0.14309
#
# Static dielectric constant tensor:
#      x y z
#    x 3.703950 0.000000 0.030890 
#    y 0.000000 3.336800 0.000000 
#    z 0.030890 0.000000 3.730860 
# 
# 
# High freq. dielectric constant tensor:
#      x y z
#    x 1.781190 0.000000 0.003230 
#    y 0.000000 1.738540 0.000000 
#    z 0.003230 0.000000 1.785430 
# 
# From -- ./inp_files/37058.got.cif
#   From: 2010.06.25/outbox.cif.g09.slc.cpg/sg10_19_cif.got.tgz:37058.got - 2010.06.27 22:07:45.
