data_PCOD8062549
_publ_section_title
;
Structure prediction by ZEFSAII (Michael W. Deem and Ramdas Pophale) SiO2 
 PCOD8062549
Probable space group: P 2/M
;
_chemical_formula_sum "Si O2"
_cell_formula_units_Z 28
_cell_length_a 31.314921
_cell_length_b 8.575605
_cell_length_c 32.157180
_cell_angle_alpha 90.000000
_cell_angle_beta 9.209862
_cell_angle_gamma 90.000000
_cell_volume 1382.142104
_symmetry_space_group_name_H-M "P 2/M"
_symmetry_group_IT_number 10
_symmetry_cell_setting 'monoclinic'
loop_
_space_group_symop_operation_xyz
x,y,z
-x,y,-z
-x,-y,-z
x,-y,z
loop_
_atom_site_type_symbol
_atom_site_label
_atom_site_fract_x
_atom_site_fract_y
_atom_site_fract_z
Si Si1 0.165342 0.685268 0.095967
Si Si2 0.740764 0.315885 0.571870
Si Si3 0.633374 0.816562 0.915102
Si Si4 0.196336 0.685006 0.395440
Si Si5 0.429924 0.315012 0.691811
Si Si6 0.998491 0.816712 0.169039
Si Si7 0.712956 0.314223 0.262401
O O1 0.151289 0.500000 0.101803
O O2 0.975701 0.739691 0.315817
O O3 0.072778 0.774732 0.144353
O O4 0.460238 0.744926 0.823735
O O5 0.730605 0.500000 0.584299
O O6 0.795520 0.249736 0.565257
O O7 0.923016 0.738073 0.636956
O O8 0.670350 0.000000 0.883686
O O9 0.500000 0.768247 0.000000
O O10 0.451978 0.755018 0.126749
O O11 0.218200 0.500000 0.372643
O O12 0.429650 0.500000 0.693078
O O13 0.715685 0.255477 0.430394
O O14 0.360024 0.251658 0.713120
O O15 0.213558 0.254334 0.931639
O O16 0.987655 0.000000 0.173701
O O17 0.500000 0.248294 0.500000
O O18 0.713240 0.500000 0.262393
O O19 0.000000 0.248405 0.000000
#
# Coordination Sequence:
#
# PCOD8062549 Si02
#       7
#     4   4   4   4   4   4   4
#     4  10  19  36  60  83 111 152 197 233 281 352
#     4   9  19  35  58  86 114 145 186 241 293 341
#     4  11  24  41  59  84 122 163 198 237 291 349
#     4  11  22  39  64  92 118 149 196 247 294 345
#     4  11  22  39  64  89 115 156 203 238 285 356
#     4  12  25  40  58  87 125 156 191 246 300 338
#     4   9  17  31  55  87 115 140 185 248 292 325
#
# _framework density 20.258407999999999
#
# number of rings (size 3 to 8) (size 9 to 14) (size 15 to 20)
#    0.000    1.571    0.000    5.571    0.000    8.571 
#    0.000    4.286    0.000    8.571    0.000    0.000 
#    0.000    0.000    0.000    0.000    0.000    0.000 
#
# Total GULP energy -347325.382017 kJ/mol
# GULP energy per Si atom -12404.477929 kJ/mol
# Density = 2.021230 g / cm^3
# Si number density = 20.258408 Si / 1000 Ang^3
#
#
#
# Elastic Constant Matrix: (Units=GPa)
#
#
# Indices 1 2 3 4 5 6 
#
# 1 114.5316 22.3365 18.9676 0.0000 -2.2722 0.0000
# 2 22.3365 69.4370 15.7222 0.0000 -3.9537 0.0000
# 3 18.9676 15.7222 120.8065 0.0000 -4.0440 0.0000
# 4 0.0000 0.0000 0.0000 -5.0211 0.0000 7.1513
# 5 -2.2722 -3.9537 -4.0440 0.0000 48.3957 0.0000
# 6 0.0000 0.0000 0.0000 7.1513 0.0000 -11.5679
#
#
#
# Elastic Compliance Matrix: (Units=1/GPa)
#
#
# Indices 1 2 3 4 5 6 
#
# 1 0.009462 -0.002783 -0.001119 0.000000 0.000123 0.000000
# 2 -0.002783 0.015711 -0.001574 0.000000 0.001021 0.000000
# 3 -0.001119 -0.001574 0.008676 0.000000 0.000544 0.000000
# 4 0.000000 0.000000 0.000000 -1.666118 0.000000 -1.029995
# 5 0.000123 0.001021 0.000544 0.000000 0.020798 0.000000
# 6 0.000000 0.000000 0.000000 -1.029995 0.000000 -0.723190
#
#
# Mechanical properties :
#
#
# Convention : Reuss Voigt Hill
#
# Bulk Modulus (GPa) = 43.67284 46.53639 45.10462
# Shear Modulus (GPa) = -2.15882 22.87792 10.35955
#
# Velocity S-wave (km/s) = -1.03342 3.36416 2.26380
# Velocity P-wave (km/s) = 4.49230 6.17344 5.39871
#
# Compressibility (1/GPa) = 0.02289752
#
# Stress axis : x y z
#
# Youngs Moduli (GPa) = 105.68793 63.64848 115.25483
#
# Poissons Ratio (x) = 0.17715 0.12900
# Poissons Ratio (y) = 0.29415 0.18136
# Poissons Ratio (z) = 0.11829 0.10015
#
# Static dielectric constant tensor:
#      x y z
#    x 4.003210 0.000000 0.039240 
#    y 0.000000 3.441430 0.000000 
#    z 0.039240 0.000000 3.954230 
# 
# 
# High freq. dielectric constant tensor:
#      x y z
#    x 1.812340 0.000000 0.000150 
#    y 0.000000 1.765480 0.000000 
#    z 0.000150 0.000000 1.813610 
# 
# From -- ./inp_files/95992.got.cif
#   From: 2010.06.25/outbox.cif.g09.slc.cpg/sg10_48_cif.got.tgz:95992.got - 2010.06.27 22:07:45.
