data_PCOD8062753
_publ_section_title
;
Structure prediction by ZEFSAII (Michael W. Deem and Ramdas Pophale) SiO2 
 PCOD8062753
Probable space group: P 2/M
;
_chemical_formula_sum "Si O2"
_cell_formula_units_Z 16
_cell_length_a 9.565771
_cell_length_b 11.965757
_cell_length_c 8.837746
_cell_angle_alpha 90.000000
_cell_angle_beta 132.026837
_cell_angle_gamma 90.000000
_cell_volume 751.435806
_symmetry_space_group_name_H-M "P 2/M"
_symmetry_group_IT_number 10
_symmetry_cell_setting 'monoclinic'
loop_
_space_group_symop_operation_xyz
x,y,z
-x,y,-z
-x,-y,-z
x,-y,z
loop_
_atom_site_type_symbol
_atom_site_label
_atom_site_fract_x
_atom_site_fract_y
_atom_site_fract_z
Si Si1 0.507833 0.261837 0.324425
Si Si2 0.611994 0.500000 0.429089
Si Si3 0.872794 0.129237 0.553604
Si Si4 0.030754 0.500000 0.701495
Si Si5 0.895526 0.713463 0.073474
O O1 0.500000 0.256180 0.500000
O O2 0.561122 0.386517 0.302801
O O3 0.663419 0.176774 0.372773
O O4 0.305400 0.230364 0.109146
O O5 0.500000 0.500000 0.500000
O O6 0.828403 0.500000 0.633705
O O7 0.000000 0.149686 0.500000
O O8 0.969650 0.191417 0.763044
O O9 0.854729 0.000000 0.582543
O O10 0.000000 0.500000 0.500000
O O11 0.138049 0.611334 0.833892
O O12 0.000000 0.666664 0.000000
#
# Coordination Sequence:
#
# PCOD8062753 Si02
#       5
#     4   2   4   2   4
#     4  11  22  42  68 101 132 175 225 279 331 400
#     4  10  19  38  64  92 134 167 210 266 330 389
#     4  11  26  47  67  96 138 176 223 290 341 387
#     4  12  24  42  69 100 142 176 215 275 341 400
#     4  12  23  43  71 101 132 180 226 273 335 404
#
# _framework density 21.292570000000001
#
# number of rings (size 3 to 8) (size 9 to 14) (size 15 to 20)
#    0.000    0.750    5.000    3.375    0.000    3.000 
#    0.000    3.750    0.000    0.000    0.000    0.000 
#    0.000    0.000    0.000    0.000    0.000    0.000 
#
# Total GULP energy -198426.000149 kJ/mol
# GULP energy per Si atom -12401.625009 kJ/mol
# Density = 2.124411 g / cm^3
# Si number density = 21.292570 Si / 1000 Ang^3
#
#
#
# Elastic Constant Matrix: (Units=GPa)
#
#
# Indices 1 2 3 4 5 6 
#
# 1 104.4065 51.6951 56.0398 0.0000 15.1708 0.0000
# 2 51.6951 142.9296 46.5209 0.0000 -1.9083 0.0000
# 3 56.0398 46.5209 140.6191 0.0000 22.0101 0.0000
# 4 0.0000 0.0000 0.0000 18.5013 0.0000 2.6224
# 5 15.1708 -1.9083 22.0101 0.0000 46.5612 0.0000
# 6 0.0000 0.0000 0.0000 2.6224 0.0000 32.2824
#
#
#
# Elastic Compliance Matrix: (Units=1/GPa)
#
#
# Indices 1 2 3 4 5 6 
#
# 1 0.013960 -0.003837 -0.003841 0.000000 -0.002890 0.000000
# 2 -0.003837 0.009018 -0.001844 0.000000 0.002492 0.000000
# 3 -0.003841 -0.001844 0.009793 0.000000 -0.003453 0.000000
# 4 0.000000 0.000000 0.000000 0.054680 0.000000 -0.004442
# 5 -0.002890 0.002492 -0.003453 0.000000 0.024153 0.000000
# 6 0.000000 0.000000 0.000000 -0.004442 0.000000 0.031337
#
#
# Mechanical properties :
#
#
# Convention : Reuss Voigt Hill
#
# Bulk Modulus (GPa) = 72.86099 77.38521 75.12310
# Shear Modulus (GPa) = 30.01897 35.04894 32.53395
#
# Velocity S-wave (km/s) = 3.75885 4.06157 3.91314
# Velocity P-wave (km/s) = 7.28916 7.64316 7.46826
#
# Compressibility (1/GPa) = 0.01372477
#
# Stress axis : x y z
#
# Youngs Moduli (GPa) = 71.63492 110.89176 102.11468
#
# Poissons Ratio (x) = 0.42552 0.39227
# Poissons Ratio (y) = 0.27488 0.18831
# Poissons Ratio (z) = 0.27518 0.20450
#
# Static dielectric constant tensor:
#      x y z
#    x 3.909990 0.000000 0.211020 
#    y 0.000000 4.138270 0.000000 
#    z 0.211020 0.000000 3.810870 
# 
# 
# High freq. dielectric constant tensor:
#      x y z
#    x 1.839750 0.000000 0.014880 
#    y 0.000000 1.830050 0.000000 
#    z 0.014880 0.000000 1.832630 
# 
# From -- ./inp_files/17595.got.cif
#   From: 2010.06.25/outbox.cif.g09.slc.cpg/sg10_9_cif.got.tgz:17595.got - 2010.06.27 22:07:45.
