data_PCOD8062218
_publ_section_title
;
Structure prediction by ZEFSAII (Michael W. Deem and Ramdas Pophale) SiO2 
 PCOD8062218
Probable space group: P 2/M
;
_chemical_formula_sum "Si O2"
_cell_formula_units_Z 20
_cell_length_a 20.021202
_cell_length_b 7.762266
_cell_length_c 10.229656
_cell_angle_alpha 90.000000
_cell_angle_beta 41.162934
_cell_angle_gamma 90.000000
_cell_volume 1046.403708
_symmetry_space_group_name_H-M "P 2/M"
_symmetry_group_IT_number 10
_symmetry_cell_setting 'monoclinic'
loop_
_space_group_symop_operation_xyz
x,y,z
-x,y,-z
-x,-y,-z
x,-y,z
loop_
_atom_site_type_symbol
_atom_site_label
_atom_site_fract_x
_atom_site_fract_y
_atom_site_fract_z
Si Si1 0.302550 0.689354 0.288337
Si Si2 0.746229 0.792827 0.110143
Si Si3 0.592592 0.195637 0.118488
Si Si4 0.121868 0.500000 0.463670
Si Si5 0.106810 0.500000 0.176427
Si Si6 0.630218 0.801470 0.536930
O O1 0.353262 0.500000 0.220971
O O2 0.365569 0.797588 0.090338
O O3 0.184131 0.670451 0.419751
O O4 0.307432 0.777237 0.421847
O O5 0.695352 0.731185 0.320372
O O6 0.770177 0.000000 0.068673
O O7 0.672132 0.724901 0.103778
O O8 0.847248 0.677831 0.948551
O O9 0.579564 0.000000 0.180031
O O10 0.481797 0.286978 0.291098
O O11 0.117206 0.500000 0.315734
O O12 0.011164 0.500000 0.691161
O O13 0.612259 0.000000 0.538311
#
# Coordination Sequence:
#
# PCOD8062218 Si02
#       6
#     4   4   4   2   2   4
#     4  10  20  36  52  83 110 148 188 227 279 332
#     4  10  21  38  59  87 115 148 193 231 277 338
#     4  10  19  35  56  80 116 155 188 226 272 328
#     4   9  22  39  60  82 111 140 187 249 288 328
#     4  11  20  43  64  82 111 144 189 247 294 324
#     4  10  21  35  54  82 120 154 181 225 278 335
#
# _framework density 19.113081000000001
#
# number of rings (size 3 to 8) (size 9 to 14) (size 15 to 20)
#    0.600    1.400    2.000    1.800    1.400    5.600 
#    0.000    7.000    0.000    2.400    0.000    0.000 
#    0.000    0.000    0.000    0.000    0.000    0.000 
#
# Total GULP energy -247846.025454 kJ/mol
# GULP energy per Si atom -12392.301273 kJ/mol
# Density = 1.906958 g / cm^3
# Si number density = 19.113081 Si / 1000 Ang^3
#
#
#
# Elastic Constant Matrix: (Units=GPa)
#
#
# Indices 1 2 3 4 5 6 
#
# 1 71.8241 12.0438 73.4898 0.0000 -6.1847 0.0000
# 2 12.0438 51.5706 35.0610 0.0000 -12.4428 0.0000
# 3 73.4898 35.0610 144.3074 0.0000 -5.8558 0.0000
# 4 0.0000 0.0000 0.0000 20.4715 0.0000 -4.2351
# 5 -6.1847 -12.4428 -5.8558 0.0000 45.4588 0.0000
# 6 0.0000 0.0000 0.0000 -4.2351 0.0000 13.2372
#
#
#
# Elastic Compliance Matrix: (Units=1/GPa)
#
#
# Indices 1 2 3 4 5 6 
#
# 1 0.030216 0.004934 -0.016451 0.000000 0.003342 0.000000
# 2 0.004934 0.025579 -0.008460 0.000000 0.006583 0.000000
# 3 -0.016451 -0.008460 0.017268 0.000000 -0.002329 0.000000
# 4 0.000000 0.000000 0.000000 0.052311 0.000000 0.016736
# 5 0.003342 0.006583 -0.002329 0.000000 0.023954 0.000000
# 6 0.000000 0.000000 0.000000 0.016736 0.000000 0.080899
#
#
# Mechanical properties :
#
#
# Convention : Reuss Voigt Hill
#
# Bulk Modulus (GPa) = 30.20339 56.54348 43.37344
# Shear Modulus (GPa) = 17.77987 25.64066 21.71026
#
# Velocity S-wave (km/s) = 3.05330 3.66666 3.37395
# Velocity P-wave (km/s) = 5.31667 6.89737 6.15795
#
# Compressibility (1/GPa) = 0.03310886
#
# Stress axis : x y z
#
# Youngs Moduli (GPa) = 33.09559 39.09507 57.90964
#
# Poissons Ratio (x) = -0.19290 0.95265
# Poissons Ratio (y) = -0.16330 0.48993
# Poissons Ratio (z) = 0.54444 0.33075
#
# Static dielectric constant tensor:
#      x y z
#    x 3.518920 0.000000 -0.083880 
#    y 0.000000 3.311520 0.000000 
#    z -0.083880 0.000000 3.568670 
# 
# 
# High freq. dielectric constant tensor:
#      x y z
#    x 1.738110 0.000000 0.010210 
#    y 0.000000 1.727020 0.000000 
#    z 0.010210 0.000000 1.742610 
# 
# From -- ./inp_files/31458.got.cif
#   From: 2010.06.25/outbox.cif.g09.slc.cpg/sg10_16_cif.got.tgz:31458.got - 2010.06.27 22:07:45.
