data_PCOD8062558
_publ_section_title
;
Structure prediction by ZEFSAII (Michael W. Deem and Ramdas Pophale) SiO2 
 PCOD8062558
Probable space group: P 2/M
;
_chemical_formula_sum "Si O2"
_cell_formula_units_Z 32
_cell_length_a 15.229432
_cell_length_b 8.942378
_cell_length_c 26.288162
_cell_angle_alpha 90.000000
_cell_angle_beta 153.865511
_cell_angle_gamma 90.000000
_cell_volume 1576.967729
_symmetry_space_group_name_H-M "P 2/M"
_symmetry_group_IT_number 10
_symmetry_cell_setting 'monoclinic'
loop_
_space_group_symop_operation_xyz
x,y,z
-x,y,-z
-x,-y,-z
x,-y,z
loop_
_atom_site_type_symbol
_atom_site_label
_atom_site_fract_x
_atom_site_fract_y
_atom_site_fract_z
Si Si1 0.779447 0.675305 0.879839
Si Si2 0.969645 0.175851 0.162488
Si Si3 0.576165 0.176792 0.594925
Si Si4 0.246195 0.669285 0.749141
Si Si5 0.545232 0.321875 0.366894
Si Si6 0.927141 0.174613 0.518052
Si Si7 0.723502 0.669439 0.119113
Si Si8 0.323258 0.673155 0.062888
O O1 0.805533 0.500000 0.885303
O O2 0.652936 0.736973 0.766075
O O3 0.656809 0.711934 0.867243
O O4 0.000000 0.748856 0.000000
O O5 0.868262 0.230927 0.161186
O O6 0.197094 0.230485 0.280772
O O7 0.957386 0.000000 0.155085
O O8 0.862062 0.238278 0.056717
O O9 0.500000 0.230463 0.500000
O O10 0.448064 0.254420 0.572898
O O11 0.550032 0.000000 0.587066
O O12 0.216092 0.500000 0.712350
O O13 0.193449 0.674938 0.780857
O O14 0.473872 0.720863 0.859344
O O15 0.105824 0.786889 0.648832
O O16 0.551889 0.500000 0.373778
O O17 0.734267 0.269038 0.432812
O O18 0.000000 0.220558 0.500000
O O19 0.876257 0.000000 0.495410
O O20 0.722399 0.500000 0.096938
O O21 0.500000 0.734615 0.000000
O O22 0.276185 0.500000 0.029795
#
# Coordination Sequence:
#
# PCOD8062558 Si02
#       8
#     4   4   4   4   4   4   4   4
#     4   9  18  33  58  90 119 148 189 242 302 356
#     4  11  23  37  58  88 121 160 205 250 302 364
#     4  10  24  45  63  84 121 167 208 251 309 371
#     4  10  21  37  60  88 116 155 205 252 303 359
#     4  11  23  41  67  96 122 156 208 263 307 360
#     4  11  25  43  63  89 127 171 206 246 307 371
#     4  10  20  38  60  86 121 159 197 248 311 365
#     4  10  19  36  60  85 119 158 192 243 305 361
#
# _framework density 20.292107999999999
#
# number of rings (size 3 to 8) (size 9 to 14) (size 15 to 20)
#    0.000    1.750    1.250    2.625    1.750    5.500 
#    0.000    1.250    0.000    3.375    0.000    0.000 
#    0.000    0.000    0.000    0.000    0.000    0.000 
#
# Total GULP energy -396890.187619 kJ/mol
# GULP energy per Si atom -12402.818363 kJ/mol
# Density = 2.024592 g / cm^3
# Si number density = 20.292108 Si / 1000 Ang^3
#
#
#
# Elastic Constant Matrix: (Units=GPa)
#
#
# Indices 1 2 3 4 5 6 
#
# 1 117.3028 33.7480 48.6285 0.0000 -5.8573 0.0000
# 2 33.7480 46.5605 36.5799 0.0000 0.8275 0.0000
# 3 48.6285 36.5799 119.0639 0.0000 -7.0580 0.0000
# 4 0.0000 0.0000 0.0000 31.0415 0.0000 0.1097
# 5 -5.8573 0.8275 -7.0580 0.0000 35.7774 0.0000
# 6 0.0000 0.0000 0.0000 0.1097 0.0000 30.1359
#
#
#
# Elastic Compliance Matrix: (Units=1/GPa)
#
#
# Indices 1 2 3 4 5 6 
#
# 1 0.011516 -0.006259 -0.002692 0.000000 0.001499 0.000000
# 2 -0.006259 0.031918 -0.007441 0.000000 -0.003231 0.000000
# 3 -0.002692 -0.007441 0.011908 0.000000 0.002081 0.000000
# 4 0.000000 0.000000 0.000000 0.032215 0.000000 -0.000117
# 5 0.001499 -0.003231 0.002081 0.000000 0.028681 0.000000
# 6 0.000000 0.000000 0.000000 -0.000117 0.000000 0.033183
#
#
# Mechanical properties :
#
#
# Convention : Reuss Voigt Hill
#
# Bulk Modulus (GPa) = 44.33088 57.87111 51.10100
# Shear Modulus (GPa) = 26.35387 30.32234 28.33811
#
# Velocity S-wave (km/s) = 3.60769 3.86980 3.74104
# Velocity P-wave (km/s) = 6.26480 6.96765 6.62555
#
# Compressibility (1/GPa) = 0.02255764
#
# Stress axis : x y z
#
# Youngs Moduli (GPa) = 86.83226 31.33049 83.97952
#
# Poissons Ratio (x) = 0.19611 0.22605
# Poissons Ratio (y) = 0.54351 0.62490
# Poissons Ratio (z) = 0.23373 0.23313
#
# Static dielectric constant tensor:
#      x y z
#    x 3.808840 0.000000 0.033970 
#    y 0.000000 3.430210 0.000000 
#    z 0.033970 0.000000 3.866190 
# 
# 
# High freq. dielectric constant tensor:
#      x y z
#    x 1.807050 0.000000 -0.003390 
#    y 0.000000 1.769650 0.000000 
#    z -0.003390 0.000000 1.800900 
# 
# From -- ./inp_files/89624.got.cif
#   From: 2010.06.25/outbox.cif.g09.slc.cpg/sg10_45_cif.got.tgz:89624.got - 2010.06.27 22:07:45.
