data_PCOD8062107
_publ_section_title
;
Structure prediction by ZEFSAII (Michael W. Deem and Ramdas Pophale) SiO2 
 PCOD8062107
Probable space group: P 2/M
;
_chemical_formula_sum "Si O2"
_cell_formula_units_Z 32
_cell_length_a 13.870060
_cell_length_b 12.224810
_cell_length_c 14.659146
_cell_angle_alpha 90.000000
_cell_angle_beta 137.878284
_cell_angle_gamma 90.000000
_cell_volume 1667.103178
_symmetry_space_group_name_H-M "P 2/M"
_symmetry_group_IT_number 10
_symmetry_cell_setting 'monoclinic'
loop_
_space_group_symop_operation_xyz
x,y,z
-x,y,-z
-x,-y,-z
x,-y,z
loop_
_atom_site_type_symbol
_atom_site_label
_atom_site_fract_x
_atom_site_fract_y
_atom_site_fract_z
Si Si1 0.172199 0.129979 0.396993
Si Si2 0.355810 0.239152 0.683128
Si Si3 0.125588 0.247785 0.826717
Si Si4 0.489527 0.376465 0.353345
Si Si5 0.282057 0.692610 0.348328
Si Si6 0.017418 0.376807 0.911318
Si Si7 0.855378 0.373954 0.342351
Si Si8 0.420945 0.122167 0.039294
O O1 0.246206 0.173549 0.541244
O O2 0.253045 0.185018 0.366784
O O3 0.003882 0.161416 0.278345
O O4 0.188719 0.000000 0.401206
O O5 0.452734 0.328031 0.699776
O O6 0.268822 0.300255 0.701224
O O7 0.468352 0.155521 0.804573
O O8 0.123040 0.304827 0.924074
O O9 0.115827 0.338945 0.741292
O O10 0.278124 0.191733 0.932009
O O11 0.435474 0.500000 0.298646
O O12 0.618753 0.377651 0.515751
O O13 0.357389 0.303473 0.301220
O O14 0.136596 0.623903 0.245196
O O15 0.077676 0.500000 0.960568
O O16 0.000000 0.324706 0.000000
O O17 0.806363 0.500000 0.309458
O O18 0.000000 0.356538 0.500000
O O19 0.371739 0.000000 0.026644
O O20 0.500000 0.132618 0.000000
#
# Coordination Sequence:
#
# PCOD8062107 Si02
#       8
#     4   4   4   4   4   4   4   4
#     4  10  21  39  63  87 114 150 205 256 296 341
#     4  11  22  39  59  92 120 153 197 247 295 360
#     4  11  22  41  62  89 118 158 202 247 296 357
#     4  10  19  34  59  86 116 154 188 235 294 360
#     4   9  19  35  56  83 117 147 196 239 289 349
#     4  10  21  36  58  85 117 155 193 238 291 352
#     4  11  22  39  62  93 126 158 195 245 306 358
#     4  11  24  42  62  82 119 162 198 245 299 348
#
# _framework density 19.194973000000001
#
# number of rings (size 3 to 8) (size 9 to 14) (size 15 to 20)
#    0.000    1.625    2.500    3.000    1.750    0.000 
#    0.000    8.750    0.000    1.875    0.000    0.000 
#    0.000    0.000    0.000    0.000    0.000    0.000 
#
# Total GULP energy -396787.109894 kJ/mol
# GULP energy per Si atom -12399.597184 kJ/mol
# Density = 1.915128 g / cm^3
# Si number density = 19.194973 Si / 1000 Ang^3
#
#
#
# Elastic Constant Matrix: (Units=GPa)
#
#
# Indices 1 2 3 4 5 6 
#
# 1 73.1596 49.4889 16.5473 0.0000 -12.5528 0.0000
# 2 49.4889 121.0665 38.5072 0.0000 -6.2543 0.0000
# 3 16.5473 38.5072 70.0774 0.0000 -0.8947 0.0000
# 4 0.0000 0.0000 0.0000 20.8727 0.0000 -4.3434
# 5 -12.5528 -6.2543 -0.8947 0.0000 35.1606 0.0000
# 6 0.0000 0.0000 0.0000 -4.3434 0.0000 23.3942
#
#
#
# Elastic Compliance Matrix: (Units=1/GPa)
#
#
# Indices 1 2 3 4 5 6 
#
# 1 0.019984 -0.007749 -0.000387 0.000000 0.005746 0.000000
# 2 -0.007749 0.013110 -0.005381 0.000000 -0.000572 0.000000
# 3 -0.000387 -0.005381 0.017310 0.000000 -0.000655 0.000000
# 4 0.000000 0.000000 0.000000 0.049835 0.000000 0.009252
# 5 0.005746 -0.000572 -0.000655 0.000000 0.030374 0.000000
# 6 0.000000 0.000000 0.000000 0.009252 0.000000 0.044463
#
#
# Mechanical properties :
#
#
# Convention : Reuss Voigt Hill
#
# Bulk Modulus (GPa) = 42.79262 52.59895 47.69579
# Shear Modulus (GPa) = 23.82081 26.53619 25.17850
#
# Velocity S-wave (km/s) = 3.52659 3.72217 3.62570
# Velocity P-wave (km/s) = 6.23895 6.77751 6.51380
#
# Compressibility (1/GPa) = 0.02336851
#
# Stress axis : x y z
#
# Youngs Moduli (GPa) = 50.03970 76.28041 57.77011
#
# Poissons Ratio (x) = 0.59109 0.02239
# Poissons Ratio (y) = 0.38775 0.31087
# Poissons Ratio (z) = 0.01939 0.41048
#
# Static dielectric constant tensor:
#      x y z
#    x 3.734730 0.000000 -0.042490 
#    y 0.000000 3.398370 0.000000 
#    z -0.042490 0.000000 3.515930 
# 
# 
# High freq. dielectric constant tensor:
#      x y z
#    x 1.758590 0.000000 0.002920 
#    y 0.000000 1.735980 0.000000 
#    z 0.002920 0.000000 1.750830 
# 
# From -- ./inp_files/67362.got.cif
#   From: 2010.06.25/outbox.cif.g09.slc.cpg/sg10_34_cif.got.tgz:67362.got - 2010.06.27 22:07:45.
