data_PCOD8062843
_publ_section_title
;
Structure prediction by ZEFSAII (Michael W. Deem and Ramdas Pophale) SiO2 
 PCOD8062843
Probable space group: P 2/M
;
_chemical_formula_sum "Si O2"
_cell_formula_units_Z 24
_cell_length_a 12.182702
_cell_length_b 9.178623
_cell_length_c 24.773886
_cell_angle_alpha 90.000000
_cell_angle_beta 151.306779
_cell_angle_gamma 90.000000
_cell_volume 1330.040381
_symmetry_space_group_name_H-M "P 2/M"
_symmetry_group_IT_number 10
_symmetry_cell_setting 'monoclinic'
loop_
_space_group_symop_operation_xyz
x,y,z
-x,y,-z
-x,-y,-z
x,-y,z
loop_
_atom_site_type_symbol
_atom_site_label
_atom_site_fract_x
_atom_site_fract_y
_atom_site_fract_z
Si Si1 0.252962 0.826969 0.413159
Si Si2 0.766459 0.826967 0.926654
Si Si3 0.860173 0.826830 0.517857
Si Si4 0.158154 0.668902 0.818384
Si Si5 0.666772 0.826833 0.324449
Si Si6 0.638879 0.668900 0.978632
O O1 0.500000 0.773737 0.500000
O O2 0.221503 0.764233 0.460116
O O3 0.059836 0.763858 0.291019
O O4 0.231982 0.000000 0.402376
O O5 0.562643 0.764218 0.801278
O O6 0.746658 0.763869 0.977823
O O7 0.756871 0.000000 0.927248
O O8 0.000000 0.773729 0.000000
O O9 0.690434 0.772846 0.396806
O O10 0.116276 0.770068 0.616281
O O11 0.859772 0.000000 0.519162
O O12 0.101335 0.500000 0.785071
O O13 0.375457 0.714074 0.875448
O O14 0.213386 0.700860 0.904458
O O15 0.662021 0.000000 0.321422
O O16 0.652588 0.500000 0.968830
#
# Coordination Sequence:
#
# PCOD8062843 Si02
#       6
#     4   4   4   4   4   4
#     4  10  20  31  47  75 105 130 159 200 250 302
#     4  10  20  31  47  75 105 130 159 200 250 302
#     4   8  14  26  44  64  88 121 158 193 231 279
#     4   9  19  36  55  73  96 131 174 215 254 297
#     4   8  14  26  44  64  88 121 158 193 231 279
#     4   9  19  36  55  73  96 131 174 215 254 297
#
# _framework density 18.044564000000001
#
# number of rings (size 3 to 8) (size 9 to 14) (size 15 to 20)
#    0.000    3.000    0.000    3.000    0.000    4.667 
#    0.000    5.000    0.000    1.000    0.000    4.667 
#    0.000    0.000    0.000    0.000    0.000    0.000 
#
# Total GULP energy -297529.556503 kJ/mol
# GULP energy per Si atom -12397.064854 kJ/mol
# Density = 1.800349 g / cm^3
# Si number density = 18.044564 Si / 1000 Ang^3
#
#
#
# Elastic Constant Matrix: (Units=GPa)
#
#
# Indices 1 2 3 4 5 6 
#
# 1 136.9304 30.1273 94.6522 0.0000 4.9931 0.0000
# 2 30.1273 21.2310 29.1724 0.0000 1.7118 0.0000
# 3 94.6522 29.1724 132.3552 0.0000 3.1296 0.0000
# 4 0.0000 0.0000 0.0000 18.7136 0.0000 -6.6124
# 5 4.9931 1.7118 3.1296 0.0000 23.0984 0.0000
# 6 0.0000 0.0000 0.0000 -6.6124 0.0000 15.0344
#
#
#
# Elastic Compliance Matrix: (Units=1/GPa)
#
#
# Indices 1 2 3 4 5 6 
#
# 1 0.015811 -0.009797 -0.009113 0.000000 -0.001457 0.000000
# 2 -0.009797 0.073841 -0.009219 0.000000 -0.002106 0.000000
# 3 -0.009113 -0.009219 0.016094 0.000000 0.000473 0.000000
# 4 0.000000 0.000000 0.000000 0.063270 0.000000 0.027827
# 5 -0.001457 -0.002106 0.000473 0.000000 0.043700 0.000000
# 6 0.000000 0.000000 0.000000 0.027827 0.000000 0.078753
#
#
# Mechanical properties :
#
#
# Convention : Reuss Voigt Hill
#
# Bulk Modulus (GPa) = 20.20763 66.49117 43.34940
# Shear Modulus (GPa) = 13.72785 20.47357 17.10071
#
# Velocity S-wave (km/s) = 2.76121 3.37205 3.08180
# Velocity P-wave (km/s) = 4.62480 7.21729 6.06127
#
# Compressibility (1/GPa) = 0.04948626
#
# Stress axis : x y z
#
# Youngs Moduli (GPa) = 63.24648 13.54269 62.13638
#
# Poissons Ratio (x) = 0.13267 0.56627
# Poissons Ratio (y) = 0.61961 0.57286
# Poissons Ratio (z) = 0.57639 0.12486
#
# Static dielectric constant tensor:
#      x y z
#    x 3.511700 0.000000 -0.042330 
#    y 0.000000 2.850200 0.000000 
#    z -0.042330 0.000000 3.535040 
# 
# 
# High freq. dielectric constant tensor:
#      x y z
#    x 1.704380 0.000000 -0.006670 
#    y 0.000000 1.653520 0.000000 
#    z -0.006670 0.000000 1.708070 
# 
# From -- ./inp_files/56528.got.cif
#   From: 2010.06.25/outbox.cif.g09.slc.cpg/sg10_29_cif.got.tgz:56528.got - 2010.06.27 22:07:45.
