data_PCOD8062997
_publ_section_title
;
Structure prediction by ZEFSAII (Michael W. Deem and Ramdas Pophale) SiO2 
 PCOD8062997
Probable space group: P 2/M
;
_chemical_formula_sum "Si O2"
_cell_formula_units_Z 28
_cell_length_a 8.503016
_cell_length_b 13.731588
_cell_length_c 14.263412
_cell_angle_alpha 90.000000
_cell_angle_beta 121.222274
_cell_angle_gamma 90.000000
_cell_volume 1424.183643
_symmetry_space_group_name_H-M "P 2/M"
_symmetry_group_IT_number 10
_symmetry_cell_setting 'monoclinic'
loop_
_space_group_symop_operation_xyz
x,y,z
-x,y,-z
-x,-y,-z
x,-y,z
loop_
_atom_site_type_symbol
_atom_site_label
_atom_site_fract_x
_atom_site_fract_y
_atom_site_fract_z
Si Si1 0.817020 0.607284 0.656762
Si Si2 0.708455 0.109639 0.035867
Si Si3 0.782475 0.691588 0.454309
Si Si4 0.192302 0.765269 0.102154
Si Si5 0.549033 0.389171 0.743281
Si Si6 0.975894 0.198570 0.759008
Si Si7 0.155506 0.893923 0.470114
O O1 0.906186 0.500000 0.695832
O O2 0.742206 0.620294 0.528551
O O3 0.643426 0.618641 0.671095
O O4 0.972372 0.688521 0.725182
O O5 0.727190 0.149404 0.936706
O O6 0.786154 0.000000 0.061409
O O7 0.500000 0.113525 0.000000
O O8 0.818761 0.174251 0.144903
O O9 0.658726 0.653495 0.329855
O O10 0.716983 0.802465 0.460178
O O11 0.000000 0.690026 0.500000
O O12 0.333836 0.674785 0.147159
O O13 0.163424 0.812823 0.196071
O O14 0.000000 0.725675 0.000000
O O15 0.541528 0.500000 0.777996
O O16 0.924006 0.127365 0.658032
O O17 0.000000 0.902231 0.500000
O O18 0.257737 0.000000 0.497904
#
# Coordination Sequence:
#
# PCOD8062997 Si02
#       7
#     4   4   4   4   4   4   4
#     4   9  18  33  53  75 101 138 179 216 259 314
#     4  10  21  36  55  79 106 139 179 222 272 326
#     4  10  20  32  49  77 110 141 178 219 258 315
#     4   9  20  37  57  81 105 135 182 233 272 310
#     4  10  20  35  55  76 104 142 177 215 267 320
#     4   9  18  34  56  79 105 138 180 226 266 312
#     4   9  18  32  51  76 107 143 177 211 258 314
#
# _framework density 19.660388000000001
#
# number of rings (size 3 to 8) (size 9 to 14) (size 15 to 20)
#    0.000    2.571    0.000    1.286    0.000    9.143 
#    0.000    4.286    0.000   12.857    0.000    0.000 
#    0.000    0.000    0.000    0.000    0.000    0.000 
#
# Total GULP energy -347021.028596 kJ/mol
# GULP energy per Si atom -12393.608164 kJ/mol
# Density = 1.961564 g / cm^3
# Si number density = 19.660388 Si / 1000 Ang^3
#
#
#
# Elastic Constant Matrix: (Units=GPa)
#
#
# Indices 1 2 3 4 5 6 
#
# 1 46.9945 40.1621 36.1541 0.0000 4.2651 0.0000
# 2 40.1621 151.9539 52.8376 0.0000 15.0657 0.0000
# 3 36.1541 52.8376 93.1704 0.0000 4.2937 0.0000
# 4 0.0000 0.0000 0.0000 26.2091 0.0000 -1.4533
# 5 4.2651 15.0657 4.2937 0.0000 32.0838 0.0000
# 6 0.0000 0.0000 0.0000 -1.4533 0.0000 24.5986
#
#
#
# Elastic Compliance Matrix: (Units=1/GPa)
#
#
# Indices 1 2 3 4 5 6 
#
# 1 0.033572 -0.005346 -0.009967 0.000000 -0.000619 0.000000
# 2 -0.005346 0.009399 -0.003104 0.000000 -0.003288 0.000000
# 3 -0.009967 -0.003104 0.016334 0.000000 0.000597 0.000000
# 4 0.000000 0.000000 0.000000 0.038280 0.000000 0.002262
# 5 -0.000619 -0.003288 0.000597 0.000000 0.032715 0.000000
# 6 0.000000 0.000000 0.000000 0.002262 0.000000 0.040786
#
#
# Mechanical properties :
#
#
# Convention : Reuss Voigt Hill
#
# Bulk Modulus (GPa) = 44.50396 61.15850 52.83123
# Shear Modulus (GPa) = 23.21141 27.44262 25.32701
#
# Velocity S-wave (km/s) = 3.43974 3.74014 3.59308
# Velocity P-wave (km/s) = 6.20171 7.05879 6.64409
#
# Compressibility (1/GPa) = 0.02246991
#
# Stress axis : x y z
#
# Youngs Moduli (GPa) = 29.78668 106.39006 61.22315
#
# Poissons Ratio (x) = 0.56878 0.61021
# Poissons Ratio (y) = 0.15924 0.19006
# Poissons Ratio (z) = 0.29689 0.33028
#
# Static dielectric constant tensor:
#      x y z
#    x 3.417410 0.000000 -0.186400 
#    y 0.000000 4.029830 0.000000 
#    z -0.186400 0.000000 3.516410 
# 
# 
# High freq. dielectric constant tensor:
#      x y z
#    x 1.747820 0.000000 -0.014050 
#    y 0.000000 1.777460 0.000000 
#    z -0.014050 0.000000 1.753340 
# 
# From -- ./inp_files/51397.got.cif
#   From: 2010.06.25/outbox.cif.g09.slc.cpg/sg10_26_cif.got.tgz:51397.got - 2010.06.27 22:07:45.
