data_PCOD8062203
_publ_section_title
;
Structure prediction by ZEFSAII (Michael W. Deem and Ramdas Pophale) SiO2 
 PCOD8062203
Probable space group: P 2/M
;
_chemical_formula_sum "Si O2"
_cell_formula_units_Z 32
_cell_length_a 8.673813
_cell_length_b 28.427899
_cell_length_c 14.832111
_cell_angle_alpha 90.000000
_cell_angle_beta 28.693623
_cell_angle_gamma 90.000000
_cell_volume 1755.953016
_symmetry_space_group_name_H-M "P 2/M"
_symmetry_group_IT_number 10
_symmetry_cell_setting 'monoclinic'
loop_
_space_group_symop_operation_xyz
x,y,z
-x,y,-z
-x,-y,-z
x,-y,z
loop_
_atom_site_type_symbol
_atom_site_label
_atom_site_fract_x
_atom_site_fract_y
_atom_site_fract_z
Si Si1 0.181881 0.802491 0.500000
Si Si2 0.681976 0.447986 0.500000
Si Si3 0.375841 0.877944 0.794386
Si Si4 0.259000 0.122056 0.205614
Si Si5 0.123853 0.627930 0.206006
Si Si6 0.758130 0.627930 0.206006
Si Si7 0.183705 0.696853 0.500000
Si Si8 0.680596 0.054703 0.500000
O O1 0.513477 0.830859 0.315356
O O2 0.250013 0.749972 0.500000
O O3 0.000000 0.798860 0.500000
O O4 0.959546 0.830859 0.684644
O O5 0.500000 0.452977 0.500000
O O6 0.758689 0.500000 0.500000
O O7 0.456611 0.419489 0.685065
O O8 0.011807 0.419489 0.314935
O O9 0.546493 0.881965 0.802338
O O10 0.472395 0.923518 0.687569
O O11 0.000000 0.875462 0.000000
O O12 0.035101 0.076482 0.312431
O O13 0.500000 0.124538 0.000000
O O14 0.948589 0.633356 0.200941
O O15 0.034353 0.672704 0.312183
O O16 0.500000 0.624935 0.000000
O O17 0.529097 0.672704 0.312183
O O18 0.000000 0.624935 0.000000
O O19 0.000000 0.694561 0.500000
O O20 0.500000 0.064764 0.500000
O O21 0.719959 0.000000 0.500000
#
# Coordination Sequence:
#
# PCOD8062203 Si02
#       8
#     4   4   4   4   4   4   4   4
#     4   8  18  35  54  77 104 135 171 214 258 304
#     4   8  16  32  52  73 100 133 169 212 258 304
#     4  10  20  36  56  79 107 137 172 212 257 306
#     4  10  20  36  56  79 107 137 172 212 257 306
#     4  10  20  34  52  76 105 136 172 211 255 306
#     4  10  20  34  52  76 105 136 172 211 255 306
#     4  10  19  35  56  77 104 135 171 214 260 306
#     4  10  21  37  56  79 106 137 175 216 258 304
#
# _framework density 18.223721999999999
#
# number of rings (size 3 to 8) (size 9 to 14) (size 15 to 20)
#    0.000    2.500    0.000    3.750    0.000    3.000 
#    0.000   10.000    0.000   12.750    0.000    0.000 
#    0.000    0.000    0.000    0.000    0.000    0.000 
#
# Total GULP energy -396773.639165 kJ/mol
# GULP energy per Si atom -12399.176224 kJ/mol
# Density = 1.818224 g / cm^3
# Si number density = 18.223722 Si / 1000 Ang^3
#
#
#
# Elastic Constant Matrix: (Units=GPa)
#
#
# Indices 1 2 3 4 5 6 
#
# 1 82.2081 57.7306 55.1761 0.0000 -0.7594 0.0000
# 2 57.7306 179.1879 97.3402 0.0000 -1.3573 0.0000
# 3 55.1761 97.3402 196.5673 0.0000 -3.1591 0.0000
# 4 0.0000 0.0000 0.0000 12.9387 0.0000 0.3667
# 5 -0.7594 -1.3573 -3.1591 0.0000 24.6812 0.0000
# 6 0.0000 0.0000 0.0000 0.3667 0.0000 23.6404
#
#
#
# Elastic Compliance Matrix: (Units=1/GPa)
#
#
# Indices 1 2 3 4 5 6 
#
# 1 0.016761 -0.003891 -0.002779 0.000000 -0.000054 0.000000
# 2 -0.003891 0.008538 -0.003137 0.000000 -0.000052 0.000000
# 3 -0.002779 -0.003137 0.007432 0.000000 0.000693 0.000000
# 4 0.000000 0.000000 0.000000 0.077322 0.000000 -0.001199
# 5 -0.000054 -0.000052 0.000693 0.000000 0.040601 0.000000
# 6 0.000000 0.000000 0.000000 -0.001199 0.000000 0.042319
#
#
# Mechanical properties :
#
#
# Convention : Reuss Voigt Hill
#
# Bulk Modulus (GPa) = 76.23148 97.60632 86.91890
# Shear Modulus (GPa) = 23.04593 28.76648 25.90620
#
# Velocity S-wave (km/s) = 3.56000 3.97737 3.77445
# Velocity P-wave (km/s) = 7.66941 8.64690 8.17278
#
# Compressibility (1/GPa) = 0.01311794
#
# Stress axis : x y z
#
# Youngs Moduli (GPa) = 59.66111 117.12611 134.55818
#
# Poissons Ratio (x) = 0.45573 0.37393
# Poissons Ratio (y) = 0.23214 0.42205
# Poissons Ratio (z) = 0.16579 0.36737
#
# Static dielectric constant tensor:
#      x y z
#    x 3.296440 0.000000 -0.003360 
#    y 0.000000 3.717560 0.000000 
#    z -0.003360 0.000000 3.394600 
# 
# 
# High freq. dielectric constant tensor:
#      x y z
#    x 1.701860 0.000000 -0.000350 
#    y 0.000000 1.711870 0.000000 
#    z -0.000350 0.000000 1.712100 
# 
# From -- ./inp_files/62738.got.cif
#   From: 2010.06.25/outbox.cif.g09.slc.cpg/sg10_32_cif.got.tgz:62738.got - 2010.06.27 22:07:45.
