data_PCOD8062518
_publ_section_title
;
Structure prediction by ZEFSAII (Michael W. Deem and Ramdas Pophale) SiO2 
 PCOD8062518
Probable space group: P 2/M
;
_chemical_formula_sum "Si O2"
_cell_formula_units_Z 30
_cell_length_a 18.282444
_cell_length_b 13.539513
_cell_length_c 6.523064
_cell_angle_alpha 90.000000
_cell_angle_beta 70.190448
_cell_angle_gamma 90.000000
_cell_volume 1519.138791
_symmetry_space_group_name_H-M "P 2/M"
_symmetry_group_IT_number 10
_symmetry_cell_setting 'monoclinic'
loop_
_space_group_symop_operation_xyz
x,y,z
-x,y,-z
-x,-y,-z
x,-y,z
loop_
_atom_site_type_symbol
_atom_site_label
_atom_site_fract_x
_atom_site_fract_y
_atom_site_fract_z
Si Si1 0.415692 0.711346 0.114596
Si Si2 0.768075 0.888008 0.627620
Si Si3 0.000000 0.706555 0.000000
Si Si4 0.109535 0.386640 0.228630
Si Si5 0.667737 0.234704 0.420509
Si Si6 0.287687 0.386256 0.956171
Si Si7 0.072429 0.211536 0.547611
Si Si8 0.362337 0.887940 0.932268
O O1 0.401221 0.723514 0.370856
O O2 0.420318 0.820257 0.008713
O O3 0.500000 0.660560 0.000000
O O4 0.347356 0.647390 0.076361
O O5 0.734937 0.810962 0.496005
O O6 0.857814 0.862286 0.567889
O O7 0.724275 0.876571 0.887695
O O8 0.758936 0.000000 0.555189
O O9 0.053257 0.776841 0.806243
O O10 0.941095 0.640114 0.923230
O O11 0.094336 0.500000 0.300901
O O12 0.085525 0.321532 0.445722
O O13 0.200370 0.366314 0.108891
O O14 0.700043 0.326693 0.263907
O O15 0.636889 0.148260 0.302383
O O16 0.302757 0.500000 0.891638
O O17 0.000000 0.161771 0.500000
O O18 0.392317 0.000000 0.912377
#
# Coordination Sequence:
#
# PCOD8062518 Si02
#       8
#     4   4   2   4   4   4   4   4
#     4  10  22  38  55  79 114 150 182 221 271 326
#     4  10  20  36  58  80 106 143 183 226 276 326
#     4  10  21  34  53  78 110 144 177 220 269 320
#     4  10  20  35  55  79 107 139 177 222 272 323
#     4  10  19  36  59  81 108 141 181 225 273 323
#     4  10  22  38  58  84 110 141 184 229 272 323
#     4  10  21  35  50  75 110 143 178 221 267 319
#     4   9  19  35  57  84 108 136 180 230 276 322
#
# _framework density 19.748031000000001
#
# number of rings (size 3 to 8) (size 9 to 14) (size 15 to 20)
#    0.000    2.133    0.000    3.800    0.000    8.000 
#    0.000    5.000    0.000    0.000    0.000    0.000 
#    0.000    0.000    0.000    0.000    0.000    0.000 
#
# Total GULP energy -371994.150159 kJ/mol
# GULP energy per Si atom -12399.805005 kJ/mol
# Density = 1.970308 g / cm^3
# Si number density = 19.748031 Si / 1000 Ang^3
#
#
#
# Elastic Constant Matrix: (Units=GPa)
#
#
# Indices 1 2 3 4 5 6 
#
# 1 97.4131 19.0760 32.6140 0.0000 -11.8292 0.0000
# 2 19.0760 76.2677 26.0771 0.0000 2.1759 0.0000
# 3 32.6140 26.0771 119.5267 0.0000 5.2073 0.0000
# 4 0.0000 0.0000 0.0000 19.9890 0.0000 0.2024
# 5 -11.8292 2.1759 5.2073 0.0000 23.8443 0.0000
# 6 0.0000 0.0000 0.0000 0.2024 0.0000 17.7121
#
#
#
# Elastic Compliance Matrix: (Units=1/GPa)
#
#
# Indices 1 2 3 4 5 6 
#
# 1 0.012682 -0.002256 -0.003283 0.000000 0.007214 0.000000
# 2 -0.002256 0.014579 -0.002482 0.000000 -0.001907 0.000000
# 3 -0.003283 -0.002482 0.009959 0.000000 -0.003577 0.000000
# 4 0.000000 0.000000 0.000000 0.050033 0.000000 -0.000572
# 5 0.007214 -0.001907 -0.003577 0.000000 0.046473 0.000000
# 6 0.000000 0.000000 0.000000 -0.000572 0.000000 0.056465
#
#
# Mechanical properties :
#
#
# Convention : Reuss Voigt Hill
#
# Bulk Modulus (GPa) = 47.21440 49.86017 48.53728
# Shear Modulus (GPa) = 23.44191 26.67176 25.05684
#
# Velocity S-wave (km/s) = 3.44910 3.67904 3.56592
# Velocity P-wave (km/s) = 6.31047 6.58408 6.44873
#
# Compressibility (1/GPa) = 0.02117998
#
# Stress axis : x y z
#
# Youngs Moduli (GPa) = 78.84946 68.59197 100.40738
#
# Poissons Ratio (x) = 0.15471 0.32961
# Poissons Ratio (y) = 0.17785 0.24923
# Poissons Ratio (z) = 0.25884 0.17026
#
# Static dielectric constant tensor:
#      x y z
#    x 3.574120 0.000000 -0.082050 
#    y 0.000000 3.548060 0.000000 
#    z -0.082050 0.000000 3.647110 
# 
# 
# High freq. dielectric constant tensor:
#      x y z
#    x 1.768090 0.000000 -0.005290 
#    y 0.000000 1.763360 0.000000 
#    z -0.005290 0.000000 1.775170 
# 
# From -- ./inp_files/11405.got.cif
#   From: 2010.06.25/outbox.cif.g09.slc.cpg/sg10_6_cif.got.tgz:11405.got - 2010.06.27 22:07:45.
