data_PCOD8062067
_publ_section_title
;
Structure prediction by ZEFSAII (Michael W. Deem and Ramdas Pophale) SiO2 
 PCOD8062067
Probable space group: P 2/M
;
_chemical_formula_sum "Si O2"
_cell_formula_units_Z 32
_cell_length_a 25.467729
_cell_length_b 9.066734
_cell_length_c 19.795644
_cell_angle_alpha 90.000000
_cell_angle_beta 158.248119
_cell_angle_gamma 90.000000
_cell_volume 1693.955509
_symmetry_space_group_name_H-M "P 2/M"
_symmetry_group_IT_number 10
_symmetry_cell_setting 'monoclinic'
loop_
_space_group_symop_operation_xyz
x,y,z
-x,y,-z
-x,-y,-z
x,-y,z
loop_
_atom_site_type_symbol
_atom_site_label
_atom_site_fract_x
_atom_site_fract_y
_atom_site_fract_z
Si Si1 0.582138 0.325630 0.393028
Si Si2 0.823647 0.668558 0.475417
Si Si3 0.040531 0.675181 0.622314
Si Si4 0.882655 0.331880 0.697462
Si Si5 0.466522 0.170261 0.882574
Si Si6 0.086176 0.826048 0.037062
Si Si7 0.619043 0.673593 0.588701
Si Si8 0.357644 0.675373 0.017757
O O1 0.579091 0.500000 0.384650
O O2 0.729259 0.268324 0.536625
O O3 0.568602 0.272624 0.454266
O O4 0.449307 0.263946 0.190923
O O5 0.777839 0.500000 0.404876
O O6 0.903681 0.675847 0.642398
O O7 0.688161 0.770760 0.318790
O O8 0.927321 0.732609 0.541696
O O9 0.038104 0.500000 0.617603
O O10 0.000000 0.738962 0.500000
O O11 0.195752 0.730015 0.830995
O O12 0.899731 0.500000 0.743815
O O13 0.004712 0.231183 0.874133
O O14 0.582966 0.259683 0.980450
O O15 0.474098 0.000000 0.871132
O O16 0.500000 0.197592 0.000000
O O17 0.239983 0.755873 0.221575
O O18 0.101980 0.000000 0.052043
O O19 0.000000 0.775060 0.000000
O O20 0.500000 0.718115 0.500000
O O21 0.649561 0.500000 0.625450
O O22 0.366875 0.500000 0.023672
#
# Coordination Sequence:
#
# PCOD8062067 Si02
#       8
#     4   4   4   4   4   4   4   4
#     4   9  17  32  55  84 112 139 178 231 282 324
#     4  10  20  36  58  85 110 140 184 228 276 329
#     4   9  18  32  54  85 116 143 176 225 278 327
#     4  10  19  34  58  85 112 142 183 234 280 325
#     4  11  23  36  52  79 112 145 184 229 274 325
#     4  11  23  37  56  83 113 151 191 225 276 335
#     4  10  21  37  59  85 113 147 188 232 281 331
#     4  10  19  35  58  81 108 145 186 228 277 332
#
# _framework density 18.890698
#
# number of rings (size 3 to 8) (size 9 to 14) (size 15 to 20)
#    0.000    2.000    2.500    1.500    0.000    4.250 
#    0.000    5.000    0.000    3.750    0.000    0.000 
#    0.000    0.000    0.000    0.000    0.000    0.000 
#
# Total GULP energy -396863.625425 kJ/mol
# GULP energy per Si atom -12401.988295 kJ/mol
# Density = 1.884770 g / cm^3
# Si number density = 18.890698 Si / 1000 Ang^3
#
#
#
# Elastic Constant Matrix: (Units=GPa)
#
#
# Indices 1 2 3 4 5 6 
#
# 1 112.9506 23.9429 28.6204 0.0000 2.6262 0.0000
# 2 23.9429 28.9547 31.1173 0.0000 1.7100 0.0000
# 3 28.6204 31.1173 103.4283 0.0000 -4.2113 0.0000
# 4 0.0000 0.0000 0.0000 10.2609 0.0000 -3.4597
# 5 2.6262 1.7100 -4.2113 0.0000 32.7720 0.0000
# 6 0.0000 0.0000 0.0000 -3.4597 0.0000 10.7195
#
#
#
# Elastic Compliance Matrix: (Units=1/GPa)
#
#
# Indices 1 2 3 4 5 6 
#
# 1 0.010757 -0.008343 -0.000486 0.000000 -0.000489 0.000000
# 2 -0.008343 0.058229 -0.015387 0.000000 -0.004347 0.000000
# 3 -0.000486 -0.015387 0.014543 0.000000 0.002711 0.000000
# 4 0.000000 0.000000 0.000000 0.109358 0.000000 0.035295
# 5 -0.000489 -0.004347 0.002711 0.000000 0.031128 0.000000
# 6 0.000000 0.000000 0.000000 0.035295 0.000000 0.104679
#
#
# Mechanical properties :
#
#
# Convention : Reuss Voigt Hill
#
# Bulk Modulus (GPa) = 28.49391 45.85498 37.17445
# Shear Modulus (GPa) = 12.85925 21.52735 17.19330
#
# Velocity S-wave (km/s) = 2.61189 3.37942 3.02014
# Velocity P-wave (km/s) = 4.92060 6.28918 5.64651
#
# Compressibility (1/GPa) = 0.03509522
#
# Stress axis : x y z
#
# Youngs Moduli (GPa) = 92.96634 17.17365 68.76267
#
# Poissons Ratio (x) = 0.14328 0.03344
# Poissons Ratio (y) = 0.77563 1.05805
# Poissons Ratio (z) = 0.04521 0.26425
#
# Static dielectric constant tensor:
#      x y z
#    x 3.808860 0.000000 -0.099330 
#    y 0.000000 3.157960 0.000000 
#    z -0.099330 0.000000 3.597340 
# 
# 
# High freq. dielectric constant tensor:
#      x y z
#    x 1.742320 0.000000 -0.005820 
#    y 0.000000 1.698680 0.000000 
#    z -0.005820 0.000000 1.743250 
# 
# From -- ./inp_files/86904.got.cif
#   From: 2010.06.25/outbox.cif.g09.slc.cpg/sg10_44_cif.got.tgz:86904.got - 2010.06.27 22:07:45.
