data_PCOD8062008
_publ_section_title
;
Structure prediction by ZEFSAII (Michael W. Deem and Ramdas Pophale) SiO2 
 PCOD8062008
Probable space group: P 2/M
;
_chemical_formula_sum "Si O2"
_cell_formula_units_Z 32
_cell_length_a 24.863781
_cell_length_b 8.653776
_cell_length_c 14.561440
_cell_angle_alpha 90.000000
_cell_angle_beta 30.166214
_cell_angle_gamma 90.000000
_cell_volume 1574.425235
_symmetry_space_group_name_H-M "P 2/M"
_symmetry_group_IT_number 10
_symmetry_cell_setting 'monoclinic'
loop_
_space_group_symop_operation_xyz
x,y,z
-x,y,-z
-x,-y,-z
x,-y,z
loop_
_atom_site_type_symbol
_atom_site_label
_atom_site_fract_x
_atom_site_fract_y
_atom_site_fract_z
Si Si1 0.490905 0.680389 0.906129
Si Si2 0.735794 0.825605 0.807419
Si Si3 0.108422 0.815459 0.093753
Si Si4 0.487159 0.816789 0.417536
Si Si5 0.892006 0.816121 0.113278
Si Si6 0.663246 0.816261 0.516756
Si Si7 0.289027 0.827154 0.951850
Si Si8 0.954249 0.318993 0.468423
O O1 0.481270 0.500000 0.900295
O O2 0.598442 0.742984 0.697585
O O3 0.500000 0.716812 0.000000
O O4 0.382987 0.761537 0.031123
O O5 0.829812 0.718717 0.629488
O O6 0.741085 0.000000 0.759593
O O7 0.767900 0.826565 0.866776
O O8 0.009474 0.759315 0.299771
O O9 0.107639 0.000000 0.096221
O O10 0.108341 0.751124 0.990149
O O11 0.214692 0.745252 0.985754
O O12 0.500000 0.745958 0.500000
O O13 0.387655 0.756288 0.504510
O O14 0.593688 0.753418 0.209680
O O15 0.475587 0.000000 0.438632
O O16 0.787785 0.762970 0.326626
O O17 0.893150 0.000000 0.108506
O O18 0.000000 0.750790 0.000000
O O19 0.653559 0.000000 0.542031
O O20 0.308490 0.000000 0.885996
O O21 0.972855 0.500000 0.436482
O O22 0.000000 0.257755 0.500000
#
# Coordination Sequence:
#
# PCOD8062008 Si02
#       8
#     4   4   4   4   4   4   4   4
#     4  11  25  43  61  85 121 160 197 242 297 358
#     4  11  21  37  61  86 113 150 199 251 297 350
#     4  10  19  34  57  84 116 156 201 248 295 349
#     4   9  15  25  47  81 113 141 180 234 293 345
#     4   9  19  35  57  88 121 150 190 248 299 337
#     4  10  19  35  60  87 115 151 196 242 288 345
#     4   9  16  27  48  80 111 140 182 237 289 337
#     4  11  23  37  55  84 124 166 202 243 299 360
#
# _framework density 20.324877999999998
#
# number of rings (size 3 to 8) (size 9 to 14) (size 15 to 20)
#    0.000    2.000    2.500    1.875    0.000    5.500 
#    0.000    1.875    0.000    1.125    0.000    0.000 
#    0.000    0.000    0.000    0.000    0.000    0.000 
#
# Total GULP energy -396447.744790 kJ/mol
# GULP energy per Si atom -12388.992025 kJ/mol
# Density = 2.027862 g / cm^3
# Si number density = 20.324878 Si / 1000 Ang^3
#
#
#
# Elastic Constant Matrix: (Units=GPa)
#
#
# Indices 1 2 3 4 5 6 
#
# 1 115.7552 25.5667 58.8445 0.0000 -6.8151 0.0000
# 2 25.5667 40.2804 19.8140 0.0000 1.4961 0.0000
# 3 58.8445 19.8140 145.1698 0.0000 -12.6733 0.0000
# 4 0.0000 0.0000 0.0000 9.8059 0.0000 -0.7687
# 5 -6.8151 1.4961 -12.6733 0.0000 39.3313 0.0000
# 6 0.0000 0.0000 0.0000 -0.7687 0.0000 16.8721
#
#
#
# Elastic Compliance Matrix: (Units=1/GPa)
#
#
# Indices 1 2 3 4 5 6 
#
# 1 0.011983 -0.005678 -0.003994 0.000000 0.001005 0.000000
# 2 -0.005678 0.029498 -0.001964 0.000000 -0.002739 0.000000
# 3 -0.003994 -0.001964 0.008974 0.000000 0.002274 0.000000
# 4 0.000000 0.000000 0.000000 0.102344 0.000000 0.004663
# 5 0.001005 -0.002739 0.002274 0.000000 0.026436 0.000000
# 6 0.000000 0.000000 0.000000 0.004663 0.000000 0.059482
#
#
# Mechanical properties :
#
#
# Convention : Reuss Voigt Hill
#
# Bulk Modulus (GPa) = 36.78869 56.62842 46.70855
# Shear Modulus (GPa) = 18.44678 26.33389 22.39034
#
# Velocity S-wave (km/s) = 3.01590 3.60342 3.32267
# Velocity P-wave (km/s) = 5.50156 6.72569 6.14419
#
# Compressibility (1/GPa) = 0.02718227
#
# Stress axis : x y z
#
# Youngs Moduli (GPa) = 83.45274 33.90109 111.43079
#
# Poissons Ratio (x) = 0.19250 0.44511
# Poissons Ratio (y) = 0.47386 0.21880
# Poissons Ratio (z) = 0.33335 0.06657
#
# Static dielectric constant tensor:
#      x y z
#    x 3.857550 0.000000 -0.079380 
#    y 0.000000 3.211650 0.000000 
#    z -0.079380 0.000000 3.911150 
# 
# 
# High freq. dielectric constant tensor:
#      x y z
#    x 1.793870 0.000000 -0.004710 
#    y 0.000000 1.742540 0.000000 
#    z -0.004710 0.000000 1.811390 
# 
# From -- ./inp_files/71463.got.cif
#   From: 2010.06.25/outbox.cif.g09.slc.cpg/sg10_36_cif.got.tgz:71463.got - 2010.06.27 22:07:45.
