data_PCOD8062841
_publ_section_title
;
Structure prediction by ZEFSAII (Michael W. Deem and Ramdas Pophale) SiO2 
 PCOD8062841
Probable space group: P 2/M
;
_chemical_formula_sum "Si O2"
_cell_formula_units_Z 24
_cell_length_a 24.328213
_cell_length_b 9.302788
_cell_length_c 17.928011
_cell_angle_alpha 90.000000
_cell_angle_beta 19.323696
_cell_angle_gamma 90.000000
_cell_volume 1342.636264
_symmetry_space_group_name_H-M "P 2/M"
_symmetry_group_IT_number 10
_symmetry_cell_setting 'monoclinic'
loop_
_space_group_symop_operation_xyz
x,y,z
-x,y,-z
-x,-y,-z
x,-y,z
loop_
_atom_site_type_symbol
_atom_site_label
_atom_site_fract_x
_atom_site_fract_y
_atom_site_fract_z
Si Si1 0.080391 0.170570 0.178220
Si Si2 0.237146 0.334587 0.365053
Si Si3 0.559018 0.334566 0.042865
Si Si4 0.597829 0.170534 0.143234
Si Si5 0.061109 0.829159 0.035968
Si Si6 0.255274 0.829184 0.647334
O O1 0.093755 0.231592 0.076752
O O2 0.921481 0.234805 0.422548
O O3 0.061795 0.000000 0.202411
O O4 0.244143 0.221274 0.011771
O O5 0.185509 0.500000 0.441417
O O6 0.376207 0.291901 0.247749
O O7 0.307205 0.307901 0.192973
O O8 0.561264 0.500000 0.065306
O O9 0.610527 0.234978 0.044991
O O10 0.434656 0.231737 0.394349
O O11 0.590485 0.000000 0.144941
O O12 0.881804 0.774461 0.236581
O O13 0.062625 0.000000 0.035572
O O14 0.204695 0.774669 0.795109
O O15 0.259144 0.000000 0.642321
#
# Coordination Sequence:
#
# PCOD8062841 Si02
#       6
#     4   4   4   4   4   4
#     4  10  20  31  46  73 105 132 158 192 237 287
#     4   9  19  36  55  72  91 121 163 205 243 286
#     4   9  19  36  55  72  91 121 163 205 243 286
#     4  10  20  31  46  73 105 132 158 192 237 287
#     4   8  14  26  45  68  94 126 163 199 234 275
#     4   8  14  26  45  68  94 126 163 199 234 275
#
# _framework density 17.875281999999999
#
# number of rings (size 3 to 8) (size 9 to 14) (size 15 to 20)
#    0.000    3.000    0.000    3.000    0.000    4.667 
#    0.000    8.333    0.000    1.000    0.000    7.000 
#    0.000    0.000    0.000    0.000    0.000    0.000 
#
# Total GULP energy -297533.350204 kJ/mol
# GULP energy per Si atom -12397.222925 kJ/mol
# Density = 1.783460 g / cm^3
# Si number density = 17.875282 Si / 1000 Ang^3
#
#
#
# Elastic Constant Matrix: (Units=GPa)
#
#
# Indices 1 2 3 4 5 6 
#
# 1 131.3212 31.2731 90.8985 0.0000 -6.5977 0.0000
# 2 31.2731 19.2379 30.2803 0.0000 -1.8882 0.0000
# 3 90.8985 30.2803 124.4724 0.0000 -5.1977 0.0000
# 4 0.0000 0.0000 0.0000 9.4101 0.0000 -10.8035
# 5 -6.5977 -1.8882 -5.1977 0.0000 21.7844 0.0000
# 6 0.0000 0.0000 0.0000 -10.8035 0.0000 13.2777
#
#
#
# Elastic Compliance Matrix: (Units=1/GPa)
#
#
# Indices 1 2 3 4 5 6 
#
# 1 0.017354 -0.013293 -0.009362 0.000000 0.001870 0.000000
# 2 -0.013293 0.094544 -0.013250 0.000000 0.001007 0.000000
# 3 -0.009362 -0.013250 0.018108 0.000000 0.000337 0.000000
# 4 0.000000 0.000000 0.000000 1.613530 0.000000 1.312865
# 5 0.001870 0.001007 0.000337 0.000000 0.046638 0.000000
# 6 0.000000 0.000000 0.000000 1.312865 0.000000 1.143541
#
#
# Mechanical properties :
#
#
# Convention : Reuss Voigt Hill
#
# Bulk Modulus (GPa) = 17.18296 64.43727 40.81011
# Shear Modulus (GPa) = 1.65293 17.06642 9.35968
#
# Velocity S-wave (km/s) = 0.96266 3.09325 2.29074
# Velocity P-wave (km/s) = 3.29684 6.99172 5.46595
#
# Compressibility (1/GPa) = 0.05819720
#
# Stress axis : x y z
#
# Youngs Moduli (GPa) = 57.62245 10.57705 55.22455
#
# Poissons Ratio (x) = 0.14060 0.51699
# Poissons Ratio (y) = 0.76595 0.73175
# Poissons Ratio (z) = 0.53944 0.14015
#
# Static dielectric constant tensor:
#      x y z
#    x 3.459580 0.000000 0.048300 
#    y 0.000000 2.856920 0.000000 
#    z 0.048300 0.000000 3.475010 
# 
# 
# High freq. dielectric constant tensor:
#      x y z
#    x 1.698220 0.000000 0.006010 
#    y 0.000000 1.646720 0.000000 
#    z 0.006010 0.000000 1.700200 
# 
# From -- ./inp_files/24040.got.cif
#   From: 2010.06.25/outbox.cif.g09.slc.cpg/sg10_13_cif.got.tgz:24040.got - 2010.06.27 22:07:45.
