data_PCOD8062416
_publ_section_title
;
Structure prediction by ZEFSAII (Michael W. Deem and Ramdas Pophale) SiO2 
 PCOD8062416
Probable space group: P 2/M
;
_chemical_formula_sum "Si O2"
_cell_formula_units_Z 32
_cell_length_a 15.092669
_cell_length_b 14.243575
_cell_length_c 22.094348
_cell_angle_alpha 90.000000
_cell_angle_beta 19.184116
_cell_angle_gamma 90.000000
_cell_volume 1560.774577
_symmetry_space_group_name_H-M "P 2/M"
_symmetry_group_IT_number 10
_symmetry_cell_setting 'monoclinic'
loop_
_space_group_symop_operation_xyz
x,y,z
-x,y,-z
-x,-y,-z
x,-y,z
loop_
_atom_site_type_symbol
_atom_site_label
_atom_site_fract_x
_atom_site_fract_y
_atom_site_fract_z
Si Si1 0.137647 0.598629 0.350478
Si Si2 0.445625 0.168074 0.601298
Si Si3 0.267710 0.389935 0.993335
Si Si4 0.964159 0.783578 0.639217
Si Si5 0.491033 0.105169 0.701808
Si Si6 0.537336 0.105475 0.048016
Si Si7 0.084926 0.256179 0.011421
Si Si8 0.980069 0.752893 0.762715
O O1 0.130568 0.500000 0.315935
O O2 0.963835 0.684738 0.437600
O O3 0.000000 0.568744 0.500000
O O4 0.443166 0.629756 0.164406
O O5 0.500000 0.119258 0.500000
O O6 0.433541 0.098222 0.666409
O O7 0.699018 0.236346 0.446634
O O8 0.168221 0.227938 0.782056
O O9 0.203300 0.500000 0.026643
O O10 0.242763 0.338878 0.944098
O O11 0.065369 0.343252 0.171987
O O12 0.723618 0.837672 0.759289
O O13 0.216465 0.852273 0.476032
O O14 0.867591 0.749017 0.767293
O O15 0.481079 0.000000 0.734216
O O16 0.270907 0.165203 0.880020
O O17 0.545830 0.000000 0.069489
O O18 0.500000 0.099098 0.000000
O O19 0.807241 0.157593 0.899719
O O20 0.000000 0.295138 0.000000
#
# Coordination Sequence:
#
# PCOD8062416 Si02
#       8
#     4   4   4   4   4   4   4   4
#     4  10  21  36  58  86 118 160 203 244 296 358
#     4  10  20  37  62  84 119 159 199 250 303 357
#     4  11  22  38  62  89 121 157 201 255 309 360
#     4  10  19  35  61  85 121 161 194 242 297 361
#     4  10  22  39  61  90 121 160 204 249 301 360
#     4   9  17  31  53  81 115 154 190 227 281 350
#     4  10  22  41  64  85 118 160 202 255 307 358
#     4  10  20  35  56  87 122 154 196 247 299 354
#
# _framework density 20.50264
#
# number of rings (size 3 to 8) (size 9 to 14) (size 15 to 20)
#    0.000    2.000    2.500    1.125    0.000    6.250 
#    0.000    3.125    0.000    6.000    0.000    0.000 
#    0.000    0.000    0.000    0.000    0.000    0.000 
#
# Total GULP energy -396437.363063 kJ/mol
# GULP energy per Si atom -12388.667596 kJ/mol
# Density = 2.045597 g / cm^3
# Si number density = 20.502640 Si / 1000 Ang^3
#
#
#
# Elastic Constant Matrix: (Units=GPa)
#
#
# Indices 1 2 3 4 5 6 
#
# 1 44.4145 46.5037 18.4309 0.0000 4.4519 0.0000
# 2 46.5037 167.4920 37.0827 0.0000 -1.0117 0.0000
# 3 18.4309 37.0827 94.0090 0.0000 1.1099 0.0000
# 4 0.0000 0.0000 0.0000 20.8525 0.0000 2.3008
# 5 4.4519 -1.0117 1.1099 0.0000 25.9715 0.0000
# 6 0.0000 0.0000 0.0000 2.3008 0.0000 25.7428
#
#
#
# Elastic Compliance Matrix: (Units=1/GPa)
#
#
# Indices 1 2 3 4 5 6 
#
# 1 0.033429 -0.008636 -0.003077 0.000000 -0.005935 0.000000
# 2 -0.008636 0.008776 -0.001791 0.000000 0.001899 0.000000
# 3 -0.003077 -0.001791 0.011948 0.000000 -0.000053 0.000000
# 4 0.000000 0.000000 0.000000 0.048433 0.000000 -0.004329
# 5 -0.005935 0.001899 -0.000053 0.000000 0.039597 0.000000
# 6 0.000000 0.000000 0.000000 -0.004329 0.000000 0.039233
#
#
# Mechanical properties :
#
#
# Convention : Reuss Voigt Hill
#
# Bulk Modulus (GPa) = 36.84016 56.66111 46.75064
# Shear Modulus (GPa) = 22.99123 28.10658 25.54891
#
# Velocity S-wave (km/s) = 3.35233 3.70655 3.53388
# Velocity P-wave (km/s) = 5.74384 6.78336 6.28513
#
# Compressibility (1/GPa) = 0.02714429
#
# Stress axis : x y z
#
# Youngs Moduli (GPa) = 29.91378 113.94387 83.69769
#
# Poissons Ratio (x) = 0.98403 0.25756
# Poissons Ratio (y) = 0.25834 0.14991
# Poissons Ratio (z) = 0.09205 0.20409
#
# Static dielectric constant tensor:
#      x y z
#    x 3.690610 0.000000 0.027460 
#    y 0.000000 3.654280 0.000000 
#    z 0.027460 0.000000 3.401800 
# 
# 
# High freq. dielectric constant tensor:
#      x y z
#    x 1.789030 0.000000 -0.006930 
#    y 0.000000 1.792640 0.000000 
#    z -0.006930 0.000000 1.808150 
# 
# From -- ./inp_files/85382.got.cif
#   From: 2010.06.25/outbox.cif.g09.slc.cpg/sg10_43_cif.got.tgz:85382.got - 2010.06.27 22:07:45.
