data_PCOD8062999
_publ_section_title
;
Structure prediction by ZEFSAII (Michael W. Deem and Ramdas Pophale) SiO2 
 PCOD8062999
Probable space group: P 2/M
;
_chemical_formula_sum "Si O2"
_cell_formula_units_Z 30
_cell_length_a 5.371550
_cell_length_b 24.236247
_cell_length_c 11.830062
_cell_angle_alpha 90.000000
_cell_angle_beta 91.384179
_cell_angle_gamma 90.000000
_cell_volume 1539.661559
_symmetry_space_group_name_H-M "P 2/M"
_symmetry_group_IT_number 10
_symmetry_cell_setting 'monoclinic'
loop_
_space_group_symop_operation_xyz
x,y,z
-x,y,-z
-x,-y,-z
x,-y,z
loop_
_atom_site_type_symbol
_atom_site_label
_atom_site_fract_x
_atom_site_fract_y
_atom_site_fract_z
Si Si1 0.922558 0.255851 0.620805
Si Si2 0.486464 0.380394 0.867708
Si Si3 0.042355 0.131419 0.375740
Si Si4 0.291185 0.063594 0.194047
Si Si5 0.986976 0.437096 0.865343
Si Si6 0.445775 0.268209 0.751205
Si Si7 0.000000 0.884491 0.000000
Si Si8 0.666527 0.153119 0.177765
O O1 0.839288 0.191932 0.608160
O O2 0.665897 0.282873 0.663914
O O3 0.000000 0.280471 0.500000
O O4 0.162594 0.266161 0.702016
O O5 0.740125 0.405552 0.816450
O O6 0.461825 0.315524 0.844688
O O7 0.239039 0.410486 0.815763
O O8 0.500000 0.390816 0.000000
O O9 0.222997 0.088514 0.315582
O O10 0.000000 0.106046 0.500000
O O11 0.796700 0.140345 0.298725
O O12 0.515741 0.098400 0.146198
O O13 0.082012 0.072848 0.098082
O O14 0.362141 0.000000 0.209340
O O15 0.970201 0.500000 0.823909
O O16 0.000000 0.433197 0.000000
O O17 0.498654 0.208677 0.810379
O O18 0.171021 0.840572 0.934303
#
# Coordination Sequence:
#
# PCOD8062999 Si02
#       8
#     4   4   4   4   4   4   2   4
#     4  10  20  37  61  82 108 148 187 232 288 344
#     4  10  20  32  49  81 116 158 187 230 278 324
#     4   9  20  38  57  78 106 137 177 228 294 355
#     4  11  22  38  57  79 104 136 188 235 283 341
#     4   9  17  32  51  74 110 157 202 232 267 319
#     4  11  21  37  56  85 120 145 187 233 284 345
#     4  10  23  40  56  76 102 146 189 226 286 332
#     4  10  22  38  56  80 106 147 183 230 287 344
#
# _framework density 19.484801000000001
#
# number of rings (size 3 to 8) (size 9 to 14) (size 15 to 20)
#    0.000    2.000    1.333    2.200    0.000    6.667 
#    3.600    0.667    0.000    0.000    0.000    0.000 
#    0.000   37.333    0.000    0.000    0.000    0.000 
#
# Total GULP energy -371701.193690 kJ/mol
# GULP energy per Si atom -12390.039790 kJ/mol
# Density = 1.944045 g / cm^3
# Si number density = 19.484801 Si / 1000 Ang^3
#
#
#
# Elastic Constant Matrix: (Units=GPa)
#
#
# Indices 1 2 3 4 5 6 
#
# 1 124.6275 46.1895 26.0060 0.0000 -17.1430 0.0000
# 2 46.1895 108.9325 17.7715 0.0000 -4.7890 0.0000
# 3 26.0060 17.7715 80.3412 0.0000 -17.2412 0.0000
# 4 0.0000 0.0000 0.0000 12.5007 0.0000 -6.5245
# 5 -17.1430 -4.7890 -17.2412 0.0000 18.4852 0.0000
# 6 0.0000 0.0000 0.0000 -6.5245 0.0000 21.5599
#
#
#
# Elastic Compliance Matrix: (Units=1/GPa)
#
#
# Indices 1 2 3 4 5 6 
#
# 1 0.010850 -0.004102 -0.000842 0.000000 0.008214 0.000000
# 2 -0.004102 0.011080 -0.001655 0.000000 -0.002477 0.000000
# 3 -0.000842 -0.001655 0.016036 0.000000 0.013747 0.000000
# 4 0.000000 0.000000 0.000000 0.095000 0.000000 0.028749
# 5 0.008214 -0.002477 0.013747 0.000000 0.073895 0.000000
# 6 0.000000 0.000000 0.000000 0.028749 0.000000 0.055082
#
#
# Mechanical properties :
#
#
# Convention : Reuss Voigt Hill
#
# Bulk Modulus (GPa) = 40.37415 54.87057 47.62236
# Shear Modulus (GPa) = 17.64311 25.43812 21.54062
#
# Velocity S-wave (km/s) = 3.01238 3.61714 3.32853
# Velocity P-wave (km/s) = 5.73281 6.75772 6.26625
#
# Compressibility (1/GPa) = 0.02476832
#
# Stress axis : x y z
#
# Youngs Moduli (GPa) = 92.16795 90.24933 62.36150
#
# Poissons Ratio (x) = 0.37021 0.05250
# Poissons Ratio (y) = 0.37808 0.10319
# Poissons Ratio (z) = 0.07760 0.14934
#
# Static dielectric constant tensor:
#      x y z
#    x 3.790350 0.000000 -0.061070 
#    y 0.000000 3.399760 0.000000 
#    z -0.061070 0.000000 3.429750 
# 
# 
# High freq. dielectric constant tensor:
#      x y z
#    x 1.768960 0.000000 -0.007450 
#    y 0.000000 1.739410 0.000000 
#    z -0.007450 0.000000 1.734540 
# 
# From -- ./inp_files/39747.got.cif
#   From: 2010.06.25/outbox.cif.g09.slc.cpg/sg10_20_cif.got.tgz:39747.got - 2010.06.27 22:07:45.
