data_PCOD8062371
_publ_section_title
;
Structure prediction by ZEFSAII (Michael W. Deem and Ramdas Pophale) SiO2 
 PCOD8062371
Probable space group: P 2/M
;
_chemical_formula_sum "Si O2"
_cell_formula_units_Z 32
_cell_length_a 24.162937
_cell_length_b 8.812083
_cell_length_c 15.125122
_cell_angle_alpha 90.000000
_cell_angle_beta 151.086321
_cell_angle_gamma 90.000000
_cell_volume 1557.097916
_symmetry_space_group_name_H-M "P 2/M"
_symmetry_group_IT_number 10
_symmetry_cell_setting 'monoclinic'
loop_
_space_group_symop_operation_xyz
x,y,z
-x,y,-z
-x,-y,-z
x,-y,z
loop_
_atom_site_type_symbol
_atom_site_label
_atom_site_fract_x
_atom_site_fract_y
_atom_site_fract_z
Si Si1 0.424615 0.829580 0.971329
Si Si2 0.827929 0.680264 0.922268
Si Si3 0.091629 0.322769 0.271579
Si Si4 0.267645 0.820309 0.382362
Si Si5 0.510038 0.677469 0.761449
Si Si6 0.128681 0.664056 0.664525
Si Si7 0.733460 0.321474 0.976970
Si Si8 0.827573 0.167454 0.444914
O O1 0.305557 0.836587 0.756160
O O2 0.465838 0.000000 0.055263
O O3 0.500000 0.755141 0.000000
O O4 0.425062 0.723061 0.057608
O O5 0.814227 0.500000 0.898088
O O6 0.747761 0.755991 0.737152
O O7 0.781266 0.744737 0.951157
O O8 0.958993 0.728929 0.087111
O O9 0.101990 0.500000 0.265342
O O10 0.163429 0.235338 0.297851
O O11 0.142982 0.288510 0.438969
O O12 0.391489 0.767275 0.589568
O O13 0.265376 0.000000 0.378520
O O14 0.481585 0.500000 0.722631
O O15 0.598684 0.717246 0.805300
O O16 0.189561 0.500000 0.726937
O O17 0.119914 0.782866 0.573730
O O18 0.000000 0.621522 0.500000
O O19 0.190871 0.742610 0.835795
O O20 0.752861 0.500000 0.001436
O O21 0.873561 0.000000 0.535815
#
# Coordination Sequence:
#
# PCOD8062371 Si02
#       8
#     4   4   4   4   4   4   4   4
#     4  10  21  37  56  82 121 165 201 244 303 362
#     4  10  22  43  68  93 121 158 208 262 317 372
#     4  11  23  41  67  95 124 161 209 260 309 373
#     4  12  26  43  63  90 126 163 204 260 324 378
#     4  11  22  39  64  91 122 163 213 259 303 366
#     4  10  19  35  59  86 120 163 210 255 299 354
#     4   9  19  37  62  92 124 161 206 259 310 359
#     4  11  22  35  56  89 128 165 197 239 303 368
#
# _framework density 20.551053
#
# number of rings (size 3 to 8) (size 9 to 14) (size 15 to 20)
#    0.000    1.500    1.250    4.125    0.000    7.000 
#    0.000    4.375    0.000    0.000    0.000    0.000 
#    0.000    0.000    0.000    0.000    0.000    0.000 
#
# Total GULP energy -396681.795508 kJ/mol
# GULP energy per Si atom -12396.306110 kJ/mol
# Density = 2.050428 g / cm^3
# Si number density = 20.551053 Si / 1000 Ang^3
#
#
#
# Elastic Constant Matrix: (Units=GPa)
#
#
# Indices 1 2 3 4 5 6 
#
# 1 134.2210 33.8407 34.5619 0.0000 1.4176 0.0000
# 2 33.8407 64.0205 26.7219 0.0000 5.5035 0.0000
# 3 34.5619 26.7219 75.7377 0.0000 -3.3100 0.0000
# 4 0.0000 0.0000 0.0000 24.3393 0.0000 -2.7281
# 5 1.4176 5.5035 -3.3100 0.0000 38.7108 0.0000
# 6 0.0000 0.0000 0.0000 -2.7281 0.0000 12.9605
#
#
#
# Elastic Compliance Matrix: (Units=1/GPa)
#
#
# Indices 1 2 3 4 5 6 
#
# 1 0.009102 -0.003601 -0.002886 0.000000 -0.000068 0.000000
# 2 -0.003601 0.020138 -0.005602 0.000000 -0.003210 0.000000
# 3 -0.002886 -0.005602 0.016599 0.000000 0.002321 0.000000
# 4 0.000000 0.000000 0.000000 0.042078 0.000000 0.008857
# 5 -0.000068 -0.003210 0.002321 0.000000 0.026490 0.000000
# 6 0.000000 0.000000 0.000000 0.008857 0.000000 0.079022
#
#
# Mechanical properties :
#
#
# Convention : Reuss Voigt Hill
#
# Bulk Modulus (GPa) = 46.16776 51.58093 48.87435
# Shear Modulus (GPa) = 22.23934 27.12577 24.68256
#
# Velocity S-wave (km/s) = 3.29317 3.63701 3.46936
# Velocity P-wave (km/s) = 6.08060 6.54145 6.31523
#
# Compressibility (1/GPa) = 0.02166013
#
# Stress axis : x y z
#
# Youngs Moduli (GPa) = 109.86394 49.65836 60.24629
#
# Poissons Ratio (x) = 0.17881 0.17388
# Poissons Ratio (y) = 0.39560 0.33751
# Poissons Ratio (z) = 0.31709 0.27819
#
# Static dielectric constant tensor:
#      x y z
#    x 3.911230 0.000000 0.013380 
#    y 0.000000 3.731850 0.000000 
#    z 0.013380 0.000000 3.742380 
# 
# 
# High freq. dielectric constant tensor:
#      x y z
#    x 1.813550 0.000000 0.004720 
#    y 0.000000 1.789620 0.000000 
#    z 0.004720 0.000000 1.808700 
# 
# From -- ./inp_files/71678.got.cif
#   From: 2010.06.25/outbox.cif.g09.slc.cpg/sg10_36_cif.got.tgz:71678.got - 2010.06.27 22:07:45.
