data_PCOD8062464
_publ_section_title
;
Structure prediction by ZEFSAII (Michael W. Deem and Ramdas Pophale) SiO2 
 PCOD8062464
Probable space group: P 2/M
;
_chemical_formula_sum "Si O2"
_cell_formula_units_Z 32
_cell_length_a 28.026127
_cell_length_b 8.698899
_cell_length_c 14.322238
_cell_angle_alpha 90.000000
_cell_angle_beta 150.198311
_cell_angle_gamma 90.000000
_cell_volume 1735.378643
_symmetry_space_group_name_H-M "P 2/M"
_symmetry_group_IT_number 10
_symmetry_cell_setting 'monoclinic'
loop_
_space_group_symop_operation_xyz
x,y,z
-x,y,-z
-x,-y,-z
x,-y,z
loop_
_atom_site_type_symbol
_atom_site_label
_atom_site_fract_x
_atom_site_fract_y
_atom_site_fract_z
Si Si1 0.414418 0.818410 0.733038
Si Si2 0.890567 0.823793 0.789067
Si Si3 0.938256 0.680139 0.687224
Si Si4 0.857029 0.318139 0.024358
Si Si5 0.734965 0.679165 0.651097
Si Si6 0.625385 0.182182 0.129612
Si Si7 0.806984 0.182297 0.320733
Si Si8 0.109382 0.682606 0.710919
O O1 0.360556 0.759584 0.549219
O O2 0.362257 0.763413 0.741026
O O3 0.414028 0.000000 0.728599
O O4 0.523581 0.755625 0.917360
O O5 0.878249 0.778537 0.660181
O O6 0.824434 0.713517 0.736670
O O7 0.858902 0.000000 0.750136
O O8 0.000000 0.791989 0.000000
O O9 0.927823 0.500000 0.690096
O O10 0.895299 0.723877 0.514407
O O11 0.048967 0.734224 0.873867
O O12 0.859825 0.500000 0.036585
O O13 0.763786 0.264310 0.805457
O O14 0.860946 0.253445 0.136096
O O15 0.714694 0.500000 0.617077
O O16 0.709588 0.243185 0.205208
O O17 0.623620 0.000000 0.124902
O O18 0.812755 0.231851 0.222559
O O19 0.818684 0.000000 0.352224
O O20 0.121793 0.500000 0.723747
O O21 0.000000 0.730587 0.500000
#
# Coordination Sequence:
#
# PCOD8062464 Si02
#       8
#     4   4   4   4   4   4   4   4
#     4   9  17  35  59  79 102 140 178 211 258 321
#     4  11  22  33  46  71 105 140 175 214 252 302
#     4  11  20  34  52  72 101 144 181 211 254 311
#     4   9  19  34  51  70 100 139 178 214 256 311
#     4  11  21  34  52  76 105 141 176 216 266 316
#     4   8  17  34  56  78 106 139 171 210 267 325
#     4  11  21  33  52  82 111 134 169 225 277 318
#     4  10  19  36  56  73  98 141 189 222 259 317
#
# _framework density 18.439779000000001
#
# number of rings (size 3 to 8) (size 9 to 14) (size 15 to 20)
#    0.000    2.000    2.500    3.000    0.000    1.750 
#    0.000    4.375    0.000    0.750    0.000    5.250 
#    0.000    0.000    0.000    0.000    0.000    0.000 
#
# Total GULP energy -396645.395280 kJ/mol
# GULP energy per Si atom -12395.168603 kJ/mol
# Density = 1.839781 g / cm^3
# Si number density = 18.439779 Si / 1000 Ang^3
#
#
#
# Elastic Constant Matrix: (Units=GPa)
#
#
# Indices 1 2 3 4 5 6 
#
# 1 100.0481 13.7808 48.5579 0.0000 -12.3000 0.0000
# 2 13.7808 26.8566 22.4820 0.0000 2.1185 0.0000
# 3 48.5579 22.4820 114.7429 0.0000 -17.9038 0.0000
# 4 0.0000 0.0000 0.0000 24.7725 0.0000 -3.4042
# 5 -12.3000 2.1185 -17.9038 0.0000 29.1983 0.0000
# 6 0.0000 0.0000 0.0000 -3.4042 0.0000 23.4935
#
#
#
# Elastic Compliance Matrix: (Units=1/GPa)
#
#
# Indices 1 2 3 4 5 6 
#
# 1 0.012929 -0.003208 -0.004375 0.000000 0.002996 0.000000
# 2 -0.003208 0.047849 -0.009698 0.000000 -0.010770 0.000000
# 3 -0.004375 -0.009698 0.013589 0.000000 0.007193 0.000000
# 4 0.000000 0.000000 0.000000 0.041188 0.000000 0.005968
# 5 0.002996 -0.010770 0.007193 0.000000 0.040703 0.000000
# 6 0.000000 0.000000 0.000000 0.005968 0.000000 0.043430
#
#
# Mechanical properties :
#
#
# Convention : Reuss Voigt Hill
#
# Bulk Modulus (GPa) = 25.12284 45.69879 35.41082
# Shear Modulus (GPa) = 20.20054 25.94798 23.07426
#
# Velocity S-wave (km/s) = 3.31341 3.75530 3.54125
# Velocity P-wave (km/s) = 5.31903 6.60603 5.99715
#
# Compressibility (1/GPa) = 0.03980441
#
# Stress axis : x y z
#
# Youngs Moduli (GPa) = 77.34566 20.89916 73.58730
#
# Poissons Ratio (x) = 0.06704 0.32197
# Poissons Ratio (y) = 0.24812 0.71366
# Poissons Ratio (z) = 0.33841 0.20268
#
# Static dielectric constant tensor:
#      x y z
#    x 3.506370 0.000000 -0.161190 
#    y 0.000000 3.074740 0.000000 
#    z -0.161190 0.000000 3.594910 
# 
# 
# High freq. dielectric constant tensor:
#      x y z
#    x 1.704060 0.000000 -0.014600 
#    y 0.000000 1.693550 0.000000 
#    z -0.014600 0.000000 1.710810 
# 
# From -- ./inp_files/72219.got.cif
#   From: 2010.06.25/outbox.cif.g09.slc.cpg/sg10_37_cif.got.tgz:72219.got - 2010.06.27 22:07:45.
