data_PCOD8062506
_publ_section_title
;
Structure prediction by ZEFSAII (Michael W. Deem and Ramdas Pophale) SiO2 
 PCOD8062506
Probable space group: P 2/M
;
_chemical_formula_sum "Si O2"
_cell_formula_units_Z 24
_cell_length_a 18.390491
_cell_length_b 7.635515
_cell_length_c 17.269334
_cell_angle_alpha 90.000000
_cell_angle_beta 148.827478
_cell_angle_gamma 90.000000
_cell_volume 1255.207586
_symmetry_space_group_name_H-M "P 2/M"
_symmetry_group_IT_number 10
_symmetry_cell_setting 'monoclinic'
loop_
_space_group_symop_operation_xyz
x,y,z
-x,y,-z
-x,-y,-z
x,-y,z
loop_
_atom_site_type_symbol
_atom_site_label
_atom_site_fract_x
_atom_site_fract_y
_atom_site_fract_z
Si Si1 0.303601 0.794923 0.604888
Si Si2 0.109881 0.297915 0.836221
Si Si3 0.280196 0.500000 0.340694
Si Si4 0.155640 0.801045 0.316765
Si Si5 0.603140 0.799436 0.836492
Si Si6 0.956503 0.791925 0.543280
Si Si7 0.581709 0.500000 0.694364
O O1 0.252618 0.727538 0.474738
O O2 0.466592 0.742700 0.763821
O O3 0.200136 0.719248 0.577380
O O4 0.279503 0.000000 0.583810
O O5 0.114773 0.500000 0.862414
O O6 0.005294 0.204317 0.801214
O O7 0.066749 0.270717 0.708084
O O8 0.263360 0.215069 0.986362
O O9 0.187570 0.672963 0.274337
O O10 0.423881 0.500000 0.519827
O O11 0.308282 0.500000 0.275318
O O12 0.192260 0.000000 0.325516
O O13 0.614057 0.674847 0.772380
O O14 0.584287 0.000000 0.790424
O O15 0.000000 0.711350 0.500000
O O16 0.959734 0.000000 0.542581
#
# Coordination Sequence:
#
# PCOD8062506 Si02
#       7
#     4   4   2   4   4   4   2
#     4   8  16  31  56  81 106 149 193 227 273 332
#     4  11  21  35  59  84 114 150 193 237 282 334
#     4  11  22  37  59  89 116 145 186 238 288 340
#     4  10  19  36  58  83 111 149 195 233 278 335
#     4  11  21  38  58  82 115 152 194 234 280 339
#     4   9  18  35  58  86 116 147 188 235 281 332
#     4  11  24  37  57  89 118 146 186 234 294 335
#
# _framework density 19.120342999999998
#
# number of rings (size 3 to 8) (size 9 to 14) (size 15 to 20)
#    0.000    2.000    3.333    2.500    0.000    1.000 
#    0.000    4.167    0.000    7.000    0.000    0.000 
#    0.000    0.000    0.000    0.000    0.000    0.000 
#
# Total GULP energy -297512.218812 kJ/mol
# GULP energy per Si atom -12396.342450 kJ/mol
# Density = 1.907682 g / cm^3
# Si number density = 19.120343 Si / 1000 Ang^3
#
#
#
# Elastic Constant Matrix: (Units=GPa)
#
#
# Indices 1 2 3 4 5 6 
#
# 1 154.2189 48.7365 63.8157 0.0000 12.9520 0.0000
# 2 48.7365 98.7221 18.9075 0.0000 1.7321 0.0000
# 3 63.8157 18.9075 123.7855 0.0000 23.6735 0.0000
# 4 0.0000 0.0000 0.0000 23.7045 0.0000 -1.0016
# 5 12.9520 1.7321 23.6735 0.0000 24.5772 0.0000
# 6 0.0000 0.0000 0.0000 -1.0016 0.0000 20.6086
#
#
#
# Elastic Compliance Matrix: (Units=1/GPa)
#
#
# Indices 1 2 3 4 5 6 
#
# 1 0.009493 -0.003876 -0.004164 0.000000 -0.000718 0.000000
# 2 -0.003876 0.012037 -0.000084 0.000000 0.001275 0.000000
# 3 -0.004164 -0.000084 0.012034 0.000000 -0.009391 0.000000
# 4 0.000000 0.000000 0.000000 0.042273 0.000000 0.002055
# 5 -0.000718 0.001275 -0.009391 0.000000 0.050023 0.000000
# 6 0.000000 0.000000 0.000000 0.002055 0.000000 0.048623
#
#
# Mechanical properties :
#
#
# Convention : Reuss Voigt Hill
#
# Bulk Modulus (GPa) = 57.75588 71.07177 64.41383
# Shear Modulus (GPa) = 25.44482 30.12918 27.78700
#
# Velocity S-wave (km/s) = 3.65193 3.97390 3.81631
# Velocity P-wave (km/s) = 6.93212 7.63592 7.29251
#
# Compressibility (1/GPa) = 0.01731425
#
# Stress axis : x y z
#
# Youngs Moduli (GPa) = 105.34289 83.07894 83.09569
#
# Poissons Ratio (x) = 0.32203 0.34605
# Poissons Ratio (y) = 0.40833 0.00699
# Poissons Ratio (z) = 0.43870 0.00699
#
# Static dielectric constant tensor:
#      x y z
#    x 3.665910 0.000000 0.257100 
#    y 0.000000 3.497750 0.000000 
#    z 0.257100 0.000000 3.477530 
# 
# 
# High freq. dielectric constant tensor:
#      x y z
#    x 1.729970 0.000000 0.025540 
#    y 0.000000 1.749380 0.000000 
#    z 0.025540 0.000000 1.729450 
# 
# From -- ./inp_files/78674.got.cif
#   From: 2010.06.25/outbox.cif.g09.slc.cpg/sg10_40_cif.got.tgz:78674.got - 2010.06.27 22:07:45.
