data_PCOD8062157
_publ_section_title
;
Structure prediction by ZEFSAII (Michael W. Deem and Ramdas Pophale) SiO2 
 PCOD8062157
Probable space group: P 2/M
;
_chemical_formula_sum "Si O2"
_cell_formula_units_Z 28
_cell_length_a 5.318430
_cell_length_b 15.509944
_cell_length_c 22.937570
_cell_angle_alpha 90.000000
_cell_angle_beta 110.352739
_cell_angle_gamma 90.000000
_cell_volume 1773.962411
_symmetry_space_group_name_H-M "P 2/M"
_symmetry_group_IT_number 10
_symmetry_cell_setting 'monoclinic'
loop_
_space_group_symop_operation_xyz
x,y,z
-x,y,-z
-x,-y,-z
x,-y,z
loop_
_atom_site_type_symbol
_atom_site_label
_atom_site_fract_x
_atom_site_fract_y
_atom_site_fract_z
Si Si1 0.975869 0.655185 0.650578
Si Si2 0.866254 0.166008 0.577502
Si Si3 0.205091 0.601683 0.136728
Si Si4 0.393775 0.397196 0.929183
Si Si5 0.213581 0.595021 0.475721
Si Si6 0.337639 0.098451 0.558426
Si Si7 0.421192 0.602768 0.280797
O O1 0.910833 0.739772 0.607222
O O2 0.897733 0.581167 0.598489
O O3 0.787507 0.646544 0.691654
O O4 0.287462 0.646544 0.691652
O O5 0.647042 0.117538 0.600365
O O6 0.752820 0.161408 0.501880
O O7 0.154054 0.117539 0.600365
O O8 0.191338 0.500000 0.127559
O O9 0.407665 0.640031 0.104551
O O10 0.312971 0.626512 0.208647
O O11 0.905988 0.640031 0.104551
O O12 0.388545 0.500000 0.925696
O O13 0.500000 0.364763 0.000000
O O14 0.500000 0.645022 0.500000
O O15 0.261094 0.500000 0.507396
O O16 0.000000 0.645022 0.500000
O O17 0.302515 0.000000 0.535011
O O18 0.438085 0.500000 0.292058
#
# Coordination Sequence:
#
# PCOD8062157 Si02
#       7
#     4   4   4   4   4   4   4
#     4  12  23  33  49  64  85 108 146 191 227 259
#     4  10  20  30  49  72  88 106 129 167 218 267
#     4   9  17  28  42  58  78 109 145 177 218 267
#     4   9  15  24  40  63  85 101 126 175 234 276
#     4  10  21  33  45  57  74 100 134 177 228 274
#     4  10  19  35  54  72  90 108 126 155 219 293
#     4  11  22  36  48  59  82 121 162 192 219 260
#
# _framework density 15.783875
#
# number of rings (size 3 to 8) (size 9 to 14) (size 15 to 20)
#    0.000    1.857    0.000    6.429    4.000    5.143 
#    0.000    0.000    0.000    0.000    0.000    0.000 
#    0.000    0.000    0.000    0.000    0.000    0.000 
#
# Total GULP energy -346907.051449 kJ/mol
# GULP energy per Si atom -12389.537552 kJ/mol
# Density = 1.574795 g / cm^3
# Si number density = 15.783875 Si / 1000 Ang^3
#
#
#
# Elastic Constant Matrix: (Units=GPa)
#
#
# Indices 1 2 3 4 5 6 
#
# 1 201.9551 28.3703 68.4008 0.0000 -2.9320 0.0000
# 2 28.3703 59.8319 22.3681 0.0000 -0.2486 0.0000
# 3 68.4008 22.3681 106.2966 0.0000 -1.0277 0.0000
# 4 0.0000 0.0000 0.0000 6.6713 0.0000 -0.3435
# 5 -2.9320 -0.2486 -1.0277 0.0000 31.4381 0.0000
# 6 0.0000 0.0000 0.0000 -0.3435 0.0000 14.9758
#
#
#
# Elastic Compliance Matrix: (Units=1/GPa)
#
#
# Indices 1 2 3 4 5 6 
#
# 1 0.006484 -0.001644 -0.003822 0.000000 0.000467 0.000000
# 2 -0.001644 0.018557 -0.002848 0.000000 -0.000100 0.000000
# 3 -0.003822 -0.002848 0.012467 0.000000 0.000029 0.000000
# 4 0.000000 0.000000 0.000000 0.150074 0.000000 0.003443
# 5 0.000467 -0.000100 0.000029 0.000000 0.031852 0.000000
# 6 0.000000 0.000000 0.000000 0.003443 0.000000 0.066853
#
#
# Mechanical properties :
#
#
# Convention : Reuss Voigt Hill
#
# Bulk Modulus (GPa) = 47.89267 67.37355 57.63311
# Shear Modulus (GPa) = 16.13557 27.21332 21.67445
#
# Velocity S-wave (km/s) = 3.20078 4.15676 3.70969
# Velocity P-wave (km/s) = 6.63842 8.11270 7.41231
#
# Compressibility (1/GPa) = 0.02088002
#
# Stress axis : x y z
#
# Youngs Moduli (GPa) = 154.23325 53.88721 80.21443
#
# Poissons Ratio (x) = 0.08857 0.30656
# Poissons Ratio (y) = 0.25350 0.22848
# Poissons Ratio (z) = 0.58945 0.15349
#
# Static dielectric constant tensor:
#      x y z
#    x 4.012500 0.000000 -0.048150 
#    y 0.000000 2.559440 0.000000 
#    z -0.048150 0.000000 2.848980 
# 
# 
# High freq. dielectric constant tensor:
#      x y z
#    x 1.649360 0.000000 -0.003140 
#    y 0.000000 1.546560 0.000000 
#    z -0.003140 0.000000 1.573480 
# 
# From -- ./inp_files/81321.got.cif
#   From: 2010.06.25/outbox.cif.g09.slc.cpg/sg10_41_cif.got.tgz:81321.got - 2010.06.27 22:07:45.
