data_PCOD8062816
_publ_section_title
;
Structure prediction by ZEFSAII (Michael W. Deem and Ramdas Pophale) SiO2 
 PCOD8062816
Probable space group: P 2/M
;
_chemical_formula_sum "Si O2"
_cell_formula_units_Z 28
_cell_length_a 15.610305
_cell_length_b 12.653844
_cell_length_c 9.116955
_cell_angle_alpha 90.000000
_cell_angle_beta 73.021217
_cell_angle_gamma 90.000000
_cell_volume 1722.380608
_symmetry_space_group_name_H-M "P 2/M"
_symmetry_group_IT_number 10
_symmetry_cell_setting 'monoclinic'
loop_
_space_group_symop_operation_xyz
x,y,z
-x,y,-z
-x,-y,-z
x,-y,z
loop_
_atom_site_type_symbol
_atom_site_label
_atom_site_fract_x
_atom_site_fract_y
_atom_site_fract_z
Si Si1 0.402400 0.500000 0.875667
Si Si2 0.736300 0.877418 0.210820
Si Si3 0.086505 0.874179 0.041206
Si Si4 0.263700 0.122582 0.447121
Si Si5 0.606603 0.728439 0.778498
Si Si6 0.393396 0.728440 0.885103
Si Si7 0.913494 0.125821 0.627711
Si Si8 0.597599 0.500000 0.778067
O O1 0.354958 0.611403 0.857158
O O2 0.499999 0.500000 0.751422
O O3 0.416130 0.500000 0.041934
O O4 0.824247 0.834279 0.084373
O O5 0.750654 0.857778 0.374673
O O6 0.649875 0.814902 0.198376
O O7 0.719533 0.000000 0.184112
O O8 0.083250 0.000000 0.041741
O O9 0.086214 0.830257 0.206893
O O10 0.000000 0.828421 0.000000
O O11 0.350126 0.185098 0.348252
O O12 0.175753 0.165721 0.408620
O O13 0.280467 0.000000 0.403646
O O14 0.500000 0.731889 0.811160
O O15 0.645041 0.611403 0.712114
O O16 0.632207 0.753915 0.933896
O O17 0.000000 0.171579 0.500000
O O18 0.916750 0.000000 0.624990
#
# Coordination Sequence:
#
# PCOD8062816 Si02
#       8
#     2   4   4   4   4   4   4   2
#     4   7  12  26  47  67  84 105 140 187 231 265
#     4  10  20  31  42  61  92 125 153 181 216 260
#     4   9  16  27  44  64  86 113 146 183 221 260
#     4  10  20  31  42  61  92 125 153 181 216 260
#     4   9  17  30  48  67  87 114 149 187 225 265
#     4   9  17  30  48  67  87 114 149 187 225 265
#     4   9  16  27  44  64  86 113 146 183 221 260
#     4   7  12  26  47  67  84 105 140 187 231 265
#
# _framework density 16.256568999999999
#
# number of rings (size 3 to 8) (size 9 to 14) (size 15 to 20)
#    0.000    3.000    0.000    3.429    0.000    6.286 
#    0.000    3.571    0.000    2.571    0.000    1.000 
#    0.000    0.000    0.000    0.000    0.000    0.000 
#
# Total GULP energy -346980.869195 kJ/mol
# GULP energy per Si atom -12392.173900 kJ/mol
# Density = 1.621957 g / cm^3
# Si number density = 16.256569 Si / 1000 Ang^3
#
#
#
# Elastic Constant Matrix: (Units=GPa)
#
#
# Indices 1 2 3 4 5 6 
#
# 1 79.2313 40.6450 40.5052 0.0000 9.7394 0.0000
# 2 40.6450 66.8898 43.7500 0.0000 1.1912 0.0000
# 3 40.5052 43.7500 99.4594 0.0000 -1.9799 0.0000
# 4 0.0000 0.0000 0.0000 12.5111 0.0000 3.5549
# 5 9.7394 1.1912 -1.9799 0.0000 27.5623 0.0000
# 6 0.0000 0.0000 0.0000 3.5549 0.0000 3.2438
#
#
#
# Elastic Compliance Matrix: (Units=1/GPa)
#
#
# Indices 1 2 3 4 5 6 
#
# 1 0.020632 -0.009574 -0.004334 0.000000 -0.007188 0.000000
# 2 -0.009574 0.025499 -0.007283 0.000000 0.001758 0.000000
# 3 -0.004334 -0.007283 0.015081 0.000000 0.002930 0.000000
# 4 0.000000 0.000000 0.000000 0.116073 0.000000 -0.127204
# 5 -0.007188 0.001758 0.002930 0.000000 0.038956 0.000000
# 6 0.000000 0.000000 0.000000 -0.127204 0.000000 0.447679
#
#
# Mechanical properties :
#
#
# Convention : Reuss Voigt Hill
#
# Bulk Modulus (GPa) = 53.10354 55.04232 54.07293
# Shear Modulus (GPa) = 7.01676 16.70880 11.86278
#
# Velocity S-wave (km/s) = 2.07982 3.20944 2.70427
# Velocity P-wave (km/s) = 6.20519 6.90406 6.56393
#
# Compressibility (1/GPa) = 0.01883114
#
# Stress axis : x y z
#
# Youngs Moduli (GPa) = 48.46845 39.21649 66.30764
#
# Poissons Ratio (x) = 0.37546 0.28739
# Poissons Ratio (y) = 0.46404 0.48289
# Poissons Ratio (z) = 0.21007 0.28560
#
# Static dielectric constant tensor:
#      x y z
#    x 2.962560 0.000000 0.027400 
#    y 0.000000 3.011550 0.000000 
#    z 0.027400 0.000000 3.033980 
# 
# 
# High freq. dielectric constant tensor:
#      x y z
#    x 1.612200 0.000000 0.003690 
#    y 0.000000 1.593740 0.000000 
#    z 0.003690 0.000000 1.621820 
# 
# From -- ./inp_files/28246.got.cif
#   From: 2010.06.25/outbox.cif.g09.slc.cpg/sg10_15_cif.got.tgz:28246.got - 2010.06.27 22:07:45.
