data_PCOD8062939
_publ_section_title
;
Structure prediction by ZEFSAII (Michael W. Deem and Ramdas Pophale) SiO2 
 PCOD8062939
Probable space group: P 2/M
;
_chemical_formula_sum "Si O2"
_cell_formula_units_Z 32
_cell_length_a 13.358876
_cell_length_b 8.840478
_cell_length_c 20.765993
_cell_angle_alpha 90.000000
_cell_angle_beta 43.246460
_cell_angle_gamma 90.000000
_cell_volume 1680.259722
_symmetry_space_group_name_H-M "P 2/M"
_symmetry_group_IT_number 10
_symmetry_cell_setting 'monoclinic'
loop_
_space_group_symop_operation_xyz
x,y,z
-x,y,-z
-x,-y,-z
x,-y,z
loop_
_atom_site_type_symbol
_atom_site_label
_atom_site_fract_x
_atom_site_fract_y
_atom_site_fract_z
Si Si1 0.338143 0.678070 0.097754
Si Si2 0.196600 0.678216 0.773286
Si Si3 0.171419 0.166844 0.430917
Si Si4 0.838065 0.320698 0.071619
Si Si5 0.182496 0.179203 0.285244
Si Si6 0.131804 0.322307 0.576959
Si Si7 0.857285 0.678483 0.924960
Si Si8 0.668267 0.824001 0.410112
O O1 0.316806 0.500000 0.118019
O O2 0.306597 0.761093 0.179488
O O3 0.228442 0.747431 0.095486
O O4 0.500000 0.718780 0.000000
O O5 0.220404 0.500000 0.749880
O O6 0.247142 0.725921 0.822835
O O7 0.295435 0.775382 0.679519
O O8 0.027243 0.723078 0.841956
O O9 0.235487 0.226753 0.332689
O O10 0.207125 0.277359 0.473557
O O11 0.000000 0.155797 0.500000
O O12 0.233340 0.000000 0.419026
O O13 0.848647 0.500000 0.066466
O O14 0.779471 0.265219 0.028897
O O15 0.000000 0.252752 0.000000
O O16 0.026515 0.249146 0.339683
O O17 0.165553 0.000000 0.289087
O O18 0.111745 0.500000 0.589038
O O19 0.234977 0.271944 0.586343
O O20 0.840185 0.500000 0.929490
O O21 0.500000 0.785493 0.500000
O O22 0.701996 0.000000 0.404451
#
# Coordination Sequence:
#
# PCOD8062939 Si02
#       8
#     4   4   4   4   4   4   4   4
#     4  10  20  32  47  71 105 141 178 219 256 296
#     4   9  16  29  53  78  95 119 164 216 256 298
#     4   8  16  32  53  78 107 137 169 208 258 315
#     4   7  11  22  44  73  98 119 151 199 253 303
#     4  10  20  35  56  79 106 141 177 213 259 319
#     4  11  21  34  57  84 106 130 168 220 268 312
#     4   8  14  27  48  73  99 128 160 199 253 305
#     4  11  24  39  52  69 102 145 179 210 255 311
#
# _framework density 19.044674000000001
#
# number of rings (size 3 to 8) (size 9 to 14) (size 15 to 20)
#    0.000    2.750    0.000    4.875    0.000    5.000 
#    0.000    1.250    0.000    5.625    0.000    0.000 
#    0.000    0.000    0.000    0.000    0.000    0.000 
#
# Total GULP energy -396501.502561 kJ/mol
# GULP energy per Si atom -12390.671955 kJ/mol
# Density = 1.900133 g / cm^3
# Si number density = 19.044674 Si / 1000 Ang^3
#
#
#
# Elastic Constant Matrix: (Units=GPa)
#
#
# Indices 1 2 3 4 5 6 
#
# 1 31.2501 19.0196 51.3472 0.0000 16.1331 0.0000
# 2 19.0196 61.8735 44.8629 0.0000 4.1634 0.0000
# 3 51.3472 44.8629 143.0770 0.0000 31.4649 0.0000
# 4 0.0000 0.0000 0.0000 15.1963 0.0000 -1.5403
# 5 16.1331 4.1634 31.4649 0.0000 30.7432 0.0000
# 6 0.0000 0.0000 0.0000 -1.5403 0.0000 8.7745
#
#
#
# Elastic Compliance Matrix: (Units=1/GPa)
#
#
# Indices 1 2 3 4 5 6 
#
# 1 0.087102 -0.007649 -0.024566 0.000000 -0.019530 0.000000
# 2 -0.007649 0.022204 -0.005728 0.000000 0.006869 0.000000
# 3 -0.024566 -0.005728 0.018835 0.000000 -0.005610 0.000000
# 4 0.000000 0.000000 0.000000 0.066998 0.000000 0.011761
# 5 -0.019530 0.006869 -0.005610 0.000000 0.047588 0.000000
# 6 0.000000 0.000000 0.000000 0.011761 0.000000 0.116032
#
#
# Mechanical properties :
#
#
# Convention : Reuss Voigt Hill
#
# Bulk Modulus (GPa) = 19.13638 51.85111 35.49375
# Shear Modulus (GPa) = 11.06044 19.00752 15.03398
#
# Velocity S-wave (km/s) = 2.41252 3.16262 2.81268
# Velocity P-wave (km/s) = 4.22259 6.37349 5.40609
#
# Compressibility (1/GPa) = 0.05225648
#
# Stress axis : x y z
#
# Youngs Moduli (GPa) = 11.48085 45.03661 53.09210
#
# Poissons Ratio (x) = 0.34447 1.30424
# Poissons Ratio (y) = 0.08781 0.30411
# Poissons Ratio (z) = 0.28203 0.25797
#
# Static dielectric constant tensor:
#      x y z
#    x 3.693720 0.000000 0.589910 
#    y 0.000000 3.189680 0.000000 
#    z 0.589910 0.000000 3.819980 
# 
# 
# High freq. dielectric constant tensor:
#      x y z
#    x 1.726610 0.000000 0.035920 
#    y 0.000000 1.711010 0.000000 
#    z 0.035920 0.000000 1.742290 
# 
# From -- ./inp_files/84724.got.cif
#   From: 2010.06.25/outbox.cif.g09.slc.cpg/sg10_43_cif.got.tgz:84724.got - 2010.06.27 22:07:45.
