data_PCOD8062922
_publ_section_title
;
Structure prediction by ZEFSAII (Michael W. Deem and Ramdas Pophale) SiO2 
 PCOD8062922
Probable space group: P 2/M
;
_chemical_formula_sum "Si O2"
_cell_formula_units_Z 32
_cell_length_a 21.027560
_cell_length_b 9.034869
_cell_length_c 21.250700
_cell_angle_alpha 90.000000
_cell_angle_beta 153.116990
_cell_angle_gamma 90.000000
_cell_volume 1825.517329
_symmetry_space_group_name_H-M "P 2/M"
_symmetry_group_IT_number 10
_symmetry_cell_setting 'monoclinic'
loop_
_space_group_symop_operation_xyz
x,y,z
-x,y,-z
-x,-y,-z
x,-y,z
loop_
_atom_site_type_symbol
_atom_site_label
_atom_site_fract_x
_atom_site_fract_y
_atom_site_fract_z
Si Si1 0.508176 0.663260 0.312858
Si Si2 0.179042 0.337425 0.997392
Si Si3 0.887978 0.673914 0.316269
Si Si4 0.444863 0.825083 0.767124
Si Si5 0.863347 0.827207 0.918945
Si Si6 0.733621 0.324047 0.057261
Si Si7 0.421563 0.324782 0.368524
Si Si8 0.196412 0.674805 0.620896
O O1 0.576674 0.500000 0.364983
O O2 0.580716 0.775026 0.327955
O O3 0.521018 0.718647 0.396620
O O4 0.344048 0.652827 0.154576
O O5 0.110968 0.500000 0.947303
O O6 0.162983 0.285761 0.910492
O O7 0.109100 0.224651 0.984785
O O8 0.896085 0.500000 0.315827
O O9 0.808331 0.740690 0.185518
O O10 0.802390 0.713329 0.303822
O O11 0.048344 0.730392 0.461326
O O12 0.316068 0.770940 0.694917
O O13 0.456403 0.000000 0.779286
O O14 0.584857 0.755661 0.919686
O O15 0.730735 0.749217 0.769846
O O16 0.833533 0.000000 0.893326
O O17 0.000000 0.784490 0.000000
O O18 0.705793 0.500000 0.035769
O O19 0.500000 0.267561 0.500000
O O20 0.396735 0.500000 0.347738
O O21 0.221367 0.500000 0.631809
#
# Coordination Sequence:
#
# PCOD8062922 Si02
#       8
#     4   4   4   4   4   4   4   4
#     4   8  15  30  50  70  93 123 158 196 237 280
#     4   8  15  28  48  70  92 121 157 197 240 281
#     4   8  16  32  55  75  91 120 162 199 236 285
#     4  11  21  31  46  72 101 129 160 193 233 281
#     4  10  20  32  47  69  98 131 163 193 230 281
#     4   9  17  32  52  74  96 119 155 202 243 280
#     4   9  18  33  53  75  96 120 156 201 244 283
#     4   9  17  33  54  73  94 124 160 197 237 282
#
# _framework density 17.529278000000001
#
# number of rings (size 3 to 8) (size 9 to 14) (size 15 to 20)
#    0.000    3.000    0.000    3.750    0.000    6.250 
#    0.000    6.250    0.000    6.000    0.000    0.000 
#    0.000    0.000    0.000    0.000    0.000    0.000 
#
# Total GULP energy -396604.478546 kJ/mol
# GULP energy per Si atom -12393.889955 kJ/mol
# Density = 1.748938 g / cm^3
# Si number density = 17.529278 Si / 1000 Ang^3
#
#
#
# Elastic Constant Matrix: (Units=GPa)
#
#
# Indices 1 2 3 4 5 6 
#
# 1 148.2604 57.4175 75.5345 0.0000 -15.9292 0.0000
# 2 57.4175 69.3393 39.9031 0.0000 1.1713 0.0000
# 3 75.5345 39.9031 87.1598 0.0000 -19.7157 0.0000
# 4 0.0000 0.0000 0.0000 6.3285 0.0000 3.1862
# 5 -15.9292 1.1713 -19.7157 0.0000 31.3177 0.0000
# 6 0.0000 0.0000 0.0000 3.1862 0.0000 7.6278
#
#
#
# Elastic Compliance Matrix: (Units=1/GPa)
#
#
# Indices 1 2 3 4 5 6 
#
# 1 0.013865 -0.006579 -0.008574 0.000000 0.001901 0.000000
# 2 -0.006579 0.024309 -0.007451 0.000000 -0.008946 0.000000
# 3 -0.008574 -0.007451 0.024943 0.000000 0.011620 0.000000
# 4 0.000000 0.000000 0.000000 0.200096 0.000000 -0.083583
# 5 0.001901 -0.008946 0.011620 0.000000 0.040548 0.000000
# 6 0.000000 0.000000 0.000000 -0.083583 0.000000 0.166013
#
#
# Mechanical properties :
#
#
# Convention : Reuss Voigt Hill
#
# Bulk Modulus (GPa) = 55.83714 72.27440 64.05577
# Shear Modulus (GPa) = 9.59781 17.84843 13.72312
#
# Velocity S-wave (km/s) = 2.34248 3.19440 2.80101
# Velocity P-wave (km/s) = 6.26411 7.41119 6.86166
#
# Compressibility (1/GPa) = 0.01790923
#
# Stress axis : x y z
#
# Youngs Moduli (GPa) = 72.12263 41.13720 40.09137
#
# Poissons Ratio (x) = 0.27066 0.34373
# Poissons Ratio (y) = 0.47453 0.29871
# Poissons Ratio (z) = 0.61836 0.30650
#
# Static dielectric constant tensor:
#      x y z
#    x 3.754530 0.000000 -0.533360 
#    y 0.000000 3.047650 0.000000 
#    z -0.533360 0.000000 3.405040 
# 
# 
# High freq. dielectric constant tensor:
#      x y z
#    x 1.690400 0.000000 -0.016130 
#    y 0.000000 1.656070 0.000000 
#    z -0.016130 0.000000 1.651510 
# 
# From -- ./inp_files/86146.got.cif
#   From: 2010.06.25/outbox.cif.g09.slc.cpg/sg10_44_cif.got.tgz:86146.got - 2010.06.27 22:07:45.
