data_PCOD8062913
_publ_section_title
;
Structure prediction by ZEFSAII (Michael W. Deem and Ramdas Pophale) SiO2 
 PCOD8062913
Probable space group: P 2/M
;
_chemical_formula_sum "Si O2"
_cell_formula_units_Z 32
_cell_length_a 23.375399
_cell_length_b 8.809188
_cell_length_c 11.352183
_cell_angle_alpha 90.000000
_cell_angle_beta 53.414342
_cell_angle_gamma 90.000000
_cell_volume 1877.032647
_symmetry_space_group_name_H-M "P 2/M"
_symmetry_group_IT_number 10
_symmetry_cell_setting 'monoclinic'
loop_
_space_group_symop_operation_xyz
x,y,z
-x,y,-z
-x,-y,-z
x,-y,z
loop_
_atom_site_type_symbol
_atom_site_label
_atom_site_fract_x
_atom_site_fract_y
_atom_site_fract_z
Si Si1 0.991153 0.169177 0.370960
Si Si2 0.700861 0.320815 0.807167
Si Si3 0.129897 0.668590 0.175732
Si Si4 0.275003 0.820773 0.973225
Si Si5 0.429563 0.175573 0.156630
Si Si6 0.467091 0.178278 0.377683
Si Si7 0.397210 0.680865 0.682246
Si Si8 0.146414 0.667271 0.433569
O O1 0.912514 0.228042 0.431348
O O2 0.000000 0.175030 0.500000
O O3 0.052940 0.266449 0.231850
O O4 0.998250 0.000000 0.313753
O O5 0.703247 0.500000 0.832400
O O6 0.696110 0.231827 0.935535
O O7 0.634382 0.280435 0.808152
O O8 0.772775 0.272128 0.647943
O O9 0.138852 0.500000 0.111287
O O10 0.192901 0.776199 0.051806
O O11 0.132412 0.661492 0.312420
O O12 0.284123 0.000000 0.951218
O O13 0.320112 0.737359 0.817223
O O14 0.440461 0.210669 0.279723
O O15 0.410695 0.000000 0.156695
O O16 0.500000 0.222792 0.000000
O O17 0.544112 0.254722 0.299245
O O18 0.410875 0.254170 0.535186
O O19 0.473864 0.000000 0.395719
O O20 0.401005 0.500000 0.675620
O O21 0.138085 0.500000 0.498711
#
# Coordination Sequence:
#
# PCOD8062913 Si02
#       8
#     4   4   4   4   4   4   4   4
#     4   9  15  22  35  56  81 114 153 188 224 268
#     4  10  20  32  47  68  94 124 159 196 235 280
#     4   9  16  26  39  58  86 118 152 189 229 274
#     4  11  20  31  47  67  94 125 158 195 236 281
#     4  10  21  35  51  71  96 126 157 190 231 278
#     4  10  20  35  53  73  96 123 156 192 233 278
#     4  11  21  34  52  72  94 121 156 195 236 280
#     4   8  15  26  38  55  82 117 152 187 227 270
#
# _framework density 17.048186000000001
#
# number of rings (size 3 to 8) (size 9 to 14) (size 15 to 20)
#    0.000    2.250    0.000    6.000    0.000    7.250 
#    0.000    0.000    0.000    0.000    0.000    0.000 
#    0.000    1.000    0.000   10.500    0.000    8.125 
#
# Total GULP energy -396758.067880 kJ/mol
# GULP energy per Si atom -12398.689621 kJ/mol
# Density = 1.700938 g / cm^3
# Si number density = 17.048186 Si / 1000 Ang^3
#
#
#
# Elastic Constant Matrix: (Units=GPa)
#
#
# Indices 1 2 3 4 5 6 
#
# 1 68.4473 37.6903 51.7636 0.0000 -21.0800 0.0000
# 2 37.6903 121.2451 49.2221 0.0000 -10.3019 0.0000
# 3 51.7636 49.2221 94.0297 0.0000 -22.9512 0.0000
# 4 0.0000 0.0000 0.0000 26.4301 0.0000 -9.5633
# 5 -21.0800 -10.3019 -22.9512 0.0000 24.0377 0.0000
# 6 0.0000 0.0000 0.0000 -9.5633 0.0000 21.9564
#
#
#
# Elastic Compliance Matrix: (Units=1/GPa)
#
#
# Indices 1 2 3 4 5 6 
#
# 1 0.028798 -0.003438 -0.010756 0.000000 0.013512 0.000000
# 2 -0.003438 0.010901 -0.004446 0.000000 -0.002587 0.000000
# 3 -0.010756 -0.004446 0.021013 0.000000 0.008725 0.000000
# 4 0.000000 0.000000 0.000000 0.044914 0.000000 0.019563
# 5 0.013512 -0.002587 0.008725 0.000000 0.060673 0.000000
# 6 0.000000 0.000000 0.000000 0.019563 0.000000 0.054066
#
#
# Mechanical properties :
#
#
# Convention : Reuss Voigt Hill
#
# Bulk Modulus (GPa) = 42.67284 62.34156 52.50720
# Shear Modulus (GPa) = 18.83556 24.15457 21.49506
#
# Velocity S-wave (km/s) = 3.32752 3.76818 3.55469
# Velocity P-wave (km/s) = 6.31255 7.45516 6.90752
#
# Compressibility (1/GPa) = 0.02343411
#
# Stress axis : x y z
#
# Youngs Moduli (GPa) = 34.72435 91.73183 47.58923
#
# Poissons Ratio (x) = 0.31533 0.51187
# Poissons Ratio (y) = 0.11937 0.21157
# Poissons Ratio (z) = 0.37350 0.40782
#
# Static dielectric constant tensor:
#      x y z
#    x 2.964680 0.000000 -0.359890 
#    y 0.000000 3.339350 0.000000 
#    z -0.359890 0.000000 3.177230 
# 
# 
# High freq. dielectric constant tensor:
#      x y z
#    x 1.620350 0.000000 -0.039480 
#    y 0.000000 1.673430 0.000000 
#    z -0.039480 0.000000 1.644680 
# 
# From -- ./inp_files/55303.got.cif
#   From: 2010.06.25/outbox.cif.g09.slc.cpg/sg10_28_cif.got.tgz:55303.got - 2010.06.27 22:07:45.
