data_PCOD8062614
_publ_section_title
;
Structure prediction by ZEFSAII (Michael W. Deem and Ramdas Pophale) SiO2 
 PCOD8062614
Probable space group: P 2/M
;
_chemical_formula_sum "Si O2"
_cell_formula_units_Z 20
_cell_length_a 17.016607
_cell_length_b 8.945293
_cell_length_c 11.969632
_cell_angle_alpha 90.000000
_cell_angle_beta 146.446623
_cell_angle_gamma 90.000000
_cell_volume 1007.044093
_symmetry_space_group_name_H-M "P 2/M"
_symmetry_group_IT_number 10
_symmetry_cell_setting 'monoclinic'
loop_
_space_group_symop_operation_xyz
x,y,z
-x,y,-z
-x,-y,-z
x,-y,z
loop_
_atom_site_type_symbol
_atom_site_label
_atom_site_fract_x
_atom_site_fract_y
_atom_site_fract_z
Si Si1 0.867261 0.666673 0.262496
Si Si2 0.090270 0.824356 0.914736
Si Si3 0.658381 0.672825 0.656153
Si Si4 0.799946 0.673458 0.593792
Si Si5 0.657091 0.677969 0.199200
O O1 0.834354 0.500000 0.175597
O O2 0.897673 0.781068 0.200228
O O3 0.737367 0.728727 0.182327
O O4 0.000000 0.656018 0.500000
O O5 0.947134 0.755530 0.798199
O O6 0.080217 0.000000 0.915324
O O7 0.229265 0.768324 0.142351
O O8 0.500000 0.728023 0.500000
O O9 0.677345 0.500000 0.711915
O O10 0.685584 0.697526 0.556706
O O11 0.838150 0.500000 0.623358
O O12 0.732509 0.741206 0.400320
O O13 0.653830 0.500000 0.205459
O O14 0.500000 0.745222 0.000000
#
# Coordination Sequence:
#
# PCOD8062614 Si02
#       5
#     4   4   4   4   4
#     4  10  19  36  62  88 116 150 196 246 292 344
#     4  12  25  39  59  86 123 163 199 238 291 358
#     4  10  23  41  65  92 116 148 198 255 301 347
#     4  10  20  39  63  89 118 152 200 248 293 346
#     4   9  18  32  58  92 119 146 185 244 303 346
#
# _framework density 19.860102000000001
#
# number of rings (size 3 to 8) (size 9 to 14) (size 15 to 20)
#    0.000    1.800    2.000    2.400    2.800    4.000 
#    0.000    0.000    0.000    1.200    0.000    0.000 
#    0.000    0.000    0.000    0.000    0.000    0.000 
#
# Total GULP energy -248033.630464 kJ/mol
# GULP energy per Si atom -12401.681523 kJ/mol
# Density = 1.981490 g / cm^3
# Si number density = 19.860102 Si / 1000 Ang^3
#
#
#
# Elastic Constant Matrix: (Units=GPa)
#
#
# Indices 1 2 3 4 5 6 
#
# 1 128.2419 37.6185 46.5543 0.0000 26.1340 0.0000
# 2 37.6185 76.0466 42.7463 0.0000 5.8533 0.0000
# 3 46.5543 42.7463 111.2279 0.0000 20.0087 0.0000
# 4 0.0000 0.0000 0.0000 11.9495 0.0000 -3.8442
# 5 26.1340 5.8533 20.0087 0.0000 40.5808 0.0000
# 6 0.0000 0.0000 0.0000 -3.8442 0.0000 8.1537
#
#
#
# Elastic Compliance Matrix: (Units=1/GPa)
#
#
# Indices 1 2 3 4 5 6 
#
# 1 0.010742 -0.003719 -0.002106 0.000000 -0.005343 0.000000
# 2 -0.003719 0.018086 -0.005877 0.000000 0.002684 0.000000
# 3 -0.002106 -0.005877 0.012876 0.000000 -0.004145 0.000000
# 4 0.000000 0.000000 0.000000 0.098648 0.000000 0.046510
# 5 -0.005343 0.002684 -0.004145 0.000000 0.029740 0.000000
# 6 0.000000 0.000000 0.000000 0.046510 0.000000 0.144572
#
#
# Mechanical properties :
#
#
# Convention : Reuss Voigt Hill
#
# Bulk Modulus (GPa) = 54.64121 63.26161 58.95141
# Shear Modulus (GPa) = 14.52778 24.70995 19.61887
#
# Velocity S-wave (km/s) = 2.70757 3.53115 3.14642
# Velocity P-wave (km/s) = 6.11125 6.96765 6.55345
#
# Compressibility (1/GPa) = 0.01830121
#
# Stress axis : x y z
#
# Youngs Moduli (GPa) = 93.09323 55.28989 77.66307
#
# Poissons Ratio (x) = 0.20562 0.16353
# Poissons Ratio (y) = 0.34621 0.45644
# Poissons Ratio (z) = 0.19602 0.32495
#
# Static dielectric constant tensor:
#      x y z
#    x 4.221420 0.000000 0.070880 
#    y 0.000000 3.256970 0.000000 
#    z 0.070880 0.000000 3.721090 
# 
# 
# High freq. dielectric constant tensor:
#      x y z
#    x 1.794020 0.000000 0.003580 
#    y 0.000000 1.730070 0.000000 
#    z 0.003580 0.000000 1.780090 
# 
# From -- ./inp_files/22098.got.cif
#   From: 2010.06.25/outbox.cif.g09.slc.cpg/sg10_12_cif.got.tgz:22098.got - 2010.06.27 22:07:45.
