data_PCOD8062804
_publ_section_title
;
Structure prediction by ZEFSAII (Michael W. Deem and Ramdas Pophale) SiO2 
 PCOD8062804
Probable space group: P 2/M
;
_chemical_formula_sum "Si O2"
_cell_formula_units_Z 24
_cell_length_a 14.062329
_cell_length_b 12.741399
_cell_length_c 14.062320
_cell_angle_alpha 90.000000
_cell_angle_beta 149.126348
_cell_angle_gamma 90.000000
_cell_volume 1292.923442
_symmetry_space_group_name_H-M "P 2/M"
_symmetry_group_IT_number 10
_symmetry_cell_setting 'monoclinic'
loop_
_space_group_symop_operation_xyz
x,y,z
-x,y,-z
-x,-y,-z
x,-y,z
loop_
_atom_site_type_symbol
_atom_site_label
_atom_site_fract_x
_atom_site_fract_y
_atom_site_fract_z
Si Si1 0.013864 0.000000 0.899963
Si Si2 0.656725 0.805958 0.416542
Si Si3 0.442690 0.875973 0.057310
Si Si4 0.013254 0.384251 0.903881
Si Si5 0.403882 0.615749 0.513254
Si Si6 0.399963 0.000000 0.513865
Si Si7 0.083457 0.194042 0.843275
O O1 0.815986 0.000000 0.684013
O O2 0.115006 0.895770 0.949774
O O3 0.000000 0.000000 0.000000
O O4 0.600532 0.823338 0.259061
O O5 0.566812 0.696670 0.375354
O O6 0.550225 0.895770 0.384994
O O7 0.880147 0.809022 0.619853
O O8 0.432759 0.000000 0.067241
O O9 0.500000 0.849338 0.000000
O O10 0.240938 0.823338 0.899468
O O11 0.109174 0.500000 0.985042
O O12 0.811384 0.393769 0.688616
O O13 0.124646 0.303330 0.933188
O O14 0.000000 0.340897 0.000000
O O15 0.500000 0.659103 0.500000
O O16 0.485043 0.500000 0.609174
O O17 0.500000 0.000000 0.500000
#
# Coordination Sequence:
#
# PCOD8062804 Si02
#       7
#     2   4   4   4   4   2   4
#     4  10  20  30  48  77 109 146 176 210 269 330
#     4  10  21  37  54  80 114 144 182 229 281 331
#     4  11  24  40  61  83 105 143 194 241 291 338
#     4   9  18  32  52  81 115 153 189 219 265 329
#     4   9  18  32  52  81 115 153 189 219 265 329
#     4  10  20  30  48  77 109 146 176 210 269 330
#     4  10  21  37  54  80 114 144 182 229 281 331
#
# _framework density 18.562584000000001
#
# number of rings (size 3 to 8) (size 9 to 14) (size 15 to 20)
#    0.000    2.167    1.667    1.000    4.667    0.667 
#    0.000    1.667    0.000    2.000    0.000    4.667 
#    0.000    0.000    0.000    0.000    0.000    0.000 
#
# Total GULP energy -297483.943239 kJ/mol
# GULP energy per Si atom -12395.164302 kJ/mol
# Density = 1.852034 g / cm^3
# Si number density = 18.562584 Si / 1000 Ang^3
#
#
#
# Elastic Constant Matrix: (Units=GPa)
#
#
# Indices 1 2 3 4 5 6 
#
# 1 141.1599 72.0070 45.4113 0.0000 -9.0299 0.0000
# 2 72.0070 126.9085 37.8351 0.0000 -9.8647 0.0000
# 3 45.4113 37.8351 69.1101 0.0000 -11.7687 0.0000
# 4 0.0000 0.0000 0.0000 7.2982 0.0000 -6.2885
# 5 -9.0299 -9.8647 -11.7687 0.0000 31.4431 0.0000
# 6 0.0000 0.0000 0.0000 -6.2885 0.0000 29.0825
#
#
#
# Elastic Compliance Matrix: (Units=1/GPa)
#
#
# Indices 1 2 3 4 5 6 
#
# 1 0.011063 -0.004914 -0.004593 0.000000 -0.000084 0.000000
# 2 -0.004914 0.011635 -0.002947 0.000000 0.001136 0.000000
# 3 -0.004593 -0.002947 0.019994 0.000000 0.005240 0.000000
# 4 0.000000 0.000000 0.000000 0.168396 0.000000 0.036412
# 5 -0.000084 0.001136 0.005240 0.000000 0.034097 0.000000
# 6 0.000000 0.000000 0.000000 0.036412 0.000000 0.042258
#
#
# Mechanical properties :
#
#
# Convention : Reuss Voigt Hill
#
# Bulk Modulus (GPa) = 56.23620 71.96505 64.10063
# Shear Modulus (GPa) = 15.70942 25.69309 20.70126
#
# Velocity S-wave (km/s) = 2.91227 3.72443 3.34311
# Velocity P-wave (km/s) = 6.45520 7.57286 7.03626
#
# Compressibility (1/GPa) = 0.01778214
#
# Stress axis : x y z
#
# Youngs Moduli (GPa) = 90.38822 85.94773 50.01593
#
# Poissons Ratio (x) = 0.42238 0.22975
# Poissons Ratio (y) = 0.44420 0.14740
# Poissons Ratio (z) = 0.41519 0.25330
#
# Static dielectric constant tensor:
#      x y z
#    x 3.200120 0.000000 0.242220 
#    y 0.000000 4.153170 0.000000 
#    z 0.242220 0.000000 4.039200 
# 
# 
# High freq. dielectric constant tensor:
#      x y z
#    x 1.691770 0.000000 0.008570 
#    y 0.000000 1.727760 0.000000 
#    z 0.008570 0.000000 1.721470 
# 
# From -- ./inp_files/37482.got.cif
#   From: 2010.06.25/outbox.cif.g09.slc.cpg/sg10_19_cif.got.tgz:37482.got - 2010.06.27 22:07:45.
