data_PCOD8062578
_publ_section_title
;
Structure prediction by ZEFSAII (Michael W. Deem and Ramdas Pophale) SiO2 
 PCOD8062578
Probable space group: P 2/M
;
_chemical_formula_sum "Si O2"
_cell_formula_units_Z 32
_cell_length_a 20.588717
_cell_length_b 9.060146
_cell_length_c 14.154890
_cell_angle_alpha 90.000000
_cell_angle_beta 136.972093
_cell_angle_gamma 90.000000
_cell_volume 1801.694025
_symmetry_space_group_name_H-M "P 2/M"
_symmetry_group_IT_number 10
_symmetry_cell_setting 'monoclinic'
loop_
_space_group_symop_operation_xyz
x,y,z
-x,y,-z
-x,-y,-z
x,-y,z
loop_
_atom_site_type_symbol
_atom_site_label
_atom_site_fract_x
_atom_site_fract_y
_atom_site_fract_z
Si Si1 0.537546 0.331947 0.340130
Si Si2 0.298806 0.331435 0.632252
Si Si3 0.640877 0.173947 0.918647
Si Si4 0.835577 0.174344 0.644213
Si Si5 0.602379 0.328381 0.072404
Si Si6 0.013435 0.672974 0.906146
Si Si7 0.702983 0.330307 0.648805
Si Si8 0.774235 0.670475 0.926068
O O1 0.500179 0.500000 0.297573
O O2 0.604444 0.298714 0.321751
O O3 0.447607 0.225074 0.239813
O O4 0.595723 0.300929 0.498504
O O5 0.267931 0.500000 0.581774
O O6 0.213794 0.228109 0.505341
O O7 0.318467 0.300491 0.763007
O O8 0.737965 0.231507 0.974329
O O9 0.643141 0.000000 0.926060
O O10 0.634258 0.236161 0.016614
O O11 0.776705 0.227769 0.672311
O O12 0.941539 0.239265 0.762220
O O13 0.840407 0.000000 0.648755
O O14 0.595624 0.500000 0.036943
O O15 0.500000 0.272842 0.000000
O O16 0.993204 0.500000 0.874603
O O17 0.118551 0.715983 0.984303
O O18 0.000000 0.723548 0.000000
O O19 0.732868 0.500000 0.659661
O O20 0.707540 0.296794 0.764446
O O21 0.767863 0.500000 0.948737
#
# Coordination Sequence:
#
# PCOD8062578 Si02
#       8
#     4   4   4   4   4   4   4   4
#     4   9  17  33  55  77 105 143 189 228 262 312
#     4   9  18  34  58  82 106 139 183 231 266 311
#     4  12  25  36  50  78 118 151 177 220 279 340
#     4  11  21  31  51  84 120 146 169 215 279 339
#     4  10  19  37  62  83 103 138 190 235 268 311
#     4  10  19  36  61  83 104 138 190 237 269 311
#     4   9  18  35  56  77 103 143 193 232 262 307
#     4  10  21  38  59  78 103 144 191 234 269 315
#
# _framework density 17.761061999999999
#
# number of rings (size 3 to 8) (size 9 to 14) (size 15 to 20)
#    0.000    2.000    2.500    3.000    0.000    4.500 
#    0.000    2.500    0.000    0.750    0.000    5.250 
#    0.000    0.000    0.000    0.000    0.000    0.000 
#
# Total GULP energy -396876.251524 kJ/mol
# GULP energy per Si atom -12402.382860 kJ/mol
# Density = 1.772064 g / cm^3
# Si number density = 17.761062 Si / 1000 Ang^3
#
#
#
# Elastic Constant Matrix: (Units=GPa)
#
#
# Indices 1 2 3 4 5 6 
#
# 1 111.3839 60.6120 57.5763 0.0000 0.8202 0.0000
# 2 60.6120 102.7490 56.8529 0.0000 3.1709 0.0000
# 3 57.5763 56.8529 96.0529 0.0000 2.3752 0.0000
# 4 0.0000 0.0000 0.0000 10.7003 0.0000 2.5009
# 5 0.8202 3.1709 2.3752 0.0000 19.7667 0.0000
# 6 0.0000 0.0000 0.0000 2.5009 0.0000 16.8075
#
#
#
# Elastic Compliance Matrix: (Units=1/GPa)
#
#
# Indices 1 2 3 4 5 6 
#
# 1 0.015015 -0.005791 -0.005597 0.000000 0.000978 0.000000
# 2 -0.005791 0.016739 -0.006395 0.000000 -0.001676 0.000000
# 3 -0.005597 -0.006395 0.017572 0.000000 -0.000853 0.000000
# 4 0.000000 0.000000 0.000000 0.096823 0.000000 -0.014407
# 5 0.000978 -0.001676 -0.000853 0.000000 0.050921 0.000000
# 6 0.000000 0.000000 0.000000 -0.014407 0.000000 0.061641
#
#
# Mechanical properties :
#
#
# Convention : Reuss Voigt Hill
#
# Bulk Modulus (GPa) = 72.67220 73.36314 73.01767
# Shear Modulus (GPa) = 16.73006 18.46453 17.59730
#
# Velocity S-wave (km/s) = 3.07245 3.22779 3.15108
# Velocity P-wave (km/s) = 7.32066 7.43551 7.37831
#
# Compressibility (1/GPa) = 0.01376042
#
# Stress axis : x y z
#
# Youngs Moduli (GPa) = 66.59944 59.74238 56.90809
#
# Poissons Ratio (x) = 0.34595 0.31852
# Poissons Ratio (y) = 0.38565 0.36392
# Poissons Ratio (z) = 0.37277 0.38205
#
# Static dielectric constant tensor:
#      x y z
#    x 3.079570 0.000000 -0.051050 
#    y 0.000000 3.125380 0.000000 
#    z -0.051050 0.000000 3.468650 
# 
# 
# High freq. dielectric constant tensor:
#      x y z
#    x 1.663380 0.000000 -0.002580 
#    y 0.000000 1.673670 0.000000 
#    z -0.002580 0.000000 1.693330 
# 
# From -- ./inp_files/70010.got.cif
#   From: 2010.06.25/outbox.cif.g09.slc.cpg/sg10_36_cif.got.tgz:70010.got - 2010.06.27 22:07:45.
