data_PCOD8062905
_publ_section_title
;
Structure prediction by ZEFSAII (Michael W. Deem and Ramdas Pophale) SiO2 
 PCOD8062905
Probable space group: P 2/M
;
_chemical_formula_sum "Si O2"
_cell_formula_units_Z 32
_cell_length_a 23.182007
_cell_length_b 9.640280
_cell_length_c 16.622373
_cell_angle_alpha 90.000000
_cell_angle_beta 31.300529
_cell_angle_gamma 90.000000
_cell_volume 1929.931203
_symmetry_space_group_name_H-M "P 2/M"
_symmetry_group_IT_number 10
_symmetry_cell_setting 'monoclinic'
loop_
_space_group_symop_operation_xyz
x,y,z
-x,y,-z
-x,-y,-z
x,-y,z
loop_
_atom_site_type_symbol
_atom_site_label
_atom_site_fract_x
_atom_site_fract_y
_atom_site_fract_z
Si Si1 0.892347 0.165103 0.449170
Si Si2 0.427923 0.339256 0.395626
Si Si3 0.126297 0.163073 0.356178
Si Si4 0.124988 0.159404 0.845369
Si Si5 0.302172 0.657436 0.704738
Si Si6 0.328766 0.341442 0.854689
Si Si7 0.752262 0.838949 0.465945
Si Si8 0.148003 0.165197 0.156320
O O1 0.835077 0.219402 0.601768
O O2 0.817857 0.222126 0.464894
O O3 0.021214 0.212255 0.288539
O O4 0.891947 0.000000 0.447802
O O5 0.404640 0.500000 0.404318
O O6 0.391045 0.301645 0.530494
O O7 0.558346 0.304435 0.232150
O O8 0.361290 0.246671 0.410552
O O9 0.184400 0.214492 0.204154
O O10 0.000000 0.208249 0.500000
O O11 0.138100 0.000000 0.343228
O O12 0.194605 0.246158 0.826505
O O13 0.166962 0.184344 0.705272
O O14 0.134198 0.000000 0.860416
O O15 0.000000 0.213111 0.000000
O O16 0.262494 0.500000 0.739753
O O17 0.355787 0.679158 0.728197
O O18 0.293353 0.500000 0.914193
O O19 0.229641 0.240802 0.997906
O O20 0.720620 0.000000 0.514579
O O21 0.160528 0.000000 0.131213
#
# Coordination Sequence:
#
# PCOD8062905 Si02
#       8
#     4   4   4   4   4   4   4   4
#     4   8  14  26  47  71  95 120 147 181 220 266
#     4   9  18  34  50  62  84 120 158 193 228 262
#     4   7  11  23  43  68  93 117 146 179 215 262
#     4   9  18  29  42  63  95 125 144 174 224 273
#     4   9  18  32  48  64  82 115 160 193 220 260
#     4  10  20  32  47  67  91 118 150 192 234 268
#     4   9  17  29  46  68  90 117 152 186 221 264
#     4   9  17  28  47  73  96 118 146 180 225 275
#
# _framework density 16.580901999999998
#
# number of rings (size 3 to 8) (size 9 to 14) (size 15 to 20)
#    0.000    3.250    0.000    1.875    1.750    2.750 
#    0.000    0.625    0.000    8.625    0.000    5.250 
#    0.000    0.000    0.000    0.000    0.000    0.000 
#
# Total GULP energy -396472.822406 kJ/mol
# GULP energy per Si atom -12389.775700 kJ/mol
# Density = 1.654316 g / cm^3
# Si number density = 16.580902 Si / 1000 Ang^3
#
#
#
# Elastic Constant Matrix: (Units=GPa)
#
#
# Indices 1 2 3 4 5 6 
#
# 1 115.9122 35.5200 37.2299 0.0000 -6.6549 0.0000
# 2 35.5200 40.7880 24.7312 0.0000 -6.8244 0.0000
# 3 37.2299 24.7312 48.1522 0.0000 -5.7866 0.0000
# 4 0.0000 0.0000 0.0000 18.6537 0.0000 -5.4107
# 5 -6.6549 -6.8244 -5.7866 0.0000 21.9488 0.0000
# 6 0.0000 0.0000 0.0000 -5.4107 0.0000 15.6994
#
#
#
# Elastic Compliance Matrix: (Units=1/GPa)
#
#
# Indices 1 2 3 4 5 6 
#
# 1 0.012895 -0.007535 -0.006105 0.000000 -0.000043 0.000000
# 2 -0.007535 0.040915 -0.014390 0.000000 0.006643 0.000000
# 3 -0.006105 -0.014390 0.033169 0.000000 0.002419 0.000000
# 4 0.000000 0.000000 0.000000 0.059563 0.000000 0.020528
# 5 -0.000043 0.006643 0.002419 0.000000 0.048251 0.000000
# 6 0.000000 0.000000 0.000000 0.020528 0.000000 0.070771
#
#
# Mechanical properties :
#
#
# Convention : Reuss Voigt Hill
#
# Bulk Modulus (GPa) = 32.34228 44.42384 38.38306
# Shear Modulus (GPa) = 15.06335 18.41847 16.74091
#
# Velocity S-wave (km/s) = 3.01736 3.33652 3.18095
# Velocity P-wave (km/s) = 5.62916 6.45705 6.05726
#
# Compressibility (1/GPa) = 0.03091928
#
# Stress axis : x y z
#
# Youngs Moduli (GPa) = 77.55224 24.44069 30.14819
#
# Poissons Ratio (x) = 0.18415 0.18406
# Poissons Ratio (y) = 0.58432 0.43385
# Poissons Ratio (z) = 0.47346 0.35171
#
# Static dielectric constant tensor:
#      x y z
#    x 3.446250 0.000000 0.113570 
#    y 0.000000 2.867460 0.000000 
#    z 0.113570 0.000000 2.993200 
# 
# 
# High freq. dielectric constant tensor:
#      x y z
#    x 1.641450 0.000000 0.005660 
#    y 0.000000 1.609200 0.000000 
#    z 0.005660 0.000000 1.618410 
# 
# From -- ./inp_files/54772.got.cif
#   From: 2010.06.25/outbox.cif.g09.slc.cpg/sg10_28_cif.got.tgz:54772.got - 2010.06.27 22:07:45.
