data_PCOD8062411
_publ_section_title
;
Structure prediction by ZEFSAII (Michael W. Deem and Ramdas Pophale) SiO2 
 PCOD8062411
Probable space group: P 2/M
;
_chemical_formula_sum "Si O2"
_cell_formula_units_Z 32
_cell_length_a 32.446829
_cell_length_b 8.992544
_cell_length_c 12.862971
_cell_angle_alpha 90.000000
_cell_angle_beta 154.443167
_cell_angle_gamma 90.000000
_cell_volume 1619.132850
_symmetry_space_group_name_H-M "P 2/M"
_symmetry_group_IT_number 10
_symmetry_cell_setting 'monoclinic'
loop_
_space_group_symop_operation_xyz
x,y,z
-x,y,-z
-x,-y,-z
x,-y,z
loop_
_atom_site_type_symbol
_atom_site_label
_atom_site_fract_x
_atom_site_fract_y
_atom_site_fract_z
Si Si1 0.401111 0.837878 0.549119
Si Si2 0.790269 0.324251 0.128352
Si Si3 0.883218 0.325482 0.550394
Si Si4 0.551804 0.324388 0.015022
Si Si5 0.232937 0.677419 0.518254
Si Si6 0.192266 0.176540 0.051930
Si Si7 0.398945 0.164818 0.301247
Si Si8 0.098886 0.325115 0.026512
O O1 0.484746 0.723894 0.767528
O O2 0.397227 0.856494 0.418754
O O3 0.420935 0.000000 0.645473
O O4 0.295062 0.778478 0.336910
O O5 0.794189 0.500000 0.119443
O O6 0.857047 0.268754 0.375181
O O7 0.824080 0.245596 0.099445
O O8 0.683978 0.276842 0.921841
O O9 0.866405 0.500000 0.514054
O O10 0.815405 0.256970 0.486580
O O11 0.992732 0.285625 0.824628
O O12 0.557320 0.500000 0.030862
O O13 0.500000 0.260946 0.000000
O O14 0.658863 0.259635 0.246028
O O15 0.232933 0.500000 0.520963
O O16 0.172310 0.732476 0.281087
O O17 0.182980 0.000000 0.019639
O O18 0.113865 0.240649 0.951870
O O19 0.500000 0.236766 0.500000
O O20 0.386034 0.000000 0.220231
O O21 0.110454 0.500000 0.032129
#
# Coordination Sequence:
#
# PCOD8062411 Si02
#       8
#     4   4   4   4   4   4   4   4
#     4   9  19  34  51  73 101 139 178 213 258 315
#     4  10  20  34  54  82 113 142 184 231 273 323
#     4   9  19  34  54  83 114 143 179 230 280 326
#     4  10  20  32  50  79 111 140 174 221 268 314
#     4   9  18  33  54  81 114 146 179 223 278 330
#     4  10  21  38  57  78 111 147 182 228 281 332
#     4   9  19  35  53  74 107 146 181 217 263 322
#     4  10  19  35  61  83 103 140 189 231 274 329
#
# _framework density 19.763665
#
# number of rings (size 3 to 8) (size 9 to 14) (size 15 to 20)
#    0.000    2.500    0.000    2.625    1.750    6.000 
#    0.000    4.375    0.000    3.750    0.000    0.000 
#    0.000    0.000    0.000    0.000    0.000    0.000 
#
# Total GULP energy -396668.843835 kJ/mol
# GULP energy per Si atom -12395.901370 kJ/mol
# Density = 1.971868 g / cm^3
# Si number density = 19.763665 Si / 1000 Ang^3
#
#
#
# Elastic Constant Matrix: (Units=GPa)
#
#
# Indices 1 2 3 4 5 6 
#
# 1 114.6169 30.5005 54.6822 0.0000 14.0745 0.0000
# 2 30.5005 42.7859 27.0000 0.0000 -1.4718 0.0000
# 3 54.6822 27.0000 114.5755 0.0000 -0.3687 0.0000
# 4 0.0000 0.0000 0.0000 16.2546 0.0000 5.2146
# 5 14.0745 -1.4718 -0.3687 0.0000 29.4507 0.0000
# 6 0.0000 0.0000 0.0000 5.2146 0.0000 19.8321
#
#
#
# Elastic Compliance Matrix: (Units=1/GPa)
#
#
# Indices 1 2 3 4 5 6 
#
# 1 0.013807 -0.006943 -0.004976 0.000000 -0.007008 0.000000
# 2 -0.006943 0.030996 -0.003975 0.000000 0.004818 0.000000
# 3 -0.004976 -0.003975 0.012047 0.000000 0.002330 0.000000
# 4 0.000000 0.000000 0.000000 0.067188 0.000000 -0.017666
# 5 -0.007008 0.004818 0.002330 0.000000 0.037574 0.000000
# 6 0.000000 0.000000 0.000000 -0.017666 0.000000 0.055069
#
#
# Mechanical properties :
#
#
# Convention : Reuss Voigt Hill
#
# Bulk Modulus (GPa) = 39.90216 55.14931 47.52574
# Shear Modulus (GPa) = 19.46870 23.76052 21.61461
#
# Velocity S-wave (km/s) = 3.14200 3.47108 3.31063
# Velocity P-wave (km/s) = 5.77896 6.63548 6.22197
#
# Compressibility (1/GPa) = 0.02506130
#
# Stress axis : x y z
#
# Youngs Moduli (GPa) = 72.42814 32.26221 83.00970
#
# Poissons Ratio (x) = 0.22401 0.41303
# Poissons Ratio (y) = 0.50290 0.32996
# Poissons Ratio (z) = 0.36038 0.12824
#
# Static dielectric constant tensor:
#      x y z
#    x 4.200810 0.000000 0.756890 
#    y 0.000000 3.338680 0.000000 
#    z 0.756890 0.000000 4.520120 
# 
# 
# High freq. dielectric constant tensor:
#      x y z
#    x 1.777560 0.000000 0.006380 
#    y 0.000000 1.735600 0.000000 
#    z 0.006380 0.000000 1.773000 
# 
# From -- ./inp_files/58371.got.cif
#   From: 2010.06.25/outbox.cif.g09.slc.cpg/sg10_30_cif.got.tgz:58371.got - 2010.06.27 22:07:45.
