data_PCOD8062028
_publ_section_title
;
Structure prediction by ZEFSAII (Michael W. Deem and Ramdas Pophale) SiO2 
 PCOD8062028
Probable space group: P 2/M
;
_chemical_formula_sum "Si O2"
_cell_formula_units_Z 20
_cell_length_a 19.034986
_cell_length_b 8.186919
_cell_length_c 20.832249
_cell_angle_alpha 90.000000
_cell_angle_beta 166.355186
_cell_angle_gamma 90.000000
_cell_volume 765.845771
_symmetry_space_group_name_H-M "P 2/M"
_symmetry_group_IT_number 10
_symmetry_cell_setting 'monoclinic'
loop_
_space_group_symop_operation_xyz
x,y,z
-x,y,-z
-x,-y,-z
x,-y,z
loop_
_atom_site_type_symbol
_atom_site_label
_atom_site_fract_x
_atom_site_fract_y
_atom_site_fract_z
Si Si1 0.829646 0.500000 0.222938
Si Si2 0.147220 0.310240 0.317628
Si Si3 0.087714 0.822926 0.651112
Si Si4 0.473371 0.500000 0.177271
Si Si5 0.156630 0.312701 0.076880
Si Si6 0.352118 0.177290 0.623780
O O1 0.706306 0.666750 0.146910
O O2 0.187777 0.500000 0.546631
O O3 0.750176 0.500000 0.079076
O O4 0.052196 0.500000 0.246849
O O5 0.492038 0.295911 0.604062
O O6 0.112143 0.209961 0.353673
O O7 0.962089 0.228488 0.094561
O O8 0.000000 0.799100 0.500000
O O9 0.802181 0.823103 0.443874
O O10 0.251731 0.000000 0.805720
O O11 0.415263 0.333210 0.168361
O O12 0.048806 0.500000 0.977037
O O13 0.000000 0.230923 0.000000
O O14 0.506796 0.000000 0.750627
#
# Coordination Sequence:
#
# PCOD8062028 Si02
#       6
#     2   4   4   2   4   4
#     4  10  21  38  62  86 118 154 202 254 312 362
#     4  10  19  34  57  86 122 156 198 250 298 358
#     4   9  19  38  63  91 124 165 212 260 310 366
#     4  10  22  40  61  88 119 158 201 252 303 364
#     4   9  18  33  58  89 119 157 200 243 298 361
#     4  10  21  39  61  89 125 164 207 256 311 367
#
# _framework density 26.114917999999999
#
# number of rings (size 3 to 8) (size 9 to 14) (size 15 to 20)
#    0.000    2.400    1.000    0.900    0.000    6.400 
#    0.000   13.000    0.000   14.400    0.000    0.000 
#    0.000    0.000    0.000    0.000    0.000    0.000 
#
# Total GULP energy -247803.063532 kJ/mol
# GULP energy per Si atom -12390.153177 kJ/mol
# Density = 2.605548 g / cm^3
# Si number density = 26.114918 Si / 1000 Ang^3
#
#
#
# Elastic Constant Matrix: (Units=GPa)
#
#
# Indices 1 2 3 4 5 6 
#
# 1 161.8850 28.2738 45.9553 0.0000 -31.9386 0.0000
# 2 28.2738 239.4522 48.3805 0.0000 -31.2431 0.0000
# 3 45.9553 48.3805 63.9207 0.0000 -21.8859 0.0000
# 4 0.0000 0.0000 0.0000 17.7256 0.0000 32.2501
# 5 -31.9386 -31.2431 -21.8859 0.0000 42.8688 0.0000
# 6 0.0000 0.0000 0.0000 32.2501 0.0000 15.4526
#
#
#
# Elastic Compliance Matrix: (Units=1/GPa)
#
#
# Indices 1 2 3 4 5 6 
#
# 1 0.008296 0.000558 -0.005007 0.000000 0.004032 0.000000
# 2 0.000558 0.005120 -0.003462 0.000000 0.002380 0.000000
# 3 -0.005007 -0.003462 0.023901 0.000000 0.005949 0.000000
# 4 0.000000 0.000000 0.000000 -0.020169 0.000000 0.042093
# 5 0.004032 0.002380 0.005949 0.000000 0.031103 0.000000
# 6 0.000000 0.000000 0.000000 0.042093 0.000000 -0.023136
#
#
# Mechanical properties :
#
#
# Convention : Reuss Voigt Hill
#
# Bulk Modulus (GPa) = 46.51793 78.94191 62.72992
# Shear Modulus (GPa) = 103.94561 38.05263 70.99912
#
# Velocity S-wave (km/s) = 6.31582 3.82137 5.21979
# Velocity P-wave (km/s) = 8.42838 7.05441 7.77182
#
# Compressibility (1/GPa) = 0.02149709
#
# Stress axis : x y z
#
# Youngs Moduli (GPa) = 120.53349 195.30150 41.83948
#
# Poissons Ratio (x) = -0.10898 0.20947
# Poissons Ratio (y) = -0.06726 0.14484
# Poissons Ratio (z) = 0.60346 0.67607
#
# Static dielectric constant tensor:
#      x y z
#    x 4.914380 0.000000 -0.236100 
#    y 0.000000 5.909280 0.000000 
#    z -0.236100 0.000000 4.437150 
# 
# 
# High freq. dielectric constant tensor:
#      x y z
#    x 2.071230 0.000000 -0.004110 
#    y 0.000000 2.031640 0.000000 
#    z -0.004110 0.000000 2.030430 
# 
# From -- ./inp_files/78839.got.cif
#   From: 2010.06.25/outbox.cif.g09.slc.cpg/sg10_40_cif.got.tgz:78839.got - 2010.06.27 22:07:45.
