data_PCOD8062373
_publ_section_title
;
Structure prediction by ZEFSAII (Michael W. Deem and Ramdas Pophale) SiO2 
 PCOD8062373
Probable space group: P 2/M
;
_chemical_formula_sum "Si O2"
_cell_formula_units_Z 32
_cell_length_a 15.500439
_cell_length_b 8.708180
_cell_length_c 26.351469
_cell_angle_alpha 90.000000
_cell_angle_beta 153.055767
_cell_angle_gamma 90.000000
_cell_volume 1611.730348
_symmetry_space_group_name_H-M "P 2/M"
_symmetry_group_IT_number 10
_symmetry_cell_setting 'monoclinic'
loop_
_space_group_symop_operation_xyz
x,y,z
-x,y,-z
-x,-y,-z
x,-y,z
loop_
_atom_site_type_symbol
_atom_site_label
_atom_site_fract_x
_atom_site_fract_y
_atom_site_fract_z
Si Si1 0.903172 0.682182 0.499789
Si Si2 0.573859 0.681960 0.876582
Si Si3 0.611145 0.181301 0.510084
Si Si4 0.799890 0.317641 0.262010
Si Si5 0.306365 0.819313 0.269855
Si Si6 0.060710 0.681862 0.870233
Si Si7 0.475724 0.317547 0.263552
Si Si8 0.034037 0.182049 0.747000
O O1 0.908589 0.500000 0.498807
O O2 0.686413 0.739579 0.389638
O O3 0.000000 0.751466 0.500000
O O4 0.020394 0.738594 0.610183
O O5 0.561350 0.500000 0.868631
O O6 0.392075 0.744499 0.812236
O O7 0.569732 0.743006 0.816728
O O8 0.766210 0.739809 0.003849
O O9 0.500000 0.252528 0.500000
O O10 0.500250 0.227582 0.400832
O O11 0.825449 0.246816 0.621771
O O12 0.620560 0.000000 0.521452
O O13 0.796283 0.500000 0.254319
O O14 0.813964 0.241976 0.214128
O O15 0.324113 0.760863 0.221622
O O16 0.133421 0.736744 0.206620
O O17 0.269418 0.000000 0.252245
O O18 0.059462 0.500000 0.864500
O O19 0.092712 0.754011 0.832139
O O20 0.455265 0.500000 0.256933
O O21 0.037551 0.000000 0.750953
#
# Coordination Sequence:
#
# PCOD8062373 Si02
#       8
#     4   4   4   4   4   4   4   4
#     4   9  15  28  57  90 116 142 180 231 279 320
#     4   9  20  38  60  81 110 151 190 229 276 326
#     4   9  17  34  58  79 107 149 182 212 273 346
#     4  10  19  35  59  87 115 147 185 227 276 331
#     4  11  22  38  59  84 114 148 182 226 283 337
#     4  11  23  40  59  81 107 145 196 239 272 322
#     4  10  19  35  59  87 115 147 185 227 276 331
#     4  11  22  38  59  84 114 148 182 226 283 337
#
# _framework density 19.854437999999998
#
# number of rings (size 3 to 8) (size 9 to 14) (size 15 to 20)
#    0.000    2.000    2.500    1.875    0.000    1.000 
#    0.000   10.625    0.000    0.750    0.000    0.000 
#    0.000    0.000    0.000    0.000    0.000    0.000 
#
# Total GULP energy -396840.916886 kJ/mol
# GULP energy per Si atom -12401.278653 kJ/mol
# Density = 1.980925 g / cm^3
# Si number density = 19.854438 Si / 1000 Ang^3
#
#
#
# Elastic Constant Matrix: (Units=GPa)
#
#
# Indices 1 2 3 4 5 6 
#
# 1 137.6240 23.1061 25.3873 0.0000 -29.9436 0.0000
# 2 23.1061 35.2645 17.4961 0.0000 -1.9295 0.0000
# 3 25.3873 17.4961 89.1678 0.0000 -18.0888 0.0000
# 4 0.0000 0.0000 0.0000 17.8434 0.0000 1.0603
# 5 -29.9436 -1.9295 -18.0888 0.0000 17.2044 0.0000
# 6 0.0000 0.0000 0.0000 1.0603 0.0000 8.1180
#
#
#
# Elastic Compliance Matrix: (Units=1/GPa)
#
#
# Indices 1 2 3 4 5 6 
#
# 1 0.014101 -0.009401 0.003298 0.000000 0.026956 0.000000
# 2 -0.009401 0.037875 -0.009168 0.000000 -0.021753 0.000000
# 3 0.003298 -0.009168 0.016563 0.000000 0.022127 0.000000
# 4 0.000000 0.000000 0.000000 0.056481 0.000000 -0.007377
# 5 0.026956 -0.021753 0.022127 0.000000 0.125865 0.000000
# 6 0.000000 0.000000 0.000000 -0.007377 0.000000 0.124147
#
#
# Mechanical properties :
#
#
# Convention : Reuss Voigt Hill
#
# Bulk Modulus (GPa) = 26.31709 43.78170 35.04939
# Shear Modulus (GPa) = 11.95487 21.70429 16.82958
#
# Velocity S-wave (km/s) = 2.45649 3.30990 2.91460
# Velocity P-wave (km/s) = 4.61839 6.05859 5.38684
#
# Compressibility (1/GPa) = 0.03799813
#
# Stress axis : x y z
#
# Youngs Moduli (GPa) = 70.91715 26.40260 60.37390
#
# Poissons Ratio (x) = 0.24820 -0.19912
# Poissons Ratio (y) = 0.66667 0.55351
# Poissons Ratio (z) = -0.23389 0.24206
#
# Static dielectric constant tensor:
#      x y z
#    x 3.719730 0.000000 -0.024290 
#    y 0.000000 3.155030 0.000000 
#    z -0.024290 0.000000 3.816570 
# 
# 
# High freq. dielectric constant tensor:
#      x y z
#    x 1.790650 0.000000 -0.003800 
#    y 0.000000 1.735170 0.000000 
#    z -0.003800 0.000000 1.775690 
# 
# From -- ./inp_files/89586.got.cif
#   From: 2010.06.25/outbox.cif.g09.slc.cpg/sg10_45_cif.got.tgz:89586.got - 2010.06.27 22:07:45.
