data_PCOD8062628
_publ_section_title
;
Structure prediction by ZEFSAII (Michael W. Deem and Ramdas Pophale) SiO2 
 PCOD8062628
Probable space group: P 2/M
;
_chemical_formula_sum "Si O2"
_cell_formula_units_Z 32
_cell_length_a 9.010715
_cell_length_b 14.511575
_cell_length_c 25.499323
_cell_angle_alpha 90.000000
_cell_angle_beta 29.577115
_cell_angle_gamma 90.000000
_cell_volume 1645.783852
_symmetry_space_group_name_H-M "P 2/M"
_symmetry_group_IT_number 10
_symmetry_cell_setting 'monoclinic'
loop_
_space_group_symop_operation_xyz
x,y,z
-x,y,-z
-x,-y,-z
x,-y,z
loop_
_atom_site_type_symbol
_atom_site_label
_atom_site_fract_x
_atom_site_fract_y
_atom_site_fract_z
Si Si1 0.768784 0.099940 0.618877
Si Si2 0.695215 0.104456 0.062536
Si Si3 0.181879 0.603002 0.198008
Si Si4 0.671625 0.721189 0.001810
Si Si5 0.082204 0.895703 0.309503
Si Si6 0.643157 0.278740 0.612253
Si Si7 0.840938 0.397555 0.193657
Si Si8 0.299584 0.729856 0.609931
O O1 0.936187 0.120460 0.622266
O O2 0.551543 0.185355 0.672334
O O3 0.000000 0.096077 0.500000
O O4 0.600684 0.000000 0.674633
O O5 0.699632 0.174176 0.012566
O O6 0.418213 0.125663 0.186404
O O7 0.675020 0.000000 0.046742
O O8 0.000000 0.119789 0.000000
O O9 0.247561 0.500000 0.198830
O O10 0.490572 0.660031 0.099715
O O11 0.036711 0.598125 0.185654
O O12 0.961798 0.654121 0.305863
O O13 0.500000 0.725289 0.000000
O O14 0.997241 0.672790 0.895991
O O15 0.842494 0.830724 0.354555
O O16 0.988595 0.000000 0.324206
O O17 0.493977 0.362823 0.689678
O O18 0.509882 0.268348 0.595740
O O19 0.000000 0.295444 0.500000
O O20 0.816934 0.500000 0.176337
O O21 0.500000 0.698445 0.500000
#
# Coordination Sequence:
#
# PCOD8062628 Si02
#       8
#     4   4   4   4   4   4   4   4
#     4   9  18  34  55  79 108 143 185 228 273 329
#     4  10  22  39  58  85 120 156 185 221 285 350
#     4   9  18  35  57  83 114 145 184 235 287 336
#     4  10  19  36  63  89 112 144 191 239 282 330
#     4  10  21  38  59  82 113 152 190 229 281 341
#     4  10  21  36  55  83 116 151 189 234 285 334
#     4   9  19  34  57  86 112 145 189 234 283 338
#     4  11  21  35  57  83 113 149 192 234 281 336
#
# _framework density 19.443622000000001
#
# number of rings (size 3 to 8) (size 9 to 14) (size 15 to 20)
#    0.000    2.250    1.250    1.875    1.750    3.000 
#    0.000    0.000    0.000    6.750    0.000    0.000 
#    0.000    0.000    0.000    0.000    0.000    0.000 
#
# Total GULP energy -396681.566418 kJ/mol
# GULP energy per Si atom -12396.298951 kJ/mol
# Density = 1.939937 g / cm^3
# Si number density = 19.443622 Si / 1000 Ang^3
#
#
#
# Elastic Constant Matrix: (Units=GPa)
#
#
# Indices 1 2 3 4 5 6 
#
# 1 63.6197 45.1571 46.3815 0.0000 -1.0036 0.0000
# 2 45.1571 153.0587 68.0316 0.0000 5.4615 0.0000
# 3 46.3815 68.0316 135.3705 0.0000 -3.3501 0.0000
# 4 0.0000 0.0000 0.0000 27.1113 0.0000 -3.2154
# 5 -1.0036 5.4615 -3.3501 0.0000 21.4835 0.0000
# 6 0.0000 0.0000 0.0000 -3.2154 0.0000 12.5920
#
#
#
# Elastic Compliance Matrix: (Units=1/GPa)
#
#
# Indices 1 2 3 4 5 6 
#
# 1 0.022911 -0.004288 -0.005663 0.000000 0.001277 0.000000
# 2 -0.004288 0.009387 -0.003325 0.000000 -0.003105 0.000000
# 3 -0.005663 -0.003325 0.011056 0.000000 0.002305 0.000000
# 4 0.000000 0.000000 0.000000 0.038037 0.000000 0.009713
# 5 0.001277 -0.003105 0.002305 0.000000 0.047756 0.000000
# 6 0.000000 0.000000 0.000000 0.009713 0.000000 0.081895
#
#
# Mechanical properties :
#
#
# Convention : Reuss Voigt Hill
#
# Bulk Modulus (GPa) = 59.52081 74.57660 67.04870
# Shear Modulus (GPa) = 20.55957 25.06928 22.81443
#
# Velocity S-wave (km/s) = 3.25529 3.59462 3.42915
# Velocity P-wave (km/s) = 6.69385 7.46103 7.08783
#
# Compressibility (1/GPa) = 0.01680085
#
# Stress axis : x y z
#
# Youngs Moduli (GPa) = 43.64752 106.52632 90.44978
#
# Poissons Ratio (x) = 0.45675 0.51226
# Poissons Ratio (y) = 0.18715 0.30079
# Poissons Ratio (z) = 0.24719 0.35425
#
# Static dielectric constant tensor:
#      x y z
#    x 3.205200 0.000000 0.054700 
#    y 0.000000 4.066780 0.000000 
#    z 0.054700 0.000000 3.661030 
# 
# 
# High freq. dielectric constant tensor:
#      x y z
#    x 1.724540 0.000000 0.004590 
#    y 0.000000 1.771390 0.000000 
#    z 0.004590 0.000000 1.761880 
# 
# From -- ./inp_files/88235.got.cif
#   From: 2010.06.25/outbox.cif.g09.slc.cpg/sg10_45_cif.got.tgz:88235.got - 2010.06.27 22:07:45.
