data_PCOD8062964
_publ_section_title
;
Structure prediction by ZEFSAII (Michael W. Deem and Ramdas Pophale) SiO2 
 PCOD8062964
Probable space group: P 2/M
;
_chemical_formula_sum "Si O2"
_cell_formula_units_Z 28
_cell_length_a 13.877020
_cell_length_b 9.620872
_cell_length_c 14.260868
_cell_angle_alpha 90.000000
_cell_angle_beta 53.060373
_cell_angle_gamma 90.000000
_cell_volume 1521.772356
_symmetry_space_group_name_H-M "P 2/M"
_symmetry_group_IT_number 10
_symmetry_cell_setting 'monoclinic'
loop_
_space_group_symop_operation_xyz
x,y,z
-x,y,-z
-x,-y,-z
x,-y,z
loop_
_atom_site_type_symbol
_atom_site_label
_atom_site_fract_x
_atom_site_fract_y
_atom_site_fract_z
Si Si1 0.343544 0.661862 0.345185
Si Si2 0.180980 0.844136 0.175218
Si Si3 0.453593 0.665310 0.628176
Si Si4 0.628744 0.349552 0.883578
Si Si5 0.807173 0.663143 0.154145
Si Si6 0.132865 0.843610 0.421546
Si Si7 0.051396 0.664133 0.111034
O O1 0.315481 0.500000 0.379415
O O2 0.448374 0.714840 0.352978
O O3 0.386544 0.695562 0.215211
O O4 0.220826 0.749142 0.433774
O O5 0.305363 0.760948 0.087438
O O6 0.169017 0.845913 0.292887
O O7 0.074220 0.757259 0.189310
O O8 0.187224 0.000000 0.130125
O O9 0.500000 0.721481 0.500000
O O10 0.444487 0.500000 0.630557
O O11 0.321239 0.727314 0.735358
O O12 0.696635 0.500000 0.847922
O O13 0.500000 0.369520 0.000000
O O14 0.791113 0.500000 0.159296
O O15 0.914878 0.701900 0.161986
O O16 0.850380 0.711476 0.025222
O O17 0.000000 0.777809 0.500000
O O18 0.133061 0.000000 0.463577
O O19 0.063006 0.500000 0.125246
#
# Coordination Sequence:
#
# PCOD8062964 Si02
#       7
#     4   4   4   4   4   4   4
#     4   9  18  31  49  76 102 126 161 205 248 288
#     4  10  20  32  48  73 101 127 160 204 250 298
#     4   9  17  29  47  73 104 132 161 203 254 300
#     4   9  18  31  49  73  99 130 164 198 240 295
#     4   8  16  30  48  70  97 131 169 205 248 300
#     4   9  19  36  53  68  95 136 170 197 242 300
#     4   9  17  31  52  74  97 129 168 209 249 297
#
# _framework density 18.399598999999998
#
# number of rings (size 3 to 8) (size 9 to 14) (size 15 to 20)
#    0.000    3.000    0.000    1.286    2.000    2.286 
#    0.000    2.857    0.000    1.286    0.000    0.000 
#    0.000    0.000    0.000    0.000    0.000    0.000 
#
# Total GULP energy -346924.030917 kJ/mol
# GULP energy per Si atom -12390.143961 kJ/mol
# Density = 1.835772 g / cm^3
# Si number density = 18.399599 Si / 1000 Ang^3
#
#
#
# Elastic Constant Matrix: (Units=GPa)
#
#
# Indices 1 2 3 4 5 6 
#
# 1 144.9856 58.1861 45.4684 0.0000 -15.4703 0.0000
# 2 58.1861 68.6046 19.0575 0.0000 -1.7329 0.0000
# 3 45.4684 19.0575 60.5071 0.0000 -24.5112 0.0000
# 4 0.0000 0.0000 0.0000 13.2232 0.0000 -3.6597
# 5 -15.4703 -1.7329 -24.5112 0.0000 30.2525 0.0000
# 6 0.0000 0.0000 0.0000 -3.6597 0.0000 6.6680
#
#
#
# Elastic Compliance Matrix: (Units=1/GPa)
#
#
# Indices 1 2 3 4 5 6 
#
# 1 0.012499 -0.008834 -0.006291 0.000000 0.000789 0.000000
# 2 -0.008834 0.022680 -0.002693 0.000000 -0.005400 0.000000
# 3 -0.006291 -0.002693 0.030868 0.000000 0.021639 0.000000
# 4 0.000000 0.000000 0.000000 0.089170 0.000000 0.048941
# 5 0.000789 -0.005400 0.021639 0.000000 0.050681 0.000000
# 6 0.000000 0.000000 0.000000 0.048941 0.000000 0.176832
#
#
# Mechanical properties :
#
#
# Convention : Reuss Voigt Hill
#
# Bulk Modulus (GPa) = 32.88065 57.72457 45.30261
# Shear Modulus (GPa) = 11.66852 20.12108 15.89480
#
# Velocity S-wave (km/s) = 2.52101 3.31049 2.94235
# Velocity P-wave (km/s) = 5.13645 6.78626 6.01816
#
# Compressibility (1/GPa) = 0.03041303
#
# Stress axis : x y z
#
# Youngs Moduli (GPa) = 80.00323 44.09141 32.39585
#
# Poissons Ratio (x) = 0.38950 0.20380
# Poissons Ratio (y) = 0.70673 0.08723
# Poissons Ratio (z) = 0.50329 0.11872
#
# Static dielectric constant tensor:
#      x y z
#    x 3.609490 0.000000 -0.174120 
#    y 0.000000 3.388560 0.000000 
#    z -0.174120 0.000000 3.439340 
# 
# 
# High freq. dielectric constant tensor:
#      x y z
#    x 1.720650 0.000000 -0.005060 
#    y 0.000000 1.676950 0.000000 
#    z -0.005060 0.000000 1.702290 
# 
# From -- ./inp_files/63628.got.cif
#   From: 2010.06.25/outbox.cif.g09.slc.cpg/sg10_32_cif.got.tgz:63628.got - 2010.06.27 22:07:45.
