data_PCOD8062350
_publ_section_title
;
Structure prediction by ZEFSAII (Michael W. Deem and Ramdas Pophale) SiO2 
 PCOD8062350
Probable space group: P 2/M
;
_chemical_formula_sum "Si O2"
_cell_formula_units_Z 28
_cell_length_a 27.213847
_cell_length_b 9.030190
_cell_length_c 9.386303
_cell_angle_alpha 90.000000
_cell_angle_beta 37.992452
_cell_angle_gamma 90.000000
_cell_volume 1419.875077
_symmetry_space_group_name_H-M "P 2/M"
_symmetry_group_IT_number 10
_symmetry_cell_setting 'monoclinic'
loop_
_space_group_symop_operation_xyz
x,y,z
-x,y,-z
-x,-y,-z
x,-y,z
loop_
_atom_site_type_symbol
_atom_site_label
_atom_site_fract_x
_atom_site_fract_y
_atom_site_fract_z
Si Si1 0.138427 0.326616 0.035729
Si Si2 0.426856 0.836495 0.270732
Si Si3 0.275528 0.325622 0.509725
Si Si4 0.014306 0.673639 0.804424
Si Si5 0.290906 0.172174 0.188320
Si Si6 0.853023 0.827994 0.679866
Si Si7 0.467557 0.176770 0.720446
O O1 0.142014 0.500000 0.060334
O O2 0.214530 0.272839 0.771174
O O3 0.136039 0.244882 0.191593
O O4 0.061320 0.285436 0.119540
O O5 0.363455 0.722930 0.354061
O O6 0.464736 0.767590 0.326082
O O7 0.387830 0.000000 0.384758
O O8 0.500000 0.857385 0.000000
O O9 0.271327 0.500000 0.499693
O O10 0.252038 0.254222 0.412358
O O11 0.033121 0.500000 0.756780
O O12 0.089171 0.759595 0.570183
O O13 0.000000 0.725005 0.000000
O O14 0.236996 0.197568 0.171429
O O15 0.296300 0.000000 0.216217
O O16 0.379132 0.238509 0.956551
O O17 0.872986 0.000000 0.650033
O O18 0.500000 0.242735 0.500000
O O19 0.462906 0.000000 0.730062
#
# Coordination Sequence:
#
# PCOD8062350 Si02
#       7
#     4   4   4   4   4   4   4
#     4  10  23  41  60  85 118 158 196 233 284 353
#     4  10  19  35  59  83 111 152 196 238 289 347
#     4  11  23  38  59  86 117 151 196 247 291 338
#     4  10  21  41  67  88 114 158 203 233 277 351
#     4  10  21  39  58  83 116 152 195 238 289 351
#     4  11  24  38  60  92 123 151 188 245 299 340
#     4   9  18  33  56  81 108 148 196 236 276 343
#
# _framework density 19.720044000000001
#
# number of rings (size 3 to 8) (size 9 to 14) (size 15 to 20)
#    0.000    1.857    1.429    2.143    2.000    6.286 
#    0.000    0.000    0.000    0.857    0.000    0.000 
#    0.000    0.000    0.000    0.000    0.000    0.000 
#
# Total GULP energy -347205.399302 kJ/mol
# GULP energy per Si atom -12400.192832 kJ/mol
# Density = 1.967516 g / cm^3
# Si number density = 19.720044 Si / 1000 Ang^3
#
#
#
# Elastic Constant Matrix: (Units=GPa)
#
#
# Indices 1 2 3 4 5 6 
#
# 1 128.8803 38.2462 44.2493 0.0000 22.5108 0.0000
# 2 38.2462 53.6730 38.6667 0.0000 6.4741 0.0000
# 3 44.2493 38.6667 110.5285 0.0000 18.3410 0.0000
# 4 0.0000 0.0000 0.0000 31.4821 0.0000 -0.5904
# 5 22.5108 6.4741 18.3410 0.0000 40.2972 0.0000
# 6 0.0000 0.0000 0.0000 -0.5904 0.0000 30.7198
#
#
#
# Elastic Compliance Matrix: (Units=1/GPa)
#
#
# Indices 1 2 3 4 5 6 
#
# 1 0.010857 -0.006151 -0.001463 0.000000 -0.004411 0.000000
# 2 -0.006151 0.028393 -0.007879 0.000000 0.002460 0.000000
# 3 -0.001463 -0.007879 0.013028 0.000000 -0.003846 0.000000
# 4 0.000000 0.000000 0.000000 0.031776 0.000000 0.000611
# 5 -0.004411 0.002460 -0.003846 0.000000 0.028635 0.000000
# 6 0.000000 0.000000 0.000000 0.000611 0.000000 0.032564
#
#
# Mechanical properties :
#
#
# Convention : Reuss Voigt Hill
#
# Bulk Modulus (GPa) = 46.96290 59.48960 53.22625
# Shear Modulus (GPa) = 27.27240 31.96112 29.61676
#
# Velocity S-wave (km/s) = 3.72288 4.03021 3.87959
# Velocity P-wave (km/s) = 6.50740 7.20343 6.86424
#
# Compressibility (1/GPa) = 0.02129341
#
# Stress axis : x y z
#
# Youngs Moduli (GPa) = 92.10576 35.21945 76.75951
#
# Poissons Ratio (x) = 0.21662 0.11229
# Poissons Ratio (y) = 0.56650 0.60478
# Poissons Ratio (z) = 0.13474 0.27749
#
# Static dielectric constant tensor:
#      x y z
#    x 3.421080 0.000000 0.007220 
#    y 0.000000 3.368700 0.000000 
#    z 0.007220 0.000000 3.730870 
# 
# 
# High freq. dielectric constant tensor:
#      x y z
#    x 1.787550 0.000000 0.003490 
#    y 0.000000 1.743930 0.000000 
#    z 0.003490 0.000000 1.776110 
# 
# From -- ./inp_files/37079.got.cif
#   From: 2010.06.25/outbox.cif.g09.slc.cpg/sg10_19_cif.got.tgz:37079.got - 2010.06.27 22:07:45.
