data_PCOD8062540
_publ_section_title
;
Structure prediction by ZEFSAII (Michael W. Deem and Ramdas Pophale) SiO2 
 PCOD8062540
Probable space group: P 2/M
;
_chemical_formula_sum "Si O2"
_cell_formula_units_Z 32
_cell_length_a 20.680111
_cell_length_b 9.032349
_cell_length_c 14.163758
_cell_angle_alpha 90.000000
_cell_angle_beta 136.910619
_cell_angle_gamma 90.000000
_cell_volume 1807.343887
_symmetry_space_group_name_H-M "P 2/M"
_symmetry_group_IT_number 10
_symmetry_cell_setting 'monoclinic'
loop_
_space_group_symop_operation_xyz
x,y,z
-x,y,-z
-x,-y,-z
x,-y,z
loop_
_atom_site_type_symbol
_atom_site_label
_atom_site_fract_x
_atom_site_fract_y
_atom_site_fract_z
Si Si1 0.487303 0.173617 0.095449
Si Si2 0.794483 0.829971 0.350783
Si Si3 0.665085 0.675444 0.359697
Si Si4 0.893336 0.674241 0.910099
Si Si5 0.723488 0.170749 0.073597
Si Si6 0.959327 0.168468 0.658718
Si Si7 0.140247 0.673637 0.911879
Si Si8 0.801290 0.173670 0.642568
O O1 0.558202 0.266820 0.236106
O O2 0.506748 0.000000 0.130120
O O3 0.500000 0.218194 0.000000
O O4 0.382887 0.219937 0.017100
O O5 0.722665 0.723541 0.328400
O O6 0.789619 0.796570 0.234821
O O7 0.901745 0.803927 0.500265
O O8 0.763208 0.000000 0.339112
O O9 0.666535 0.500000 0.370941
O O10 0.709690 0.746705 0.501285
O O11 0.879740 0.500000 0.879972
O O12 0.820253 0.761003 0.765974
O O13 0.869554 0.724924 0.990598
O O14 0.000000 0.722961 0.000000
O O15 0.762865 0.262367 0.027300
O O16 0.727468 0.000000 0.049820
O O17 0.891766 0.208973 0.674108
O O18 0.050601 0.271483 0.756162
O O19 0.994572 0.000000 0.703248
O O20 0.143692 0.500000 0.907496
O O21 0.780765 0.000000 0.626892
#
# Coordination Sequence:
#
# PCOD8062540 Si02
#       8
#     4   4   4   4   4   4   4   4
#     4  10  19  36  60  81 106 142 185 228 269 315
#     4   9  18  35  54  76 106 146 189 225 264 313
#     4  11  21  32  53  84 116 143 173 222 277 328
#     4  10  20  36  56  79 110 145 181 223 277 328
#     4  10  21  37  57  77 106 146 185 227 270 318
#     4   9  18  32  52  76 105 141 185 225 261 314
#     4  11  23  36  52  76 112 148 179 223 274 329
#     4  10  20  34  56  83 109 140 183 230 269 318
#
# _framework density 17.705541
#
# number of rings (size 3 to 8) (size 9 to 14) (size 15 to 20)
#    0.000    2.000    2.500    2.625    0.000    5.000 
#    0.000    2.500    0.000    0.750    0.000    5.250 
#    0.000    0.000    0.000    0.000    0.000    0.000 
#
# Total GULP energy -396901.667655 kJ/mol
# GULP energy per Si atom -12403.177114 kJ/mol
# Density = 1.766524 g / cm^3
# Si number density = 17.705541 Si / 1000 Ang^3
#
#
#
# Elastic Constant Matrix: (Units=GPa)
#
#
# Indices 1 2 3 4 5 6 
#
# 1 113.7770 48.5034 62.0654 0.0000 2.1462 0.0000
# 2 48.5034 80.2473 58.5487 0.0000 0.8573 0.0000
# 3 62.0654 58.5487 119.9165 0.0000 0.7652 0.0000
# 4 0.0000 0.0000 0.0000 24.9096 0.0000 0.3695
# 5 2.1462 0.8573 0.7652 0.0000 20.7908 0.0000
# 6 0.0000 0.0000 0.0000 0.3695 0.0000 28.0353
#
#
#
# Elastic Compliance Matrix: (Units=1/GPa)
#
#
# Indices 1 2 3 4 5 6 
#
# 1 0.013312 -0.004680 -0.004598 0.000000 -0.001012 0.000000
# 2 -0.004680 0.021007 -0.007833 0.000000 -0.000095 0.000000
# 3 -0.004598 -0.007833 0.014542 0.000000 0.000262 0.000000
# 4 0.000000 0.000000 0.000000 0.040153 0.000000 -0.000529
# 5 -0.001012 -0.000095 0.000262 0.000000 0.048197 0.000000
# 6 0.000000 0.000000 0.000000 -0.000529 0.000000 0.035676
#
#
# Mechanical properties :
#
#
# Convention : Reuss Voigt Hill
#
# Bulk Modulus (GPa) = 68.32189 72.46399 70.39294
# Shear Modulus (GPa) = 23.58608 24.40201 23.99405
#
# Velocity S-wave (km/s) = 3.65380 3.71646 3.68526
# Velocity P-wave (km/s) = 7.51478 7.70923 7.61263
#
# Compressibility (1/GPa) = 0.01463660
#
# Stress axis : x y z
#
# Youngs Moduli (GPa) = 75.12169 47.60399 68.76629
#
# Poissons Ratio (x) = 0.22280 0.31620
# Poissons Ratio (y) = 0.35159 0.53868
# Poissons Ratio (z) = 0.34543 0.37290
#
# Static dielectric constant tensor:
#      x y z
#    x 3.101220 0.000000 -0.039150 
#    y 0.000000 3.190740 0.000000 
#    z -0.039150 0.000000 3.393180 
# 
# 
# High freq. dielectric constant tensor:
#      x y z
#    x 1.659870 0.000000 -0.001230 
#    y 0.000000 1.682660 0.000000 
#    z -0.001230 0.000000 1.689250 
# 
# From -- ./inp_files/69962.got.cif
#   From: 2010.06.25/outbox.cif.g09.slc.cpg/sg10_35_cif.got.tgz:69962.got - 2010.06.27 22:07:45.
