data_PCOD8062491
_publ_section_title
;
Structure prediction by ZEFSAII (Michael W. Deem and Ramdas Pophale) SiO2 
 PCOD8062491
Probable space group: P 2/M
;
_chemical_formula_sum "Si O2"
_cell_formula_units_Z 28
_cell_length_a 9.452655
_cell_length_b 8.760942
_cell_length_c 27.513466
_cell_angle_alpha 90.000000
_cell_angle_beta 142.078061
_cell_angle_gamma 90.000000
_cell_volume 1400.340016
_symmetry_space_group_name_H-M "P 2/M"
_symmetry_group_IT_number 10
_symmetry_cell_setting 'monoclinic'
loop_
_space_group_symop_operation_xyz
x,y,z
-x,y,-z
-x,-y,-z
x,-y,z
loop_
_atom_site_type_symbol
_atom_site_label
_atom_site_fract_x
_atom_site_fract_y
_atom_site_fract_z
Si Si1 0.269690 0.169243 0.072269
Si Si2 0.281307 0.182062 0.968766
Si Si3 0.026725 0.319033 0.362108
Si Si4 0.178882 0.318440 0.508057
Si Si5 0.495287 0.678460 0.776173
Si Si6 0.174779 0.819061 0.208457
Si Si7 0.297820 0.681348 0.341065
O O1 0.356113 0.284826 0.136224
O O2 0.380074 0.000000 0.110149
O O3 0.326164 0.241427 0.035324
O O4 0.000000 0.150265 0.000000
O O5 0.045986 0.244414 0.881133
O O6 0.270729 0.000000 0.965990
O O7 0.500000 0.247332 0.000000
O O8 0.045145 0.500000 0.367793
O O9 0.116866 0.253175 0.437914
O O10 0.181187 0.256951 0.359272
O O11 0.763952 0.265383 0.284315
O O12 0.164034 0.500000 0.503529
O O13 0.437272 0.264190 0.590043
O O14 0.000000 0.253789 0.500000
O O15 0.503866 0.500000 0.767158
O O16 0.594567 0.763572 0.755915
O O17 0.161468 0.753575 0.259104
O O18 0.173630 0.000000 0.210514
O O19 0.278605 0.500000 0.332781
#
# Coordination Sequence:
#
# PCOD8062491 Si02
#       7
#     4   4   4   4   4   4   4
#     4  10  19  36  58  79 106 142 186 229 272 324
#     4   9  19  35  55  77 103 141 186 227 267 324
#     4   9  19  34  54  84 117 146 180 224 273 327
#     4   9  16  30  56  85 111 145 185 220 264 325
#     4  11  22  36  56  82 113 145 184 230 276 324
#     4  11  22  38  57  80 110 146 187 227 275 331
#     4  10  20  35  57  84 114 144 180 228 276 321
#
# _framework density 19.995145000000001
#
# number of rings (size 3 to 8) (size 9 to 14) (size 15 to 20)
#    0.000    2.143    1.429    2.143    2.000    4.286 
#    0.000    0.714    0.000    8.571    0.000    0.000 
#    0.000    0.000    0.000    0.000    0.000    0.000 
#
# Total GULP energy -347170.379792 kJ/mol
# GULP energy per Si atom -12398.942135 kJ/mol
# Density = 1.994964 g / cm^3
# Si number density = 19.995145 Si / 1000 Ang^3
#
#
#
# Elastic Constant Matrix: (Units=GPa)
#
#
# Indices 1 2 3 4 5 6 
#
# 1 171.9661 18.8438 48.5291 0.0000 -10.4423 0.0000
# 2 18.8438 27.8688 20.3637 0.0000 -0.5359 0.0000
# 3 48.5291 20.3637 95.9383 0.0000 -10.1898 0.0000
# 4 0.0000 0.0000 0.0000 13.4023 0.0000 -0.3748
# 5 -10.4423 -0.5359 -10.1898 0.0000 43.5484 0.0000
# 6 0.0000 0.0000 0.0000 -0.3748 0.0000 22.3818
#
#
#
# Elastic Compliance Matrix: (Units=1/GPa)
#
#
# Indices 1 2 3 4 5 6 
#
# 1 0.006969 -0.002595 -0.002871 0.000000 0.000967 0.000000
# 2 -0.002595 0.043548 -0.008142 0.000000 -0.001992 0.000000
# 3 -0.002871 -0.008142 0.013865 0.000000 0.002456 0.000000
# 4 0.000000 0.000000 0.000000 0.074649 0.000000 0.001250
# 5 0.000967 -0.001992 0.002456 0.000000 0.023745 0.000000
# 6 0.000000 0.000000 0.000000 0.001250 0.000000 0.044700
#
#
# Mechanical properties :
#
#
# Convention : Reuss Voigt Hill
#
# Bulk Modulus (GPa) = 26.90764 52.36071 39.63417
# Shear Modulus (GPa) = 20.23620 29.73559 24.98590
#
# Velocity S-wave (km/s) = 3.18473 3.86053 3.53880
# Velocity P-wave (km/s) = 5.19708 6.79081 6.04669
#
# Compressibility (1/GPa) = 0.03716417
#
# Stress axis : x y z
#
# Youngs Moduli (GPa) = 143.50284 22.96293 72.12463
#
# Poissons Ratio (x) = 0.05959 0.20710
# Poissons Ratio (y) = 0.37241 0.58726
# Poissons Ratio (z) = 0.41205 0.18697
#
# Static dielectric constant tensor:
#      x y z
#    x 3.617480 0.000000 0.198810 
#    y 0.000000 3.115900 0.000000 
#    z 0.198810 0.000000 3.581970 
# 
# 
# High freq. dielectric constant tensor:
#      x y z
#    x 1.799620 0.000000 -0.005250 
#    y 0.000000 1.726900 0.000000 
#    z -0.005250 0.000000 1.788750 
# 
# From -- ./inp_files/37113.got.cif
#   From: 2010.06.25/outbox.cif.g09.slc.cpg/sg10_19_cif.got.tgz:37113.got - 2010.06.27 22:07:45.
