data_PCOD8062908
_publ_section_title
;
Structure prediction by ZEFSAII (Michael W. Deem and Ramdas Pophale) SiO2 
 PCOD8062908
Probable space group: P 2/M
;
_chemical_formula_sum "Si O2"
_cell_formula_units_Z 28
_cell_length_a 22.848953
_cell_length_b 9.797187
_cell_length_c 21.574562
_cell_angle_alpha 90.000000
_cell_angle_beta 19.220179
_cell_angle_gamma 90.000000
_cell_volume 1589.895189
_symmetry_space_group_name_H-M "P 2/M"
_symmetry_group_IT_number 10
_symmetry_cell_setting 'monoclinic'
loop_
_space_group_symop_operation_xyz
x,y,z
-x,y,-z
-x,-y,-z
x,-y,z
loop_
_atom_site_type_symbol
_atom_site_label
_atom_site_fract_x
_atom_site_fract_y
_atom_site_fract_z
Si Si1 0.696739 0.845646 0.481493
Si Si2 0.209001 0.654689 0.721076
Si Si3 0.703099 0.162006 0.796902
Si Si4 0.000030 0.837918 0.732165
Si Si5 0.999978 0.162537 0.593987
Si Si6 0.790969 0.654691 0.139138
Si Si7 0.696823 0.845645 0.124980
O O1 0.694926 0.757017 0.421212
O O2 0.827485 0.785413 0.402995
O O3 0.499929 0.843089 0.707180
O O4 0.753928 0.000000 0.406607
O O5 0.264584 0.500000 0.649126
O O6 0.269433 0.689784 0.730549
O O7 0.999984 0.673341 0.923230
O O8 0.818342 0.211510 0.741344
O O9 0.818392 0.211530 0.621934
O O10 0.688361 0.000000 0.811637
O O11 0.500000 0.222982 0.000000
O O12 0.999970 0.774625 0.663247
O O13 0.999964 0.000000 0.726433
O O14 0.827659 0.785369 0.941923
O O15 0.999990 0.000000 0.594851
O O16 0.735379 0.500000 0.178366
O O17 0.694878 0.757018 0.189023
O O18 0.753988 0.000000 0.085513
#
# Coordination Sequence:
#
# PCOD8062908 Si02
#       7
#     4   4   4   4   4   4   4
#     4  10  20  32  47  68  92 121 157 192 231 280
#     4   9  18  33  52  71  90 116 152 193 239 287
#     4   8  13  21  34  55  81 108 145 189 223 257
#     4   9  17  30  43  58  87 122 155 192 228 268
#     4   8  14  23  36  54  78 113 151 184 223 264
#     4   9  18  33  52  71  90 116 152 193 239 287
#     4  10  20  32  47  68  92 121 157 192 231 280
#
# _framework density 17.611222000000001
#
# number of rings (size 3 to 8) (size 9 to 14) (size 15 to 20)
#    0.000    3.000    1.429    1.714    0.000    2.857 
#    0.000   10.000    0.000    0.000    0.000    0.000 
#    0.000    0.000    0.000   10.286    0.000   33.714 
#
# Total GULP energy -347015.256665 kJ/mol
# GULP energy per Si atom -12393.402024 kJ/mol
# Density = 1.757114 g / cm^3
# Si number density = 17.611222 Si / 1000 Ang^3
#
#
#
# Elastic Constant Matrix: (Units=GPa)
#
#
# Indices 1 2 3 4 5 6 
#
# 1 122.8236 33.9951 85.5362 0.0000 16.2393 0.0000
# 2 33.9951 35.5511 25.2437 0.0000 6.1625 0.0000
# 3 85.5362 25.2437 114.7481 0.0000 -10.8109 0.0000
# 4 0.0000 0.0000 0.0000 8.9021 0.0000 -4.5157
# 5 16.2393 6.1625 -10.8109 0.0000 26.1478 0.0000
# 6 0.0000 0.0000 0.0000 -4.5157 0.0000 2.4911
#
#
#
# Elastic Compliance Matrix: (Units=1/GPa)
#
#
# Indices 1 2 3 4 5 6 
#
# 1 0.029585 -0.007555 -0.022844 0.000000 -0.026038 0.000000
# 2 -0.007555 0.038837 -0.003467 0.000000 -0.005894 0.000000
# 3 -0.022844 -0.003467 0.029051 0.000000 0.027016 0.000000
# 4 0.000000 0.000000 0.000000 1.395972 0.000000 2.530542
# 5 -0.026038 -0.005894 0.027016 0.000000 0.066975 0.000000
# 6 0.000000 0.000000 0.000000 2.530542 0.000000 4.988666
#
#
# Mechanical properties :
#
#
# Convention : Reuss Voigt Hill
#
# Bulk Modulus (GPa) = 33.62531 62.51921 48.07226
# Shear Modulus (GPa) = 0.75452 16.06470 8.40961
#
# Velocity S-wave (km/s) = 0.65526 3.02352 2.18758
# Velocity P-wave (km/s) = 4.43926 6.91127 5.80830
#
# Compressibility (1/GPa) = 0.02973950
#
# Stress axis : x y z
#
# Youngs Moduli (GPa) = 33.80127 25.74870 34.42167
#
# Poissons Ratio (x) = 0.19454 0.78634
# Poissons Ratio (y) = 0.25538 0.11935
# Poissons Ratio (z) = 0.77216 0.08928
#
# Static dielectric constant tensor:
#      x y z
#    x 3.462880 0.000000 0.010970 
#    y 0.000000 2.830270 0.000000 
#    z 0.010970 0.000000 3.447040 
# 
# 
# High freq. dielectric constant tensor:
#      x y z
#    x 1.678860 0.000000 -0.007960 
#    y 0.000000 1.621680 0.000000 
#    z -0.007960 0.000000 1.690100 
# 
# From -- ./inp_files/79512.got.cif
#   From: 2010.06.25/outbox.cif.g09.slc.cpg/sg10_40_cif.got.tgz:79512.got - 2010.06.27 22:07:45.
