data_PCOD8062856
_publ_section_title
;
Structure prediction by ZEFSAII (Michael W. Deem and Ramdas Pophale) SiO2 
 PCOD8062856
Probable space group: P 2/M
;
_chemical_formula_sum "Si O2"
_cell_formula_units_Z 20
_cell_length_a 9.561442
_cell_length_b 11.941110
_cell_length_c 12.926389
_cell_angle_alpha 90.000000
_cell_angle_beta 46.442182
_cell_angle_gamma 90.000000
_cell_volume 1069.525676
_symmetry_space_group_name_H-M "P 2/M"
_symmetry_group_IT_number 10
_symmetry_cell_setting 'monoclinic'
loop_
_space_group_symop_operation_xyz
x,y,z
-x,y,-z
-x,-y,-z
x,-y,z
loop_
_atom_site_type_symbol
_atom_site_label
_atom_site_fract_x
_atom_site_fract_y
_atom_site_fract_z
Si Si1 0.478149 0.630707 0.892088
Si Si2 0.782032 0.809455 0.073808
Si Si3 0.473238 0.873185 0.394370
Si Si4 0.175348 0.000000 0.329944
Si Si5 0.285324 0.000000 0.057071
Si Si6 0.775705 0.235898 0.623914
O O1 0.440084 0.500000 0.899372
O O2 0.301378 0.691663 0.924682
O O3 0.680478 0.662669 0.734427
O O4 0.500000 0.666396 0.000000
O O5 0.670094 0.853857 0.231385
O O6 0.756329 0.892639 0.991158
O O7 0.000000 0.793911 0.000000
O O8 0.500000 0.851563 0.500000
O O9 0.313243 0.780178 0.444773
O O10 0.398051 0.000000 0.412055
O O11 0.288678 0.117060 0.289712
O O12 0.000000 0.000000 0.500000
O O13 0.127573 0.000000 0.231402
O O14 0.500000 0.000000 0.000000
O O15 0.000000 0.259668 0.500000
#
# Coordination Sequence:
#
# PCOD8062856 Si02
#       6
#     4   4   4   2   2   4
#     4  10  22  40  61  83 109 148 196 248 294 337
#     4  11  23  38  57  85 117 155 195 235 289 348
#     4  10  20  34  52  78 118 152 186 227 272 338
#     4  10  20  31  51  84 115 144 175 220 280 341
#     4  12  21  35  57  84 120 154 185 230 286 343
#     4  10  20  36  56  84 114 147 187 229 288 346
#
# _framework density 18.699878999999999
#
# number of rings (size 3 to 8) (size 9 to 14) (size 15 to 20)
#    0.000    1.600    2.000    4.500    0.000    5.600 
#    0.000    0.000    0.000    9.600    0.000    0.000 
#    0.000    0.000    0.000    0.000    0.000    0.000 
#
# Total GULP energy -247865.073456 kJ/mol
# GULP energy per Si atom -12393.253673 kJ/mol
# Density = 1.865732 g / cm^3
# Si number density = 18.699879 Si / 1000 Ang^3
#
#
#
# Elastic Constant Matrix: (Units=GPa)
#
#
# Indices 1 2 3 4 5 6 
#
# 1 130.9852 45.7203 75.1112 0.0000 -11.3942 0.0000
# 2 45.7203 77.9255 36.9126 0.0000 8.8438 0.0000
# 3 75.1112 36.9126 132.5212 0.0000 11.0734 0.0000
# 4 0.0000 0.0000 0.0000 23.1446 0.0000 3.6741
# 5 -11.3942 8.8438 11.0734 0.0000 38.4380 0.0000
# 6 0.0000 0.0000 0.0000 3.6741 0.0000 21.3170
#
#
#
# Elastic Compliance Matrix: (Units=1/GPa)
#
#
# Indices 1 2 3 4 5 6 
#
# 1 0.014545 -0.005994 -0.007224 0.000000 0.007772 0.000000
# 2 -0.005994 0.017449 -0.001003 0.000000 -0.005503 0.000000
# 3 -0.007224 -0.001003 0.012377 0.000000 -0.005476 0.000000
# 4 0.000000 0.000000 0.000000 0.044422 0.000000 -0.007656
# 5 0.007772 -0.005503 -0.005476 0.000000 0.031163 0.000000
# 6 0.000000 0.000000 0.000000 -0.007656 0.000000 0.048231
#
#
# Mechanical properties :
#
#
# Convention : Reuss Voigt Hill
#
# Bulk Modulus (GPa) = 62.77609 72.99111 67.88360
# Shear Modulus (GPa) = 24.75987 28.82576 26.79282
#
# Velocity S-wave (km/s) = 3.64272 3.93045 3.78931
# Velocity P-wave (km/s) = 7.16490 7.72758 7.45155
#
# Compressibility (1/GPa) = 0.01592963
#
# Stress axis : x y z
#
# Youngs Moduli (GPa) = 68.75191 57.30902 80.79297
#
# Poissons Ratio (x) = 0.34351 0.58363
# Poissons Ratio (y) = 0.41210 0.08105
# Poissons Ratio (z) = 0.49665 0.05749
#
# Static dielectric constant tensor:
#      x y z
#    x 3.504460 0.000000 0.180150 
#    y 0.000000 3.366530 0.000000 
#    z 0.180150 0.000000 3.507900 
# 
# 
# High freq. dielectric constant tensor:
#      x y z
#    x 1.730940 0.000000 0.010870 
#    y 0.000000 1.707570 0.000000 
#    z 0.010870 0.000000 1.734260 
# 
# From -- ./inp_files/24266.got.cif
#   From: 2010.06.25/outbox.cif.g09.slc.cpg/sg10_13_cif.got.tgz:24266.got - 2010.06.27 22:07:45.
