data_PCOD8062222
_publ_section_title
;
Structure prediction by ZEFSAII (Michael W. Deem and Ramdas Pophale) SiO2 
 PCOD8062222
Probable space group: P 2/M
;
_chemical_formula_sum "Si O2"
_cell_formula_units_Z 28
_cell_length_a 12.689471
_cell_length_b 21.757966
_cell_length_c 5.175454
_cell_angle_alpha 90.000000
_cell_angle_beta 76.052030
_cell_angle_gamma 90.000000
_cell_volume 1386.795816
_symmetry_space_group_name_H-M "P 2/M"
_symmetry_group_IT_number 10
_symmetry_cell_setting 'monoclinic'
loop_
_space_group_symop_operation_xyz
x,y,z
-x,y,-z
-x,-y,-z
x,-y,z
loop_
_atom_site_type_symbol
_atom_site_label
_atom_site_fract_x
_atom_site_fract_y
_atom_site_fract_z
Si Si1 0.201875 0.636376 0.944857
Si Si2 0.114459 0.237268 0.046129
Si Si3 0.456822 0.186177 0.274865
Si Si4 0.552305 0.323706 0.218733
Si Si5 0.874604 0.571041 0.526594
Si Si6 0.793162 0.818194 0.494608
Si Si7 0.928988 0.068937 0.287086
O O1 0.118254 0.689539 0.082733
O O2 0.319637 0.667057 0.860297
O O3 0.170069 0.609827 0.686503
O O4 0.194151 0.585272 0.173618
O O5 0.200818 0.221877 0.769679
O O6 0.131617 0.204860 0.313083
O O7 0.000000 0.214866 0.000000
O O8 0.500000 0.149627 0.500000
O O9 0.518312 0.252095 0.239082
O O10 0.328239 0.189391 0.333854
O O11 0.500000 0.149332 0.000000
O O12 0.500000 0.356352 0.500000
O O13 0.500000 0.356418 0.000000
O O14 0.859334 0.500000 0.465937
O O15 0.000000 0.587113 0.500000
O O16 0.825314 0.887418 0.394493
O O17 0.000000 0.070056 0.500000
O O18 0.885502 0.000000 0.257571
O O19 0.000000 0.091997 0.000000
#
# Coordination Sequence:
#
# PCOD8062222 Si02
#       7
#     4   4   4   4   4   4   4
#     4  12  23  39  62  88 119 154 196 243 298 360
#     4  12  23  34  54  89 126 153 183 236 307 370
#     4  10  20  35  53  78 110 148 196 238 285 346
#     4  10  19  35  56  81 110 147 191 234 286 346
#     4  11  24  43  65  88 117 156 200 242 289 353
#     4  12  22  37  58  84 121 159 198 244 298 356
#     4  10  21  38  60  86 119 162 208 246 288 350
#
# _framework density 20.190425999999999
#
# number of rings (size 3 to 8) (size 9 to 14) (size 15 to 20)
#    0.000    1.000    0.000   10.286    0.000    1.143 
#    0.000    0.000    0.000    9.429    0.000    0.000 
#    0.000    0.000    0.000    0.000    0.000    0.000 
#
# Total GULP energy -347111.284055 kJ/mol
# GULP energy per Si atom -12396.831573 kJ/mol
# Density = 2.014447 g / cm^3
# Si number density = 20.190426 Si / 1000 Ang^3
#
#
#
# Elastic Constant Matrix: (Units=GPa)
#
#
# Indices 1 2 3 4 5 6 
#
# 1 104.7316 43.9359 38.7306 0.0000 1.7813 0.0000
# 2 43.9359 79.6480 28.5251 0.0000 -1.2048 0.0000
# 3 38.7306 28.5251 155.6504 0.0000 15.1193 0.0000
# 4 0.0000 0.0000 0.0000 24.7216 0.0000 -1.6240
# 5 1.7813 -1.2048 15.1193 0.0000 45.0871 0.0000
# 6 0.0000 0.0000 0.0000 -1.6240 0.0000 22.0679
#
#
#
# Elastic Compliance Matrix: (Units=1/GPa)
#
#
# Indices 1 2 3 4 5 6 
#
# 1 0.013011 -0.006440 -0.002058 0.000000 0.000004 0.000000
# 2 -0.006440 0.016691 -0.001576 0.000000 0.001229 0.000000
# 3 -0.002058 -0.001576 0.007465 0.000000 -0.002464 0.000000
# 4 0.000000 0.000000 0.000000 0.040647 0.000000 0.002991
# 5 0.000004 0.001229 -0.002464 0.000000 0.023038 0.000000
# 6 0.000000 0.000000 0.000000 0.002991 0.000000 0.045535
#
#
# Mechanical properties :
#
#
# Convention : Reuss Voigt Hill
#
# Bulk Modulus (GPa) = 58.75638 62.49034 60.62336
# Shear Modulus (GPa) = 29.03498 33.63121 31.33310
#
# Velocity S-wave (km/s) = 3.79629 4.08573 3.94366
# Velocity P-wave (km/s) = 6.95557 7.29899 7.12935
#
# Compressibility (1/GPa) = 0.01701943
#
# Stress axis : x y z
#
# Youngs Moduli (GPa) = 76.85949 59.91370 133.96281
#
# Poissons Ratio (x) = 0.38585 0.27564
# Poissons Ratio (y) = 0.49498 0.21108
# Poissons Ratio (z) = 0.15815 0.09440
#
# Static dielectric constant tensor:
#      x y z
#    x 4.267010 0.000000 2.146090 
#    y 0.000000 3.503440 0.000000 
#    z 2.146090 0.000000 9.672820 
# 
# 
# High freq. dielectric constant tensor:
#      x y z
#    x 1.785060 0.000000 0.011740 
#    y 0.000000 1.752800 0.000000 
#    z 0.011740 0.000000 1.823580 
# 
# From -- ./inp_files/7703.got.cif
#   From: 2010.06.25/outbox.cif.g09.slc.cpg/sg10_4_cif.got.tgz:7703.got - 2010.06.27 22:07:45.
