data_PCOD8062870
_publ_section_title
;
Structure prediction by ZEFSAII (Michael W. Deem and Ramdas Pophale) SiO2 
 PCOD8062870
Probable space group: P 2/M
;
_chemical_formula_sum "Si O2"
_cell_formula_units_Z 28
_cell_length_a 21.705891
_cell_length_b 9.001430
_cell_length_c 16.655032
_cell_angle_alpha 90.000000
_cell_angle_beta 148.378511
_cell_angle_gamma 90.000000
_cell_volume 1706.156465
_symmetry_space_group_name_H-M "P 2/M"
_symmetry_group_IT_number 10
_symmetry_cell_setting 'monoclinic'
loop_
_space_group_symop_operation_xyz
x,y,z
-x,y,-z
-x,-y,-z
x,-y,z
loop_
_atom_site_type_symbol
_atom_site_label
_atom_site_fract_x
_atom_site_fract_y
_atom_site_fract_z
Si Si1 0.668055 0.675920 0.625122
Si Si2 0.096634 0.824144 0.171173
Si Si3 0.998047 0.828011 0.764769
Si Si4 0.843171 0.673904 0.284306
Si Si5 0.079376 0.172437 0.489657
Si Si6 0.583142 0.324258 0.702272
Si Si7 0.767122 0.674460 0.031798
O O1 0.685589 0.500000 0.638685
O O2 0.778646 0.754882 0.709583
O O3 0.551869 0.730493 0.447509
O O4 0.652804 0.729494 0.700261
O O5 0.058499 0.765284 0.216597
O O6 0.109833 0.000000 0.184200
O O7 0.000000 0.769372 0.000000
O O8 0.903354 0.804996 0.586850
O O9 0.119487 0.747755 0.881639
O O10 0.029445 0.000000 0.809703
O O11 0.847257 0.500000 0.307711
O O12 0.814401 0.762022 0.336237
O O13 0.752118 0.710083 0.110602
O O14 0.967369 0.730632 0.389559
O O15 0.059661 0.000000 0.488298
O O16 0.579899 0.500000 0.695741
O O17 0.651076 0.266138 0.856942
O O18 0.783400 0.500000 0.036997
#
# Coordination Sequence:
#
# PCOD8062870 Si02
#       7
#     4   4   4   4   4   4   4
#     4   9  17  30  48  65  82 109 143 173 201 242
#     4  10  20  32  44  61  88 115 137 169 210 244
#     4   9  18  29  40  58  85 115 142 168 203 245
#     4   9  15  22  35  57  82 105 131 166 205 242
#     4   9  15  24  37  52  76 110 140 164 196 242
#     4   8  15  29  46  64  86 109 135 171 211 243
#     4   9  16  26  42  63  86 111 137 168 207 248
#
# _framework density 16.411156999999999
#
# number of rings (size 3 to 8) (size 9 to 14) (size 15 to 20)
#    0.000    3.000    0.000    3.429    0.000    2.000 
#    0.000    2.143    0.000    0.000    0.000    1.000 
#    0.000    8.000    0.000    0.000    0.000    0.000 
#
# Total GULP energy -346866.729272 kJ/mol
# GULP energy per Si atom -12388.097474 kJ/mol
# Density = 1.637380 g / cm^3
# Si number density = 16.411157 Si / 1000 Ang^3
#
#
#
# Elastic Constant Matrix: (Units=GPa)
#
#
# Indices 1 2 3 4 5 6 
#
# 1 93.6876 27.4213 73.5046 0.0000 -20.3938 0.0000
# 2 27.4213 27.3957 29.7982 0.0000 -6.9219 0.0000
# 3 73.5046 29.7982 138.9633 0.0000 -27.5727 0.0000
# 4 0.0000 0.0000 0.0000 40.0567 0.0000 3.5821
# 5 -20.3938 -6.9219 -27.5727 0.0000 32.4775 0.0000
# 6 0.0000 0.0000 0.0000 3.5821 0.0000 21.4911
#
#
#
# Elastic Compliance Matrix: (Units=1/GPa)
#
#
# Indices 1 2 3 4 5 6 
#
# 1 0.021136 -0.011534 -0.007890 0.000000 0.004115 0.000000
# 2 -0.011534 0.053985 -0.005567 0.000000 -0.000463 0.000000
# 3 -0.007890 -0.005567 0.013643 0.000000 0.005442 0.000000
# 4 0.000000 0.000000 0.000000 0.025342 0.000000 -0.004224
# 5 0.004115 -0.000463 0.005442 0.000000 0.037896 0.000000
# 6 0.000000 0.000000 0.000000 -0.004224 0.000000 0.047235
#
#
# Mechanical properties :
#
#
# Convention : Reuss Voigt Hill
#
# Bulk Modulus (GPa) = 25.78528 57.94390 41.86459
# Shear Modulus (GPa) = 19.07334 27.42656 23.24995
#
# Velocity S-wave (km/s) = 3.41283 4.09248 3.76801
# Velocity P-wave (km/s) = 5.59250 7.59707 6.67051
#
# Compressibility (1/GPa) = 0.03878182
#
# Stress axis : x y z
#
# Youngs Moduli (GPa) = 47.31358 18.52363 73.29735
#
# Poissons Ratio (x) = 0.21365 0.57831
# Poissons Ratio (y) = 0.54570 0.40807
# Poissons Ratio (z) = 0.37330 0.10313
#
# Static dielectric constant tensor:
#      x y z
#    x 3.224300 0.000000 -0.738420 
#    y 0.000000 2.972330 0.000000 
#    z -0.738420 0.000000 3.813920 
# 
# 
# High freq. dielectric constant tensor:
#      x y z
#    x 1.602790 0.000000 -0.040130 
#    y 0.000000 1.622360 0.000000 
#    z -0.040130 0.000000 1.630050 
# 
# From -- ./inp_files/79873.got.cif
#   From: 2010.06.25/outbox.cif.g09.slc.cpg/sg10_40_cif.got.tgz:79873.got - 2010.06.27 22:07:45.
