data_PCOD8062593
_publ_section_title
;
Structure prediction by ZEFSAII (Michael W. Deem and Ramdas Pophale) SiO2 
 PCOD8062593
Probable space group: P 2/M
;
_chemical_formula_sum "Si O2"
_cell_formula_units_Z 32
_cell_length_a 26.638792
_cell_length_b 8.843612
_cell_length_c 20.856368
_cell_angle_alpha 90.000000
_cell_angle_beta 19.640956
_cell_angle_gamma 90.000000
_cell_volume 1651.518915
_symmetry_space_group_name_H-M "P 2/M"
_symmetry_group_IT_number 10
_symmetry_cell_setting 'monoclinic'
loop_
_space_group_symop_operation_xyz
x,y,z
-x,y,-z
-x,-y,-z
x,-y,z
loop_
_atom_site_type_symbol
_atom_site_label
_atom_site_fract_x
_atom_site_fract_y
_atom_site_fract_z
Si Si1 0.449393 0.179034 0.459520
Si Si2 0.341627 0.821402 0.216966
Si Si3 0.727078 0.821660 0.207904
Si Si4 0.001014 0.173207 0.801330
Si Si5 0.472171 0.325344 0.760734
Si Si6 0.294776 0.673582 0.409406
Si Si7 0.940751 0.677442 0.502701
Si Si8 0.155979 0.172664 0.145265
O O1 0.310712 0.222275 0.673193
O O2 0.600718 0.239626 0.311258
O O3 0.427827 0.268041 0.419129
O O4 0.454150 0.000000 0.440398
O O5 0.315958 0.770520 0.320344
O O6 0.216189 0.757474 0.320937
O O7 0.331281 0.000000 0.227993
O O8 0.500000 0.762536 0.000000
O O9 0.720885 0.000000 0.207398
O O10 0.892063 0.764977 0.989122
O O11 0.908286 0.188961 0.848008
O O12 0.147405 0.275489 0.624680
O O13 0.049354 0.000000 0.755083
O O14 0.428988 0.500000 0.803078
O O15 0.563708 0.301471 0.715629
O O16 0.326373 0.223344 0.941155
O O17 0.276399 0.500000 0.411267
O O18 0.912987 0.500000 0.534284
O O19 0.062056 0.720036 0.304098
O O20 0.000000 0.732217 0.500000
O O21 0.145458 0.000000 0.182007
#
# Coordination Sequence:
#
# PCOD8062593 Si02
#       8
#     4   4   4   4   4   4   4   4
#     4   9  16  32  57  84 115 152 193 243 297 347
#     4  11  25  44  65  91 119 154 200 247 293 345
#     4   8  15  30  56  86 115 147 190 243 297 351
#     4  10  19  36  61  89 115 148 196 247 296 350
#     4  11  24  39  56  85 123 159 199 244 295 355
#     4  11  25  42  60  83 118 163 200 238 294 356
#     4  11  25  43  64  92 125 159 193 235 292 354
#     4  11  22  38  64  91 117 152 199 250 294 340
#
# _framework density 19.376103000000001
#
# number of rings (size 3 to 8) (size 9 to 14) (size 15 to 20)
#    0.000    1.750    2.500    2.625    1.750    4.500 
#    0.000    2.500    0.000    3.750    0.000    0.000 
#    0.000    0.000    0.000    0.000    0.000    0.000 
#
# Total GULP energy -396852.595659 kJ/mol
# GULP energy per Si atom -12401.643614 kJ/mol
# Density = 1.933200 g / cm^3
# Si number density = 19.376103 Si / 1000 Ang^3
#
#
#
# Elastic Constant Matrix: (Units=GPa)
#
#
# Indices 1 2 3 4 5 6 
#
# 1 70.5179 26.6999 27.9463 0.0000 2.2964 0.0000
# 2 26.6999 50.2454 18.8978 0.0000 -4.2304 0.0000
# 3 27.9463 18.8978 100.5010 0.0000 20.3332 0.0000
# 4 0.0000 0.0000 0.0000 26.3555 0.0000 -6.6689
# 5 2.2964 -4.2304 20.3332 0.0000 20.3888 0.0000
# 6 0.0000 0.0000 0.0000 -6.6689 0.0000 24.1939
#
#
#
# Elastic Compliance Matrix: (Units=1/GPa)
#
#
# Indices 1 2 3 4 5 6 
#
# 1 0.018907 -0.008759 -0.003523 0.000000 -0.000434 0.000000
# 2 -0.008759 0.027473 -0.005115 0.000000 0.011788 0.000000
# 3 -0.003523 -0.005115 0.015066 0.000000 -0.015689 0.000000
# 4 0.000000 0.000000 0.000000 0.040788 0.000000 0.011243
# 5 -0.000434 0.011788 -0.015689 0.000000 0.067188 0.000000
# 6 0.000000 0.000000 0.000000 0.011243 0.000000 0.044432
#
#
# Mechanical properties :
#
#
# Convention : Reuss Voigt Hill
#
# Bulk Modulus (GPa) = 37.52009 40.92802 39.22406
# Shear Modulus (GPa) = 19.41509 24.03566 21.72538
#
# Velocity S-wave (km/s) = 3.16889 3.52587 3.35213
# Velocity P-wave (km/s) = 5.72672 6.14365 5.93884
#
# Compressibility (1/GPa) = 0.02665239
#
# Stress axis : x y z
#
# Youngs Moduli (GPa) = 52.88962 36.39937 66.37500
#
# Poissons Ratio (x) = 0.31881 0.23383
# Poissons Ratio (y) = 0.46324 0.33953
# Poissons Ratio (z) = 0.18633 0.18620
#
# Static dielectric constant tensor:
#      x y z
#    x 3.605800 0.000000 0.366190 
#    y 0.000000 3.455930 0.000000 
#    z 0.366190 0.000000 4.427810 
# 
# 
# High freq. dielectric constant tensor:
#      x y z
#    x 1.747580 0.000000 0.010350 
#    y 0.000000 1.745360 0.000000 
#    z 0.010350 0.000000 1.766380 
# 
# From -- ./inp_files/86829.got.cif
#   From: 2010.06.25/outbox.cif.g09.slc.cpg/sg10_44_cif.got.tgz:86829.got - 2010.06.27 22:07:45.
