data_PCOD8062630
_publ_section_title
;
Structure prediction by ZEFSAII (Michael W. Deem and Ramdas Pophale) SiO2 
 PCOD8062630
Probable space group: P 2/M
;
_chemical_formula_sum "Si O2"
_cell_formula_units_Z 20
_cell_length_a 11.503215
_cell_length_b 8.624579
_cell_length_c 25.161907
_cell_angle_alpha 90.000000
_cell_angle_beta 156.089610
_cell_angle_gamma 90.000000
_cell_volume 1011.777917
_symmetry_space_group_name_H-M "P 2/M"
_symmetry_group_IT_number 10
_symmetry_cell_setting 'monoclinic'
loop_
_space_group_symop_operation_xyz
x,y,z
-x,y,-z
-x,-y,-z
x,-y,z
loop_
_atom_site_type_symbol
_atom_site_label
_atom_site_fract_x
_atom_site_fract_y
_atom_site_fract_z
Si Si1 0.724518 0.320294 0.239950
Si Si2 0.639416 0.823825 0.001321
Si Si3 0.654027 0.816223 0.511318
Si Si4 0.717809 0.183329 0.740509
Si Si5 0.688639 0.183761 0.847962
O O1 0.795994 0.500000 0.275005
O O2 0.567511 0.263191 0.227283
O O3 0.015728 0.228139 0.352122
O O4 0.521021 0.291074 0.104948
O O5 0.963430 0.764950 0.142278
O O6 0.628276 0.000000 0.973714
O O7 0.500000 0.815485 0.000000
O O8 0.500000 0.749501 0.500000
O O9 0.498635 0.746208 0.393824
O O10 0.627429 0.000000 0.500427
O O11 0.649172 0.243345 0.771076
O O12 0.692888 0.000000 0.729556
O O13 0.657691 0.000000 0.840082
O O14 0.000000 0.236335 0.000000
#
# Coordination Sequence:
#
# PCOD8062630 Si02
#       5
#     4   4   4   4   4
#     4  12  25  38  56  86 126 163 194 233 296 366
#     4  10  19  36  63  90 114 147 200 254 295 343
#     4  10  21  40  64  88 116 152 199 249 295 348
#     4   9  18  34  60  90 112 144 196 253 303 338
#     4  10  19  37  63  86 115 151 199 257 298 339
#
# _framework density 19.767182999999999
#
# number of rings (size 3 to 8) (size 9 to 14) (size 15 to 20)
#    0.000    1.800    2.000    3.000    0.000    5.200 
#    0.000    6.000    0.000    0.000    0.000    0.000 
#    0.000    0.000    0.000    0.000    0.000    0.000 
#
# Total GULP energy -248025.778478 kJ/mol
# GULP energy per Si atom -12401.288924 kJ/mol
# Density = 1.972219 g / cm^3
# Si number density = 19.767183 Si / 1000 Ang^3
#
#
#
# Elastic Constant Matrix: (Units=GPa)
#
#
# Indices 1 2 3 4 5 6 
#
# 1 124.8461 28.0660 -27.2848 0.0000 14.7134 0.0000
# 2 28.0660 15.2378 41.2745 0.0000 -12.6023 0.0000
# 3 -27.2848 41.2745 -271.5343 0.0000 70.4482 0.0000
# 4 0.0000 0.0000 0.0000 1.2729 0.0000 -20.3386
# 5 14.7134 -12.6023 70.4482 0.0000 28.8774 0.0000
# 6 0.0000 0.0000 0.0000 -20.3386 0.0000 -21.4352
#
#
#
# Elastic Compliance Matrix: (Units=1/GPa)
#
#
# Indices 1 2 3 4 5 6 
#
# 1 0.010104 -0.011419 -0.003294 0.000000 -0.002094 0.000000
# 2 -0.011419 0.059556 0.011300 0.000000 0.004241 0.000000
# 3 -0.003294 0.011300 0.000050 0.000000 0.006489 0.000000
# 4 0.000000 0.000000 0.000000 0.048612 0.000000 -0.046125
# 5 -0.002094 0.004241 0.006489 0.000000 0.021716 0.000000
# 6 0.000000 0.000000 0.000000 -0.046125 0.000000 -0.002887
#
#
# Mechanical properties :
#
#
# Convention : Reuss Voigt Hill
#
# Bulk Modulus (GPa) = 15.90226 -5.25989 5.32119
# Shear Modulus (GPa) = 30.31461 -9.82406 10.24527
#
# Velocity S-wave (km/s) = 3.92035 -2.23174 2.27908
# Velocity P-wave (km/s) = 5.34363 3.05083 3.10216
#
# Compressibility (1/GPa) = 0.06288416
#
# Stress axis : x y z
#
# Youngs Moduli (GPa) = 98.97383 16.79093 20181.15101
#
# Poissons Ratio (x) = 0.19173 66.48321
# Poissons Ratio (y) = 1.13014 -228.05476
# Poissons Ratio (z) = 0.32605 -0.18974
#
# Static dielectric constant tensor:
#      x y z
#    x 3.935230 0.000000 -0.119900 
#    y 0.000000 3.198540 0.000000 
#    z -0.119900 0.000000 3.727320 
# 
# 
# High freq. dielectric constant tensor:
#      x y z
#    x 1.791790 0.000000 0.000740 
#    y 0.000000 1.728460 0.000000 
#    z 0.000740 0.000000 1.777470 
# 
# From -- ./inp_files/22265.got.cif
#   From: 2010.06.25/outbox.cif.g09.slc.cpg/sg10_12_cif.got.tgz:22265.got - 2010.06.27 22:07:45.
