data_PCOD8062132
_publ_section_title
;
Structure prediction by ZEFSAII (Michael W. Deem and Ramdas Pophale) SiO2 
 PCOD8062132
Probable space group: P 2/M
;
_chemical_formula_sum "Si O2"
_cell_formula_units_Z 28
_cell_length_a 17.378059
_cell_length_b 8.938634
_cell_length_c 11.747849
_cell_angle_alpha 90.000000
_cell_angle_beta 126.683905
_cell_angle_gamma 90.000000
_cell_volume 1463.438733
_symmetry_space_group_name_H-M "P 2/M"
_symmetry_group_IT_number 10
_symmetry_cell_setting 'monoclinic'
loop_
_space_group_symop_operation_xyz
x,y,z
-x,y,-z
-x,-y,-z
x,-y,z
loop_
_atom_site_type_symbol
_atom_site_label
_atom_site_fract_x
_atom_site_fract_y
_atom_site_fract_z
Si Si1 0.709643 0.829413 0.868421
Si Si2 0.963324 0.326152 0.720650
Si Si3 0.182251 0.171938 0.258812
Si Si4 0.484151 0.676121 0.357397
Si Si5 0.663134 0.826079 0.415843
Si Si6 0.850240 0.827691 0.192936
Si Si7 0.810034 0.674298 0.392742
O O1 0.790314 0.789077 0.846064
O O2 0.620834 0.718533 0.779206
O O3 0.674690 0.000000 0.817793
O O4 0.755579 0.808784 0.032805
O O5 0.989268 0.500000 0.752400
O O6 0.906390 0.276232 0.783513
O O7 0.899041 0.290283 0.553597
O O8 0.059270 0.229989 0.798261
O O9 0.274746 0.208549 0.417365
O O10 0.150830 0.000000 0.246403
O O11 0.500000 0.735206 0.500000
O O12 0.497845 0.500000 0.363410
O O13 0.560087 0.750797 0.339828
O O14 0.714913 0.758847 0.350738
O O15 0.647697 0.000000 0.380718
O O16 0.838611 0.728720 0.293967
O O17 0.866406 0.000000 0.240994
O O18 0.786675 0.500000 0.369013
#
# Coordination Sequence:
#
# PCOD8062132 Si02
#       7
#     4   4   4   4   4   4   4
#     4  10  22  39  57  81 114 151 189 230 277 333
#     4  10  21  36  57  83 112 147 187 232 282 332
#     4   9  18  34  56  82 111 145 185 229 277 328
#     4  11  22  35  57  88 118 147 182 226 278 334
#     4  10  19  34  60  87 112 145 187 232 277 327
#     4  11  23  38  57  81 112 150 192 234 277 329
#     4  10  21  38  59  83 114 147 187 235 282 331
#
# _framework density 19.133018
#
# number of rings (size 3 to 8) (size 9 to 14) (size 15 to 20)
#    0.000    1.857    1.429    2.571    0.000    6.857 
#    0.000    3.571    0.000    4.286    0.000    0.000 
#    0.000    0.000    0.000    0.000    0.000    0.000 
#
# Total GULP energy -347365.271487 kJ/mol
# GULP energy per Si atom -12405.902553 kJ/mol
# Density = 1.908947 g / cm^3
# Si number density = 19.133018 Si / 1000 Ang^3
#
#
#
# Elastic Constant Matrix: (Units=GPa)
#
#
# Indices 1 2 3 4 5 6 
#
# 1 86.1993 35.6541 14.4391 0.0000 14.5185 0.0000
# 2 35.6541 80.0264 25.0075 0.0000 11.7118 0.0000
# 3 14.4391 25.0075 39.7521 0.0000 9.2440 0.0000
# 4 0.0000 0.0000 0.0000 24.1477 0.0000 1.5366
# 5 14.5185 11.7118 9.2440 0.0000 20.9726 0.0000
# 6 0.0000 0.0000 0.0000 1.5366 0.0000 39.8344
#
#
#
# Elastic Compliance Matrix: (Units=1/GPa)
#
#
# Indices 1 2 3 4 5 6 
#
# 1 0.015195 -0.005615 -0.000301 0.000000 -0.007251 0.000000
# 2 -0.005615 0.018088 -0.008796 0.000000 -0.002337 0.000000
# 3 -0.000301 -0.008796 0.032989 0.000000 -0.009420 0.000000
# 4 0.000000 0.000000 0.000000 0.041514 0.000000 -0.001601
# 5 -0.007251 -0.002337 -0.009420 0.000000 0.058158 0.000000
# 6 0.000000 0.000000 0.000000 -0.001601 0.000000 0.025166
#
#
# Mechanical properties :
#
#
# Convention : Reuss Voigt Hill
#
# Bulk Modulus (GPa) = 27.13789 39.57547 33.35668
# Shear Modulus (GPa) = 21.47618 25.71608 23.59613
#
# Velocity S-wave (km/s) = 3.35396 3.67013 3.51560
# Velocity P-wave (km/s) = 5.40493 6.22006 5.82677
#
# Compressibility (1/GPa) = 0.03684885
#
# Stress axis : x y z
#
# Youngs Moduli (GPa) = 65.81093 55.28501 30.31292
#
# Poissons Ratio (x) = 0.31040 0.00913
# Poissons Ratio (y) = 0.36950 0.26663
# Poissons Ratio (z) = 0.01982 0.48629
#
# Static dielectric constant tensor:
#      x y z
#    x 3.509460 0.000000 -0.042630 
#    y 0.000000 3.521940 0.000000 
#    z -0.042630 0.000000 3.278170 
# 
# 
# High freq. dielectric constant tensor:
#      x y z
#    x 1.751930 0.000000 -0.001140 
#    y 0.000000 1.752600 0.000000 
#    z -0.001140 0.000000 1.723190 
# 
# From -- ./inp_files/49601.got.cif
#   From: 2010.06.25/outbox.cif.g09.slc.cpg/sg10_25_cif.got.tgz:49601.got - 2010.06.27 22:07:45.
