data_PCOD8062339
_publ_section_title
;
Structure prediction by ZEFSAII (Michael W. Deem and Ramdas Pophale) SiO2 
 PCOD8062339
Probable space group: P 2/M
;
_chemical_formula_sum "Si O2"
_cell_formula_units_Z 24
_cell_length_a 14.571133
_cell_length_b 8.668938
_cell_length_c 19.090316
_cell_angle_alpha 90.000000
_cell_angle_beta 30.914402
_cell_angle_gamma 90.000000
_cell_volume 1238.882225
_symmetry_space_group_name_H-M "P 2/M"
_symmetry_group_IT_number 10
_symmetry_cell_setting 'monoclinic'
loop_
_space_group_symop_operation_xyz
x,y,z
-x,y,-z
-x,-y,-z
x,-y,z
loop_
_atom_site_type_symbol
_atom_site_label
_atom_site_fract_x
_atom_site_fract_y
_atom_site_fract_z
Si Si1 0.503783 0.182866 0.603283
Si Si2 0.232931 0.682011 0.675109
Si Si3 0.825111 0.320822 0.936939
Si Si4 0.289806 0.824459 0.129006
Si Si5 0.511462 0.817795 0.227466
Si Si6 0.185811 0.816266 0.348903
O O1 0.686470 0.233530 0.445837
O O2 0.335031 0.264333 0.677781
O O3 0.510498 0.240642 0.678805
O O4 0.481238 0.000000 0.612108
O O5 0.255286 0.500000 0.650194
O O6 0.027893 0.731397 0.817757
O O7 0.799243 0.500000 0.967871
O O8 0.774502 0.285241 0.890407
O O9 0.701576 0.231613 0.072502
O O10 0.200635 0.763254 0.258817
O O11 0.232009 0.000000 0.149967
O O12 0.500000 0.814536 0.000000
O O13 0.350144 0.747508 0.286541
O O14 0.501728 0.000000 0.231118
O O15 0.000000 0.750044 0.500000
O O16 0.191247 0.000000 0.349704
#
# Coordination Sequence:
#
# PCOD8062339 Si02
#       6
#     4   4   4   4   4   4
#     4  10  21  37  62  90 113 141 186 243 288 329
#     4  10  22  40  59  81 115 155 189 225 281 349
#     4  11  24  38  56  83 115 154 194 230 275 335
#     4  10  19  35  59  82 110 149 187 230 281 331
#     4  10  21  38  58  85 116 145 186 237 286 335
#     4   9  18  33  55  83 112 144 182 224 281 339
#
# _framework density 19.372299999999999
#
# number of rings (size 3 to 8) (size 9 to 14) (size 15 to 20)
#    0.000    2.000    1.667    2.500    2.333    5.000 
#    0.000    3.333    0.000    1.000    0.000    0.000 
#    0.000    0.000    0.000    0.000    0.000    0.000 
#
# Total GULP energy -297655.477758 kJ/mol
# GULP energy per Si atom -12402.311573 kJ/mol
# Density = 1.932821 g / cm^3
# Si number density = 19.372300 Si / 1000 Ang^3
#
#
#
# Elastic Constant Matrix: (Units=GPa)
#
#
# Indices 1 2 3 4 5 6 
#
# 1 95.9333 17.3824 61.4276 0.0000 6.8193 0.0000
# 2 17.3824 12.1461 11.2546 0.0000 1.5120 0.0000
# 3 61.4276 11.2546 144.0400 0.0000 5.1754 0.0000
# 4 0.0000 0.0000 0.0000 15.0982 0.0000 -4.3886
# 5 6.8193 1.5120 5.1754 0.0000 37.1689 0.0000
# 6 0.0000 0.0000 0.0000 -4.3886 0.0000 15.2606
#
#
#
# Elastic Compliance Matrix: (Units=1/GPa)
#
#
# Indices 1 2 3 4 5 6 
#
# 1 0.018059 -0.020005 -0.006079 0.000000 -0.001653 0.000000
# 2 -0.020005 0.111181 -0.000126 0.000000 -0.000835 0.000000
# 3 -0.006079 -0.000126 0.009552 0.000000 -0.000210 0.000000
# 4 0.000000 0.000000 0.000000 0.072275 0.000000 0.020785
# 5 -0.001653 -0.000835 -0.000210 0.000000 0.027271 0.000000
# 6 0.000000 0.000000 0.000000 0.020785 0.000000 0.071505
#
#
# Mechanical properties :
#
#
# Convention : Reuss Voigt Hill
#
# Bulk Modulus (GPa) = 11.57777 48.02762 29.80270
# Shear Modulus (GPa) = 12.78598 24.30920 18.54759
#
# Velocity S-wave (km/s) = 2.57186 3.54622 3.09759
# Velocity P-wave (km/s) = 3.84821 6.45084 5.31140
#
# Compressibility (1/GPa) = 0.08637242
#
# Stress axis : x y z
#
# Youngs Moduli (GPa) = 55.37532 8.99432 104.68750
#
# Poissons Ratio (x) = 0.17994 0.63637
# Poissons Ratio (y) = 1.10781 0.01315
# Poissons Ratio (z) = 0.33661 0.00113
#
# Static dielectric constant tensor:
#      x y z
#    x 3.763920 0.000000 0.044070 
#    y 0.000000 3.328050 0.000000 
#    z 0.044070 0.000000 3.744710 
# 
# 
# High freq. dielectric constant tensor:
#      x y z
#    x 1.760280 0.000000 0.001750 
#    y 0.000000 1.733590 0.000000 
#    z 0.001750 0.000000 1.766690 
# 
# From -- ./inp_files/77663.got.cif
#   From: 2010.06.25/outbox.cif.g09.slc.cpg/sg10_39_cif.got.tgz:77663.got - 2010.06.27 22:07:45.
