data_PCOD8062933
_publ_section_title
;
Structure prediction by ZEFSAII (Michael W. Deem and Ramdas Pophale) SiO2 
 PCOD8062933
Probable space group: P 2/M
;
_chemical_formula_sum "Si O2"
_cell_formula_units_Z 28
_cell_length_a 17.833905
_cell_length_b 9.115029
_cell_length_c 20.107478
_cell_angle_alpha 90.000000
_cell_angle_beta 28.401111
_cell_angle_gamma 90.000000
_cell_volume 1554.682221
_symmetry_space_group_name_H-M "P 2/M"
_symmetry_group_IT_number 10
_symmetry_cell_setting 'monoclinic'
loop_
_space_group_symop_operation_xyz
x,y,z
-x,y,-z
-x,-y,-z
x,-y,z
loop_
_atom_site_type_symbol
_atom_site_label
_atom_site_fract_x
_atom_site_fract_y
_atom_site_fract_z
Si Si1 0.743264 0.832442 0.846204
Si Si2 0.486784 0.165640 0.661654
Si Si3 0.663906 0.665892 0.333154
Si Si4 0.813781 0.834365 0.328791
Si Si5 0.415261 0.167506 0.168664
Si Si6 0.356303 0.670856 0.347492
Si Si7 0.962315 0.670841 0.328148
O O1 0.694061 0.799189 0.809180
O O2 0.880883 0.721888 0.757532
O O3 0.801851 0.000000 0.807351
O O4 0.596749 0.803887 0.009106
O O5 0.354301 0.251493 0.723009
O O6 0.648191 0.167234 0.495302
O O7 0.511180 0.244682 0.713243
O O8 0.428465 0.000000 0.719612
O O9 0.500000 0.666773 0.500000
O O10 0.719822 0.500000 0.276187
O O11 0.797191 0.748379 0.272203
O O12 0.944353 0.755472 0.272332
O O13 0.869041 0.000000 0.271003
O O14 0.362089 0.277150 0.267402
O O15 0.391893 0.000000 0.210457
O O16 0.395245 0.500000 0.321536
O O17 0.183138 0.706523 0.510089
O O18 0.972959 0.500000 0.303382
#
# Coordination Sequence:
#
# PCOD8062933 Si02
#       7
#     4   4   4   4   4   4   4
#     4   9  19  36  55  73  94 123 161 202 242 288
#     4   9  16  26  41  62  90 125 163 199 236 281
#     4   9  15  23  37  59  90 125 158 195 240 285
#     4   9  16  26  41  62  90 125 163 199 236 281
#     4   9  19  36  55  73  94 123 161 202 242 288
#     4  10  20  32  47  71 102 131 160 198 244 290
#     4  10  20  32  47  71 102 131 160 198 244 290
#
# _framework density 18.010111999999999
#
# number of rings (size 3 to 8) (size 9 to 14) (size 15 to 20)
#    0.000    2.714    0.000    3.000    0.000    8.571 
#    0.000    4.286    0.000    0.000    0.000    1.000 
#    0.000    8.000    0.000    0.000    0.000    0.000 
#
# Total GULP energy -347227.226867 kJ/mol
# GULP energy per Si atom -12400.972388 kJ/mol
# Density = 1.796912 g / cm^3
# Si number density = 18.010112 Si / 1000 Ang^3
#
#
#
# Elastic Constant Matrix: (Units=GPa)
#
#
# Indices 1 2 3 4 5 6 
#
# 1 128.7013 77.0118 39.4649 0.0000 -9.7518 0.0000
# 2 77.0118 139.6759 35.4662 0.0000 -7.3260 0.0000
# 3 39.4649 35.4662 31.3966 0.0000 -4.7487 0.0000
# 4 0.0000 0.0000 0.0000 20.7975 0.0000 -0.4892
# 5 -9.7518 -7.3260 -4.7487 0.0000 -0.4886 0.0000
# 6 0.0000 0.0000 0.0000 -0.4892 0.0000 39.0734
#
#
#
# Elastic Compliance Matrix: (Units=1/GPa)
#
#
# Indices 1 2 3 4 5 6 
#
# 1 0.013077 -0.004908 -0.015886 0.000000 -0.033011 0.000000
# 2 -0.004908 0.011569 -0.007418 0.000000 -0.003424 0.000000
# 3 -0.015886 -0.007418 0.050599 0.000000 -0.063472 0.000000
# 4 0.000000 0.000000 0.000000 0.048097 0.000000 0.000602
# 5 -0.033011 -0.003424 -0.063472 0.000000 -0.719570 0.000000
# 6 0.000000 0.000000 0.000000 0.000602 0.000000 0.025600
#
#
# Mechanical properties :
#
#
# Convention : Reuss Voigt Hill
#
# Bulk Modulus (GPa) = 53.13196 67.07329 60.10262
# Shear Modulus (GPa) = -9.84384 21.73185 5.94400
#
# Velocity S-wave (km/s) = -2.34043 3.47745 1.81866
# Velocity P-wave (km/s) = 4.71824 7.31071 6.15257
#
# Compressibility (1/GPa) = 0.01882107
#
# Stress axis : x y z
#
# Youngs Moduli (GPa) = 76.47275 86.43612 19.76343
#
# Poissons Ratio (x) = 0.42419 0.31396
# Poissons Ratio (y) = 0.37529 0.14660
# Poissons Ratio (z) = 1.21485 0.64118
#
# Static dielectric constant tensor:
#      x y z
#    x 3.431470 0.000000 -0.014980 
#    y 0.000000 3.439850 0.000000 
#    z -0.014980 0.000000 2.780670 
# 
# 
# High freq. dielectric constant tensor:
#      x y z
#    x 1.711500 0.000000 -0.002070 
#    y 0.000000 1.710710 0.000000 
#    z -0.002070 0.000000 1.637650 
# 
# From -- ./inp_files/28203.got.cif
#   From: 2010.06.25/outbox.cif.g09.slc.cpg/sg10_15_cif.got.tgz:28203.got - 2010.06.27 22:07:45.
