data_PCOD8062277
_publ_section_title
;
Structure prediction by ZEFSAII (Michael W. Deem and Ramdas Pophale) SiO2 
 PCOD8062277
Probable space group: P 2/M
;
_chemical_formula_sum "Si O2"
_cell_formula_units_Z 24
_cell_length_a 16.378551
_cell_length_b 9.208332
_cell_length_c 22.799551
_cell_angle_alpha 90.000000
_cell_angle_beta 157.155893
_cell_angle_gamma 90.000000
_cell_volume 1334.954269
_symmetry_space_group_name_H-M "P 2/M"
_symmetry_group_IT_number 10
_symmetry_cell_setting 'monoclinic'
loop_
_space_group_symop_operation_xyz
x,y,z
-x,y,-z
-x,-y,-z
x,-y,z
loop_
_atom_site_type_symbol
_atom_site_label
_atom_site_fract_x
_atom_site_fract_y
_atom_site_fract_z
Si Si1 0.777574 0.333653 0.326070
Si Si2 0.448892 0.169919 0.532403
Si Si3 0.764447 0.829937 0.842680
Si Si4 0.269188 0.167600 0.822651
Si Si5 0.881549 0.670033 0.611946
Si Si6 0.554822 0.664376 0.296592
O O1 0.782957 0.500000 0.306740
O O2 0.725499 0.226003 0.239602
O O3 0.601168 0.312063 0.258979
O O4 0.000000 0.290082 0.500000
O O5 0.500000 0.215838 0.500000
O O6 0.650069 0.210472 0.705833
O O7 0.245980 0.259879 0.418603
O O8 0.395219 0.000000 0.501748
O O9 0.639157 0.765217 0.814654
O O10 0.771212 0.000000 0.857317
O O11 0.000000 0.765198 0.000000
O O12 0.109145 0.256199 0.757894
O O13 0.200463 0.000000 0.776822
O O14 0.500000 0.190183 0.000000
O O15 0.910082 0.500000 0.643132
O O16 0.761981 0.702012 0.471717
O O17 0.487933 0.500000 0.265793
#
# Coordination Sequence:
#
# PCOD8062277 Si02
#       6
#     4   4   4   4   4   4
#     4  10  19  36  59  82 109 140 179 223 268 322
#     4   9  18  34  55  77 104 139 177 219 266 316
#     4   9  18  33  52  75 104 138 173 213 262 313
#     4  11  24  39  54  79 113 146 182 224 272 323
#     4  10  19  35  58  80 106 141 181 224 268 320
#     4   9  18  33  55  81 106 136 174 219 264 312
#
# _framework density 17.978144
#
# number of rings (size 3 to 8) (size 9 to 14) (size 15 to 20)
#    0.000    2.333    1.667    1.000    0.000    3.667 
#    3.000    0.000    0.000    0.000    0.000    0.000 
#    0.000    0.000    0.000    0.000    0.000    0.000 
#
# Total GULP energy -297660.676503 kJ/mol
# GULP energy per Si atom -12402.528188 kJ/mol
# Density = 1.793723 g / cm^3
# Si number density = 17.978144 Si / 1000 Ang^3
#
#
#
# Elastic Constant Matrix: (Units=GPa)
#
#
# Indices 1 2 3 4 5 6 
#
# 1 123.9871 61.1118 58.1507 0.0000 6.0892 0.0000
# 2 61.1118 84.7715 56.7451 0.0000 8.8082 0.0000
# 3 58.1507 56.7451 93.1591 0.0000 14.7333 0.0000
# 4 0.0000 0.0000 0.0000 26.5815 0.0000 5.1931
# 5 6.0892 8.8082 14.7333 0.0000 22.2538 0.0000
# 6 0.0000 0.0000 0.0000 5.1931 0.0000 36.5105
#
#
#
# Elastic Compliance Matrix: (Units=1/GPa)
#
#
# Indices 1 2 3 4 5 6 
#
# 1 0.013498 -0.006900 -0.004546 0.000000 0.002048 0.000000
# 2 -0.006900 0.023446 -0.009835 0.000000 -0.000881 0.000000
# 3 -0.004546 -0.009835 0.020943 0.000000 -0.008729 0.000000
# 4 0.000000 0.000000 0.000000 0.038695 0.000000 -0.005504
# 5 0.002048 -0.000881 -0.008729 0.000000 0.050504 0.000000
# 6 0.000000 0.000000 0.000000 -0.005504 0.000000 0.028172
#
#
# Mechanical properties :
#
#
# Convention : Reuss Voigt Hill
#
# Bulk Modulus (GPa) = 65.25612 72.65922 68.95767
# Shear Modulus (GPa) = 22.42866 25.46314 23.94590
#
# Velocity S-wave (km/s) = 3.53590 3.76751 3.65354
# Velocity P-wave (km/s) = 7.28330 7.70899 7.49917
#
# Compressibility (1/GPa) = 0.01532423
#
# Stress axis : x y z
#
# Youngs Moduli (GPa) = 74.08417 42.65201 47.74809
#
# Poissons Ratio (x) = 0.29431 0.21708
# Poissons Ratio (y) = 0.51120 0.46959
# Poissons Ratio (z) = 0.33682 0.41947
#
# Static dielectric constant tensor:
#      x y z
#    x 3.974130 0.000000 -0.530030 
#    y 0.000000 3.325320 0.000000 
#    z -0.530030 0.000000 3.857570 
# 
# 
# High freq. dielectric constant tensor:
#      x y z
#    x 1.700570 0.000000 0.010460 
#    y 0.000000 1.697160 0.000000 
#    z 0.010460 0.000000 1.682290 
# 
# From -- ./inp_files/68788.got.cif
#   From: 2010.06.25/outbox.cif.g09.slc.cpg/sg10_35_cif.got.tgz:68788.got - 2010.06.27 22:07:45.
