data_PCOD8062646
_publ_section_title
;
Structure prediction by ZEFSAII (Michael W. Deem and Ramdas Pophale) SiO2 
 PCOD8062646
Probable space group: P 2/M
;
_chemical_formula_sum "Si O2"
_cell_formula_units_Z 26
_cell_length_a 8.578081
_cell_length_b 20.791632
_cell_length_c 8.224173
_cell_angle_alpha 90.000000
_cell_angle_beta 52.786063
_cell_angle_gamma 90.000000
_cell_volume 1168.134490
_symmetry_space_group_name_H-M "P 2/M"
_symmetry_group_IT_number 10
_symmetry_cell_setting 'monoclinic'
loop_
_space_group_symop_operation_xyz
x,y,z
-x,y,-z
-x,-y,-z
x,-y,z
loop_
_atom_site_type_symbol
_atom_site_label
_atom_site_fract_x
_atom_site_fract_y
_atom_site_fract_z
Si Si1 0.947163 0.660733 0.361300
Si Si2 0.832147 0.424643 0.978776
Si Si3 0.686601 0.162529 0.303113
Si Si4 0.627870 0.072077 0.062489
Si Si5 0.576529 0.428761 0.628120
Si Si6 0.950542 0.927510 0.346990
Si Si7 0.000000 0.255743 0.000000
O O1 0.736819 0.627219 0.515620
O O2 0.000000 0.695600 0.500000
O O3 0.108038 0.604049 0.233903
O O4 0.972966 0.706754 0.188359
O O5 0.839814 0.500000 0.967185
O O6 0.611976 0.401193 0.154843
O O7 0.000000 0.399341 0.000000
O O8 0.500000 0.199492 0.500000
O O9 0.587250 0.109052 0.253280
O O10 0.812350 0.127640 0.362960
O O11 0.807653 0.211462 0.113464
O O12 0.549324 0.000000 0.138443
O O13 0.500000 0.104449 0.000000
O O14 0.856470 0.073463 0.882818
O O15 0.500000 0.444078 0.500000
O O16 0.647223 0.500000 0.651343
O O17 0.000000 0.908714 0.500000
O O18 0.859145 0.000000 0.397223
#
# Coordination Sequence:
#
# PCOD8062646 Si02
#       7
#     4   4   4   4   4   4   2
#     4  12  26  45  70  95 132 181 231 288 336 397
#     4  10  19  37  68 103 139 173 210 272 346 413
#     4  12  25  44  69  92 128 179 223 278 342 400
#     4  10  20  38  66 104 140 168 207 266 340 418
#     4  10  19  36  69 106 138 175 214 267 348 421
#     4  10  20  37  66 103 140 171 210 269 337 414
#     4  12  28  52  66  90 132 180 248 292 324 384
#
# _framework density 22.257712999999999
#
# number of rings (size 3 to 8) (size 9 to 14) (size 15 to 20)
#    0.000    1.231    3.846    1.846    0.000    8.000 
#    2.769    1.538    0.000    0.000    0.000    0.000 
#    0.000    0.000    0.000    0.000    0.000    0.000 
#
# Total GULP energy -322126.355537 kJ/mol
# GULP energy per Si atom -12389.475213 kJ/mol
# Density = 2.220705 g / cm^3
# Si number density = 22.257713 Si / 1000 Ang^3
#
#
#
# Elastic Constant Matrix: (Units=GPa)
#
#
# Indices 1 2 3 4 5 6 
#
# 1 93.7083 51.7583 51.4223 0.0000 7.7413 0.0000
# 2 51.7583 71.4642 49.5516 0.0000 -3.2731 0.0000
# 3 51.4223 49.5516 140.9263 0.0000 -14.5384 0.0000
# 4 0.0000 0.0000 0.0000 27.5125 0.0000 5.1012
# 5 7.7413 -3.2731 -14.5384 0.0000 48.3216 0.0000
# 6 0.0000 0.0000 0.0000 5.1012 0.0000 0.3479
#
#
#
# Elastic Compliance Matrix: (Units=1/GPa)
#
#
# Indices 1 2 3 4 5 6 
#
# 1 0.019635 -0.012066 -0.003437 0.000000 -0.004997 0.000000
# 2 -0.012066 0.025944 -0.004478 0.000000 0.002343 0.000000
# 3 -0.003437 -0.004478 0.010269 0.000000 0.003337 0.000000
# 4 0.000000 0.000000 0.000000 -0.021147 0.000000 0.310087
# 5 -0.004997 0.002343 0.003337 0.000000 0.022658 0.000000
# 6 0.000000 0.000000 0.000000 0.310087 0.000000 -1.672399
#
#
# Mechanical properties :
#
#
# Convention : Reuss Voigt Hill
#
# Bulk Modulus (GPa) = 62.95166 67.95146 65.45156
# Shear Modulus (GPa) = -3.18516 25.46083 11.13784
#
# Velocity S-wave (km/s) = -1.19756 3.38584 2.23940
# Velocity P-wave (km/s) = 5.14123 6.77355 6.01304
#
# Compressibility (1/GPa) = 0.01588520
#
# Stress axis : x y z
#
# Youngs Moduli (GPa) = 50.92904 38.54430 97.38137
#
# Poissons Ratio (x) = 0.46509 0.33475
# Poissons Ratio (y) = 0.61452 0.43605
# Poissons Ratio (z) = 0.17507 0.17259
#
# Static dielectric constant tensor:
#      x y z
#    x 3.838480 0.000000 0.203260 
#    y 0.000000 3.927720 0.000000 
#    z 0.203260 0.000000 3.970580 
# 
# 
# High freq. dielectric constant tensor:
#      x y z
#    x 1.863860 0.000000 -0.005040 
#    y 0.000000 1.854850 0.000000 
#    z -0.005040 0.000000 1.899820 
# 
# From -- ./inp_files/20427.got.cif
#   From: 2010.06.25/outbox.cif.g09.slc.cpg/sg10_11_cif.got.tgz:20427.got - 2010.06.27 22:07:45.
