data_PCOD8062524
_publ_section_title
;
Structure prediction by ZEFSAII (Michael W. Deem and Ramdas Pophale) SiO2 
 PCOD8062524
Probable space group: P 2/M
;
_chemical_formula_sum "Si O2"
_cell_formula_units_Z 32
_cell_length_a 14.460687
_cell_length_b 8.808110
_cell_length_c 24.779985
_cell_angle_alpha 90.000000
_cell_angle_beta 29.577524
_cell_angle_gamma 90.000000
_cell_volume 1557.932006
_symmetry_space_group_name_H-M "P 2/M"
_symmetry_group_IT_number 10
_symmetry_cell_setting 'monoclinic'
loop_
_space_group_symop_operation_xyz
x,y,z
-x,y,-z
-x,-y,-z
x,-y,z
loop_
_atom_site_type_symbol
_atom_site_label
_atom_site_fract_x
_atom_site_fract_y
_atom_site_fract_z
Si Si1 0.942712 0.824596 0.471321
Si Si2 0.019904 0.675837 0.155639
Si Si3 0.570477 0.678105 0.199124
Si Si4 0.075660 0.179260 0.018835
Si Si5 0.456459 0.179533 0.362202
Si Si6 0.591912 0.179971 0.008772
Si Si7 0.608192 0.675448 0.391541
Si Si8 0.335144 0.824459 0.237232
O O1 0.753721 0.754941 0.541345
O O2 0.000000 0.750418 0.500000
O O3 0.111433 0.803921 0.342225
O O4 0.898212 0.000000 0.504636
O O5 0.068110 0.500000 0.124861
O O6 0.968660 0.744749 0.123004
O O7 0.198720 0.755338 0.091918
O O8 0.831610 0.702774 0.286358
O O9 0.606862 0.500000 0.181223
O O10 0.590180 0.743512 0.249489
O O11 0.374615 0.724381 0.270980
O O12 0.711480 0.763983 0.086702
O O13 0.059831 0.000000 0.032741
O O14 0.000000 0.239210 0.000000
O O15 0.525010 0.223964 0.386173
O O16 0.472934 0.000000 0.347470
O O17 0.610481 0.000000 0.000139
O O18 0.500000 0.238216 0.000000
O O19 0.450697 0.236595 0.127209
O O20 0.500000 0.727086 0.500000
O O21 0.569056 0.500000 0.397825
O O22 0.383479 0.000000 0.224617
#
# Coordination Sequence:
#
# PCOD8062524 Si02
#       8
#     4   4   4   4   4   4   4   4
#     4   9  17  32  56  85 118 158 201 247 305 362
#     4  11  23  40  64  91 121 161 205 253 308 367
#     4  12  23  35  56  87 124 160 199 247 305 370
#     4  11  23  38  59  88 121 159 202 252 309 368
#     4  11  22  38  63  93 123 161 210 260 307 361
#     4  10  22  39  62  91 123 161 205 253 305 362
#     4  10  24  46  66  87 123 167 206 252 312 365
#     4  10  19  36  59  82 117 161 202 247 302 360
#
# _framework density 20.540049
#
# number of rings (size 3 to 8) (size 9 to 14) (size 15 to 20)
#    0.000    1.500    2.500    3.000    0.000    5.500 
#    0.000    3.125    0.000    0.000    0.000    0.000 
#    0.000    0.000    0.000    0.000    0.000    0.000 
#
# Total GULP energy -396768.954655 kJ/mol
# GULP energy per Si atom -12399.029833 kJ/mol
# Density = 2.049330 g / cm^3
# Si number density = 20.540049 Si / 1000 Ang^3
#
#
#
# Elastic Constant Matrix: (Units=GPa)
#
#
# Indices 1 2 3 4 5 6 
#
# 1 105.3758 22.3198 40.2170 0.0000 5.3955 0.0000
# 2 22.3198 43.3516 25.7696 0.0000 4.0278 0.0000
# 3 40.2170 25.7696 127.8347 0.0000 6.1004 0.0000
# 4 0.0000 0.0000 0.0000 22.9089 0.0000 2.8433
# 5 5.3955 4.0278 6.1004 0.0000 31.8415 0.0000
# 6 0.0000 0.0000 0.0000 2.8433 0.0000 23.3114
#
#
#
# Elastic Compliance Matrix: (Units=1/GPa)
#
#
# Indices 1 2 3 4 5 6 
#
# 1 0.011463 -0.004204 -0.002716 0.000000 -0.000890 0.000000
# 2 -0.004204 0.027921 -0.004210 0.000000 -0.002013 0.000000
# 3 -0.002716 -0.004210 0.009566 0.000000 -0.000840 0.000000
# 4 0.000000 0.000000 0.000000 0.044322 0.000000 -0.005406
# 5 -0.000890 -0.002013 -0.000840 0.000000 0.031972 0.000000
# 6 0.000000 0.000000 0.000000 -0.005406 0.000000 0.043557
#
#
# Mechanical properties :
#
#
# Convention : Reuss Voigt Hill
#
# Bulk Modulus (GPa) = 37.46833 50.35276 43.91055
# Shear Modulus (GPa) = 25.00532 28.16274 26.58403
#
# Velocity S-wave (km/s) = 3.49290 3.70687 3.60148
# Velocity P-wave (km/s) = 5.87778 6.54896 6.22243
#
# Compressibility (1/GPa) = 0.02668921
#
# Stress axis : x y z
#
# Youngs Moduli (GPa) = 87.24052 35.81496 104.53894
#
# Poissons Ratio (x) = 0.15058 0.28394
# Poissons Ratio (y) = 0.36679 0.44009
# Poissons Ratio (z) = 0.23696 0.15077
#
# Static dielectric constant tensor:
#      x y z
#    x 3.720010 0.000000 -0.105760 
#    y 0.000000 3.450550 0.000000 
#    z -0.105760 0.000000 3.942400 
# 
# 
# High freq. dielectric constant tensor:
#      x y z
#    x 1.797000 0.000000 -0.010510 
#    y 0.000000 1.781770 0.000000 
#    z -0.010510 0.000000 1.817450 
# 
# From -- ./inp_files/89516.got.cif
#   From: 2010.06.25/outbox.cif.g09.slc.cpg/sg10_45_cif.got.tgz:89516.got - 2010.06.27 22:07:45.
