data_PCOD8062298
_publ_section_title
;
Structure prediction by ZEFSAII (Michael W. Deem and Ramdas Pophale) SiO2 
 PCOD8062298
Probable space group: P 2/M
;
_chemical_formula_sum "Si O2"
_cell_formula_units_Z 32
_cell_length_a 15.560773
_cell_length_b 23.617190
_cell_length_c 8.755979
_cell_angle_alpha 90.000000
_cell_angle_beta 29.695108
_cell_angle_gamma 90.000000
_cell_volume 1594.066802
_symmetry_space_group_name_H-M "P 2/M"
_symmetry_group_IT_number 10
_symmetry_cell_setting 'monoclinic'
loop_
_space_group_symop_operation_xyz
x,y,z
-x,y,-z
-x,-y,-z
x,-y,z
loop_
_atom_site_type_symbol
_atom_site_label
_atom_site_fract_x
_atom_site_fract_y
_atom_site_fract_z
Si Si1 0.318360 0.145409 0.867554
Si Si2 0.670832 0.643094 0.655053
Si Si3 0.246851 0.768144 0.504097
Si Si4 0.875562 0.243600 0.967847
Si Si5 0.329783 0.877053 0.206590
Si Si6 0.020311 0.063475 0.288064
Si Si7 0.179727 0.437019 0.811923
Si Si8 0.028627 0.363102 0.277533
O O1 0.500000 0.144314 0.500000
O O2 0.225103 0.206551 0.002302
O O3 0.345105 0.134042 0.003585
O O4 0.191560 0.099458 0.982672
O O5 0.644381 0.709970 0.667430
O O6 0.690022 0.607233 0.469580
O O7 0.839442 0.635107 0.496981
O O8 0.500000 0.618845 0.000000
O O9 0.198517 0.775211 0.755055
O O10 0.353141 0.820955 0.276105
O O11 0.080496 0.767523 0.649625
O O12 0.856163 0.309350 0.954385
O O13 0.151541 0.909327 0.522591
O O14 0.500000 0.912909 0.000000
O O15 0.000000 0.062648 0.500000
O O16 0.043583 0.000000 0.187695
O O17 0.261684 0.500000 0.689947
O O18 0.140178 0.416633 0.046057
O O19 0.000000 0.437247 0.000000
O O20 0.000000 0.365412 0.500000
#
# Coordination Sequence:
#
# PCOD8062298 Si02
#       8
#     4   4   4   4   4   4   4   4
#     4  11  23  38  59  90 121 156 198 243 304 358
#     4  10  20  35  57  86 115 151 195 244 296 353
#     4  10  19  35  58  82 116 153 193 243 297 354
#     4  10  20  35  57  82 117 152 191 243 298 359
#     4  11  22  37  61  88 119 157 201 246 297 354
#     4   9  20  40  63  86 119 162 202 243 293 351
#     4   9  18  37  60  82 114 157 202 241 288 355
#     4  10  21  36  58  85 115 153 196 241 296 356
#
# _framework density 20.074441
#
# number of rings (size 3 to 8) (size 9 to 14) (size 15 to 20)
#    0.000    2.000    2.500    1.125    3.500    1.000 
#    0.000    0.625    0.000    6.000    0.000    0.000 
#    0.000    0.000    0.000    0.000    0.000    0.000 
#
# Total GULP energy -396620.961557 kJ/mol
# GULP energy per Si atom -12394.405049 kJ/mol
# Density = 2.002875 g / cm^3
# Si number density = 20.074441 Si / 1000 Ang^3
#
#
#
# Elastic Constant Matrix: (Units=GPa)
#
#
# Indices 1 2 3 4 5 6 
#
# 1 81.3559 35.2809 34.3116 0.0000 -0.5450 0.0000
# 2 35.2809 128.5867 55.9383 0.0000 -5.7757 0.0000
# 3 34.3116 55.9383 112.7020 0.0000 -0.5071 0.0000
# 4 0.0000 0.0000 0.0000 17.2126 0.0000 7.3177
# 5 -0.5450 -5.7757 -0.5071 0.0000 31.0264 0.0000
# 6 0.0000 0.0000 0.0000 7.3177 0.0000 12.0961
#
#
#
# Elastic Compliance Matrix: (Units=1/GPa)
#
#
# Indices 1 2 3 4 5 6 
#
# 1 0.014794 -0.002694 -0.003168 0.000000 -0.000293 0.000000
# 2 -0.002694 0.010507 -0.004386 0.000000 0.001837 0.000000
# 3 -0.003168 -0.004386 0.012012 0.000000 -0.000676 0.000000
# 4 0.000000 0.000000 0.000000 0.078212 0.000000 -0.047315
# 5 -0.000293 0.001837 -0.000676 0.000000 0.032556 0.000000
# 6 0.000000 0.000000 0.000000 -0.047315 0.000000 0.111295
#
#
# Mechanical properties :
#
#
# Convention : Reuss Voigt Hill
#
# Bulk Modulus (GPa) = 59.47013 63.74513 61.60763
# Shear Modulus (GPa) = 17.51444 25.20794 21.36119
#
# Velocity S-wave (km/s) = 2.95697 3.54746 3.26559
# Velocity P-wave (km/s) = 6.43019 6.97156 6.70634
#
# Compressibility (1/GPa) = 0.01681517
#
# Stress axis : x y z
#
# Youngs Moduli (GPa) = 67.59412 95.17678 83.25284
#
# Poissons Ratio (x) = 0.25642 0.26376
# Poissons Ratio (y) = 0.18211 0.36518
# Poissons Ratio (z) = 0.21415 0.41749
#
# Static dielectric constant tensor:
#      x y z
#    x 3.464580 0.000000 -0.048550 
#    y 0.000000 3.825320 0.000000 
#    z -0.048550 0.000000 3.626260 
# 
# 
# High freq. dielectric constant tensor:
#      x y z
#    x 1.765340 0.000000 0.001590 
#    y 0.000000 1.776410 0.000000 
#    z 0.001590 0.000000 1.786180 
# 
# From -- ./inp_files/30561.got.cif
#   From: 2010.06.25/outbox.cif.g09.slc.cpg/sg10_16_cif.got.tgz:30561.got - 2010.06.27 22:07:45.
