data_PCOD8062874
_publ_section_title
;
Structure prediction by ZEFSAII (Michael W. Deem and Ramdas Pophale) SiO2 
 PCOD8062874
Probable space group: P 2/M
;
_chemical_formula_sum "Si O2"
_cell_formula_units_Z 32
_cell_length_a 21.536709
_cell_length_b 8.997865
_cell_length_c 30.396911
_cell_angle_alpha 90.000000
_cell_angle_beta 160.514865
_cell_angle_gamma 90.000000
_cell_volume 1964.831022
_symmetry_space_group_name_H-M "P 2/M"
_symmetry_group_IT_number 10
_symmetry_cell_setting 'monoclinic'
loop_
_space_group_symop_operation_xyz
x,y,z
-x,y,-z
-x,-y,-z
x,-y,z
loop_
_atom_site_type_symbol
_atom_site_label
_atom_site_fract_x
_atom_site_fract_y
_atom_site_fract_z
Si Si1 0.628565 0.167975 0.128681
Si Si2 0.393708 0.327431 0.304433
Si Si3 0.073437 0.667687 0.722440
Si Si4 0.037448 0.672568 0.126485
Si Si5 0.819797 0.167869 0.909990
Si Si6 0.771361 0.827584 0.572151
Si Si7 0.670152 0.332313 0.020918
Si Si8 0.024565 0.827587 0.825582
O O1 0.822354 0.251311 0.248215
O O2 0.672386 0.000000 0.172551
O O3 0.500000 0.168836 0.000000
O O4 0.525060 0.251339 0.099508
O O5 0.431379 0.500000 0.321249
O O6 0.229327 0.301426 0.229203
O O7 0.346126 0.252597 0.225832
O O8 0.574171 0.251608 0.445623
O O9 0.023544 0.500000 0.674982
O O10 0.206402 0.667619 0.853142
O O11 0.884796 0.755529 0.607540
O O12 0.991775 0.500000 0.101662
O O13 0.061173 0.748379 0.189394
O O14 0.865680 0.747413 0.985859
O O15 0.756617 0.000000 0.878433
O O16 0.000000 0.169273 0.000000
O O17 0.878176 0.802264 0.688970
O O18 0.743115 0.000000 0.542763
O O19 0.630203 0.500000 0.978436
O O20 0.776718 0.244453 0.053677
O O21 0.057250 0.000000 0.857192
#
# Coordination Sequence:
#
# PCOD8062874 Si02
#       8
#     4   4   4   4   4   4   4   4
#     4   9  15  23  37  57  81 110 145 182 219 261
#     4  10  20  33  49  68  90 117 150 188 229 272
#     4   9  16  26  40  58  82 113 148 184 222 264
#     4  10  20  33  49  68  90 117 150 188 229 272
#     4   9  17  31  51  71  89 110 141 184 231 273
#     4  10  20  32  45  63  90 123 156 189 226 269
#     4   9  16  26  40  58  82 113 148 184 222 264
#     4  10  20  32  45  63  90 123 156 189 226 269
#
# _framework density 16.286387999999999
#
# number of rings (size 3 to 8) (size 9 to 14) (size 15 to 20)
#    0.000    2.500    0.000    3.000    0.000    9.500 
#    0.000    2.500    0.000    0.000    0.000    0.000 
#    0.000    1.000    0.000   10.000    0.000    9.000 
#
# Total GULP energy -396834.519594 kJ/mol
# GULP energy per Si atom -12401.078737 kJ/mol
# Density = 1.624932 g / cm^3
# Si number density = 16.286388 Si / 1000 Ang^3
#
#
#
# Elastic Constant Matrix: (Units=GPa)
#
#
# Indices 1 2 3 4 5 6 
#
# 1 58.3370 61.0300 46.8066 0.0000 12.0432 0.0000
# 2 61.0300 167.0188 53.8920 0.0000 11.1527 0.0000
# 3 46.8066 53.8920 46.5686 0.0000 6.2910 0.0000
# 4 0.0000 0.0000 0.0000 27.7214 0.0000 4.5638
# 5 12.0432 11.1527 6.2910 0.0000 10.5789 0.0000
# 6 0.0000 0.0000 0.0000 4.5638 0.0000 30.7180
#
#
#
# Elastic Compliance Matrix: (Units=1/GPa)
#
#
# Indices 1 2 3 4 5 6 
#
# 1 0.129464 -0.005758 -0.113489 0.000000 -0.073824 0.000000
# 2 -0.005758 0.009954 -0.005655 0.000000 -0.000577 0.000000
# 3 -0.113489 -0.005655 0.134645 0.000000 0.055089 0.000000
# 4 0.000000 0.000000 0.000000 0.036978 0.000000 -0.005494
# 5 -0.073824 -0.000577 0.055089 0.000000 0.146418 0.000000
# 6 0.000000 0.000000 0.000000 -0.005494 0.000000 0.033370
#
#
# Mechanical properties :
#
#
# Convention : Reuss Voigt Hill
#
# Bulk Modulus (GPa) = 41.22072 66.15352 53.68712
# Shear Modulus (GPa) = 6.67807 21.15005 13.91406
#
# Velocity S-wave (km/s) = 2.02714 3.60757 2.92608
# Velocity P-wave (km/s) = 5.55373 7.61970 6.66722
#
# Compressibility (1/GPa) = 0.02425964
#
# Stress axis : x y z
#
# Youngs Moduli (GPa) = 7.72417 100.45793 7.42694
#
# Poissons Ratio (x) = 0.57843 0.84288
# Poissons Ratio (y) = 0.04447 0.04200
# Poissons Ratio (z) = 0.87661 0.56805
#
# Static dielectric constant tensor:
#      x y z
#    x 2.933540 0.000000 0.173920 
#    y 0.000000 3.344280 0.000000 
#    z 0.173920 0.000000 2.818850 
# 
# 
# High freq. dielectric constant tensor:
#      x y z
#    x 1.603390 0.000000 0.022500 
#    y 0.000000 1.651920 0.000000 
#    z 0.022500 0.000000 1.588580 
# 
# From -- ./inp_files/55272.got.cif
#   From: 2010.06.25/outbox.cif.g09.slc.cpg/sg10_28_cif.got.tgz:55272.got - 2010.06.27 22:07:45.
