data_PCOD8062940
_publ_section_title
;
Structure prediction by ZEFSAII (Michael W. Deem and Ramdas Pophale) SiO2 
 PCOD8062940
Probable space group: P 2/M
;
_chemical_formula_sum "Si O2"
_cell_formula_units_Z 28
_cell_length_a 17.600908
_cell_length_b 9.275472
_cell_length_c 19.045748
_cell_angle_alpha 90.000000
_cell_angle_beta 29.308720
_cell_angle_gamma 90.000000
_cell_volume 1522.072289
_symmetry_space_group_name_H-M "P 2/M"
_symmetry_group_IT_number 10
_symmetry_cell_setting 'monoclinic'
loop_
_space_group_symop_operation_xyz
x,y,z
-x,y,-z
-x,-y,-z
x,-y,z
loop_
_atom_site_type_symbol
_atom_site_label
_atom_site_fract_x
_atom_site_fract_y
_atom_site_fract_z
Si Si1 0.560421 0.669604 0.113803
Si Si2 0.649943 0.331133 0.287928
Si Si3 0.795966 0.165654 0.826250
Si Si4 0.656466 0.660704 0.828612
Si Si5 0.725600 0.170185 0.092857
Si Si6 0.299628 0.332452 0.595210
Si Si7 0.978898 0.162594 0.238554
O O1 0.590844 0.500000 0.100333
O O2 0.390936 0.695638 0.214309
O O3 0.577869 0.752856 0.173806
O O4 0.687658 0.733409 0.959461
O O5 0.667965 0.500000 0.255741
O O6 0.741083 0.234501 0.158249
O O7 0.469979 0.284290 0.433247
O O8 0.724819 0.295340 0.303088
O O9 0.785733 0.227242 0.754579
O O10 0.966670 0.176562 0.723705
O O11 0.738041 0.000000 0.874560
O O12 0.726625 0.500000 0.777144
O O13 0.500000 0.671716 0.000000
O O14 0.696032 0.000000 0.118615
O O15 0.882486 0.210380 0.925140
O O16 0.279984 0.500000 0.598671
O O17 0.172376 0.257325 0.649801
O O18 0.931854 0.000000 0.258781
#
# Coordination Sequence:
#
# PCOD8062940 Si02
#       7
#     4   4   4   4   4   4   4
#     4   9  16  26  40  60  89 123 156 193 233 271
#     4   9  19  36  53  71  94 119 154 198 236 277
#     4   9  16  25  38  60  91 124 155 190 231 274
#     4   8  14  23  36  57  85 119 157 191 227 272
#     4  10  20  32  47  71  99 127 158 191 233 283
#     4   9  19  35  54  72  91 120 158 195 233 280
#     4   9  19  32  45  68 101 128 155 193 233 276
#
# _framework density 18.395972
#
# number of rings (size 3 to 8) (size 9 to 14) (size 15 to 20)
#    0.000    3.000    0.000    3.857    0.000    8.286 
#    0.000    4.286    0.000    0.000    0.000    1.000 
#    0.000    8.000    0.000    0.000    0.000    0.000 
#
# Total GULP energy -346959.579642 kJ/mol
# GULP energy per Si atom -12391.413559 kJ/mol
# Density = 1.835410 g / cm^3
# Si number density = 18.395972 Si / 1000 Ang^3
#
#
#
# Elastic Constant Matrix: (Units=GPa)
#
#
# Indices 1 2 3 4 5 6 
#
# 1 63.4576 29.1694 8.3744 0.0000 -24.8620 0.0000
# 2 29.1694 71.0542 12.3779 0.0000 -14.3500 0.0000
# 3 8.3744 12.3779 19.9586 0.0000 -12.4918 0.0000
# 4 0.0000 0.0000 0.0000 11.7936 0.0000 -2.6577
# 5 -24.8620 -14.3500 -12.4918 0.0000 19.3407 0.0000
# 6 0.0000 0.0000 0.0000 -2.6577 0.0000 33.1969
#
#
#
# Elastic Compliance Matrix: (Units=1/GPa)
#
#
# Indices 1 2 3 4 5 6 
#
# 1 0.041994 -0.008972 0.029483 0.000000 0.066367 0.000000
# 2 -0.008972 0.018697 -0.010687 0.000000 -0.004563 0.000000
# 3 0.029483 -0.010687 0.105948 0.000000 0.098399 0.000000
# 4 0.000000 0.000000 0.000000 0.086349 0.000000 0.006913
# 5 0.066367 -0.004563 0.098399 0.000000 0.197186 0.000000
# 6 0.000000 0.000000 0.000000 0.006913 0.000000 0.030677
#
#
# Mechanical properties :
#
#
# Convention : Reuss Voigt Hill
#
# Bulk Modulus (GPa) = 5.36809 28.25710 16.81259
# Shear Modulus (GPa) = 9.55475 19.83618 14.69547
#
# Velocity S-wave (km/s) = 2.28149 3.28729 2.82944
# Velocity P-wave (km/s) = 3.14081 5.45914 4.45348
#
# Compressibility (1/GPa) = 0.18628594
#
# Stress axis : x y z
#
# Youngs Moduli (GPa) = 23.81297 53.48429 9.43859
#
# Poissons Ratio (x) = 0.47986 -0.27827
# Poissons Ratio (y) = 0.21365 0.10087
# Poissons Ratio (z) = -0.70207 0.57160
#
# Static dielectric constant tensor:
#      x y z
#    x 4.056290 0.000000 -0.099430 
#    y 0.000000 3.404820 0.000000 
#    z -0.099430 0.000000 2.798960 
# 
# 
# High freq. dielectric constant tensor:
#      x y z
#    x 1.731880 0.000000 -0.009780 
#    y 0.000000 1.718400 0.000000 
#    z -0.009780 0.000000 1.645400 
# 
# From -- ./inp_files/54469.got.cif
#   From: 2010.06.25/outbox.cif.g09.slc.cpg/sg10_28_cif.got.tgz:54469.got - 2010.06.27 22:07:45.
