data_PCOD8062751
_publ_section_title
;
Structure prediction by ZEFSAII (Michael W. Deem and Ramdas Pophale) SiO2 
 PCOD8062751
Probable space group: P 2/M
;
_chemical_formula_sum "Si O2"
_cell_formula_units_Z 28
_cell_length_a 15.237323
_cell_length_b 8.786833
_cell_length_c 18.158797
_cell_angle_alpha 90.000000
_cell_angle_beta 144.250696
_cell_angle_gamma 90.000000
_cell_volume 1420.428129
_symmetry_space_group_name_H-M "P 2/M"
_symmetry_group_IT_number 10
_symmetry_cell_setting 'monoclinic'
loop_
_space_group_symop_operation_xyz
x,y,z
-x,y,-z
-x,-y,-z
x,-y,z
loop_
_atom_site_type_symbol
_atom_site_label
_atom_site_fract_x
_atom_site_fract_y
_atom_site_fract_z
Si Si1 0.757182 0.326594 0.816189
Si Si2 0.217771 0.678271 0.487372
Si Si3 0.527785 0.822252 0.435536
Si Si4 0.827741 0.818887 0.391060
Si Si5 0.340961 0.822557 0.867777
Si Si6 0.038916 0.326366 0.908830
Si Si7 0.938809 0.825107 0.227491
O O1 0.702775 0.500000 0.768442
O O2 0.618591 0.213430 0.712538
O O3 0.883760 0.285889 0.843013
O O4 0.822073 0.303261 0.941755
O O5 0.237764 0.500000 0.509971
O O6 0.330252 0.736355 0.501273
O O7 0.249020 0.755246 0.587384
O O8 0.050439 0.717322 0.347947
O O9 0.500000 0.765064 0.500000
O O10 0.562733 0.000000 0.457325
O O11 0.728749 0.755108 0.255344
O O12 0.000000 0.761332 0.500000
O O13 0.825973 0.000000 0.392772
O O14 0.227828 0.791324 0.857554
O O15 0.366546 0.000000 0.871559
O O16 0.500000 0.746382 0.000000
O O17 0.035074 0.500000 0.877196
O O18 0.058947 0.208396 0.857109
O O19 0.984906 0.000000 0.273407
#
# Coordination Sequence:
#
# PCOD8062751 Si02
#       7
#     4   4   4   4   4   4   4
#     4   9  19  37  58  81 116 158 196 236 292 359
#     4  12  25  39  60  88 118 157 202 246 303 368
#     4  11  24  40  59  86 119 153 198 254 302 351
#     4  10  19  38  64  88 118 156 197 248 300 352
#     4   9  19  36  59  86 117 152 190 237 299 358
#     4   9  19  36  58  84 116 156 195 236 292 357
#     4  11  21  36  58  86 116 149 197 246 296 354
#
# _framework density 19.712365999999999
#
# number of rings (size 3 to 8) (size 9 to 14) (size 15 to 20)
#    0.000    1.857    1.429    3.857    0.000    6.000 
#    0.000    2.857    0.000    3.000    0.000    0.000 
#    0.000    0.000    0.000    0.000    0.000    0.000 
#
# Total GULP energy -347273.135440 kJ/mol
# GULP energy per Si atom -12402.611980 kJ/mol
# Density = 1.966750 g / cm^3
# Si number density = 19.712366 Si / 1000 Ang^3
#
#
#
# Elastic Constant Matrix: (Units=GPa)
#
#
# Indices 1 2 3 4 5 6 
#
# 1 100.2128 28.4995 45.5175 0.0000 -12.6306 0.0000
# 2 28.4995 45.3878 24.6412 0.0000 -1.6682 0.0000
# 3 45.5175 24.6412 123.3263 0.0000 2.3530 0.0000
# 4 0.0000 0.0000 0.0000 25.4920 0.0000 2.6707
# 5 -12.6306 -1.6682 2.3530 0.0000 35.6637 0.0000
# 6 0.0000 0.0000 0.0000 2.6707 0.0000 21.0512
#
#
#
# Elastic Compliance Matrix: (Units=1/GPa)
#
#
# Indices 1 2 3 4 5 6 
#
# 1 0.014342 -0.006612 -0.004068 0.000000 0.005039 0.000000
# 2 -0.006612 0.027840 -0.003106 0.000000 -0.000834 0.000000
# 3 -0.004068 -0.003106 0.010274 0.000000 -0.002264 0.000000
# 4 0.000000 0.000000 0.000000 0.039756 0.000000 -0.005044
# 5 0.005039 -0.000834 -0.002264 0.000000 0.029934 0.000000
# 6 0.000000 0.000000 0.000000 -0.005044 0.000000 0.048143
#
#
# Mechanical properties :
#
#
# Convention : Reuss Voigt Hill
#
# Bulk Modulus (GPa) = 40.18832 51.80484 45.99658
# Shear Modulus (GPa) = 24.25339 27.79263 26.02301
#
# Velocity S-wave (km/s) = 3.51146 3.75895 3.63731
# Velocity P-wave (km/s) = 6.07224 6.72139 6.40504
#
# Compressibility (1/GPa) = 0.02488285
#
# Stress axis : x y z
#
# Youngs Moduli (GPa) = 69.72532 35.92005 97.33271
#
# Poissons Ratio (x) = 0.23749 0.39600
# Poissons Ratio (y) = 0.46099 0.30235
# Poissons Ratio (z) = 0.28368 0.11158
#
# Static dielectric constant tensor:
#      x y z
#    x 3.621540 0.000000 -0.060290 
#    y 0.000000 3.366300 0.000000 
#    z -0.060290 0.000000 3.759710 
# 
# 
# High freq. dielectric constant tensor:
#      x y z
#    x 1.773700 0.000000 -0.004950 
#    y 0.000000 1.747770 0.000000 
#    z -0.004950 0.000000 1.775750 
# 
# From -- ./inp_files/77805.got.cif
#   From: 2010.06.25/outbox.cif.g09.slc.cpg/sg10_39_cif.got.tgz:77805.got - 2010.06.27 22:07:45.
