data_PCOD8062696
_publ_section_title
;
Structure prediction by ZEFSAII (Michael W. Deem and Ramdas Pophale) SiO2 
 PCOD8062696
Probable space group: P 2/M
;
_chemical_formula_sum "Si O2"
_cell_formula_units_Z 32
_cell_length_a 11.707487
_cell_length_b 8.800561
_cell_length_c 28.509167
_cell_angle_alpha 90.000000
_cell_angle_beta 32.346658
_cell_angle_gamma 90.000000
_cell_volume 1571.611602
_symmetry_space_group_name_H-M "P 2/M"
_symmetry_group_IT_number 10
_symmetry_cell_setting 'monoclinic'
loop_
_space_group_symop_operation_xyz
x,y,z
-x,y,-z
-x,-y,-z
x,-y,z
loop_
_atom_site_type_symbol
_atom_site_label
_atom_site_fract_x
_atom_site_fract_y
_atom_site_fract_z
Si Si1 0.593343 0.319736 0.765875
Si Si2 0.078414 0.321091 0.599559
Si Si3 0.933428 0.679353 0.896335
Si Si4 0.595083 0.176460 0.576333
Si Si5 0.802422 0.821083 0.347513
Si Si6 0.609202 0.177941 0.255428
Si Si7 0.794692 0.824410 0.852462
Si Si8 0.604041 0.823516 0.074554
O O1 0.583373 0.500000 0.767828
O O2 0.486944 0.254828 0.756575
O O3 0.462098 0.261256 0.855537
O O4 0.836185 0.259396 0.684467
O O5 0.080009 0.500000 0.601336
O O6 0.192697 0.266593 0.512239
O O7 0.211196 0.256456 0.597223
O O8 0.946025 0.500000 0.898106
O O9 0.795428 0.722178 0.898531
O O10 0.166738 0.748147 0.809016
O O11 0.824562 0.750990 0.980207
O O12 0.394597 0.235254 0.615455
O O13 0.552607 0.208354 0.645637
O O14 0.634125 0.000000 0.553178
O O15 0.019593 0.769752 0.246857
O O16 0.797376 0.000000 0.357032
O O17 0.643960 0.000000 0.234960
O O18 0.570920 0.798593 0.904904
O O19 0.828169 0.000000 0.855510
O O20 0.637631 0.000000 0.074313
#
# Coordination Sequence:
#
# PCOD8062696 Si02
#       8
#     4   4   4   4   4   4   4   4
#     4  11  25  44  63  90 126 162 204 258 316 368
#     4  11  24  39  60  92 130 164 199 248 310 376
#     4  12  25  40  63  95 131 165 198 250 315 374
#     4  10  22  40  64  91 122 160 206 257 303 358
#     4  10  19  37  63  91 124 162 205 252 302 358
#     4  11  24  45  68  90 118 160 215 262 303 361
#     4  10  20  38  64  93 126 164 208 252 300 362
#     4  11  23  41  67  94 123 165 211 255 300 361
#
# _framework density 20.361265
#
# number of rings (size 3 to 8) (size 9 to 14) (size 15 to 20)
#    0.000    1.250    2.500    3.375    0.000    8.500 
#    0.000    5.000    0.000    0.000    0.000    0.000 
#    0.000    0.000    0.000    0.000    0.000    0.000 
#
# Total GULP energy -397011.692690 kJ/mol
# GULP energy per Si atom -12406.615397 kJ/mol
# Density = 2.031492 g / cm^3
# Si number density = 20.361265 Si / 1000 Ang^3
#
#
#
# Elastic Constant Matrix: (Units=GPa)
#
#
# Indices 1 2 3 4 5 6 
#
# 1 90.3721 40.3008 19.9927 0.0000 11.7189 0.0000
# 2 40.3008 82.1537 32.1700 0.0000 16.2435 0.0000
# 3 19.9927 32.1700 99.0379 0.0000 27.6525 0.0000
# 4 0.0000 0.0000 0.0000 34.1300 0.0000 -3.3984
# 5 11.7189 16.2435 27.6525 0.0000 17.5087 0.0000
# 6 0.0000 0.0000 0.0000 -3.3984 0.0000 -8.3120
#
#
#
# Elastic Compliance Matrix: (Units=1/GPa)
#
#
# Indices 1 2 3 4 5 6 
#
# 1 0.014371 -0.006339 0.000361 0.000000 -0.004307 0.000000
# 2 -0.006339 0.017876 -0.001934 0.000000 -0.009287 0.000000
# 3 0.000361 -0.001934 0.018280 0.000000 -0.027318 0.000000
# 4 0.000000 0.000000 0.000000 0.028154 0.000000 -0.011511
# 5 -0.004307 -0.009287 -0.027318 0.000000 0.111758 0.000000
# 6 0.000000 0.000000 0.000000 -0.011511 0.000000 -0.115602
#
#
# Mechanical properties :
#
#
# Convention : Reuss Voigt Hill
#
# Bulk Modulus (GPa) = 28.81696 50.72122 39.76909
# Shear Modulus (GPa) = 48.91008 20.60535 34.75772
#
# Velocity S-wave (km/s) = 4.90645 3.18463 4.13613
# Velocity P-wave (km/s) = 6.80303 6.20380 6.51032
#
# Compressibility (1/GPa) = 0.03470179
#
# Stress axis : x y z
#
# Youngs Moduli (GPa) = 69.58398 55.94239 54.70469
#
# Poissons Ratio (x) = 0.35464 -0.01974
# Poissons Ratio (y) = 0.44112 0.10578
# Poissons Ratio (z) = -0.02510 0.10818
#
# Static dielectric constant tensor:
#      x y z
#    x 3.913190 0.000000 0.090650 
#    y 0.000000 3.624000 0.000000 
#    z 0.090650 0.000000 3.940470 
# 
# 
# High freq. dielectric constant tensor:
#      x y z
#    x 1.792360 0.000000 0.006750 
#    y 0.000000 1.793310 0.000000 
#    z 0.006750 0.000000 1.812920 
# 
# From -- ./inp_files/94953.got.cif
#   From: 2010.06.25/outbox.cif.g09.slc.cpg/sg10_48_cif.got.tgz:94953.got - 2010.06.27 22:07:45.
