data_PCOD8062837
_publ_section_title
;
Structure prediction by ZEFSAII (Michael W. Deem and Ramdas Pophale) SiO2 
 PCOD8062837
Probable space group: P 2/M
;
_chemical_formula_sum "Si O2"
_cell_formula_units_Z 22
_cell_length_a 12.327618
_cell_length_b 21.408992
_cell_length_c 12.165428
_cell_angle_alpha 90.000000
_cell_angle_beta 23.638472
_cell_angle_gamma 90.000000
_cell_volume 1287.384954
_symmetry_space_group_name_H-M "P 2/M"
_symmetry_group_IT_number 10
_symmetry_cell_setting 'monoclinic'
loop_
_space_group_symop_operation_xyz
x,y,z
-x,y,-z
-x,-y,-z
x,-y,z
loop_
_atom_site_type_symbol
_atom_site_label
_atom_site_fract_x
_atom_site_fract_y
_atom_site_fract_z
Si Si1 0.216660 0.500000 0.204931
Si Si2 0.528218 0.189066 0.104172
Si Si3 0.281684 0.932420 0.294137
Si Si4 0.032521 0.261401 0.600537
Si Si5 0.530053 0.427225 0.347753
Si Si6 0.042385 0.391806 0.212508
O O1 0.194491 0.438407 0.152705
O O2 0.000000 0.500000 0.500000
O O3 0.500000 0.500000 0.000000
O O4 0.415959 0.120811 0.249002
O O5 0.340614 0.240959 0.336681
O O6 0.500000 0.189319 0.000000
O O7 0.839584 0.207906 0.835177
O O8 0.000000 0.908187 0.500000
O O9 0.230176 0.000000 0.402497
O O10 0.500000 0.946039 0.000000
O O11 0.971409 0.325229 0.717802
O O12 0.000000 0.269723 0.500000
O O13 0.500000 0.403076 0.500000
O O14 0.609626 0.500000 0.271313
O O15 0.254910 0.416830 0.536982
O O16 0.775826 0.388150 0.066218
#
# Coordination Sequence:
#
# PCOD8062837 Si02
#       6
#     2   4   4   4   4   4
#     4  12  24  36  49  70  99 126 154 192 230 272
#     4   9  16  28  41  59  86 122 162 195 224 261
#     4   9  15  23  37  57  81 113 158 207 238 254
#     4  10  20  31  46  65  93 129 160 188 222 279
#     4  11  22  39  59  76  91 113 151 203 255 299
#     4  12  22  38  53  74  96 124 158 195 245 287
#
# _framework density 17.088906000000001
#
# number of rings (size 3 to 8) (size 9 to 14) (size 15 to 20)
#    0.000    1.636    1.818    6.000    0.000    3.636 
#    0.000    0.000    0.000    0.000    0.000    0.000 
#    0.000    0.000    0.000    0.000    0.000   63.636 
#
# Total GULP energy -272580.608115 kJ/mol
# GULP energy per Si atom -12390.027642 kJ/mol
# Density = 1.705001 g / cm^3
# Si number density = 17.088906 Si / 1000 Ang^3
#
#
#
# Elastic Constant Matrix: (Units=GPa)
#
#
# Indices 1 2 3 4 5 6 
#
# 1 33.0355 22.9656 14.8024 0.0000 3.8767 0.0000
# 2 22.9656 113.7103 28.2478 0.0000 11.4144 0.0000
# 3 14.8024 28.2478 104.9362 0.0000 5.4414 0.0000
# 4 0.0000 0.0000 0.0000 91.6215 0.0000 52.6351
# 5 3.8767 11.4144 5.4414 0.0000 24.7084 0.0000
# 6 0.0000 0.0000 0.0000 52.6351 0.0000 57.0104
#
#
#
# Elastic Compliance Matrix: (Units=1/GPa)
#
#
# Indices 1 2 3 4 5 6 
#
# 1 0.036394 -0.006317 -0.003326 0.000000 -0.002059 0.000000
# 2 -0.006317 0.010895 -0.001853 0.000000 -0.003634 0.000000
# 3 -0.003326 -0.001853 0.010547 0.000000 -0.000945 0.000000
# 4 0.000000 0.000000 0.000000 0.023242 0.000000 -0.021458
# 5 -0.002059 -0.003634 -0.000945 0.000000 0.042682 0.000000
# 6 0.000000 0.000000 0.000000 -0.021458 0.000000 0.037352
#
#
# Mechanical properties :
#
#
# Convention : Reuss Voigt Hill
#
# Bulk Modulus (GPa) = 28.70094 42.63485 35.66789
# Shear Modulus (GPa) = 25.54668 47.04583 36.29625
#
# Velocity S-wave (km/s) = 3.87062 5.25260 4.61365
# Velocity P-wave (km/s) = 6.06689 7.86062 7.02127
#
# Compressibility (1/GPa) = 0.03484207
#
# Stress axis : x y z
#
# Youngs Moduli (GPa) = 27.47682 91.78231 94.81626
#
# Poissons Ratio (x) = 0.57982 0.31540
# Poissons Ratio (y) = 0.17358 0.17573
# Poissons Ratio (z) = 0.09140 0.17011
#
# Static dielectric constant tensor:
#      x y z
#    x 2.691750 0.000000 0.524470 
#    y 0.000000 3.608400 0.000000 
#    z 0.524470 0.000000 1.004750 
# 
# 
# High freq. dielectric constant tensor:
#      x y z
#    x 1.586010 0.000000 -0.011470 
#    y 0.000000 1.664420 0.000000 
#    z -0.011470 0.000000 1.692050 
# 
# From -- ./inp_files/48082.got.cif
#   From: 2010.06.25/outbox.cif.g09.slc.cpg/sg10_25_cif.got.tgz:48082.got - 2010.06.27 22:07:45.
