data_PCOD8062243
_publ_section_title
;
Structure prediction by ZEFSAII (Michael W. Deem and Ramdas Pophale) SiO2 
 PCOD8062243
Probable space group: P 2/M
;
_chemical_formula_sum "Si O2"
_cell_formula_units_Z 24
_cell_length_a 12.364025
_cell_length_b 16.416793
_cell_length_c 18.756435
_cell_angle_alpha 90.000000
_cell_angle_beta 159.682035
_cell_angle_gamma 90.000000
_cell_volume 1321.951032
_symmetry_space_group_name_H-M "P 2/M"
_symmetry_group_IT_number 10
_symmetry_cell_setting 'monoclinic'
loop_
_space_group_symop_operation_xyz
x,y,z
-x,y,-z
-x,-y,-z
x,-y,z
loop_
_atom_site_type_symbol
_atom_site_label
_atom_site_fract_x
_atom_site_fract_y
_atom_site_fract_z
Si Si1 0.343156 0.329865 0.326186
Si Si2 0.336373 0.500000 0.246146
Si Si3 0.367355 0.909461 0.716932
Si Si4 0.621518 0.330682 0.901480
Si Si5 0.652942 0.231669 0.393797
Si Si6 0.379387 0.794775 0.850139
Si Si7 0.365666 0.500000 0.715098
O O1 0.500000 0.320007 0.500000
O O2 0.397937 0.420882 0.331871
O O3 0.483154 0.260720 0.360595
O O4 0.977533 0.314080 0.102256
O O5 0.595573 0.500000 0.345746
O O6 0.000000 0.500000 0.000000
O O7 0.464708 0.857214 0.706856
O O8 0.488913 0.864463 0.862742
O O9 0.000000 0.914508 0.500000
O O10 0.512436 0.000000 0.799690
O O11 0.402088 0.296323 0.703155
O O12 0.547189 0.288802 0.930822
O O13 0.542019 0.425026 0.861017
O O14 0.017031 0.224068 0.631945
O O15 0.500000 0.825419 0.000000
O O16 0.000000 0.500000 0.500000
#
# Coordination Sequence:
#
# PCOD8062243 Si02
#       7
#     4   2   4   4   4   4   2
#     4  12  23  36  56  82 111 143 184 236 281 320
#     4  12  21  40  57  77 107 148 193 229 266 325
#     4   8  16  32  56  82 107 142 186 223 265 330
#     4  11  21  37  56  77 107 148 192 224 270 331
#     4  10  19  35  57  79 106 146 185 225 267 331
#     4  10  20  34  53  83 116 140 177 232 281 324
#     4  12  22  36  59  81 102 143 193 232 261 309
#
# _framework density 18.154983000000001
#
# number of rings (size 3 to 8) (size 9 to 14) (size 15 to 20)
#    0.000    1.500    3.333    4.250    0.000    0.333 
#    0.000    0.417    0.000    8.500    0.000    0.000 
#    0.000    0.000    0.000    0.000    0.000    0.000 
#
# Total GULP energy -297551.606027 kJ/mol
# GULP energy per Si atom -12397.983584 kJ/mol
# Density = 1.811366 g / cm^3
# Si number density = 18.154983 Si / 1000 Ang^3
#
#
#
# Elastic Constant Matrix: (Units=GPa)
#
#
# Indices 1 2 3 4 5 6 
#
# 1 126.1484 69.9828 50.0751 0.0000 -6.2172 0.0000
# 2 69.9828 156.6188 43.2951 0.0000 -7.0892 0.0000
# 3 50.0751 43.2951 83.9701 0.0000 4.1009 0.0000
# 4 0.0000 0.0000 0.0000 18.6340 0.0000 -0.7585
# 5 -6.2172 -7.0892 4.1009 0.0000 36.0988 0.0000
# 6 0.0000 0.0000 0.0000 -0.7585 0.0000 24.4106
#
#
#
# Elastic Compliance Matrix: (Units=1/GPa)
#
#
# Indices 1 2 3 4 5 6 
#
# 1 0.012367 -0.003931 -0.005444 0.000000 0.001976 0.000000
# 2 -0.003931 0.008829 -0.002272 0.000000 0.001315 0.000000
# 3 -0.005444 -0.002272 0.016486 0.000000 -0.003257 0.000000
# 4 0.000000 0.000000 0.000000 0.053733 0.000000 0.001670
# 5 0.001976 0.001315 -0.003257 0.000000 0.028670 0.000000
# 6 0.000000 0.000000 0.000000 0.001670 0.000000 0.041018
#
#
# Mechanical properties :
#
#
# Convention : Reuss Voigt Hill
#
# Bulk Modulus (GPa) = 69.50942 77.04926 73.27934
# Shear Modulus (GPa) = 26.42781 29.38763 27.90772
#
# Velocity S-wave (km/s) = 3.81947 4.02768 3.92496
# Velocity P-wave (km/s) = 7.60401 8.01009 7.80969
#
# Compressibility (1/GPa) = 0.01438654
#
# Stress axis : x y z
#
# Youngs Moduli (GPa) = 80.86206 113.25999 60.65670
#
# Poissons Ratio (x) = 0.44527 0.33023
# Poissons Ratio (y) = 0.31790 0.13782
# Poissons Ratio (z) = 0.44024 0.25734
#
# Static dielectric constant tensor:
#      x y z
#    x 3.007190 0.000000 0.602920 
#    y 0.000000 3.687190 0.000000 
#    z 0.602920 0.000000 2.379970 
# 
# 
# High freq. dielectric constant tensor:
#      x y z
#    x 1.700800 0.000000 -0.000090 
#    y 0.000000 1.704650 0.000000 
#    z -0.000090 0.000000 1.693800 
# 
# From -- ./inp_files/54175.got.cif
#   From: 2010.06.25/outbox.cif.g09.slc.cpg/sg10_28_cif.got.tgz:54175.got - 2010.06.27 22:07:45.
