data_PCOD8062197
_publ_section_title
;
Structure prediction by ZEFSAII (Michael W. Deem and Ramdas Pophale) SiO2 
 PCOD8062197
Probable space group: P 2/M
;
_chemical_formula_sum "Si O2"
_cell_formula_units_Z 32
_cell_length_a 29.818966
_cell_length_b 8.866786
_cell_length_c 12.373466
_cell_angle_alpha 90.000000
_cell_angle_beta 30.801688
_cell_angle_gamma 90.000000
_cell_volume 1675.243562
_symmetry_space_group_name_H-M "P 2/M"
_symmetry_group_IT_number 10
_symmetry_cell_setting 'monoclinic'
loop_
_space_group_symop_operation_xyz
x,y,z
-x,y,-z
-x,-y,-z
x,-y,z
loop_
_atom_site_type_symbol
_atom_site_label
_atom_site_fract_x
_atom_site_fract_y
_atom_site_fract_z
Si Si1 0.121483 0.326570 0.556414
Si Si2 0.565759 0.319587 0.271871
Si Si3 0.480126 0.679286 0.869630
Si Si4 0.634531 0.679080 0.697140
Si Si5 0.239490 0.324175 0.116467
Si Si6 0.057767 0.176921 0.113012
Si Si7 0.907457 0.679411 0.740157
Si Si8 0.830011 0.323417 0.299670
O O1 0.090810 0.500000 0.606874
O O2 0.205521 0.293486 0.307969
O O3 0.148133 0.288531 0.622160
O O4 0.043646 0.221156 0.677532
O O5 0.500000 0.259271 0.500000
O O6 0.566468 0.500000 0.267542
O O7 0.534722 0.255016 0.219670
O O8 0.662969 0.255304 0.096568
O O9 0.475836 0.500000 0.874503
O O10 0.575052 0.731152 0.718710
O O11 0.405906 0.740104 0.106136
O O12 0.636860 0.500000 0.700014
O O13 0.732685 0.739540 0.477012
O O14 0.245666 0.500000 0.080230
O O15 0.171411 0.255434 0.170530
O O16 0.106984 0.254139 0.111247
O O17 0.067299 0.000000 0.104147
O O18 0.101250 0.231930 0.912695
O O19 0.905624 0.500000 0.750024
O O20 0.000000 0.735255 0.500000
O O21 0.838782 0.500000 0.255136
#
# Coordination Sequence:
#
# PCOD8062197 Si02
#       8
#     4   4   4   4   4   4   4   4
#     4  10  19  35  56  76 100 135 180 221 258 305
#     4   9  16  24  37  65 104 139 163 194 250 312
#     4   8  13  23  40  65 102 136 164 202 253 306
#     4   8  14  25  43  69  98 132 168 207 253 302
#     4   9  17  30  51  75 101 136 176 215 257 305
#     4  12  25  37  51  74 107 140 171 216 270 320
#     4  10  19  36  59  78 100 133 177 223 259 303
#     4  10  20  33  53  78 105 138 178 217 258 313
#
# _framework density 19.101700999999998
#
# number of rings (size 3 to 8) (size 9 to 14) (size 15 to 20)
#    0.000    2.500    1.250    3.000    0.000    6.250 
#    0.000    3.750    0.000    0.000    0.000    1.750 
#    0.000   13.000    0.000    0.000    0.000    0.000 
#
# Total GULP energy -396729.465621 kJ/mol
# GULP energy per Si atom -12397.795801 kJ/mol
# Density = 1.905822 g / cm^3
# Si number density = 19.101701 Si / 1000 Ang^3
#
#
#
# Elastic Constant Matrix: (Units=GPa)
#
#
# Indices 1 2 3 4 5 6 
#
# 1 150.3484 20.0308 72.0926 0.0000 -3.3300 0.0000
# 2 20.0308 18.4929 11.7950 0.0000 1.3890 0.0000
# 3 72.0926 11.7950 120.8964 0.0000 -1.7829 0.0000
# 4 0.0000 0.0000 0.0000 0.0067 0.0000 -0.7746
# 5 -3.3300 1.3890 -1.7829 0.0000 24.9797 0.0000
# 6 0.0000 0.0000 0.0000 -0.7746 0.0000 4.2208
#
#
#
# Elastic Compliance Matrix: (Units=1/GPa)
#
#
# Indices 1 2 3 4 5 6 
#
# 1 0.010294 -0.007844 -0.005352 0.000000 0.001426 0.000000
# 2 -0.007844 0.063967 -0.001633 0.000000 -0.004719 0.000000
# 3 -0.005352 -0.001633 0.011626 0.000000 0.000207 0.000000
# 4 0.000000 0.000000 0.000000 -7.385239 0.000000 -1.355337
# 5 0.001426 -0.004719 0.000207 0.000000 0.040500 0.000000
# 6 0.000000 0.000000 0.000000 -1.355337 0.000000 -0.011809
#
#
# Mechanical properties :
#
#
# Convention : Reuss Voigt Hill
#
# Bulk Modulus (GPa) = 17.78461 55.28604 36.53533
# Shear Modulus (GPa) = -0.69230 18.22942 8.76856
#
# Velocity S-wave (km/s) = -0.60268 3.09258 2.14486
# Velocity P-wave (km/s) = 2.97429 6.46204 5.03013
#
# Compressibility (1/GPa) = 0.05622838
#
# Stress axis : x y z
#
# Youngs Moduli (GPa) = 97.14106 15.63315 86.01676
#
# Poissons Ratio (x) = 0.12262 0.46039
# Poissons Ratio (y) = 0.76194 0.14047
# Poissons Ratio (z) = 0.51994 0.02553
#
# Static dielectric constant tensor:
#      x y z
#    x 3.833340 0.000000 -0.098070 
#    y 0.000000 2.823880 0.000000 
#    z -0.098070 0.000000 3.673250 
# 
# 
# High freq. dielectric constant tensor:
#      x y z
#    x 1.759880 0.000000 -0.001370 
#    y 0.000000 1.669100 0.000000 
#    z -0.001370 0.000000 1.747890 
# 
# From -- ./inp_files/58161.got.cif
#   From: 2010.06.25/outbox.cif.g09.slc.cpg/sg10_30_cif.got.tgz:58161.got - 2010.06.27 22:07:45.
