data_PCOD8062330
_publ_section_title
;
Structure prediction by ZEFSAII (Michael W. Deem and Ramdas Pophale) SiO2 
 PCOD8062330
Probable space group: P 2/M
;
_chemical_formula_sum "Si O2"
_cell_formula_units_Z 32
_cell_length_a 21.788100
_cell_length_b 8.927359
_cell_length_c 28.119067
_cell_angle_alpha 90.000000
_cell_angle_beta 18.764750
_cell_angle_gamma 90.000000
_cell_volume 1759.428753
_symmetry_space_group_name_H-M "P 2/M"
_symmetry_group_IT_number 10
_symmetry_cell_setting 'monoclinic'
loop_
_space_group_symop_operation_xyz
x,y,z
-x,y,-z
-x,-y,-z
x,-y,z
loop_
_atom_site_type_symbol
_atom_site_label
_atom_site_fract_x
_atom_site_fract_y
_atom_site_fract_z
Si Si1 0.494233 0.177944 0.951130
Si Si2 0.786431 0.178964 0.658692
Si Si3 0.830342 0.323426 0.324702
Si Si4 0.911539 0.825441 0.166338
Si Si5 0.555066 0.824336 0.361207
Si Si6 0.824072 0.175687 0.886973
Si Si7 0.678422 0.177641 0.168709
Si Si8 0.479067 0.822907 0.812643
O O1 0.675842 0.235809 0.787175
O O2 0.504524 0.000000 0.945687
O O3 0.500000 0.247207 0.000000
O O4 0.296080 0.225774 0.071369
O O5 0.672110 0.238331 0.695922
O O6 0.000000 0.245909 0.500000
O O7 0.791526 0.000000 0.654986
O O8 0.826431 0.500000 0.329596
O O9 0.897234 0.270273 0.224216
O O10 0.621088 0.262526 0.487892
O O11 0.976087 0.263201 0.258051
O O12 0.735813 0.790124 0.261238
O O13 0.920043 0.000000 0.174498
O O14 0.101791 0.775122 0.999008
O O15 0.597917 0.758942 0.277228
O O16 0.508203 0.000000 0.394514
O O17 0.868013 0.000000 0.853245
O O18 0.704224 0.220658 0.021582
O O19 0.550212 0.242132 0.219039
O O20 0.665835 0.000000 0.179211
O O21 0.493382 0.000000 0.799947
#
# Coordination Sequence:
#
# PCOD8062330 Si02
#       8
#     4   4   4   4   4   4   4   4
#     4   8  14  25  43  70 100 128 159 200 249 296
#     4   8  13  21  34  59  99 133 152 180 235 297
#     4  12  24  36  51  73 104 139 176 213 253 300
#     4  10  19  35  59  79  98 128 169 214 258 310
#     4  10  21  35  53  79 105 131 164 209 265 314
#     4   9  16  31  54  74  99 134 171 211 253 296
#     4   9  16  30  53  79 102 124 164 212 256 305
#     4   8  13  24  46  71  96 128 161 199 243 292
#
# _framework density 18.187722000000001
#
# number of rings (size 3 to 8) (size 9 to 14) (size 15 to 20)
#    0.000    2.750    1.250    3.375    0.000    3.500 
#    2.250    0.625    0.000    1.875    0.000    0.000 
#    0.000    2.500    0.000    0.000    0.000    0.000 
#
# Total GULP energy -396645.042224 kJ/mol
# GULP energy per Si atom -12395.157570 kJ/mol
# Density = 1.814633 g / cm^3
# Si number density = 18.187722 Si / 1000 Ang^3
#
#
#
# Elastic Constant Matrix: (Units=GPa)
#
#
# Indices 1 2 3 4 5 6 
#
# 1 121.1401 20.0160 36.6435 0.0000 -10.7278 0.0000
# 2 20.0160 30.5979 16.3391 0.0000 -8.2554 0.0000
# 3 36.6435 16.3391 77.6998 0.0000 -17.3134 0.0000
# 4 0.0000 0.0000 0.0000 -2.8695 0.0000 -1.1590
# 5 -10.7278 -8.2554 -17.3134 0.0000 26.8774 0.0000
# 6 0.0000 0.0000 0.0000 -1.1590 0.0000 4.0507
#
#
#
# Elastic Compliance Matrix: (Units=1/GPa)
#
#
# Indices 1 2 3 4 5 6 
#
# 1 0.010176 -0.004575 -0.003789 0.000000 0.000216 0.000000
# 2 -0.004575 0.040171 -0.004609 0.000000 0.007544 0.000000
# 3 -0.003789 -0.004609 0.017483 0.000000 0.008334 0.000000
# 4 0.000000 0.000000 0.000000 -0.312392 0.000000 -0.089383
# 5 0.000216 0.007544 0.008334 0.000000 0.044977 0.000000
# 6 0.000000 0.000000 0.000000 -0.089383 0.000000 0.221295
#
#
# Mechanical properties :
#
#
# Convention : Reuss Voigt Hill
#
# Bulk Modulus (GPa) = 23.87523 41.71502 32.79512
# Shear Modulus (GPa) = 81.14493 16.04101 48.59297
#
# Velocity S-wave (km/s) = 6.68671 2.97302 5.17450
# Velocity P-wave (km/s) = 8.53063 5.89667 7.33289
#
# Compressibility (1/GPa) = 0.04188441
#
# Stress axis : x y z
#
# Youngs Moduli (GPa) = 98.26954 24.89338 57.19815
#
# Poissons Ratio (x) = 0.11390 0.21672
# Poissons Ratio (y) = 0.44962 0.26361
# Poissons Ratio (z) = 0.37233 0.11473
#
# Static dielectric constant tensor:
#      x y z
#    x 3.891620 0.000000 -0.092200 
#    y 0.000000 2.754290 0.000000 
#    z -0.092200 0.000000 3.488150 
# 
# 
# High freq. dielectric constant tensor:
#      x y z
#    x 1.718750 0.000000 -0.010330 
#    y 0.000000 1.638240 0.000000 
#    z -0.010330 0.000000 1.704780 
# 
# From -- ./inp_files/93599.got.cif
#   From: 2010.06.25/outbox.cif.g09.slc.cpg/sg10_47_cif.got.tgz:93599.got - 2010.06.27 22:07:45.
