data_PCOD8062053
_publ_section_title
;
Structure prediction by ZEFSAII (Michael W. Deem and Ramdas Pophale) SiO2 
 PCOD8062053
Probable space group: P 2/M
;
_chemical_formula_sum "Si O2"
_cell_formula_units_Z 32
_cell_length_a 11.940978
_cell_length_b 19.011879
_cell_length_c 8.923746
_cell_angle_alpha 90.000000
_cell_angle_beta 53.797988
_cell_angle_gamma 90.000000
_cell_volume 1634.756804
_symmetry_space_group_name_H-M "P 2/M"
_symmetry_group_IT_number 10
_symmetry_cell_setting 'monoclinic'
loop_
_space_group_symop_operation_xyz
x,y,z
-x,y,-z
-x,-y,-z
x,-y,z
loop_
_atom_site_type_symbol
_atom_site_label
_atom_site_fract_x
_atom_site_fract_y
_atom_site_fract_z
Si Si1 0.218250 0.081302 0.093047
Si Si2 0.071369 0.580456 0.795416
Si Si3 0.691486 0.162313 0.682778
Si Si4 0.533480 0.918661 0.310231
Si Si5 0.364860 0.679278 0.201979
Si Si6 0.979001 0.833162 0.340649
Si Si7 0.380994 0.581343 0.479281
Si Si8 0.925243 0.312362 0.709912
O O1 0.266015 0.133115 0.188373
O O2 0.057992 0.103923 0.188143
O O3 0.226756 0.000000 0.137167
O O4 0.308541 0.093546 0.870774
O O5 0.029618 0.500000 0.802799
O O6 0.235837 0.590133 0.680867
O O7 0.006867 0.621578 0.708529
O O8 0.000000 0.611169 0.000000
O O9 0.563111 0.116152 0.735857
O O10 0.639462 0.241884 0.735202
O O11 0.811721 0.160764 0.458577
O O12 0.500000 0.885448 0.500000
O O13 0.494637 0.000000 0.344632
O O14 0.371304 0.626335 0.336387
O O15 0.233895 0.666479 0.194871
O O16 0.500000 0.663738 0.000000
O O17 0.000000 0.843788 0.500000
O O18 0.047208 0.760287 0.220213
O O19 0.500000 0.608142 0.500000
O O20 0.407820 0.500000 0.413698
O O21 0.000000 0.290594 0.500000
#
# Coordination Sequence:
#
# PCOD8062053 Si02
#       8
#     4   4   4   4   4   4   4   4
#     4  10  19  34  58  84 110 146 188 230 282 338
#     4  10  22  39  63  89 115 156 200 240 291 352
#     4  11  20  36  58  84 113 145 187 236 286 343
#     4  10  22  38  54  78 115 153 190 235 282 337
#     4  12  24  37  61  91 118 155 196 244 298 350
#     4   9  18  34  56  83 113 142 180 238 289 330
#     4  10  23  43  60  83 123 159 195 244 294 349
#     4  11  19  40  60  83 121 152 191 250 293 342
#
# _framework density 19.574777999999998
#
# number of rings (size 3 to 8) (size 9 to 14) (size 15 to 20)
#    0.000    1.625    5.000    1.500    1.750    5.250 
#    0.000    3.125    0.000    2.250    0.000    0.000 
#    0.000    0.000    0.000    0.000    0.000    0.000 
#
# Total GULP energy -396592.752819 kJ/mol
# GULP energy per Si atom -12393.523526 kJ/mol
# Density = 1.953022 g / cm^3
# Si number density = 19.574778 Si / 1000 Ang^3
#
#
#
# Elastic Constant Matrix: (Units=GPa)
#
#
# Indices 1 2 3 4 5 6 
#
# 1 60.8274 26.7889 27.4372 0.0000 -17.2333 0.0000
# 2 26.7889 84.4763 48.1825 0.0000 -2.4559 0.0000
# 3 27.4372 48.1825 110.7476 0.0000 -17.2549 0.0000
# 4 0.0000 0.0000 0.0000 27.5261 0.0000 -7.7883
# 5 -17.2333 -2.4559 -17.2549 0.0000 26.7974 0.0000
# 6 0.0000 0.0000 0.0000 -7.7883 0.0000 24.5550
#
#
#
# Elastic Compliance Matrix: (Units=1/GPa)
#
#
# Indices 1 2 3 4 5 6 
#
# 1 0.023739 -0.006677 -0.000770 0.000000 0.014159 0.000000
# 2 -0.006677 0.017889 -0.007272 0.000000 -0.007337 0.000000
# 3 -0.000770 -0.007272 0.013564 0.000000 0.007572 0.000000
# 4 0.000000 0.000000 0.000000 0.039911 0.000000 0.012659
# 5 0.014159 -0.007337 0.007572 0.000000 0.050626 0.000000
# 6 0.000000 0.000000 0.000000 0.012659 0.000000 0.044740
#
#
# Mechanical properties :
#
#
# Convention : Reuss Voigt Hill
#
# Bulk Modulus (GPa) = 38.82912 51.20758 45.01835
# Shear Modulus (GPa) = 21.88251 26.01856 23.95053
#
# Velocity S-wave (km/s) = 3.34712 3.64976 3.50171
# Velocity P-wave (km/s) = 5.90059 6.63157 6.27673
#
# Compressibility (1/GPa) = 0.02575387
#
# Stress axis : x y z
#
# Youngs Moduli (GPa) = 42.12396 55.89876 73.72493
#
# Poissons Ratio (x) = 0.37325 0.05679
# Poissons Ratio (y) = 0.28127 0.53613
# Poissons Ratio (z) = 0.03245 0.40650
#
# Static dielectric constant tensor:
#      x y z
#    x 3.592520 0.000000 -0.497730 
#    y 0.000000 3.616220 0.000000 
#    z -0.497730 0.000000 3.876020 
# 
# 
# High freq. dielectric constant tensor:
#      x y z
#    x 1.743500 0.000000 -0.027670 
#    y 0.000000 1.768200 0.000000 
#    z -0.027670 0.000000 1.764590 
# 
# From -- ./inp_files/26042.got.cif
#   From: 2010.06.25/outbox.cif.g09.slc.cpg/sg10_14_cif.got.tgz:26042.got - 2010.06.27 22:07:45.
