data_PCOD8062761
_publ_section_title
;
Structure prediction by ZEFSAII (Michael W. Deem and Ramdas Pophale) SiO2 
 PCOD8062761
Probable space group: P 2/M
;
_chemical_formula_sum "Si O2"
_cell_formula_units_Z 32
_cell_length_a 25.191135
_cell_length_b 8.770801
_cell_length_c 23.895208
_cell_angle_alpha 90.000000
_cell_angle_beta 17.964457
_cell_angle_gamma 90.000000
_cell_volume 1628.358904
_symmetry_space_group_name_H-M "P 2/M"
_symmetry_group_IT_number 10
_symmetry_cell_setting 'monoclinic'
loop_
_space_group_symop_operation_xyz
x,y,z
-x,y,-z
-x,-y,-z
x,-y,z
loop_
_atom_site_type_symbol
_atom_site_label
_atom_site_fract_x
_atom_site_fract_y
_atom_site_fract_z
Si Si1 0.194919 0.318646 0.805726
Si Si2 0.677001 0.678659 0.941655
Si Si3 0.320761 0.823624 0.294236
Si Si4 0.011863 0.180415 0.304198
Si Si5 0.994318 0.681760 0.200437
Si Si6 0.313248 0.680647 0.568710
Si Si7 0.691922 0.319308 0.188744
Si Si8 0.803920 0.823907 0.703762
O O1 0.206308 0.500000 0.794645
O O2 0.287201 0.253625 0.657583
O O3 0.281218 0.252709 0.775616
O O4 0.000000 0.262216 0.000000
O O5 0.692386 0.500000 0.934110
O O6 0.712858 0.723156 0.841785
O O7 0.812017 0.755757 0.847657
O O8 0.484972 0.730082 0.151302
O O9 0.149557 0.763270 0.496764
O O10 0.299715 0.798488 0.249201
O O11 0.352269 0.000000 0.276521
O O12 0.984177 0.240500 0.270129
O O13 0.023848 0.000000 0.292796
O O14 0.994291 0.500000 0.207296
O O15 0.830276 0.742389 0.329916
O O16 0.165441 0.742085 0.997361
O O17 0.295284 0.500000 0.589588
O O18 0.502495 0.730166 0.357402
O O19 0.710014 0.500000 0.173726
O O20 0.000000 0.769829 0.500000
O O21 0.799466 0.000000 0.727602
#
# Coordination Sequence:
#
# PCOD8062761 Si02
#       8
#     4   4   4   4   4   4   4   4
#     4   9  13  21  39  66 102 143 177 212 266 336
#     4  12  25  39  61  94 127 153 185 239 301 350
#     4  10  22  41  65  88 116 157 201 239 279 340
#     4  11  24  44  64  82 109 154 207 246 284 341
#     4  10  20  34  51  76 108 140 180 235 291 334
#     4   9  16  26  43  69 104 142 177 220 276 338
#     4   9  16  26  43  70 106 142 176 216 276 342
#     4  10  19  38  65  91 121 161 200 232 277 341
#
# _framework density 19.651688
#
# number of rings (size 3 to 8) (size 9 to 14) (size 15 to 20)
#    0.000    2.000    2.500    2.250    0.000    5.750 
#    0.000    1.250    0.000    0.000    0.000    1.750 
#    0.000    2.000    0.000    0.000    0.000    0.000 
#
# Total GULP energy -396793.500195 kJ/mol
# GULP energy per Si atom -12399.796881 kJ/mol
# Density = 1.960696 g / cm^3
# Si number density = 19.651688 Si / 1000 Ang^3
#
#
#
# Elastic Constant Matrix: (Units=GPa)
#
#
# Indices 1 2 3 4 5 6 
#
# 1 110.9652 31.2143 48.2922 0.0000 -2.0208 0.0000
# 2 31.2143 46.4772 31.8772 0.0000 -2.3595 0.0000
# 3 48.2922 31.8772 121.6959 0.0000 -23.4565 0.0000
# 4 0.0000 0.0000 0.0000 13.7985 0.0000 -1.8116
# 5 -2.0208 -2.3595 -23.4565 0.0000 24.8136 0.0000
# 6 0.0000 0.0000 0.0000 -1.8116 0.0000 0.7810
#
#
#
# Elastic Compliance Matrix: (Units=1/GPa)
#
#
# Indices 1 2 3 4 5 6 
#
# 1 0.012304 -0.005657 -0.004049 0.000000 -0.003364 0.000000
# 2 -0.005657 0.029324 -0.006099 0.000000 -0.003438 0.000000
# 3 -0.004049 -0.006099 0.013752 0.000000 0.012090 0.000000
# 4 0.000000 0.000000 0.000000 0.104206 0.000000 0.241712
# 5 -0.003364 -0.003438 0.012090 0.000000 0.051128 0.000000
# 6 0.000000 0.000000 0.000000 0.241712 0.000000 1.841042
#
#
# Mechanical properties :
#
#
# Convention : Reuss Voigt Hill
#
# Bulk Modulus (GPa) = 42.07039 55.76731 48.91885
# Shear Modulus (GPa) = 2.39087 19.06226 10.72657
#
# Velocity S-wave (km/s) = 1.10420 3.11787 2.33884
# Velocity P-wave (km/s) = 4.80418 6.43436 5.67808
#
# Compressibility (1/GPa) = 0.02376969
#
# Stress axis : x y z
#
# Youngs Moduli (GPa) = 81.27383 34.10214 72.71769
#
# Poissons Ratio (x) = 0.19292 0.29444
# Poissons Ratio (y) = 0.45978 0.44349
# Poissons Ratio (z) = 0.32908 0.20798
#
# Static dielectric constant tensor:
#      x y z
#    x 3.638420 0.000000 -0.037860 
#    y 0.000000 3.069930 0.000000 
#    z -0.037860 0.000000 3.851330 
# 
# 
# High freq. dielectric constant tensor:
#      x y z
#    x 1.769750 0.000000 -0.005840 
#    y 0.000000 1.711690 0.000000 
#    z -0.005840 0.000000 1.784270 
# 
# From -- ./inp_files/90551.got.cif
#   From: 2010.06.25/outbox.cif.g09.slc.cpg/sg10_46_cif.got.tgz:90551.got - 2010.06.27 22:07:45.
