data_PCOD8062453
_publ_section_title
;
Structure prediction by ZEFSAII (Michael W. Deem and Ramdas Pophale) SiO2 
 PCOD8062453
Probable space group: P 2/M
;
_chemical_formula_sum "Si O2"
_cell_formula_units_Z 26
_cell_length_a 8.980374
_cell_length_b 14.655264
_cell_length_c 12.931072
_cell_angle_alpha 90.000000
_cell_angle_beta 54.439793
_cell_angle_gamma 90.000000
_cell_volume 1384.467457
_symmetry_space_group_name_H-M "P 2/M"
_symmetry_group_IT_number 10
_symmetry_cell_setting 'monoclinic'
loop_
_space_group_symop_operation_xyz
x,y,z
-x,y,-z
-x,-y,-z
x,-y,z
loop_
_atom_site_type_symbol
_atom_site_label
_atom_site_fract_x
_atom_site_fract_y
_atom_site_fract_z
Si Si1 0.141471 0.736850 0.698719
Si Si2 0.978790 0.898020 0.127253
Si Si3 0.500000 0.334430 0.500000
Si Si4 0.166202 0.393648 0.867604
Si Si5 0.850424 0.758436 0.647724
Si Si6 0.434019 0.603094 0.303873
Si Si7 0.325303 0.896169 0.132118
O O1 0.328796 0.734757 0.559281
O O2 0.140881 0.645557 0.764713
O O3 0.156104 0.827533 0.762764
O O4 0.964105 0.726501 0.700246
O O5 0.169314 0.892605 0.109350
O O6 0.895243 0.000000 0.167995
O O7 0.000000 0.868497 0.000000
O O8 0.514034 0.397130 0.595792
O O9 0.136028 0.500000 0.869776
O O10 0.370975 0.372769 0.831371
O O11 0.000000 0.349322 0.000000
O O12 0.723646 0.674998 0.661271
O O13 0.723960 0.841453 0.741716
O O14 0.000000 0.789276 0.500000
O O15 0.369021 0.500000 0.301153
O O16 0.363545 0.000000 0.152701
O O17 0.500000 0.855225 0.000000
#
# Coordination Sequence:
#
# PCOD8062453 Si02
#       7
#     4   4   2   4   4   4   4
#     4  10  20  34  54  77 109 145 181 224 279 326
#     4   9  18  34  56  81 108 137 177 224 275 329
#     4  10  19  36  53  74 104 142 189 228 265 328
#     4   9  19  36  57  81 108 142 186 231 282 337
#     4  11  22  37  54  85 118 149 189 234 283 333
#     4  10  21  36  56  79 109 147 188 230 274 329
#     4   9  20  38  60  84 111 148 191 230 278 341
#
# _framework density 18.779785
#
# number of rings (size 3 to 8) (size 9 to 14) (size 15 to 20)
#    0.000    2.308    1.538    0.692    0.000    6.769 
#    0.000    0.385    0.000    3.231    0.000    0.000 
#    0.000    0.000    0.000    0.000    0.000    0.000 
#
# Total GULP energy -322107.424889 kJ/mol
# GULP energy per Si atom -12388.747111 kJ/mol
# Density = 1.873704 g / cm^3
# Si number density = 18.779785 Si / 1000 Ang^3
#
#
#
# Elastic Constant Matrix: (Units=GPa)
#
#
# Indices 1 2 3 4 5 6 
#
# 1 61.3123 40.9546 34.6160 0.0000 -3.4552 0.0000
# 2 40.9546 75.4496 51.5922 0.0000 -7.4408 0.0000
# 3 34.6160 51.5922 107.5814 0.0000 -21.2707 0.0000
# 4 0.0000 0.0000 0.0000 15.3249 0.0000 8.6397
# 5 -3.4552 -7.4408 -21.2707 0.0000 35.5934 0.0000
# 6 0.0000 0.0000 0.0000 8.6397 0.0000 13.8087
#
#
#
# Elastic Compliance Matrix: (Units=1/GPa)
#
#
# Indices 1 2 3 4 5 6 
#
# 1 0.026082 -0.012433 -0.002771 0.000000 -0.001723 0.000000
# 2 -0.012433 0.025742 -0.008527 0.000000 -0.000921 0.000000
# 3 -0.002771 -0.008527 0.015729 0.000000 0.007348 0.000000
# 4 0.000000 0.000000 0.000000 0.100814 0.000000 -0.063077
# 5 -0.001723 -0.000921 0.007348 0.000000 0.032127 0.000000
# 6 0.000000 0.000000 0.000000 -0.063077 0.000000 0.111883
#
#
# Mechanical properties :
#
#
# Convention : Reuss Voigt Hill
#
# Bulk Modulus (GPa) = 49.76964 55.40764 52.58864
# Shear Modulus (GPa) = 13.64130 20.75743 17.19936
#
# Velocity S-wave (km/s) = 2.69807 3.32822 3.02958
# Velocity P-wave (km/s) = 6.02207 6.65863 6.34833
#
# Compressibility (1/GPa) = 0.02009257
#
# Stress axis : x y z
#
# Youngs Moduli (GPa) = 38.34101 38.84675 63.57812
#
# Poissons Ratio (x) = 0.48297 0.17615
# Poissons Ratio (y) = 0.47669 0.54211
# Poissons Ratio (z) = 0.10623 0.33123
#
# Static dielectric constant tensor:
#      x y z
#    x 3.495240 0.000000 -0.306950 
#    y 0.000000 3.467300 0.000000 
#    z -0.306950 0.000000 3.847780 
# 
# 
# High freq. dielectric constant tensor:
#      x y z
#    x 1.726600 0.000000 -0.011580 
#    y 0.000000 1.724220 0.000000 
#    z -0.011580 0.000000 1.731530 
# 
# From -- ./inp_files/42614.got.cif
#   From: 2010.06.25/outbox.cif.g09.slc.cpg/sg10_22_cif.got.tgz:42614.got - 2010.06.27 22:07:45.
