data_PCOD8062394
_publ_section_title
;
Structure prediction by ZEFSAII (Michael W. Deem and Ramdas Pophale) SiO2 
 PCOD8062394
Probable space group: P 2/M
;
_chemical_formula_sum "Si O2"
_cell_formula_units_Z 32
_cell_length_a 16.287610
_cell_length_b 8.756625
_cell_length_c 24.898160
_cell_angle_alpha 90.000000
_cell_angle_beta 26.595736
_cell_angle_gamma 90.000000
_cell_volume 1589.795368
_symmetry_space_group_name_H-M "P 2/M"
_symmetry_group_IT_number 10
_symmetry_cell_setting 'monoclinic'
loop_
_space_group_symop_operation_xyz
x,y,z
-x,y,-z
-x,-y,-z
x,-y,z
loop_
_atom_site_type_symbol
_atom_site_label
_atom_site_fract_x
_atom_site_fract_y
_atom_site_fract_z
Si Si1 0.369741 0.819943 0.738003
Si Si2 0.531991 0.680854 0.833814
Si Si3 0.939422 0.318161 0.593375
Si Si4 0.244284 0.679714 0.917235
Si Si5 0.110129 0.318871 0.807182
Si Si6 0.053322 0.318757 0.719908
Si Si7 0.238904 0.318547 0.503659
Si Si8 0.351811 0.682136 0.045778
O O1 0.240628 0.765095 0.862524
O O2 0.285728 0.757280 0.731921
O O3 0.574069 0.756603 0.625328
O O4 0.375042 0.000000 0.733421
O O5 0.545530 0.500000 0.829235
O O6 0.735486 0.749899 0.721339
O O7 0.434466 0.726942 0.835175
O O8 0.404283 0.741921 0.956192
O O9 0.935296 0.500000 0.596778
O O10 0.000000 0.256946 0.500000
O O11 0.076751 0.259731 0.559299
O O12 0.234074 0.500000 0.911928
O O13 0.074359 0.731434 0.053764
O O14 0.132659 0.500000 0.795493
O O15 0.108523 0.257694 0.746632
O O16 0.045813 0.500000 0.726777
O O17 0.193596 0.265817 0.591310
O O18 0.851381 0.257025 0.821987
O O19 0.259913 0.500000 0.487436
O O20 0.355202 0.500000 0.046654
O O21 0.500000 0.751808 0.000000
#
# Coordination Sequence:
#
# PCOD8062394 Si02
#       8
#     4   4   4   4   4   4   4   4
#     4  12  26  40  55  77 107 144 190 240 286 328
#     4   9  15  25  46  80 116 145 172 212 267 325
#     4   9  16  26  45  77 114 149 184 219 259 313
#     4  10  19  35  60  86 113 144 180 223 276 337
#     4  10  20  37  60  85 112 142 180 226 279 336
#     4   9  17  31  52  81 114 145 179 222 271 327
#     4  10  20  36  57  81 112 150 189 226 269 324
#     4   9  14  22  41  76 118 147 168 206 266 323
#
# _framework density 20.128375999999999
#
# number of rings (size 3 to 8) (size 9 to 14) (size 15 to 20)
#    0.000    2.250    1.250    3.000    0.000    7.500 
#    0.000    3.125    0.000    3.375    0.000    0.000 
#    0.000    2.500    0.000    0.000    0.000    0.000 
#
# Total GULP energy -396716.972539 kJ/mol
# GULP energy per Si atom -12397.405392 kJ/mol
# Density = 2.008256 g / cm^3
# Si number density = 20.128376 Si / 1000 Ang^3
#
#
#
# Elastic Constant Matrix: (Units=GPa)
#
#
# Indices 1 2 3 4 5 6 
#
# 1 129.0995 20.8991 30.0098 0.0000 5.0026 0.0000
# 2 20.8991 27.0313 17.6190 0.0000 0.2087 0.0000
# 3 30.0098 17.6190 87.6404 0.0000 5.1399 0.0000
# 4 0.0000 0.0000 0.0000 3.2897 0.0000 -0.1236
# 5 5.0026 0.2087 5.1399 0.0000 41.6925 0.0000
# 6 0.0000 0.0000 0.0000 -0.1236 0.0000 -1.4241
#
#
#
# Elastic Compliance Matrix: (Units=1/GPa)
#
#
# Indices 1 2 3 4 5 6 
#
# 1 0.009168 -0.005832 -0.001918 0.000000 -0.000834 0.000000
# 2 -0.005832 0.046312 -0.007394 0.000000 0.001380 0.000000
# 3 -0.001918 -0.007394 0.013637 0.000000 -0.001414 0.000000
# 4 0.000000 0.000000 0.000000 0.302994 0.000000 -0.026295
# 5 -0.000834 0.001380 -0.001414 0.000000 0.024253 0.000000
# 6 0.000000 0.000000 0.000000 -0.026295 0.000000 -0.699939
#
#
# Mechanical properties :
#
#
# Convention : Reuss Voigt Hill
#
# Bulk Modulus (GPa) = 25.75444 42.31409 34.03426
# Shear Modulus (GPa) = -19.20533 20.39452 0.59460
#
# Velocity S-wave (km/s) = -3.09227 3.18657 0.54410
# Velocity P-wave (km/s) = 0.27085 5.88275 4.16414
#
# Compressibility (1/GPa) = 0.03882826
#
# Stress axis : x y z
#
# Youngs Moduli (GPa) = 109.07242 21.59272 73.33251
#
# Poissons Ratio (x) = 0.12592 0.14066
# Poissons Ratio (y) = 0.63608 0.54225
# Poissons Ratio (z) = 0.20921 0.15967
#
# Static dielectric constant tensor:
#      x y z
#    x 3.957700 0.000000 0.003870 
#    y 0.000000 2.925340 0.000000 
#    z 0.003870 0.000000 3.851060 
# 
# 
# High freq. dielectric constant tensor:
#      x y z
#    x 1.804680 0.000000 -0.000870 
#    y 0.000000 1.706530 0.000000 
#    z -0.000870 0.000000 1.795730 
# 
# From -- ./inp_files/89472.got.cif
#   From: 2010.06.25/outbox.cif.g09.slc.cpg/sg10_45_cif.got.tgz:89472.got - 2010.06.27 22:07:45.
