data_PCOD8062080
_publ_section_title
;
Structure prediction by ZEFSAII (Michael W. Deem and Ramdas Pophale) SiO2 
 PCOD8062080
Probable space group: P 2/M
;
_chemical_formula_sum "Si O2"
_cell_formula_units_Z 30
_cell_length_a 10.969091
_cell_length_b 17.770080
_cell_length_c 9.377108
_cell_angle_alpha 90.000000
_cell_angle_beta 58.286088
_cell_angle_gamma 90.000000
_cell_volume 1554.880249
_symmetry_space_group_name_H-M "P 2/M"
_symmetry_group_IT_number 10
_symmetry_cell_setting 'monoclinic'
loop_
_space_group_symop_operation_xyz
x,y,z
-x,y,-z
-x,-y,-z
x,-y,z
loop_
_atom_site_type_symbol
_atom_site_label
_atom_site_fract_x
_atom_site_fract_y
_atom_site_fract_z
Si Si1 0.671031 0.586449 0.923305
Si Si2 0.728650 0.916385 0.839400
Si Si3 0.022409 0.914785 0.826939
Si Si4 0.161851 0.588821 0.895669
Si Si5 0.649855 0.582082 0.477358
Si Si6 0.500000 0.800257 0.000000
Si Si7 0.852310 0.161987 0.508639
Si Si8 0.677760 0.300489 0.694113
O O1 0.714480 0.500000 0.864191
O O2 0.750057 0.646039 0.770435
O O3 0.500000 0.596596 0.000000
O O4 0.730936 0.611418 0.041064
O O5 0.626651 0.854930 0.976734
O O6 0.749372 0.894593 0.659918
O O7 0.873693 0.914156 0.837239
O O8 0.661584 0.000000 0.886318
O O9 0.133625 0.865200 0.664602
O O10 0.082574 0.000000 0.801671
O O11 0.000000 0.880978 0.000000
O O12 0.149526 0.500000 0.901594
O O13 0.234490 0.616039 0.704320
O O14 0.000000 0.623668 0.000000
O O15 0.500000 0.565439 0.500000
O O16 0.702674 0.500000 0.505423
O O17 0.615528 0.642489 0.618064
O O18 0.547729 0.748533 0.838700
O O19 0.794014 0.246917 0.548700
O O20 0.000000 0.161185 0.500000
#
# Coordination Sequence:
#
# PCOD8062080 Si02
#       8
#     4   4   4   4   4   2   4   4
#     4  10  19  34  59  82 102 143 198 240 281 342
#     4   9  17  33  58  79 105 144 180 221 263 318
#     4   9  17  33  58  84 107 137 182 225 260 316
#     4   9  19  36  57  83 112 138 178 243 301 341
#     4  10  21  38  58  80 106 146 201 242 282 348
#     4  10  21  34  51  80 112 138 182 226 273 336
#     4   9  19  34  51  79 111 142 177 216 270 335
#     4  11  21  35  52  77 110 143 179 234 285 326
#
# _framework density 19.294091000000002
#
# number of rings (size 3 to 8) (size 9 to 14) (size 15 to 20)
#    0.000    2.400    0.667    1.800    0.000    4.800 
#    2.400    2.000    0.000    4.000    0.000    6.533 
#    0.000    0.000    0.000    0.000    0.000    0.000 
#
# Total GULP energy -371690.397259 kJ/mol
# GULP energy per Si atom -12389.679909 kJ/mol
# Density = 1.925018 g / cm^3
# Si number density = 19.294091 Si / 1000 Ang^3
#
#
#
# Elastic Constant Matrix: (Units=GPa)
#
#
# Indices 1 2 3 4 5 6 
#
# 1 59.5145 24.4285 34.0903 0.0000 2.7123 0.0000
# 2 24.4285 128.7439 68.5239 0.0000 6.5542 0.0000
# 3 34.0903 68.5239 137.7232 0.0000 7.1754 0.0000
# 4 0.0000 0.0000 0.0000 37.8853 0.0000 -0.7531
# 5 2.7123 6.5542 7.1754 0.0000 30.6335 0.0000
# 6 0.0000 0.0000 0.0000 -0.7531 0.0000 9.3401
#
#
#
# Elastic Compliance Matrix: (Units=1/GPa)
#
#
# Indices 1 2 3 4 5 6 
#
# 1 0.019813 -0.001549 -0.004110 0.000000 -0.000460 0.000000
# 2 -0.001549 0.010719 -0.004897 0.000000 -0.001009 0.000000
# 3 -0.004110 -0.004897 0.010773 0.000000 -0.001112 0.000000
# 4 0.000000 0.000000 0.000000 0.026438 0.000000 0.002132
# 5 -0.000460 -0.001009 -0.001112 0.000000 0.033161 0.000000
# 6 0.000000 0.000000 0.000000 0.002132 0.000000 0.107237
#
#
# Mechanical properties :
#
#
# Convention : Reuss Voigt Hill
#
# Bulk Modulus (GPa) = 49.52038 64.45188 56.98613
# Shear Modulus (GPa) = 21.18784 28.83438 25.01111
#
# Velocity S-wave (km/s) = 3.31743 3.87003 3.60434
# Velocity P-wave (km/s) = 6.35575 7.31074 6.84991
#
# Compressibility (1/GPa) = 0.02019371
#
# Stress axis : x y z
#
# Youngs Moduli (GPa) = 50.47093 93.29036 92.82570
#
# Poissons Ratio (x) = 0.14447 0.38150
# Poissons Ratio (y) = 0.07816 0.45461
# Poissons Ratio (z) = 0.20743 0.45688
#
# Static dielectric constant tensor:
#      x y z
#    x 3.326100 0.000000 -0.090350 
#    y 0.000000 3.713730 0.000000 
#    z -0.090350 0.000000 3.912580 
# 
# 
# High freq. dielectric constant tensor:
#      x y z
#    x 1.719950 0.000000 -0.002910 
#    y 0.000000 1.751940 0.000000 
#    z -0.002910 0.000000 1.753340 
# 
# From -- ./inp_files/25836.got.cif
#   From: 2010.06.25/outbox.cif.g09.slc.cpg/sg10_13_cif.got.tgz:25836.got - 2010.06.27 22:07:45.
