data_PCOD8062425
_publ_section_title
;
Structure prediction by ZEFSAII (Michael W. Deem and Ramdas Pophale) SiO2 
 PCOD8062425
Probable space group: P 2/M
;
_chemical_formula_sum "Si O2"
_cell_formula_units_Z 32
_cell_length_a 25.503464
_cell_length_b 8.803453
_cell_length_c 19.966373
_cell_angle_alpha 90.000000
_cell_angle_beta 158.641364
_cell_angle_gamma 90.000000
_cell_volume 1632.663709
_symmetry_space_group_name_H-M "P 2/M"
_symmetry_group_IT_number 10
_symmetry_cell_setting 'monoclinic'
loop_
_space_group_symop_operation_xyz
x,y,z
-x,y,-z
-x,-y,-z
x,-y,z
loop_
_atom_site_type_symbol
_atom_site_label
_atom_site_fract_x
_atom_site_fract_y
_atom_site_fract_z
Si Si1 0.120741 0.825862 0.088785
Si Si2 0.923123 0.177838 0.115486
Si Si3 0.583221 0.322662 0.533403
Si Si4 0.072972 0.175496 0.654458
Si Si5 0.618586 0.180379 0.810560
Si Si6 0.898554 0.678573 0.561081
Si Si7 0.602298 0.824454 0.939432
Si Si8 0.591754 0.818876 0.173257
O O1 0.250105 0.715254 0.261020
O O2 0.174952 0.000000 0.154500
O O3 0.059474 0.785910 0.942467
O O4 0.000000 0.795994 0.000000
O O5 0.052768 0.262284 0.307952
O O6 0.937840 0.000000 0.148241
O O7 0.768006 0.240159 0.956159
O O8 0.500000 0.265723 0.500000
O O9 0.561979 0.500000 0.496253
O O10 0.518660 0.233972 0.393980
O O11 0.000000 0.233379 0.500000
O O12 0.022722 0.276765 0.656620
O O13 0.034923 0.000000 0.624826
O O14 0.241337 0.198860 0.842740
O O15 0.597860 0.250097 0.860334
O O16 0.623761 0.000000 0.818342
O O17 0.878333 0.500000 0.540120
O O18 0.751184 0.752901 0.360622
O O19 0.486263 0.753791 0.852628
O O20 0.565294 0.000000 0.887177
O O21 0.600976 0.000000 0.184537
O O22 0.500000 0.763537 0.000000
#
# Coordination Sequence:
#
# PCOD8062425 Si02
#       8
#     4   4   4   4   4   4   4   4
#     4  10  22  40  63  90 117 151 200 251 297 345
#     4  10  20  38  63  86 115 154 197 247 294 345
#     4  11  23  37  57  86 120 157 195 235 291 362
#     4  10  19  36  63  90 115 147 197 250 291 342
#     4  10  19  35  61  87 114 149 195 250 297 341
#     4  12  25  38  57  87 125 163 195 234 294 363
#     4   9  18  34  58  88 112 139 190 249 292 333
#     4  10  21  40  64  86 113 153 199 245 293 345
#
# _framework density 19.599872000000001
#
# number of rings (size 3 to 8) (size 9 to 14) (size 15 to 20)
#    0.000    1.750    2.500    2.250    0.000    5.250 
#    0.000    6.250    0.000    0.000    0.000    0.000 
#    0.000    0.000    0.000    0.000    0.000    0.000 
#
# Total GULP energy -396884.101544 kJ/mol
# GULP energy per Si atom -12402.628173 kJ/mol
# Density = 1.955526 g / cm^3
# Si number density = 19.599872 Si / 1000 Ang^3
#
#
#
# Elastic Constant Matrix: (Units=GPa)
#
#
# Indices 1 2 3 4 5 6 
#
# 1 121.0583 23.8681 29.7316 0.0000 -9.1837 0.0000
# 2 23.8681 32.3649 21.1894 0.0000 -4.5669 0.0000
# 3 29.7316 21.1894 93.5026 0.0000 -15.8563 0.0000
# 4 0.0000 0.0000 0.0000 8.2349 0.0000 2.3972
# 5 -9.1837 -4.5669 -15.8563 0.0000 38.0318 0.0000
# 6 0.0000 0.0000 0.0000 2.3972 0.0000 10.2384
#
#
#
# Elastic Compliance Matrix: (Units=1/GPa)
#
#
# Indices 1 2 3 4 5 6 
#
# 1 0.009940 -0.006143 -0.001600 0.000000 0.000996 0.000000
# 2 -0.006143 0.040112 -0.007072 0.000000 0.000385 0.000000
# 3 -0.001600 -0.007072 0.013555 0.000000 0.004416 0.000000
# 4 0.000000 0.000000 0.000000 0.130316 0.000000 -0.030512
# 5 0.000996 0.000385 0.004416 0.000000 0.028422 0.000000
# 6 0.000000 0.000000 0.000000 -0.030512 0.000000 0.104815
#
#
# Mechanical properties :
#
#
# Convention : Reuss Voigt Hill
#
# Bulk Modulus (GPa) = 29.43006 44.05601 36.74303
# Shear Modulus (GPa) = 13.58274 22.77680 18.17977
#
# Velocity S-wave (km/s) = 2.63535 3.41264 3.04887
# Velocity P-wave (km/s) = 4.93033 6.16885 5.58403
#
# Compressibility (1/GPa) = 0.03397887
#
# Stress axis : x y z
#
# Youngs Moduli (GPa) = 100.60353 24.93032 73.77349
#
# Poissons Ratio (x) = 0.15314 0.11802
# Poissons Ratio (y) = 0.61796 0.52170
# Poissons Ratio (z) = 0.16095 0.17630
#
# Static dielectric constant tensor:
#      x y z
#    x 3.435570 0.000000 -0.302130 
#    y 0.000000 3.245430 0.000000 
#    z -0.302130 0.000000 3.456500 
# 
# 
# High freq. dielectric constant tensor:
#      x y z
#    x 1.774860 0.000000 -0.009050 
#    y 0.000000 1.730980 0.000000 
#    z -0.009050 0.000000 1.770610 
# 
# From -- ./inp_files/86929.got.cif
#   From: 2010.06.25/outbox.cif.g09.slc.cpg/sg10_44_cif.got.tgz:86929.got - 2010.06.27 22:07:45.
