data_PCOD8062423
_publ_section_title
;
Structure prediction by ZEFSAII (Michael W. Deem and Ramdas Pophale) SiO2 
 PCOD8062423
Probable space group: P 2/M
;
_chemical_formula_sum "Si O2"
_cell_formula_units_Z 32
_cell_length_a 9.448839
_cell_length_b 19.595981
_cell_length_c 15.554926
_cell_angle_alpha 90.000000
_cell_angle_beta 143.776409
_cell_angle_gamma 90.000000
_cell_volume 1701.983067
_symmetry_space_group_name_H-M "P 2/M"
_symmetry_group_IT_number 10
_symmetry_cell_setting 'monoclinic'
loop_
_space_group_symop_operation_xyz
x,y,z
-x,y,-z
-x,-y,-z
x,-y,z
loop_
_atom_site_type_symbol
_atom_site_label
_atom_site_fract_x
_atom_site_fract_y
_atom_site_fract_z
Si Si1 0.036259 0.183990 0.659558
Si Si2 0.462215 0.685606 0.338282
Si Si3 0.883811 0.686629 0.675500
Si Si4 0.229603 0.922413 0.361501
Si Si5 0.278222 0.424711 0.122946
Si Si6 0.752569 0.422028 0.080021
Si Si7 0.775766 0.077693 0.837596
Si Si8 0.383657 0.186907 0.681841
O O1 0.040674 0.247488 0.727344
O O2 0.971347 0.116370 0.681603
O O3 0.836925 0.190212 0.489978
O O4 0.292943 0.182472 0.736560
O O5 0.707654 0.671362 0.509501
O O6 0.257348 0.704598 0.306442
O O7 0.405434 0.616758 0.260285
O O8 0.468094 0.744814 0.268583
O O9 0.053133 0.621638 0.772457
O O10 0.500000 0.890520 0.500000
O O11 0.146559 0.918227 0.223044
O O12 0.238418 0.000000 0.400516
O O13 0.396896 0.500000 0.182679
O O14 0.302692 0.390730 0.041025
O O15 0.000000 0.430255 0.000000
O O16 0.850893 0.500000 0.121771
O O17 0.500000 0.419669 0.000000
O O18 0.539086 0.120143 0.741223
O O19 0.718967 0.000000 0.837119
O O20 0.000000 0.107519 0.000000
#
# Coordination Sequence:
#
# PCOD8062423 Si02
#       8
#     4   4   4   4   4   4   4   4
#     4  10  21  36  58  84 117 148 188 243 281 332
#     4  10  21  36  59  83 112 149 190 240 287 335
#     4  10  21  37  57  84 114 150 190 237 288 341
#     4  10  19  35  61  87 111 148 195 234 275 335
#     4  10  20  37  58  83 112 144 189 238 282 337
#     4  10  22  40  60  83 117 154 187 234 293 349
#     4  10  21  38  59  84 116 150 186 234 287 339
#     4  10  21  37  56  84 115 150 189 234 288 336
#
# _framework density 18.801596
#
# number of rings (size 3 to 8) (size 9 to 14) (size 15 to 20)
#    0.000    2.000    2.500    0.750    3.500    1.500 
#    2.250    3.125    0.000    4.500    0.000    0.000 
#    0.000    0.000    0.000    0.000    0.000    0.000 
#
# Total GULP energy -396699.128199 kJ/mol
# GULP energy per Si atom -12396.847756 kJ/mol
# Density = 1.875880 g / cm^3
# Si number density = 18.801596 Si / 1000 Ang^3
#
#
#
# Elastic Constant Matrix: (Units=GPa)
#
#
# Indices 1 2 3 4 5 6 
#
# 1 125.9349 57.7878 30.7962 0.0000 -8.3073 0.0000
# 2 57.7878 104.2949 35.2359 0.0000 -2.2669 0.0000
# 3 30.7962 35.2359 53.7487 0.0000 -10.6871 0.0000
# 4 0.0000 0.0000 0.0000 17.8233 0.0000 -8.6068
# 5 -8.3073 -2.2669 -10.6871 0.0000 23.1143 0.0000
# 6 0.0000 0.0000 0.0000 -8.6068 0.0000 25.7673
#
#
#
# Elastic Compliance Matrix: (Units=1/GPa)
#
#
# Indices 1 2 3 4 5 6 
#
# 1 0.011117 -0.005285 -0.002438 0.000000 0.002350 0.000000
# 2 -0.005285 0.014993 -0.007583 0.000000 -0.003935 0.000000
# 3 -0.002438 -0.007583 0.027147 0.000000 0.010932 0.000000
# 4 0.000000 0.000000 0.000000 0.066896 0.000000 0.022345
# 5 0.002350 -0.003935 0.010932 0.000000 0.048776 0.000000
# 6 0.000000 0.000000 0.000000 0.022345 0.000000 0.046273
#
#
# Mechanical properties :
#
#
# Convention : Reuss Voigt Hill
#
# Bulk Modulus (GPa) = 44.16026 59.06869 51.61448
# Shear Modulus (GPa) = 19.73461 24.01822 21.87642
#
# Velocity S-wave (km/s) = 3.24331 3.57803 3.41477
# Velocity P-wave (km/s) = 6.12894 6.96813 6.56196
#
# Compressibility (1/GPa) = 0.02264479
#
# Stress axis : x y z
#
# Youngs Moduli (GPa) = 89.95341 66.69796 36.83689
#
# Poissons Ratio (x) = 0.35250 0.08980
# Poissons Ratio (y) = 0.47540 0.27934
# Poissons Ratio (z) = 0.21927 0.50578
#
# Static dielectric constant tensor:
#      x y z
#    x 3.461900 0.000000 -0.102040 
#    y 0.000000 3.539610 0.000000 
#    z -0.102040 0.000000 3.278640 
# 
# 
# High freq. dielectric constant tensor:
#      x y z
#    x 1.739230 0.000000 -0.011750 
#    y 0.000000 1.729660 0.000000 
#    z -0.011750 0.000000 1.712250 
# 
# From -- ./inp_files/62515.got.cif
#   From: 2010.06.25/outbox.cif.g09.slc.cpg/sg10_32_cif.got.tgz:62515.got - 2010.06.27 22:07:45.
