data_PCOD8062087
_publ_section_title
;
Structure prediction by ZEFSAII (Michael W. Deem and Ramdas Pophale) SiO2 
 PCOD8062087
Probable space group: P 2/M
;
_chemical_formula_sum "Si O2"
_cell_formula_units_Z 32
_cell_length_a 20.432256
_cell_length_b 9.104420
_cell_length_c 14.160176
_cell_angle_alpha 90.000000
_cell_angle_beta 43.176701
_cell_angle_gamma 90.000000
_cell_volume 1802.405298
_symmetry_space_group_name_H-M "P 2/M"
_symmetry_group_IT_number 10
_symmetry_cell_setting 'monoclinic'
loop_
_space_group_symop_operation_xyz
x,y,z
-x,y,-z
-x,-y,-z
x,-y,z
loop_
_atom_site_type_symbol
_atom_site_label
_atom_site_fract_x
_atom_site_fract_y
_atom_site_fract_z
Si Si1 0.850057 0.831777 0.840114
Si Si2 0.395744 0.168651 0.571244
Si Si3 0.778610 0.173812 0.576098
Si Si4 0.312444 0.832146 0.854259
Si Si5 0.684546 0.169180 0.867167
Si Si6 0.974627 0.327574 0.419601
Si Si7 0.351852 0.329113 0.427363
Si Si8 0.557980 0.330087 0.137558
O O1 0.777869 0.796586 0.831005
O O2 0.939600 0.723430 0.738816
O O3 0.885791 0.000000 0.797241
O O4 0.795227 0.798748 0.996510
O O5 0.500000 0.211321 0.500000
O O6 0.318651 0.194730 0.735830
O O7 0.367018 0.275273 0.517590
O O8 0.394894 0.000000 0.537003
O O9 0.707534 0.216775 0.736391
O O10 0.881312 0.242403 0.485871
O O11 0.735637 0.239729 0.525566
O O12 0.790343 0.000000 0.554404
O O13 0.389934 0.734152 0.825714
O O14 0.338990 0.000000 0.851875
O O15 0.656072 0.000000 0.903944
O O16 0.594183 0.259124 0.001643
O O17 0.957870 0.500000 0.425440
O O18 0.000000 0.284467 0.500000
O O19 0.325445 0.500000 0.457930
O O20 0.445673 0.299723 0.265841
O O21 0.582608 0.500000 0.107780
#
# Coordination Sequence:
#
# PCOD8062087 Si02
#       8
#     4   4   4   4   4   4   4   4
#     4   9  17  32  54  80 110 140 178 224 269 317
#     4  10  19  34  59  84 108 143 187 230 270 318
#     4  11  23  39  58  78 105 146 190 229 272 322
#     4   9  18  33  54  82 111 140 180 229 270 312
#     4   9  19  34  53  77 106 142 185 228 264 313
#     4  11  22  35  55  83 113 143 177 222 274 326
#     4  11  24  38  52  78 115 149 183 226 277 329
#     4  10  20  32  50  76 110 149 182 218 268 325
#
# _framework density 17.754054
#
# number of rings (size 3 to 8) (size 9 to 14) (size 15 to 20)
#    0.000    2.000    2.500    2.250    0.000    6.250 
#    0.000    2.500    0.000    0.750    0.000    5.250 
#    0.000    0.000    0.000    0.000    0.000    0.000 
#
# Total GULP energy -396871.649392 kJ/mol
# GULP energy per Si atom -12402.239044 kJ/mol
# Density = 1.771365 g / cm^3
# Si number density = 17.754054 Si / 1000 Ang^3
#
#
#
# Elastic Constant Matrix: (Units=GPa)
#
#
# Indices 1 2 3 4 5 6 
#
# 1 89.6087 49.7309 51.8528 0.0000 -0.5861 0.0000
# 2 49.7309 85.6111 57.9317 0.0000 -6.3848 0.0000
# 3 51.8528 57.9317 104.4790 0.0000 2.7898 0.0000
# 4 0.0000 0.0000 0.0000 29.1160 0.0000 -3.8863
# 5 -0.5861 -6.3848 2.7898 0.0000 20.3332 0.0000
# 6 0.0000 0.0000 0.0000 -3.8863 0.0000 24.5641
#
#
#
# Elastic Compliance Matrix: (Units=1/GPa)
#
#
# Indices 1 2 3 4 5 6 
#
# 1 0.017993 -0.007217 -0.004900 0.000000 -0.001075 0.000000
# 2 -0.007217 0.022742 -0.009248 0.000000 0.008202 0.000000
# 3 -0.004900 -0.009248 0.017275 0.000000 -0.005415 0.000000
# 4 0.000000 0.000000 0.000000 0.035086 0.000000 0.005551
# 5 -0.001075 0.008202 -0.005415 0.000000 0.052468 0.000000
# 6 0.000000 0.000000 0.000000 0.005551 0.000000 0.041588
#
#
# Mechanical properties :
#
#
# Convention : Reuss Voigt Hill
#
# Bulk Modulus (GPa) = 65.43374 66.52551 65.97962
# Shear Modulus (GPa) = 21.27889 22.81488 22.04689
#
# Velocity S-wave (km/s) = 3.46574 3.58865 3.52773
# Velocity P-wave (km/s) = 7.27673 7.39751 7.33737
#
# Compressibility (1/GPa) = 0.01528264
#
# Stress axis : x y z
#
# Youngs Moduli (GPa) = 55.57751 43.97108 57.88641
#
# Poissons Ratio (x) = 0.31732 0.28362
# Poissons Ratio (y) = 0.40108 0.53531
# Poissons Ratio (z) = 0.27231 0.40663
#
# Static dielectric constant tensor:
#      x y z
#    x 3.011770 0.000000 0.087760 
#    y 0.000000 3.296320 0.000000 
#    z 0.087760 0.000000 3.492840 
# 
# 
# High freq. dielectric constant tensor:
#      x y z
#    x 1.658740 0.000000 0.003390 
#    y 0.000000 1.692370 0.000000 
#    z 0.003390 0.000000 1.692030 
# 
# From -- ./inp_files/66133.got.cif
#   From: 2010.06.25/outbox.cif.g09.slc.cpg/sg10_34_cif.got.tgz:66133.got - 2010.06.27 22:07:45.
