data_PCOD8062049
_publ_section_title
;
Structure prediction by ZEFSAII (Michael W. Deem and Ramdas Pophale) SiO2 
 PCOD8062049
Probable space group: P 2/M
;
_chemical_formula_sum "Si O2"
_cell_formula_units_Z 24
_cell_length_a 14.917748
_cell_length_b 9.218690
_cell_length_c 14.682818
_cell_angle_alpha 90.000000
_cell_angle_beta 139.407476
_cell_angle_gamma 90.000000
_cell_volume 1313.850977
_symmetry_space_group_name_H-M "P 2/M"
_symmetry_group_IT_number 10
_symmetry_cell_setting 'monoclinic'
loop_
_space_group_symop_operation_xyz
x,y,z
-x,y,-z
-x,-y,-z
x,-y,z
loop_
_atom_site_type_symbol
_atom_site_label
_atom_site_fract_x
_atom_site_fract_y
_atom_site_fract_z
Si Si1 0.882510 0.669686 0.138964
Si Si2 0.403804 0.833511 0.845111
Si Si3 0.377954 0.167235 0.137088
Si Si4 0.380800 0.828025 0.344191
Si Si5 0.873690 0.331221 0.342231
Si Si6 0.924834 0.830308 0.847789
O O1 0.877496 0.500000 0.113495
O O2 0.908699 0.702242 0.264806
O O3 0.007694 0.740799 0.181231
O O4 0.737838 0.738599 0.000364
O O5 0.479840 0.816170 0.807341
O O6 0.263163 0.747356 0.730080
O O7 0.368768 0.000000 0.840226
O O8 0.500000 0.770284 0.000000
O O9 0.402516 0.226780 0.257808
O O10 0.327397 0.000000 0.099669
O O11 0.500000 0.760050 0.500000
O O12 0.232659 0.777674 0.266785
O O13 0.390222 0.000000 0.352981
O O14 0.848933 0.500000 0.340249
O O15 0.000000 0.272491 0.500000
O O16 0.936860 0.000000 0.834565
O O17 0.000000 0.793558 0.000000
#
# Coordination Sequence:
#
# PCOD8062049 Si02
#       6
#     4   4   4   4   4   4
#     4  11  22  35  56  83 109 144 188 230 273 322
#     4  10  20  34  58  88 112 139 182 237 284 325
#     4  10  19  35  57  81 111 142 180 227 275 329
#     4   9  18  33  54  80 109 140 176 217 266 326
#     4  10  23  41  57  78 114 155 190 228 279 338
#     4  10  19  34  58  84 108 143 182 221 272 326
#
# _framework density 18.266911
#
# number of rings (size 3 to 8) (size 9 to 14) (size 15 to 20)
#    0.000    2.000    3.333    0.500    0.000    3.667 
#    0.000    1.667    0.000    2.000    0.000    0.000 
#    0.000    0.000    0.000    0.000    0.000    0.000 
#
# Total GULP energy -297671.731038 kJ/mol
# GULP energy per Si atom -12402.988793 kJ/mol
# Density = 1.822534 g / cm^3
# Si number density = 18.266911 Si / 1000 Ang^3
#
#
#
# Elastic Constant Matrix: (Units=GPa)
#
#
# Indices 1 2 3 4 5 6 
#
# 1 135.5867 57.7024 75.6546 0.0000 5.6990 0.0000
# 2 57.7024 55.3630 53.2485 0.0000 -0.2055 0.0000
# 3 75.6546 53.2485 169.4057 0.0000 8.0560 0.0000
# 4 0.0000 0.0000 0.0000 18.5889 0.0000 2.7810
# 5 5.6990 -0.2055 8.0560 0.0000 32.5976 0.0000
# 6 0.0000 0.0000 0.0000 2.7810 0.0000 -1.6090
#
#
#
# Elastic Compliance Matrix: (Units=1/GPa)
#
#
# Indices 1 2 3 4 5 6 
#
# 1 0.014011 -0.012444 -0.002252 0.000000 -0.001971 0.000000
# 2 -0.012444 0.037099 -0.006292 0.000000 0.003965 0.000000
# 3 -0.002252 -0.006292 0.008975 0.000000 -0.001864 0.000000
# 4 0.000000 0.000000 0.000000 0.042743 0.000000 0.073875
# 5 -0.001971 0.003965 -0.001864 0.000000 0.031507 0.000000
# 6 0.000000 0.000000 0.000000 0.073875 0.000000 -0.493808
#
#
# Mechanical properties :
#
#
# Convention : Reuss Voigt Hill
#
# Bulk Modulus (GPa) = 55.22269 81.50738 68.36504
# Shear Modulus (GPa) = -16.05348 21.49882 2.72267
#
# Velocity S-wave (km/s) = -2.96772 3.43436 1.22218
# Velocity P-wave (km/s) = 4.30737 7.77454 6.28478
#
# Compressibility (1/GPa) = 0.01810850
#
# Stress axis : x y z
#
# Youngs Moduli (GPa) = 71.37471 26.95459 111.41992
#
# Poissons Ratio (x) = 0.33543 0.25088
# Poissons Ratio (y) = 0.88820 0.70110
# Poissons Ratio (z) = 0.16071 0.16961
#
# Static dielectric constant tensor:
#      x y z
#    x 3.508230 0.000000 -0.088190 
#    y 0.000000 3.164960 0.000000 
#    z -0.088190 0.000000 3.535340 
# 
# 
# High freq. dielectric constant tensor:
#      x y z
#    x 1.723660 0.000000 -0.001290 
#    y 0.000000 1.683850 0.000000 
#    z -0.001290 0.000000 1.709020 
# 
# From -- ./inp_files/66305.got.cif
#   From: 2010.06.25/outbox.cif.g09.slc.cpg/sg10_34_cif.got.tgz:66305.got - 2010.06.27 22:07:45.
