data_PCOD8062744
_publ_section_title
;
Structure prediction by ZEFSAII (Michael W. Deem and Ramdas Pophale) SiO2 
 PCOD8062744
Probable space group: P 2/M
;
_chemical_formula_sum "Si O2"
_cell_formula_units_Z 32
_cell_length_a 6.645640
_cell_length_b 13.539990
_cell_length_c 18.205650
_cell_angle_alpha 90.000000
_cell_angle_beta 90.572128
_cell_angle_gamma 90.000000
_cell_volume 1638.097291
_symmetry_space_group_name_H-M "P 2/M"
_symmetry_group_IT_number 10
_symmetry_cell_setting 'monoclinic'
loop_
_space_group_symop_operation_xyz
x,y,z
-x,y,-z
-x,-y,-z
x,-y,z
loop_
_atom_site_type_symbol
_atom_site_label
_atom_site_fract_x
_atom_site_fract_y
_atom_site_fract_z
Si Si1 0.290810 0.887428 0.309451
Si Si2 0.626891 0.271726 0.323994
Si Si3 0.628258 0.891341 0.073145
Si Si4 0.006274 0.775626 0.416829
Si Si5 0.029198 0.266576 0.918872
Si Si6 0.927629 0.615056 0.224578
Si Si7 0.761832 0.891948 0.852737
Si Si8 0.242185 0.387965 0.351054
O O1 0.494636 0.824215 0.305813
O O2 0.130846 0.854728 0.369868
O O3 0.175654 0.874824 0.231526
O O4 0.354254 0.000000 0.324610
O O5 0.750688 0.315394 0.255489
O O6 0.475387 0.357796 0.349141
O O7 0.778698 0.239688 0.388757
O O8 0.776794 0.801636 0.086005
O O9 0.479678 0.889889 0.142407
O O10 0.734741 0.000000 0.069584
O O11 0.500000 0.873171 0.000000
O O12 0.125074 0.672058 0.413439
O O13 0.000000 0.813892 0.500000
O O14 0.034325 0.354621 0.859751
O O15 0.843459 0.193843 0.904703
O O16 0.000000 0.313355 0.000000
O O17 0.863059 0.500000 0.226874
O O18 0.132491 0.631808 0.272012
O O19 0.841670 0.000000 0.879026
O O20 0.227923 0.500000 0.375440
#
# Coordination Sequence:
#
# PCOD8062744 Si02
#       8
#     4   4   4   4   4   4   4   4
#     4  10  22  38  58  86 116 151 195 236 276 330
#     4  10  19  38  64  83 109 149 192 231 280 337
#     4  10  20  34  52  78 110 144 181 226 282 338
#     4  10  22  38  56  85 123 155 184 227 282 341
#     4  12  22  33  54  78 109 149 186 227 283 342
#     4  10  22  39  58  81 109 145 191 241 290 340
#     4  10  20  35  54  79 110 141 183 234 279 330
#     4   9  19  37  61  86 110 142 190 242 289 336
#
# _framework density 19.534859000000001
#
# number of rings (size 3 to 8) (size 9 to 14) (size 15 to 20)
#    0.000    1.875    1.250    3.750    0.000    4.250 
#    0.000    4.375    0.000    0.375    0.000    0.000 
#    0.000    0.000    0.000    0.000    0.000    0.000 
#
# Total GULP energy -396683.924314 kJ/mol
# GULP energy per Si atom -12396.372635 kJ/mol
# Density = 1.949040 g / cm^3
# Si number density = 19.534859 Si / 1000 Ang^3
#
#
#
# Elastic Constant Matrix: (Units=GPa)
#
#
# Indices 1 2 3 4 5 6 
#
# 1 96.2545 28.4117 29.1034 0.0000 -0.3903 0.0000
# 2 28.4117 90.8639 24.1792 0.0000 -4.0190 0.0000
# 3 29.1034 24.1792 115.9429 0.0000 -13.8848 0.0000
# 4 0.0000 0.0000 0.0000 23.2014 0.0000 1.9639
# 5 -0.3903 -4.0190 -13.8848 0.0000 20.3679 0.0000
# 6 0.0000 0.0000 0.0000 1.9639 0.0000 21.5262
#
#
#
# Elastic Compliance Matrix: (Units=1/GPa)
#
#
# Indices 1 2 3 4 5 6 
#
# 1 0.012118 -0.003184 -0.002641 0.000000 -0.002196 0.000000
# 2 -0.003184 0.012498 -0.001654 0.000000 0.001277 0.000000
# 3 -0.002641 -0.001654 0.010440 0.000000 0.006740 0.000000
# 4 0.000000 0.000000 0.000000 0.043436 0.000000 -0.003963
# 5 -0.002196 0.001277 0.006740 0.000000 0.053902 0.000000
# 6 0.000000 0.000000 0.000000 -0.003963 0.000000 0.046817
#
#
# Mechanical properties :
#
#
# Convention : Reuss Voigt Hill
#
# Bulk Modulus (GPa) = 49.75518 51.82778 50.79148
# Shear Modulus (GPa) = 24.89203 27.77690 26.33446
#
# Velocity S-wave (km/s) = 3.57352 3.77492 3.67560
# Velocity P-wave (km/s) = 6.52318 6.75193 6.63854
#
# Compressibility (1/GPa) = 0.02009841
#
# Stress axis : x y z
#
# Youngs Moduli (GPa) = 82.51866 80.01518 95.78544
#
# Poissons Ratio (x) = 0.25474 0.25297
# Poissons Ratio (y) = 0.26271 0.15845
# Poissons Ratio (z) = 0.21793 0.13236
#
# Static dielectric constant tensor:
#      x y z
#    x 3.581970 0.000000 -0.025800 
#    y 0.000000 3.521470 0.000000 
#    z -0.025800 0.000000 3.467200 
# 
# 
# High freq. dielectric constant tensor:
#      x y z
#    x 1.761170 0.000000 -0.006290 
#    y 0.000000 1.757640 0.000000 
#    z -0.006290 0.000000 1.752420 
# 
# From -- ./inp_files/11432.got.cif
#   From: 2010.06.25/outbox.cif.g09.slc.cpg/sg10_6_cif.got.tgz:11432.got - 2010.06.27 22:07:45.
