data_PCOD8062679
_publ_section_title
;
Structure prediction by ZEFSAII (Michael W. Deem and Ramdas Pophale) SiO2 
 PCOD8062679
Probable space group: P 2/M
;
_chemical_formula_sum "Si O2"
_cell_formula_units_Z 28
_cell_length_a 15.061180
_cell_length_b 8.924997
_cell_length_c 11.801142
_cell_angle_alpha 90.000000
_cell_angle_beta 62.021762
_cell_angle_gamma 90.000000
_cell_volume 1400.921201
_symmetry_space_group_name_H-M "P 2/M"
_symmetry_group_IT_number 10
_symmetry_cell_setting 'monoclinic'
loop_
_space_group_symop_operation_xyz
x,y,z
-x,y,-z
-x,-y,-z
x,-y,z
loop_
_atom_site_type_symbol
_atom_site_label
_atom_site_fract_x
_atom_site_fract_y
_atom_site_fract_z
Si Si1 0.174533 0.329280 0.131133
Si Si2 0.701609 0.329072 0.729964
Si Si3 0.322528 0.674068 0.862408
Si Si4 0.504616 0.167241 0.863783
Si Si5 0.383405 0.673551 0.572479
Si Si6 0.217467 0.175644 0.521185
Si Si7 0.985282 0.678802 0.377711
O O1 0.142273 0.500000 0.143072
O O2 0.270946 0.306270 0.155176
O O3 0.076073 0.252368 0.245348
O O4 0.213315 0.278316 0.982315
O O5 0.720136 0.500000 0.680077
O O6 0.587100 0.285913 0.773694
O O7 0.773392 0.219949 0.615944
O O8 0.344926 0.500000 0.879248
O O9 0.400899 0.783444 0.872948
O O10 0.328199 0.700039 0.725309
O O11 0.531584 0.000000 0.804123
O O12 0.500000 0.167964 0.000000
O O13 0.500000 0.730230 0.500000
O O14 0.381866 0.500000 0.538473
O O15 0.317238 0.764926 0.523515
O O16 0.113945 0.253034 0.622478
O O17 0.209177 0.000000 0.544246
O O18 0.979007 0.500000 0.377406
O O19 0.000000 0.730435 0.500000
#
# Coordination Sequence:
#
# PCOD8062679 Si02
#       7
#     4   4   4   4   4   4   4
#     4   9  18  33  57  87 114 146 193 246 297 343
#     4  11  20  35  58  83 115 154 199 244 291 350
#     4  10  20  37  60  85 114 154 205 254 296 347
#     4  11  22  33  49  83 125 159 190 232 296 365
#     4  10  22  41  64  88 115 155 207 253 294 349
#     4  12  25  39  59  89 123 157 197 244 305 368
#     4  10  19  37  62  88 118 156 200 248 298 353
#
# _framework density 19.986848999999999
#
# number of rings (size 3 to 8) (size 9 to 14) (size 15 to 20)
#    0.000    1.571    2.857    3.000    0.000    2.857 
#    0.000    1.429    0.000    4.286    0.000    0.000 
#    0.000    0.000    0.000    0.000    0.000    0.000 
#
# Total GULP energy -347010.140622 kJ/mol
# GULP energy per Si atom -12393.219308 kJ/mol
# Density = 1.994136 g / cm^3
# Si number density = 19.986849 Si / 1000 Ang^3
#
#
#
# Elastic Constant Matrix: (Units=GPa)
#
#
# Indices 1 2 3 4 5 6 
#
# 1 85.2160 29.2336 32.1547 0.0000 -21.3095 0.0000
# 2 29.2336 59.9993 20.9047 0.0000 -4.3313 0.0000
# 3 32.1547 20.9047 127.8170 0.0000 -22.1475 0.0000
# 4 0.0000 0.0000 0.0000 17.2332 0.0000 -6.6528
# 5 -21.3095 -4.3313 -22.1475 0.0000 33.6002 0.0000
# 6 0.0000 0.0000 0.0000 -6.6528 0.0000 70.5309
#
#
#
# Elastic Compliance Matrix: (Units=1/GPa)
#
#
# Indices 1 2 3 4 5 6 
#
# 1 0.016961 -0.007077 -0.001585 0.000000 0.008800 0.000000
# 2 -0.007077 0.020632 -0.002157 0.000000 -0.003250 0.000000
# 3 -0.001585 -0.002157 0.009430 0.000000 0.004933 0.000000
# 4 0.000000 0.000000 0.000000 0.060220 0.000000 0.005680
# 5 0.008800 -0.003250 0.004933 0.000000 0.038175 0.000000
# 6 0.000000 0.000000 0.000000 0.005680 0.000000 0.014714
#
#
# Mechanical properties :
#
#
# Convention : Reuss Voigt Hill
#
# Bulk Modulus (GPa) = 39.39245 48.62428 44.00836
# Shear Modulus (GPa) = 26.28379 36.98881 31.63630
#
# Velocity S-wave (km/s) = 3.63030 4.30659 3.98283
# Velocity P-wave (km/s) = 6.10934 7.00785 6.57397
#
# Compressibility (1/GPa) = 0.02538558
#
# Stress axis : x y z
#
# Youngs Moduli (GPa) = 58.95862 48.46884 106.04599
#
# Poissons Ratio (x) = 0.34299 0.16804
# Poissons Ratio (y) = 0.41723 0.22878
# Poissons Ratio (z) = 0.09343 0.10456
#
# Static dielectric constant tensor:
#      x y z
#    x 4.005250 0.000000 -0.149480 
#    y 0.000000 3.473420 0.000000 
#    z -0.149480 0.000000 4.095610 
# 
# 
# High freq. dielectric constant tensor:
#      x y z
#    x 1.762990 0.000000 -0.016990 
#    y 0.000000 1.755310 0.000000 
#    z -0.016990 0.000000 1.790980 
# 
# From -- ./inp_files/49564.got.cif
#   From: 2010.06.25/outbox.cif.g09.slc.cpg/sg10_25_cif.got.tgz:49564.got - 2010.06.27 22:07:45.
