data_PCOD8062358
_publ_section_title
;
Structure prediction by ZEFSAII (Michael W. Deem and Ramdas Pophale) SiO2 
 PCOD8062358
Probable space group: P 2/M
;
_chemical_formula_sum "Si O2"
_cell_formula_units_Z 30
_cell_length_a 17.066984
_cell_length_b 10.227088
_cell_length_c 13.429165
_cell_angle_alpha 90.000000
_cell_angle_beta 42.226814
_cell_angle_gamma 90.000000
_cell_volume 1575.326174
_symmetry_space_group_name_H-M "P 2/M"
_symmetry_group_IT_number 10
_symmetry_cell_setting 'monoclinic'
loop_
_space_group_symop_operation_xyz
x,y,z
-x,y,-z
-x,-y,-z
x,-y,z
loop_
_atom_site_type_symbol
_atom_site_label
_atom_site_fract_x
_atom_site_fract_y
_atom_site_fract_z
Si Si1 0.795704 0.145020 0.567520
Si Si2 0.633011 0.651308 0.084477
Si Si3 0.000000 0.232616 0.500000
Si Si4 0.534110 0.857965 0.856211
Si Si5 0.513572 0.650717 0.595454
Si Si6 0.104678 0.653743 0.200221
Si Si7 0.753601 0.648459 0.451279
Si Si8 0.026324 0.648178 0.868853
O O1 0.669847 0.178298 0.730229
O O2 0.821719 0.259030 0.464369
O O3 0.892233 0.145860 0.563714
O O4 0.798409 0.000000 0.516137
O O5 0.615373 0.500000 0.068750
O O6 0.537799 0.739616 0.121184
O O7 0.605003 0.666632 0.229189
O O8 0.761300 0.702136 0.935508
O O9 0.048402 0.313677 0.359967
O O10 0.512314 0.000000 0.822758
O O11 0.500000 0.875419 0.000000
O O12 0.500000 0.718828 0.500000
O O13 0.547140 0.500000 0.546835
O O14 0.626439 0.709944 0.546551
O O15 0.099284 0.500000 0.195080
O O16 0.036977 0.715024 0.167877
O O17 0.745791 0.500000 0.502010
O O18 0.833886 0.649994 0.277324
O O19 0.978951 0.500000 0.920831
O O20 0.000000 0.719263 0.000000
#
# Coordination Sequence:
#
# PCOD8062358 Si02
#       8
#     4   4   2   4   4   4   4   4
#     4  11  23  38  58  82 111 148 190 237 284 338
#     4  10  20  35  55  83 113 141 180 226 278 330
#     4  12  22  38  56  78 111 152 197 234 287 350
#     4  10  21  38  57  77 105 143 183 224 276 334
#     4   9  18  31  53  86 117 143 178 230 282 333
#     4  10  21  34  53  84 117 147 182 238 291 334
#     4  10  19  35  59  85 111 148 188 228 287 344
#     4   9  18  32  53  82 113 146 187 231 278 335
#
# _framework density 19.043673999999999
#
# number of rings (size 3 to 8) (size 9 to 14) (size 15 to 20)
#    0.000    2.000    2.667    1.200    1.867    0.800 
#    0.000    0.667    0.000    2.000    0.000    0.000 
#    0.000    0.000    0.000    0.000    0.000    0.000 
#
# Total GULP energy -371680.210653 kJ/mol
# GULP energy per Si atom -12389.340355 kJ/mol
# Density = 1.900033 g / cm^3
# Si number density = 19.043674 Si / 1000 Ang^3
#
#
#
# Elastic Constant Matrix: (Units=GPa)
#
#
# Indices 1 2 3 4 5 6 
#
# 1 114.6436 34.0828 58.6004 0.0000 -2.8303 0.0000
# 2 34.0828 57.4771 27.5945 0.0000 -1.6424 0.0000
# 3 58.6004 27.5945 138.0647 0.0000 -3.5983 0.0000
# 4 0.0000 0.0000 0.0000 10.1262 0.0000 -5.1639
# 5 -2.8303 -1.6424 -3.5983 0.0000 35.1869 0.0000
# 6 0.0000 0.0000 0.0000 -5.1639 0.0000 6.9999
#
#
#
# Elastic Compliance Matrix: (Units=1/GPa)
#
#
# Indices 1 2 3 4 5 6 
#
# 1 0.012482 -0.005368 -0.004217 0.000000 0.000322 0.000000
# 2 -0.005368 0.021562 -0.002022 0.000000 0.000368 0.000000
# 3 -0.004217 -0.002022 0.009451 0.000000 0.000533 0.000000
# 4 0.000000 0.000000 0.000000 0.158310 0.000000 0.116788
# 5 0.000322 0.000368 0.000533 0.000000 0.028517 0.000000
# 6 0.000000 0.000000 0.000000 0.116788 0.000000 0.229016
#
#
# Mechanical properties :
#
#
# Convention : Reuss Voigt Hill
#
# Bulk Modulus (GPa) = 49.30331 61.19342 55.24837
# Shear Modulus (GPa) = 10.21844 23.12309 16.67077
#
# Velocity S-wave (km/s) = 2.31893 3.48834 2.96192
# Velocity P-wave (km/s) = 5.75463 6.95900 6.38527
#
# Compressibility (1/GPa) = 0.02028261
#
# Stress axis : x y z
#
# Youngs Moduli (GPa) = 80.11681 46.37698 105.81341
#
# Poissons Ratio (x) = 0.24895 0.44616
# Poissons Ratio (y) = 0.43006 0.21392
# Poissons Ratio (z) = 0.33781 0.09376
#
# Static dielectric constant tensor:
#      x y z
#    x 3.621860 0.000000 -0.086040 
#    y 0.000000 3.337360 0.000000 
#    z -0.086040 0.000000 3.744440 
# 
# 
# High freq. dielectric constant tensor:
#      x y z
#    x 1.736740 0.000000 -0.012040 
#    y 0.000000 1.695760 0.000000 
#    z -0.012040 0.000000 1.758440 
# 
# From -- ./inp_files/51063.got.cif
#   From: 2010.06.25/outbox.cif.g09.slc.cpg/sg10_26_cif.got.tgz:51063.got - 2010.06.27 22:07:45.
