data_PCOD8062786
_publ_section_title
;
Structure prediction by ZEFSAII (Michael W. Deem and Ramdas Pophale) SiO2 
 PCOD8062786
Probable space group: P 2/M
;
_chemical_formula_sum "Si O2"
_cell_formula_units_Z 28
_cell_length_a 8.974805
_cell_length_b 13.702691
_cell_length_c 30.488786
_cell_angle_alpha 90.000000
_cell_angle_beta 150.700252
_cell_angle_gamma 90.000000
_cell_volume 1834.915233
_symmetry_space_group_name_H-M "P 2/M"
_symmetry_group_IT_number 10
_symmetry_cell_setting 'monoclinic'
loop_
_space_group_symop_operation_xyz
x,y,z
-x,y,-z
-x,-y,-z
x,-y,z
loop_
_atom_site_type_symbol
_atom_site_label
_atom_site_fract_x
_atom_site_fract_y
_atom_site_fract_z
Si Si1 0.326030 0.609350 0.167402
Si Si2 0.830619 0.727188 0.647468
Si Si3 0.340342 0.615986 0.002928
Si Si4 0.861417 0.108578 0.592118
Si Si5 0.863403 0.242116 0.512598
Si Si6 0.300057 0.611050 0.821605
Si Si7 0.922897 0.615540 0.366150
O O1 0.277629 0.500000 0.172565
O O2 0.431147 0.609424 0.144413
O O3 0.589887 0.656402 0.265529
O O4 0.998951 0.663381 0.085111
O O5 0.966806 0.827755 0.661480
O O6 0.499527 0.745372 0.582881
O O7 0.033075 0.684853 0.738921
O O8 0.826712 0.650901 0.605548
O O9 0.316008 0.500000 0.001961
O O10 0.550236 0.655112 0.096169
O O11 0.500000 0.650359 0.000000
O O12 0.500000 0.104766 0.500000
O O13 0.963134 0.156915 0.572081
O O14 0.002732 0.000000 0.631750
O O15 0.000000 0.218234 0.500000
O O16 0.004329 0.343247 0.567044
O O17 0.171149 0.500000 0.794589
O O18 0.930753 0.500000 0.369386
#
# Coordination Sequence:
#
# PCOD8062786 Si02
#       7
#     4   4   4   4   4   4   4
#     4   8  14  25  39  53  70  98 139 178 203 226
#     4   9  17  29  44  61  81 105 139 174 202 241
#     4   9  16  24  35  54  80 108 137 169 203 236
#     4   8  15  30  49  63  77 101 132 168 208 245
#     4  10  20  29  39  61  88 110 134 167 205 247
#     4   9  16  26  41  58  79 110 142 170 199 231
#     4   9  17  29  43  56  77 114 151 177 200 229
#
# _framework density 15.259561
#
# number of rings (size 3 to 8) (size 9 to 14) (size 15 to 20)
#    0.000    3.143    0.000    3.000    0.000    5.143 
#    0.000    1.429    0.000    0.000    0.000    0.000 
#    0.000   21.143    0.000    0.000    0.000   15.571 
#
# Total GULP energy -346934.870435 kJ/mol
# GULP energy per Si atom -12390.531087 kJ/mol
# Density = 1.522483 g / cm^3
# Si number density = 15.259561 Si / 1000 Ang^3
#
#
#
# Elastic Constant Matrix: (Units=GPa)
#
#
# Indices 1 2 3 4 5 6 
#
# 1 90.7509 27.6462 50.3000 0.0000 -3.0786 0.0000
# 2 27.6462 75.6986 30.6034 0.0000 1.4197 0.0000
# 3 50.3000 30.6034 76.2380 0.0000 4.0665 0.0000
# 4 0.0000 0.0000 0.0000 8.2041 0.0000 -1.3143
# 5 -3.0786 1.4197 4.0665 0.0000 15.7405 0.0000
# 6 0.0000 0.0000 0.0000 -1.3143 0.0000 10.7841
#
#
#
# Elastic Compliance Matrix: (Units=1/GPa)
#
#
# Indices 1 2 3 4 5 6 
#
# 1 0.018326 -0.002132 -0.011596 0.000000 0.006772 0.000000
# 2 -0.002132 0.016018 -0.004993 0.000000 -0.000572 0.000000
# 3 -0.011596 -0.004993 0.023189 0.000000 -0.007808 0.000000
# 4 0.000000 0.000000 0.000000 0.124318 0.000000 0.015151
# 5 0.006772 -0.000572 -0.007808 0.000000 0.066924 0.000000
# 6 0.000000 0.000000 0.000000 0.015151 0.000000 0.094575
#
#
# Mechanical properties :
#
#
# Convention : Reuss Voigt Hill
#
# Bulk Modulus (GPa) = 49.77543 51.08741 50.43142
# Shear Modulus (GPa) = 12.90360 15.88827 14.39594
#
# Velocity S-wave (km/s) = 2.91109 3.23027 3.07482
# Velocity P-wave (km/s) = 6.63244 6.88944 6.76216
#
# Compressibility (1/GPa) = 0.02009024
#
# Stress axis : x y z
#
# Youngs Moduli (GPa) = 54.56784 62.42934 43.12444
#
# Poissons Ratio (x) = 0.13308 0.50009
# Poissons Ratio (y) = 0.11632 0.21532
# Poissons Ratio (z) = 0.63280 0.31171
#
# Static dielectric constant tensor:
#      x y z
#    x 2.816120 0.000000 0.001750 
#    y 0.000000 2.839210 0.000000 
#    z 0.001750 0.000000 3.024640 
# 
# 
# High freq. dielectric constant tensor:
#      x y z
#    x 1.576280 0.000000 -0.002770 
#    y 0.000000 1.538660 0.000000 
#    z -0.002770 0.000000 1.581600 
# 
# From -- ./inp_files/28826.got.cif
#   From: 2010.06.25/outbox.cif.g09.slc.cpg/sg10_15_cif.got.tgz:28826.got - 2010.06.27 22:07:45.
