data_PCOD8062120
_publ_section_title
;
Structure prediction by ZEFSAII (Michael W. Deem and Ramdas Pophale) SiO2 
 PCOD8062120
Probable space group: P 2/M
;
_chemical_formula_sum "Si O2"
_cell_formula_units_Z 26
_cell_length_a 12.215932
_cell_length_b 16.458575
_cell_length_c 7.537928
_cell_angle_alpha 90.000000
_cell_angle_beta 60.263912
_cell_angle_gamma 90.000000
_cell_volume 1315.982955
_symmetry_space_group_name_H-M "P 2/M"
_symmetry_group_IT_number 10
_symmetry_cell_setting 'monoclinic'
loop_
_space_group_symop_operation_xyz
x,y,z
-x,y,-z
-x,-y,-z
x,-y,z
loop_
_atom_site_type_symbol
_atom_site_label
_atom_site_fract_x
_atom_site_fract_y
_atom_site_fract_z
Si Si1 0.141670 0.364066 0.923501
Si Si2 0.742003 0.196126 0.206578
Si Si3 0.863835 0.345523 0.674530
Si Si4 0.867815 0.093365 0.394755
Si Si5 0.319384 0.590840 0.477086
Si Si6 0.500000 0.710437 0.500000
Si Si7 0.139047 0.841023 0.233426
O O1 0.155522 0.268454 0.868355
O O2 0.237443 0.413430 0.723249
O O3 0.171028 0.382537 0.105630
O O4 0.000000 0.391885 0.000000
O O5 0.764954 0.136244 0.352281
O O6 0.601600 0.232168 0.323362
O O7 0.759218 0.149284 0.005737
O O8 0.760913 0.376845 0.621391
O O9 0.863320 0.248529 0.681846
O O10 0.000000 0.376818 0.500000
O O11 0.823490 0.099234 0.635578
O O12 0.002832 0.136308 0.262817
O O13 0.878047 0.000000 0.329903
O O14 0.369283 0.500000 0.397933
O O15 0.436359 0.652360 0.403809
#
# Coordination Sequence:
#
# PCOD8062120 Si02
#       7
#     4   4   4   4   4   2   4
#     4  10  19  35  59  88 118 153 197 241 301 370
#     4  10  21  37  60  82 112 159 208 248 281 341
#     4  11  19  35  61  88 118 155 197 239 297 364
#     4  11  21  34  59  96 128 150 183 240 307 366
#     4  11  24  40  59  85 122 155 195 258 311 354
#     4  10  23  44  65  80 108 168 224 248 285 346
#     4  10  19  34  59  89 123 153 191 238 296 360
#
# _framework density 19.757095
#
# number of rings (size 3 to 8) (size 9 to 14) (size 15 to 20)
#    0.000    1.538    3.077    5.308    0.000    3.077 
#    0.000   12.692    0.000   10.154    0.000    0.000 
#    0.000    0.000    0.000    0.000    0.000    0.000 
#
# Total GULP energy -322418.843350 kJ/mol
# GULP energy per Si atom -12400.724744 kJ/mol
# Density = 1.971213 g / cm^3
# Si number density = 19.757095 Si / 1000 Ang^3
#
#
#
# Elastic Constant Matrix: (Units=GPa)
#
#
# Indices 1 2 3 4 5 6 
#
# 1 129.0209 47.9518 73.3998 0.0000 8.4359 0.0000
# 2 47.9518 94.0289 44.7678 0.0000 2.4483 0.0000
# 3 73.3998 44.7678 106.2679 0.0000 9.1715 0.0000
# 4 0.0000 0.0000 0.0000 -38.3037 0.0000 -52.4571
# 5 8.4359 2.4483 9.1715 0.0000 31.1398 0.0000
# 6 0.0000 0.0000 0.0000 -52.4571 0.0000 -37.2322
#
#
#
# Elastic Compliance Matrix: (Units=1/GPa)
#
#
# Indices 1 2 3 4 5 6 
#
# 1 0.013464 -0.003071 -0.007913 0.000000 -0.001075 0.000000
# 2 -0.003071 0.014015 -0.003858 0.000000 0.000866 0.000000
# 3 -0.007913 -0.003858 0.016715 0.000000 -0.002476 0.000000
# 4 0.000000 0.000000 0.000000 0.028087 0.000000 -0.039572
# 5 -0.001075 0.000866 -0.002476 0.000000 0.033066 0.000000
# 6 0.000000 0.000000 0.000000 -0.039572 0.000000 0.028895
#
#
# Mechanical properties :
#
#
# Convention : Reuss Voigt Hill
#
# Bulk Modulus (GPa) = 68.91725 73.50626 71.21176
# Shear Modulus (GPa) = 29.62741 2.00066 15.81403
#
# Velocity S-wave (km/s) = 3.87665 1.00739 2.83224
# Velocity P-wave (km/s) = 7.41592 6.21602 6.84232
#
# Compressibility (1/GPa) = 0.01451015
#
# Stress axis : x y z
#
# Youngs Moduli (GPa) = 74.27139 71.35059 59.82672
#
# Poissons Ratio (x) = 0.21910 0.47343
# Poissons Ratio (y) = 0.22807 0.23082
# Poissons Ratio (z) = 0.58773 0.27528
#
# Static dielectric constant tensor:
#      x y z
#    x 3.440310 0.000000 0.152750 
#    y 0.000000 3.497320 0.000000 
#    z 0.152750 0.000000 3.746620 
# 
# 
# High freq. dielectric constant tensor:
#      x y z
#    x 1.754760 0.000000 0.018860 
#    y 0.000000 1.761610 0.000000 
#    z 0.018860 0.000000 1.769100 
# 
# From -- ./inp_files/24803.got.cif
#   From: 2010.06.25/outbox.cif.g09.slc.cpg/sg10_13_cif.got.tgz:24803.got - 2010.06.27 22:07:45.
