data_PCOD8062502
_publ_section_title
;
Structure prediction by ZEFSAII (Michael W. Deem and Ramdas Pophale) SiO2 
 PCOD8062502
Probable space group: P 2/M
;
_chemical_formula_sum "Si O2"
_cell_formula_units_Z 32
_cell_length_a 14.762222
_cell_length_b 8.473103
_cell_length_c 15.034846
_cell_angle_alpha 90.000000
_cell_angle_beta 119.687797
_cell_angle_gamma 90.000000
_cell_volume 1633.734687
_symmetry_space_group_name_H-M "P 2/M"
_symmetry_group_IT_number 10
_symmetry_cell_setting 'monoclinic'
loop_
_space_group_symop_operation_xyz
x,y,z
-x,y,-z
-x,-y,-z
x,-y,z
loop_
_atom_site_type_symbol
_atom_site_label
_atom_site_fract_x
_atom_site_fract_y
_atom_site_fract_z
Si Si1 0.325946 0.314506 0.154010
Si Si2 0.550900 0.181954 0.283838
Si Si3 0.997160 0.685940 0.760481
Si Si4 0.283626 0.315761 0.765080
Si Si5 0.774156 0.686964 0.716283
Si Si6 0.603180 0.685657 0.495551
Si Si7 0.068490 0.183212 0.616672
Si Si8 0.778989 0.313944 0.072751
O O1 0.306345 0.500000 0.142513
O O2 0.448063 0.284394 0.219711
O O3 0.267738 0.240246 0.211471
O O4 0.277137 0.237679 0.040568
O O5 0.627709 0.215873 0.239764
O O6 0.606124 0.225807 0.403181
O O7 0.519703 0.000000 0.268620
O O8 0.995514 0.500000 0.738476
O O9 0.000026 0.780332 0.670068
O O10 0.098277 0.730891 0.868714
O O11 0.893547 0.740376 0.761945
O O12 0.311535 0.500000 0.773100
O O13 0.172745 0.287467 0.664268
O O14 0.275701 0.253463 0.863145
O O15 0.763659 0.500000 0.715271
O O16 0.702731 0.746735 0.599904
O O17 0.500000 0.730827 0.500000
O O18 0.607405 0.500000 0.478530
O O19 0.000000 0.234394 0.500000
O O20 0.099497 0.000000 0.628667
O O21 0.766038 0.500000 0.064558
#
# Coordination Sequence:
#
# PCOD8062502 Si02
#       8
#     4   4   4   4   4   4   4   4
#     4  10  19  37  60  82 110 148 189 235 282 332
#     4  12  25  38  54  83 116 150 187 231 284 339
#     4   9  18  34  54  83 114 145 187 228 275 334
#     4  10  21  39  60  83 110 145 188 234 281 335
#     4   9  18  32  56  86 113 144 186 229 273 328
#     4  10  19  36  58  81 111 150 190 230 278 332
#     4  10  21  36  53  79 113 147 186 230 278 331
#     4   8  17  34  59  85 110 140 184 239 287 325
#
# _framework density 19.587022999999999
#
# number of rings (size 3 to 8) (size 9 to 14) (size 15 to 20)
#    0.000    2.250    1.250    2.625    1.750    2.250 
#    0.000    8.750    0.000    0.000    0.000    4.375 
#    0.000    0.000    0.000    0.000    0.000    0.000 
#
# Total GULP energy -396818.372382 kJ/mol
# GULP energy per Si atom -12400.574137 kJ/mol
# Density = 1.954244 g / cm^3
# Si number density = 19.587023 Si / 1000 Ang^3
#
#
#
# Elastic Constant Matrix: (Units=GPa)
#
#
# Indices 1 2 3 4 5 6 
#
# 1 138.7700 1.8793 64.7876 0.0000 -4.8737 0.0000
# 2 1.8793 23.8417 10.6144 0.0000 -3.2915 0.0000
# 3 64.7876 10.6144 161.4464 0.0000 -5.9019 0.0000
# 4 0.0000 0.0000 0.0000 3.6825 0.0000 2.1815
# 5 -4.8737 -3.2915 -5.9019 0.0000 15.9032 0.0000
# 6 0.0000 0.0000 0.0000 2.1815 0.0000 12.3671
#
#
#
# Elastic Compliance Matrix: (Units=1/GPa)
#
#
# Indices 1 2 3 4 5 6 
#
# 1 0.008928 0.001123 -0.003597 0.000000 0.001634 0.000000
# 2 0.001123 0.044376 -0.003061 0.000000 0.008393 0.000000
# 3 -0.003597 -0.003061 0.007882 0.000000 0.001189 0.000000
# 4 0.000000 0.000000 0.000000 0.303246 0.000000 -0.053492
# 5 0.001634 0.008393 0.001189 0.000000 0.065560 0.000000
# 6 0.000000 0.000000 0.000000 -0.053492 0.000000 0.090296
#
#
# Mechanical properties :
#
#
# Convention : Reuss Voigt Hill
#
# Bulk Modulus (GPa) = 19.95374 53.18008 36.56691
# Shear Modulus (GPa) = 9.12304 22.84233 15.98269
#
# Velocity S-wave (km/s) = 2.16051 3.41867 2.85964
# Velocity P-wave (km/s) = 4.05377 6.54161 5.44177
#
# Compressibility (1/GPa) = 0.05011592
#
# Stress axis : x y z
#
# Youngs Moduli (GPa) = 112.01322 22.53450 126.86984
#
# Poissons Ratio (x) = -0.02531 0.45631
# Poissons Ratio (y) = -0.12580 0.38841
# Poissons Ratio (z) = 0.40288 0.06899
#
# Static dielectric constant tensor:
#      x y z
#    x 3.648880 0.000000 -0.106050 
#    y 0.000000 3.184740 0.000000 
#    z -0.106050 0.000000 3.882440 
# 
# 
# High freq. dielectric constant tensor:
#      x y z
#    x 1.768440 0.000000 -0.001310 
#    y 0.000000 1.729290 0.000000 
#    z -0.001310 0.000000 1.769920 
# 
# From -- ./inp_files/66533.got.cif
#   From: 2010.06.25/outbox.cif.g09.slc.cpg/sg10_34_cif.got.tgz:66533.got - 2010.06.27 22:07:45.
