data_PCOD8062678
_publ_section_title
;
Structure prediction by ZEFSAII (Michael W. Deem and Ramdas Pophale) SiO2 
 PCOD8062678
Probable space group: P 2/M
;
_chemical_formula_sum "Si O2"
_cell_formula_units_Z 24
_cell_length_a 12.868799
_cell_length_b 14.492905
_cell_length_c 10.605467
_cell_angle_alpha 90.000000
_cell_angle_beta 144.066620
_cell_angle_gamma 90.000000
_cell_volume 1160.769697
_symmetry_space_group_name_H-M "P 2/M"
_symmetry_group_IT_number 10
_symmetry_cell_setting 'monoclinic'
loop_
_space_group_symop_operation_xyz
x,y,z
-x,y,-z
-x,-y,-z
x,-y,z
loop_
_atom_site_type_symbol
_atom_site_label
_atom_site_fract_x
_atom_site_fract_y
_atom_site_fract_z
Si Si1 0.617208 0.606444 0.844721
Si Si2 0.025600 0.394876 0.667117
Si Si3 0.798512 0.725081 0.819907
Si Si4 0.361132 0.898659 0.250168
Si Si5 0.415074 0.896500 0.780064
Si Si6 0.280202 0.722693 0.535393
O O1 0.565705 0.500000 0.773156
O O2 0.688126 0.645508 0.781572
O O3 0.448888 0.659795 0.737182
O O4 0.770054 0.618522 0.098403
O O5 0.964488 0.500000 0.627266
O O6 0.903517 0.331219 0.633223
O O7 0.000000 0.362422 0.500000
O O8 0.791409 0.821297 0.890254
O O9 0.700388 0.746126 0.592347
O O10 0.000000 0.692664 0.000000
O O11 0.500000 0.886555 0.500000
O O12 0.443141 0.885577 0.192238
O O13 0.273274 0.000000 0.173098
O O14 0.271722 0.815944 0.612046
O O15 0.330474 0.000000 0.692141
O O16 0.500000 0.879465 0.000000
#
# Coordination Sequence:
#
# PCOD8062678 Si02
#       6
#     4   4   4   4   4   4
#     4  11  24  41  63  93 129 169 215 264 322 382
#     4  10  24  43  62  93 131 168 217 269 317 379
#     4  12  23  39  60  92 127 164 215 269 326 384
#     4  10  19  37  62  87 122 163 208 263 320 379
#     4  10  22  39  65  98 129 165 211 262 319 386
#     4  12  23  40  68  93 124 171 215 263 324 384
#
# _framework density 20.675936
#
# number of rings (size 3 to 8) (size 9 to 14) (size 15 to 20)
#    0.000    1.167    5.000    1.000    2.333    2.667 
#    0.000    2.500    0.000    1.500    0.000    0.000 
#    0.000    0.000    0.000    0.000    0.000    0.000 
#
# Total GULP energy -297582.465554 kJ/mol
# GULP energy per Si atom -12399.269398 kJ/mol
# Density = 2.062888 g / cm^3
# Si number density = 20.675936 Si / 1000 Ang^3
#
#
#
# Elastic Constant Matrix: (Units=GPa)
#
#
# Indices 1 2 3 4 5 6 
#
# 1 62.5595 27.4946 23.7268 0.0000 -17.7287 0.0000
# 2 27.4946 127.7440 32.6264 0.0000 -0.0442 0.0000
# 3 23.7268 32.6264 73.1442 0.0000 -15.1818 0.0000
# 4 0.0000 0.0000 0.0000 28.5652 0.0000 -3.7931
# 5 -17.7287 -0.0442 -15.1818 0.0000 45.4957 0.0000
# 6 0.0000 0.0000 0.0000 -3.7931 0.0000 25.8645
#
#
#
# Elastic Compliance Matrix: (Units=1/GPa)
#
#
# Indices 1 2 3 4 5 6 
#
# 1 0.020925 -0.003536 -0.003781 0.000000 0.006889 0.000000
# 2 -0.003536 0.009516 -0.003634 0.000000 -0.002581 0.000000
# 3 -0.003781 -0.003634 0.017419 0.000000 0.004336 0.000000
# 4 0.000000 0.000000 0.000000 0.035703 0.000000 0.005236
# 5 0.006889 -0.002581 0.004336 0.000000 0.026109 0.000000
# 6 0.000000 0.000000 0.000000 0.005236 0.000000 0.039431
#
#
# Mechanical properties :
#
#
# Convention : Reuss Voigt Hill
#
# Bulk Modulus (GPa) = 38.52097 47.90481 43.21289
# Shear Modulus (GPa) = 27.83098 31.95840 29.89469
#
# Velocity S-wave (km/s) = 3.67284 3.93578 3.80658
# Velocity P-wave (km/s) = 6.05456 6.62371 6.34552
#
# Compressibility (1/GPa) = 0.02595988
#
# Stress axis : x y z
#
# Youngs Moduli (GPa) = 47.79009 105.08284 57.40946
#
# Poissons Ratio (x) = 0.37154 0.21705
# Poissons Ratio (y) = 0.16897 0.20860
# Poissons Ratio (z) = 0.18068 0.38183
#
# Static dielectric constant tensor:
#      x y z
#    x 3.658250 0.000000 -0.231760 
#    y 0.000000 4.102640 0.000000 
#    z -0.231760 0.000000 3.569730 
# 
# 
# High freq. dielectric constant tensor:
#      x y z
#    x 1.802210 0.000000 -0.019140 
#    y 0.000000 1.826510 0.000000 
#    z -0.019140 0.000000 1.794840 
# 
# From -- ./inp_files/51683.got.cif
#   From: 2010.06.25/outbox.cif.g09.slc.cpg/sg10_26_cif.got.tgz:51683.got - 2010.06.27 22:07:45.
