data_PCOD8062745
_publ_section_title
;
Structure prediction by ZEFSAII (Michael W. Deem and Ramdas Pophale) SiO2 
 PCOD8062745
Probable space group: P 2/M
;
_chemical_formula_sum "Si O2"
_cell_formula_units_Z 28
_cell_length_a 10.310152
_cell_length_b 8.807504
_cell_length_c 30.163664
_cell_angle_alpha 90.000000
_cell_angle_beta 146.723017
_cell_angle_gamma 90.000000
_cell_volume 1502.888257
_symmetry_space_group_name_H-M "P 2/M"
_symmetry_group_IT_number 10
_symmetry_cell_setting 'monoclinic'
loop_
_space_group_symop_operation_xyz
x,y,z
-x,y,-z
-x,-y,-z
x,-y,z
loop_
_atom_site_type_symbol
_atom_site_label
_atom_site_fract_x
_atom_site_fract_y
_atom_site_fract_z
Si Si1 0.580935 0.679171 0.240798
Si Si2 0.690832 0.320255 0.173941
Si Si3 0.141186 0.820961 0.162876
Si Si4 0.106733 0.176194 0.599585
Si Si5 0.344145 0.322425 0.998333
Si Si6 0.831593 0.320978 0.732989
Si Si7 0.636655 0.175733 0.418319
O O1 0.537339 0.500000 0.229389
O O2 0.634744 0.740098 0.206851
O O3 0.348198 0.763690 0.190405
O O4 0.806879 0.720029 0.335444
O O5 0.703494 0.500000 0.177310
O O6 0.943904 0.256928 0.229927
O O7 0.486387 0.266118 0.082073
O O8 0.173636 0.752139 0.220414
O O9 0.894689 0.772751 0.070885
O O10 0.156681 0.000000 0.171277
O O11 0.833466 0.215798 0.511401
O O12 0.263800 0.214359 0.601707
O O13 0.134653 0.000000 0.620153
O O14 0.280539 0.500000 0.982182
O O15 0.500000 0.285771 0.000000
O O16 0.846781 0.500000 0.743518
O O17 0.595174 0.275965 0.638665
O O18 0.567353 0.000000 0.401425
#
# Coordination Sequence:
#
# PCOD8062745 Si02
#       7
#     4   4   4   4   4   4   4
#     4  11  22  38  59  84 114 151 191 230 280 337
#     4   9  21  39  59  84 115 147 184 236 289 332
#     4  12  24  37  56  85 119 149 186 234 282 334
#     4   9  18  34  55  81 117 152 183 228 283 333
#     4  10  19  38  64  85 110 146 191 237 281 329
#     4  11  20  36  60  87 112 146 193 236 279 333
#     4   9  18  33  55  84 116 148 184 232 283 329
#
# _framework density 18.630792
#
# number of rings (size 3 to 8) (size 9 to 14) (size 15 to 20)
#    0.000    1.857    2.857    3.000    0.000    1.429 
#    0.000    9.286    0.000    4.286    0.000    0.000 
#    0.000    0.000    0.000    0.000    0.000    0.000 
#
# Total GULP energy -347259.563882 kJ/mol
# GULP energy per Si atom -12402.127281 kJ/mol
# Density = 1.858839 g / cm^3
# Si number density = 18.630792 Si / 1000 Ang^3
#
#
#
# Elastic Constant Matrix: (Units=GPa)
#
#
# Indices 1 2 3 4 5 6 
#
# 1 118.0547 41.1407 66.9627 0.0000 5.4836 0.0000
# 2 41.1407 70.8652 42.8021 0.0000 5.6363 0.0000
# 3 66.9627 42.8021 144.4294 0.0000 9.7046 0.0000
# 4 0.0000 0.0000 0.0000 28.9892 0.0000 6.8297
# 5 5.4836 5.6363 9.7046 0.0000 34.2551 0.0000
# 6 0.0000 0.0000 0.0000 6.8297 0.0000 1.2694
#
#
#
# Elastic Compliance Matrix: (Units=1/GPa)
#
#
# Indices 1 2 3 4 5 6 
#
# 1 0.012624 -0.004621 -0.004484 0.000000 0.000010 0.000000
# 2 -0.004621 0.018947 -0.003377 0.000000 -0.001421 0.000000
# 3 -0.004484 -0.003377 0.010110 0.000000 -0.001591 0.000000
# 4 0.000000 0.000000 0.000000 -0.128928 0.000000 0.693662
# 5 0.000010 -0.001421 -0.001591 0.000000 0.029876 0.000000
# 6 0.000000 0.000000 0.000000 0.693662 0.000000 -2.944296
#
#
# Mechanical properties :
#
#
# Convention : Reuss Voigt Hill
#
# Bulk Modulus (GPa) = 59.82012 70.57336 65.19674
# Shear Modulus (GPa) = -1.68286 25.06566 11.69140
#
# Velocity S-wave (km/s) = -0.95144 3.67193 2.50777
# Velocity P-wave (km/s) = 5.56515 7.47928 6.59206
#
# Compressibility (1/GPa) = 0.01671678
#
# Stress axis : x y z
#
# Youngs Moduli (GPa) = 79.21320 52.77931 98.90774
#
# Poissons Ratio (x) = 0.24391 0.44352
# Poissons Ratio (y) = 0.36607 0.33400
# Poissons Ratio (z) = 0.35520 0.17823
#
# Static dielectric constant tensor:
#      x y z
#    x 3.469450 0.000000 0.094350 
#    y 0.000000 3.254890 0.000000 
#    z 0.094350 0.000000 3.738810 
# 
# 
# High freq. dielectric constant tensor:
#      x y z
#    x 1.709730 0.000000 0.009310 
#    y 0.000000 1.709630 0.000000 
#    z 0.009310 0.000000 1.740150 
# 
# From -- ./inp_files/92103.got.cif
#   From: 2010.06.25/outbox.cif.g09.slc.cpg/sg10_47_cif.got.tgz:92103.got - 2010.06.27 22:07:45.
