data_PCOD8062419
_publ_section_title
;
Structure prediction by ZEFSAII (Michael W. Deem and Ramdas Pophale) SiO2 
 PCOD8062419
Probable space group: P 2/M
;
_chemical_formula_sum "Si O2"
_cell_formula_units_Z 24
_cell_length_a 14.787901
_cell_length_b 8.919857
_cell_length_c 9.752048
_cell_angle_alpha 90.000000
_cell_angle_beta 71.451314
_cell_angle_gamma 90.000000
_cell_volume 1219.531968
_symmetry_space_group_name_H-M "P 2/M"
_symmetry_group_IT_number 10
_symmetry_cell_setting 'monoclinic'
loop_
_space_group_symop_operation_xyz
x,y,z
-x,y,-z
-x,-y,-z
x,-y,z
loop_
_atom_site_type_symbol
_atom_site_label
_atom_site_fract_x
_atom_site_fract_y
_atom_site_fract_z
Si Si1 0.791955 0.173560 0.825037
Si Si2 0.892535 0.669732 0.543030
Si Si3 0.222938 0.669669 0.665756
Si Si4 0.580685 0.175583 0.856546
Si Si5 0.107285 0.321464 0.973351
Si Si6 0.414070 0.322661 0.441570
O O1 0.826119 0.216427 0.657109
O O2 0.680151 0.213211 0.884004
O O3 0.810506 0.000000 0.846076
O O4 0.853633 0.271022 0.899592
O O5 0.882277 0.500000 0.605919
O O6 0.863101 0.676165 0.399737
O O7 0.000000 0.727039 0.500000
O O8 0.251688 0.500000 0.687500
O O9 0.180518 0.745930 0.823780
O O10 0.318282 0.746731 0.558015
O O11 0.569323 0.256242 0.716587
O O12 0.570779 0.000000 0.832227
O O13 0.500000 0.233747 0.000000
O O14 0.105600 0.500000 0.965860
O O15 0.000000 0.259684 0.000000
O O16 0.500000 0.277965 0.500000
O O17 0.403993 0.500000 0.427031
#
# Coordination Sequence:
#
# PCOD8062419 Si02
#       6
#     4   4   4   4   4   4
#     4  11  23  38  57  85 119 152 191 240 288 337
#     4  10  19  35  61  86 110 147 190 232 284 345
#     4   9  18  34  55  82 114 143 181 235 283 333
#     4  10  23  42  60  82 116 156 196 235 284 350
#     4  10  21  38  60  85 115 154 196 234 282 344
#     4  10  21  37  59  88 115 141 185 243 295 340
#
# _framework density 19.679682
#
# number of rings (size 3 to 8) (size 9 to 14) (size 15 to 20)
#    0.000    2.000    1.667    1.500    2.333    4.667 
#    0.000    1.667    0.000    0.000    0.000    0.000 
#    0.000    0.000    0.000    0.000    0.000    0.000 
#
# Total GULP energy -297585.065068 kJ/mol
# GULP energy per Si atom -12399.377711 kJ/mol
# Density = 1.963489 g / cm^3
# Si number density = 19.679682 Si / 1000 Ang^3
#
#
#
# Elastic Constant Matrix: (Units=GPa)
#
#
# Indices 1 2 3 4 5 6 
#
# 1 114.0709 31.7472 33.1489 0.0000 -8.4839 0.0000
# 2 31.7472 24.7738 26.3495 0.0000 -1.9811 0.0000
# 3 33.1489 26.3495 106.0751 0.0000 -10.0772 0.0000
# 4 0.0000 0.0000 0.0000 10.6339 0.0000 -4.2384
# 5 -8.4839 -1.9811 -10.0772 0.0000 38.3473 0.0000
# 6 0.0000 0.0000 0.0000 -4.2384 0.0000 12.4944
#
#
#
# Elastic Compliance Matrix: (Units=1/GPa)
#
#
# Indices 1 2 3 4 5 6 
#
# 1 0.013809 -0.017876 0.000336 0.000000 0.002220 0.000000
# 2 -0.017876 0.078021 -0.014140 0.000000 -0.003640 0.000000
# 3 0.000336 -0.014140 0.013100 0.000000 0.002786 0.000000
# 4 0.000000 0.000000 0.000000 0.108741 0.000000 0.036887
# 5 0.002220 -0.003640 0.002786 0.000000 0.027113 0.000000
# 6 0.000000 0.000000 0.000000 0.036887 0.000000 0.092549
#
#
# Mechanical properties :
#
#
# Convention : Reuss Voigt Hill
#
# Bulk Modulus (GPa) = 24.05617 47.49012 35.77314
# Shear Modulus (GPa) = 12.17881 22.54007 17.35944
#
# Velocity S-wave (km/s) = 2.49037 3.38797 2.97324
# Velocity P-wave (km/s) = 4.52986 6.28398 5.47759
#
# Compressibility (1/GPa) = 0.04156938
#
# Stress axis : x y z
#
# Youngs Moduli (GPa) = 72.41682 12.81704 76.33864
#
# Poissons Ratio (x) = 0.22911 -0.02564
# Poissons Ratio (y) = 1.29450 1.07946
# Poissons Ratio (z) = -0.02433 0.18124
#
# Static dielectric constant tensor:
#      x y z
#    x 3.815080 0.000000 -0.222190 
#    y 0.000000 3.254350 0.000000 
#    z -0.222190 0.000000 3.646340 
# 
# 
# High freq. dielectric constant tensor:
#      x y z
#    x 1.783530 0.000000 -0.004940 
#    y 0.000000 1.730450 0.000000 
#    z -0.004940 0.000000 1.776680 
# 
# From -- ./inp_files/27021.got.cif
#   From: 2010.06.25/outbox.cif.g09.slc.cpg/sg10_14_cif.got.tgz:27021.got - 2010.06.27 22:07:45.
