data_PCOD8062070
_publ_section_title
;
Structure prediction by ZEFSAII (Michael W. Deem and Ramdas Pophale) SiO2 
 PCOD8062070
Probable space group: P 2/M
;
_chemical_formula_sum "Si O2"
_cell_formula_units_Z 28
_cell_length_a 11.786029
_cell_length_b 8.585535
_cell_length_c 14.699436
_cell_angle_alpha 90.000000
_cell_angle_beta 70.489437
_cell_angle_gamma 90.000000
_cell_volume 1402.018455
_symmetry_space_group_name_H-M "P 2/M"
_symmetry_group_IT_number 10
_symmetry_cell_setting 'monoclinic'
loop_
_space_group_symop_operation_xyz
x,y,z
-x,y,-z
-x,-y,-z
x,-y,z
loop_
_atom_site_type_symbol
_atom_site_label
_atom_site_fract_x
_atom_site_fract_y
_atom_site_fract_z
Si Si1 0.477443 0.184324 0.906563
Si Si2 0.793321 0.182826 0.042289
Si Si3 0.612261 0.317780 0.577202
Si Si4 0.898566 0.816819 0.820140
Si Si5 0.301643 0.184119 0.269865
Si Si6 0.854557 0.680845 0.208236
Si Si7 0.643227 0.182203 0.378615
O O1 0.345684 0.230994 0.907076
O O2 0.577750 0.248775 0.810988
O O3 0.491276 0.000000 0.910230
O O4 0.500000 0.257593 0.000000
O O5 0.869452 0.273950 0.098008
O O6 0.813657 0.000000 0.051178
O O7 0.835489 0.234093 0.931054
O O8 0.587330 0.500000 0.586365
O O9 0.706251 0.267453 0.630255
O O10 0.670058 0.272794 0.465043
O O11 0.486392 0.228896 0.626799
O O12 0.813215 0.768272 0.759502
O O13 0.022662 0.725065 0.773227
O O14 0.924419 0.000000 0.813146
O O15 0.306722 0.000000 0.282427
O O16 0.827756 0.500000 0.227521
O O17 0.744815 0.778415 0.278528
O O18 0.643536 0.000000 0.398776
#
# Coordination Sequence:
#
# PCOD8062070 Si02
#       7
#     4   4   4   4   4   4   4
#     4   9  15  28  53  84 112 141 183 237 283 320
#     4  10  19  34  58  85 114 152 199 244 286 340
#     4  11  22  38  62  93 126 151 178 226 292 354
#     4  10  21  37  57  82 115 157 206 248 279 331
#     4  10  19  34  58  87 119 156 199 239 282 337
#     4  12  25  39  56  81 116 154 194 243 301 352
#     4  11  22  41  66  89 113 146 194 242 284 337
#
# _framework density 19.971205000000001
#
# number of rings (size 3 to 8) (size 9 to 14) (size 15 to 20)
#    0.000    1.571    1.429    6.000    0.000    4.000 
#    0.000    0.714    0.000    5.143    0.000    0.000 
#    0.000    0.000    0.000    0.000    0.000    0.000 
#
# Total GULP energy -347313.746148 kJ/mol
# GULP energy per Si atom -12404.062362 kJ/mol
# Density = 1.992575 g / cm^3
# Si number density = 19.971205 Si / 1000 Ang^3
#
#
#
# Elastic Constant Matrix: (Units=GPa)
#
#
# Indices 1 2 3 4 5 6 
#
# 1 96.7328 32.0474 39.0839 0.0000 19.3600 0.0000
# 2 32.0474 64.6804 21.8926 0.0000 3.8625 0.0000
# 3 39.0839 21.8926 84.4076 0.0000 22.4505 0.0000
# 4 0.0000 0.0000 0.0000 11.6798 0.0000 -5.1195
# 5 19.3600 3.8625 22.4505 0.0000 34.2043 0.0000
# 6 0.0000 0.0000 0.0000 -5.1195 0.0000 17.5812
#
#
#
# Elastic Compliance Matrix: (Units=1/GPa)
#
#
# Indices 1 2 3 4 5 6 
#
# 1 0.014889 -0.005699 -0.004053 0.000000 -0.005123 0.000000
# 2 -0.005699 0.019169 -0.003168 0.000000 0.003141 0.000000
# 3 -0.004053 -0.003168 0.016768 0.000000 -0.008354 0.000000
# 4 0.000000 0.000000 0.000000 0.098145 0.000000 0.028579
# 5 -0.005123 0.003141 -0.008354 0.000000 0.037264 0.000000
# 6 0.000000 0.000000 0.000000 0.028579 0.000000 0.065201
#
#
# Mechanical properties :
#
#
# Convention : Reuss Voigt Hill
#
# Bulk Modulus (GPa) = 40.02493 47.98541 44.00517
# Shear Modulus (GPa) = 17.50668 22.87952 20.19310
#
# Velocity S-wave (km/s) = 2.96395 3.38838 3.18325
# Velocity P-wave (km/s) = 5.63898 6.27596 5.96598
#
# Compressibility (1/GPa) = 0.02498443
#
# Stress axis : x y z
#
# Youngs Moduli (GPa) = 67.16388 52.16682 59.63827
#
# Poissons Ratio (x) = 0.29731 0.24173
# Poissons Ratio (y) = 0.38278 0.18895
# Poissons Ratio (z) = 0.27223 0.16528
#
# Static dielectric constant tensor:
#      x y z
#    x 3.653560 0.000000 0.086190 
#    y 0.000000 3.329770 0.000000 
#    z 0.086190 0.000000 3.648570 
# 
# 
# High freq. dielectric constant tensor:
#      x y z
#    x 1.779970 0.000000 0.010590 
#    y 0.000000 1.757960 0.000000 
#    z 0.010590 0.000000 1.778300 
# 
# From -- ./inp_files/63388.got.cif
#   From: 2010.06.25/outbox.cif.g09.slc.cpg/sg10_32_cif.got.tgz:63388.got - 2010.06.27 22:07:45.
