data_PCOD8062510
_publ_section_title
;
Structure prediction by ZEFSAII (Michael W. Deem and Ramdas Pophale) SiO2 
 PCOD8062510
Probable space group: P 2/M
;
_chemical_formula_sum "Si O2"
_cell_formula_units_Z 32
_cell_length_a 26.195508
_cell_length_b 9.074757
_cell_length_c 11.302955
_cell_angle_alpha 90.000000
_cell_angle_beta 145.023085
_cell_angle_gamma 90.000000
_cell_volume 1540.263852
_symmetry_space_group_name_H-M "P 2/M"
_symmetry_group_IT_number 10
_symmetry_cell_setting 'monoclinic'
loop_
_space_group_symop_operation_xyz
x,y,z
-x,y,-z
-x,-y,-z
x,-y,z
loop_
_atom_site_type_symbol
_atom_site_label
_atom_site_fract_x
_atom_site_fract_y
_atom_site_fract_z
Si Si1 0.550608 0.327505 0.713551
Si Si2 0.034913 0.667186 0.191988
Si Si3 0.256364 0.671517 0.854124
Si Si4 0.102200 0.172190 0.694044
Si Si5 0.479779 0.667581 0.830112
Si Si6 0.787452 0.827684 0.447175
Si Si7 0.726082 0.665125 0.552763
Si Si8 0.139341 0.664724 0.987669
O O1 0.500000 0.260665 0.500000
O O2 0.527900 0.500000 0.675607
O O3 0.522460 0.260384 0.790403
O O4 0.656946 0.299207 0.898732
O O5 0.071494 0.500000 0.249762
O O6 0.111479 0.775639 0.381138
O O7 0.956034 0.677439 0.134175
O O8 0.000000 0.723984 0.000000
O O9 0.237771 0.500000 0.805289
O O10 0.163992 0.746083 0.717310
O O11 0.277680 0.741938 0.766689
O O12 0.146172 0.210190 0.902551
O O13 0.000000 0.230079 0.500000
O O14 0.105997 0.000000 0.674590
O O15 0.515079 0.500000 0.905633
O O16 0.375952 0.678777 0.607905
O O17 0.500000 0.741084 0.000000
O O18 0.754055 0.788367 0.513448
O O19 0.780651 0.000000 0.412047
O O20 0.749111 0.500000 0.549739
O O21 0.780807 0.699806 0.773540
O O22 0.150966 0.500000 0.955271
#
# Coordination Sequence:
#
# PCOD8062510 Si02
#       8
#     4   4   4   4   4   4   4   4
#     4   9  19  35  60  95 125 152 199 262 316 362
#     4  10  19  36  58  83 117 155 200 252 300 354
#     4  11  23  40  66  92 120 158 205 255 304 359
#     4  11  25  43  61  85 121 162 205 252 303 362
#     4   9  17  31  56  89 122 152 190 249 312 361
#     4  12  24  37  57  87 125 162 201 244 302 366
#     4  10  20  36  60  88 119 155 200 248 299 356
#     4  10  21  36  59  88 116 152 199 250 303 358
#
# _framework density 20.775662000000001
#
# number of rings (size 3 to 8) (size 9 to 14) (size 15 to 20)
#    0.000    1.750    1.250    3.375    1.750    6.250 
#    0.000    0.000    0.000    5.625    0.000    0.000 
#    0.000    0.000    0.000    0.000    0.000    0.000 
#
# Total GULP energy -396627.016109 kJ/mol
# GULP energy per Si atom -12394.594253 kJ/mol
# Density = 2.072838 g / cm^3
# Si number density = 20.775662 Si / 1000 Ang^3
#
#
#
# Elastic Constant Matrix: (Units=GPa)
#
#
# Indices 1 2 3 4 5 6 
#
# 1 85.9880 24.9938 49.8820 0.0000 -7.1606 0.0000
# 2 24.9938 76.4744 42.0843 0.0000 -1.4938 0.0000
# 3 49.8820 42.0843 119.0591 0.0000 -7.7720 0.0000
# 4 0.0000 0.0000 0.0000 14.9546 0.0000 -5.6527
# 5 -7.1606 -1.4938 -7.7720 0.0000 35.1752 0.0000
# 6 0.0000 0.0000 0.0000 -5.6527 0.0000 17.6467
#
#
#
# Elastic Compliance Matrix: (Units=1/GPa)
#
#
# Indices 1 2 3 4 5 6 
#
# 1 0.015690 -0.001913 -0.005778 0.000000 0.001836 0.000000
# 2 -0.001913 0.016479 -0.005077 0.000000 -0.000811 0.000000
# 3 -0.005778 -0.005077 0.012707 0.000000 0.001416 0.000000
# 4 0.000000 0.000000 0.000000 0.076081 0.000000 0.024371
# 5 0.001836 -0.000811 0.001416 0.000000 0.029081 0.000000
# 6 0.000000 0.000000 0.000000 0.024371 0.000000 0.064474
#
#
# Mechanical properties :
#
#
# Convention : Reuss Voigt Hill
#
# Bulk Modulus (GPa) = 51.70044 57.27130 54.48587
# Shear Modulus (GPa) = 20.28447 24.52606 22.40526
#
# Velocity S-wave (km/s) = 3.12806 3.43960 3.28752
# Velocity P-wave (km/s) = 6.16324 6.58793 6.37912
#
# Compressibility (1/GPa) = 0.01934220
#
# Stress axis : x y z
#
# Youngs Moduli (GPa) = 63.73475 60.68266 78.69827
#
# Poissons Ratio (x) = 0.11606 0.45470
# Poissons Ratio (y) = 0.12189 0.39952
# Poissons Ratio (z) = 0.36824 0.30806
#
# Static dielectric constant tensor:
#      x y z
#    x 3.865140 0.000000 -0.151460 
#    y 0.000000 3.357940 0.000000 
#    z -0.151460 0.000000 4.002060 
# 
# 
# High freq. dielectric constant tensor:
#      x y z
#    x 1.819630 0.000000 -0.002680 
#    y 0.000000 1.764910 0.000000 
#    z -0.002680 0.000000 1.830710 
# 
# From -- ./inp_files/58309.got.cif
#   From: 2010.06.25/outbox.cif.g09.slc.cpg/sg10_30_cif.got.tgz:58309.got - 2010.06.27 22:07:45.
