data_PCOD8062340
_publ_section_title
;
Structure prediction by ZEFSAII (Michael W. Deem and Ramdas Pophale) SiO2 
 PCOD8062340
Probable space group: P 2/M
;
_chemical_formula_sum "Si O2"
_cell_formula_units_Z 28
_cell_length_a 27.236169
_cell_length_b 9.337527
_cell_length_c 8.160034
_cell_angle_alpha 90.000000
_cell_angle_beta 40.797202
_cell_angle_gamma 90.000000
_cell_volume 1355.932632
_symmetry_space_group_name_H-M "P 2/M"
_symmetry_group_IT_number 10
_symmetry_cell_setting 'monoclinic'
loop_
_space_group_symop_operation_xyz
x,y,z
-x,y,-z
-x,-y,-z
x,-y,z
loop_
_atom_site_type_symbol
_atom_site_label
_atom_site_fract_x
_atom_site_fract_y
_atom_site_fract_z
Si Si1 0.565777 0.341250 0.551871
Si Si2 0.329919 0.342601 0.989399
Si Si3 0.180922 0.329686 0.854970
Si Si4 0.827281 0.333290 0.755630
Si Si5 0.327106 0.160824 0.520681
Si Si6 0.084515 0.330018 0.782614
Si Si7 0.419053 0.157967 0.979091
O O1 0.559377 0.500000 0.648592
O O2 0.588080 0.355753 0.305184
O O3 0.640109 0.256589 0.418270
O O4 0.490239 0.257145 0.773836
O O5 0.311034 0.500000 0.113541
O O6 0.342976 0.223511 0.093571
O O7 0.260297 0.295882 0.051027
O O8 0.197165 0.500000 0.812797
O O9 0.256338 0.242980 0.622401
O O10 0.123569 0.284639 0.855614
O O11 0.151450 0.281094 0.112411
O O12 0.843214 0.500000 0.710161
O O13 0.875280 0.264825 0.483140
O O14 0.304028 0.000000 0.636069
O O15 0.398675 0.147913 0.219860
O O16 0.084895 0.500000 0.770054
O O17 0.000000 0.269248 0.000000
O O18 0.435733 0.000000 0.863857
#
# Coordination Sequence:
#
# PCOD8062340 Si02
#       7
#     4   4   4   4   4   4   4
#     4  11  22  37  57  80 107 144 191 237 287 344
#     4  10  20  36  55  77 106 143 190 237 281 337
#     4  10  19  35  59  82 112 153 190 233 287 336
#     4   9  17  32  53  80 114 148 188 233 278 339
#     4  11  23  38  55  78 111 146 188 239 285 339
#     4   9  18  31  53  89 123 148 180 227 284 341
#     4  11  24  37  51  77 111 147 187 236 294 342
#
# _framework density 20.649995000000001
#
# number of rings (size 3 to 8) (size 9 to 14) (size 15 to 20)
#    0.000    1.857    1.429    3.000    0.000    8.571 
#    0.000    2.857    0.000    0.429    0.000    1.000 
#    0.000    0.000    0.000    0.000    0.000    0.000 
#
# Total GULP energy -346881.079229 kJ/mol
# GULP energy per Si atom -12388.609972 kJ/mol
# Density = 2.060299 g / cm^3
# Si number density = 20.649995 Si / 1000 Ang^3
#
#
#
# Elastic Constant Matrix: (Units=GPa)
#
#
# Indices 1 2 3 4 5 6 
#
# 1 116.3697 43.8183 49.2307 0.0000 -3.6203 0.0000
# 2 43.8183 103.5077 27.4941 0.0000 -9.1948 0.0000
# 3 49.2307 27.4941 125.1937 0.0000 2.7764 0.0000
# 4 0.0000 0.0000 0.0000 17.8256 0.0000 20.6503
# 5 -3.6203 -9.1948 2.7764 0.0000 30.3069 0.0000
# 6 0.0000 0.0000 0.0000 20.6503 0.0000 52.9863
#
#
#
# Elastic Compliance Matrix: (Units=1/GPa)
#
#
# Indices 1 2 3 4 5 6 
#
# 1 0.011659 -0.003893 -0.003742 0.000000 0.000555 0.000000
# 2 -0.003893 0.011905 -0.001156 0.000000 0.003253 0.000000
# 3 -0.003742 -0.001156 0.009751 0.000000 -0.001691 0.000000
# 4 0.000000 0.000000 0.000000 0.102275 0.000000 -0.039860
# 5 0.000555 0.003253 -0.001691 0.000000 0.034204 0.000000
# 6 0.000000 0.000000 0.000000 -0.039860 0.000000 0.034407
#
#
# Mechanical properties :
#
#
# Convention : Reuss Voigt Hill
#
# Bulk Modulus (GPa) = 63.55912 65.12859 64.34385
# Shear Modulus (GPa) = 22.02380 35.19230 28.60805
#
# Velocity S-wave (km/s) = 3.26932 4.13271 3.72610
# Velocity P-wave (km/s) = 6.71545 7.37429 7.05257
#
# Compressibility (1/GPa) = 0.01573338
#
# Stress axis : x y z
#
# Youngs Moduli (GPa) = 85.76705 83.99871 102.55756
#
# Poissons Ratio (x) = 0.32697 0.38381
# Poissons Ratio (y) = 0.33385 0.11855
# Poissons Ratio (z) = 0.32097 0.09710
#
# Static dielectric constant tensor:
#      x y z
#    x 3.820930 0.000000 0.141590 
#    y 0.000000 3.613110 0.000000 
#    z 0.141590 0.000000 3.783720 
# 
# 
# High freq. dielectric constant tensor:
#      x y z
#    x 1.806980 0.000000 0.008510 
#    y 0.000000 1.772700 0.000000 
#    z 0.008510 0.000000 1.805520 
# 
# From -- ./inp_files/36897.got.cif
#   From: 2010.06.25/outbox.cif.g09.slc.cpg/sg10_19_cif.got.tgz:36897.got - 2010.06.27 22:07:45.
