data_PCOD8062270
_publ_section_title
;
Structure prediction by ZEFSAII (Michael W. Deem and Ramdas Pophale) SiO2 
 PCOD8062270
Probable space group: P 2/M
;
_chemical_formula_sum "Si O2"
_cell_formula_units_Z 28
_cell_length_a 31.685565
_cell_length_b 11.621368
_cell_length_c 25.496186
_cell_angle_alpha 90.000000
_cell_angle_beta 9.180017
_cell_angle_gamma 90.000000
_cell_volume 1497.804269
_symmetry_space_group_name_H-M "P 2/M"
_symmetry_group_IT_number 10
_symmetry_cell_setting 'monoclinic'
loop_
_space_group_symop_operation_xyz
x,y,z
-x,y,-z
-x,-y,-z
x,-y,z
loop_
_atom_site_type_symbol
_atom_site_label
_atom_site_fract_x
_atom_site_fract_y
_atom_site_fract_z
Si Si1 0.844701 0.131150 0.917340
Si Si2 0.114624 0.370790 0.261290
Si Si3 0.682414 0.500000 0.225847
Si Si4 0.286349 0.208330 0.298947
Si Si5 0.493325 0.370825 0.130811
Si Si6 0.941811 0.296626 0.259502
Si Si7 0.551875 0.296617 0.649454
Si Si8 0.723864 0.500000 0.367880
O O1 0.920893 0.191106 0.878658
O O2 0.087446 0.131251 0.577414
O O3 0.773439 0.000000 0.017126
O O4 0.580920 0.191120 0.218705
O O5 0.005040 0.500000 0.400992
O O6 0.875852 0.286329 0.542619
O O7 0.256252 0.331439 0.141411
O O8 0.321925 0.369620 0.959207
O O9 0.500000 0.500000 0.500000
O O10 0.520025 0.500000 0.371929
O O11 0.852519 0.383686 0.019187
O O12 0.466917 0.286486 0.114722
O O13 0.500000 0.138881 0.000000
O O14 0.534436 0.500000 0.059539
O O15 0.227069 0.369726 0.491858
O O16 0.755807 0.244321 0.441928
O O17 0.711201 0.383715 0.417128
O O18 0.000000 0.500000 0.000000
#
# Coordination Sequence:
#
# PCOD8062270 Si02
#       8
#     4   4   2   4   4   4   4   2
#     4  10  22  39  60  80 104 154 208 242 284 336
#     4   9  17  29  49  73 105 146 183 219 279 349
#     4  12  22  34  58  97 129 153 175 220 285 346
#     4  10  21  33  48  74 106 140 187 247 294 330
#     4   9  17  29  49  73 105 146 183 219 279 349
#     4  10  19  35  57  84 117 147 187 237 281 337
#     4  10  19  35  57  84 117 147 187 237 281 337
#     4  12  22  34  58  97 129 153 175 220 285 346
#
# _framework density 18.694030999999999
#
# number of rings (size 3 to 8) (size 9 to 14) (size 15 to 20)
#    0.000    2.000    2.857    1.714    0.000    2.571 
#    0.000    1.429    0.000    0.857    0.000    8.000 
#    0.000    0.000    0.000    0.000    0.000    0.000 
#
# Total GULP energy -347115.425203 kJ/mol
# GULP energy per Si atom -12396.979472 kJ/mol
# Density = 1.865148 g / cm^3
# Si number density = 18.694031 Si / 1000 Ang^3
#
#
#
# Elastic Constant Matrix: (Units=GPa)
#
#
# Indices 1 2 3 4 5 6 
#
# 1 95.7308 44.4454 49.0625 0.0000 -24.4989 0.0000
# 2 44.4454 106.0065 33.7436 0.0000 -9.9602 0.0000
# 3 49.0625 33.7436 81.0626 0.0000 10.3477 0.0000
# 4 0.0000 0.0000 0.0000 10.4058 0.0000 -2.0363
# 5 -24.4989 -9.9602 10.3477 0.0000 41.2867 0.0000
# 6 0.0000 0.0000 0.0000 -2.0363 0.0000 12.6113
#
#
#
# Elastic Compliance Matrix: (Units=1/GPa)
#
#
# Indices 1 2 3 4 5 6 
#
# 1 0.024752 -0.003716 -0.015697 0.000000 0.017725 0.000000
# 2 -0.003716 0.012070 -0.002960 0.000000 0.001449 0.000000
# 3 -0.015697 -0.002960 0.025154 0.000000 -0.016333 0.000000
# 4 0.000000 0.000000 0.000000 0.099236 0.000000 0.016023
# 5 0.017725 0.001449 -0.016333 0.000000 0.039182 0.000000
# 6 0.000000 0.000000 0.000000 0.016023 0.000000 0.081881
#
#
# Mechanical properties :
#
#
# Convention : Reuss Voigt Hill
#
# Bulk Modulus (GPa) = 58.03927 59.70030 58.86978
# Shear Modulus (GPa) = 15.02573 23.23065 19.12819
#
# Velocity S-wave (km/s) = 2.83816 3.52899 3.20226
# Velocity P-wave (km/s) = 6.46951 6.97207 6.72549
#
# Compressibility (1/GPa) = 0.01722971
#
# Stress axis : x y z
#
# Youngs Moduli (GPa) = 40.40100 82.85213 39.75574
#
# Poissons Ratio (x) = 0.30786 0.62404
# Poissons Ratio (y) = 0.15012 0.11768
# Poissons Ratio (z) = 0.63416 0.24526
#
# Static dielectric constant tensor:
#      x y z
#    x 3.639790 0.000000 -0.188220 
#    y 0.000000 2.992760 0.000000 
#    z -0.188220 0.000000 3.433070 
# 
# 
# High freq. dielectric constant tensor:
#      x y z
#    x 1.740470 0.000000 -0.013150 
#    y 0.000000 1.683490 0.000000 
#    z -0.013150 0.000000 1.726040 
# 
# From -- ./inp_files/79608.got.cif
#   From: 2010.06.25/outbox.cif.g09.slc.cpg/sg10_40_cif.got.tgz:79608.got - 2010.06.27 22:07:45.
