data_PCOD8062674
_publ_section_title
;
Structure prediction by ZEFSAII (Michael W. Deem and Ramdas Pophale) SiO2 
 PCOD8062674
Probable space group: P 2/M
;
_chemical_formula_sum "Si O2"
_cell_formula_units_Z 28
_cell_length_a 18.352325
_cell_length_b 9.146714
_cell_length_c 13.468300
_cell_angle_alpha 90.000000
_cell_angle_beta 36.833101
_cell_angle_gamma 90.000000
_cell_volume 1355.339480
_symmetry_space_group_name_H-M "P 2/M"
_symmetry_group_IT_number 10
_symmetry_cell_setting 'monoclinic'
loop_
_space_group_symop_operation_xyz
x,y,z
-x,y,-z
-x,-y,-z
x,-y,z
loop_
_atom_site_type_symbol
_atom_site_label
_atom_site_fract_x
_atom_site_fract_y
_atom_site_fract_z
Si Si1 0.628069 0.333131 0.611388
Si Si2 0.575569 0.662640 0.319205
Si Si3 0.812907 0.170067 0.068776
Si Si4 0.996328 0.661428 0.762076
Si Si5 0.878226 0.328696 0.572760
Si Si6 0.367638 0.173505 0.187933
Si Si7 0.833845 0.336565 0.241934
O O1 0.663241 0.500000 0.605445
O O2 0.496926 0.328557 0.704336
O O3 0.632271 0.225898 0.699245
O O4 0.719972 0.274209 0.427540
O O5 0.500000 0.696530 0.500000
O O6 0.633044 0.500000 0.266259
O O7 0.674255 0.788336 0.204396
O O8 0.862919 0.235734 0.116962
O O9 0.831052 0.000000 0.054200
O O10 0.883802 0.228323 0.893583
O O11 0.947688 0.500000 0.786164
O O12 0.094662 0.708936 0.572355
O O13 0.051773 0.660241 0.810986
O O14 0.855466 0.500000 0.616862
O O15 0.751024 0.245347 0.738707
O O16 0.000000 0.276701 0.500000
O O17 0.352003 0.000000 0.198735
O O18 0.500000 0.221496 0.000000
O O19 0.804001 0.500000 0.235716
#
# Coordination Sequence:
#
# PCOD8062674 Si02
#       7
#     4   4   4   4   4   4   4
#     4  10  20  38  66  92 113 151 206 254 296 350
#     4  10  20  38  61  83 115 158 203 250 300 354
#     4  12  25  36  53  87 128 164 202 245 294 363
#     4  10  21  39  62  87 118 156 201 253 307 358
#     4  10  22  43  71  98 122 157 214 273 316 364
#     4  11  25  43  64  94 133 169 201 248 319 392
#     4  10  19  37  62  86 115 154 201 249 296 350
#
# _framework density 20.659030999999999
#
# number of rings (size 3 to 8) (size 9 to 14) (size 15 to 20)
#    0.000    1.571    2.857    2.143    0.000    6.857 
#    0.000    4.286    0.000    0.000    0.000    0.000 
#    0.000    0.000    0.000    0.000    0.000    0.000 
#
# Total GULP energy -347056.505144 kJ/mol
# GULP energy per Si atom -12394.875184 kJ/mol
# Density = 2.061201 g / cm^3
# Si number density = 20.659031 Si / 1000 Ang^3
#
#
#
# Elastic Constant Matrix: (Units=GPa)
#
#
# Indices 1 2 3 4 5 6 
#
# 1 79.6981 29.4016 28.6652 0.0000 -18.7461 0.0000
# 2 29.4016 101.9965 61.7122 0.0000 -3.4011 0.0000
# 3 28.6652 61.7122 124.1271 0.0000 -11.1698 0.0000
# 4 0.0000 0.0000 0.0000 16.1977 0.0000 -0.2173
# 5 -18.7461 -3.4011 -11.1698 0.0000 22.2536 0.0000
# 6 0.0000 0.0000 0.0000 -0.2173 0.0000 20.0448
#
#
#
# Elastic Compliance Matrix: (Units=1/GPa)
#
#
# Indices 1 2 3 4 5 6 
#
# 1 0.017601 -0.004156 -0.000756 0.000000 0.013813 0.000000
# 2 -0.004156 0.015047 -0.006943 0.000000 -0.004686 0.000000
# 3 -0.000756 -0.006943 0.012075 0.000000 0.004363 0.000000
# 4 0.000000 0.000000 0.000000 0.061746 0.000000 0.000669
# 5 0.013813 -0.004686 0.004363 0.000000 0.058046 0.000000
# 6 0.000000 0.000000 0.000000 0.000669 0.000000 0.049895
#
#
# Mechanical properties :
#
#
# Convention : Reuss Voigt Hill
#
# Bulk Modulus (GPa) = 47.58621 60.59773 54.09197
# Shear Modulus (GPa) = 20.39789 24.10209 22.24999
#
# Velocity S-wave (km/s) = 3.14564 3.41935 3.28534
# Velocity P-wave (km/s) = 6.02308 6.70710 6.37427
#
# Compressibility (1/GPa) = 0.02101449
#
# Stress axis : x y z
#
# Youngs Moduli (GPa) = 56.81430 66.46017 82.81552
#
# Poissons Ratio (x) = 0.27621 0.06257
# Poissons Ratio (y) = 0.23612 0.57496
# Poissons Ratio (z) = 0.04292 0.46141
#
# Static dielectric constant tensor:
#      x y z
#    x 3.767250 0.000000 -0.107090 
#    y 0.000000 3.522040 0.000000 
#    z -0.107090 0.000000 3.894230 
# 
# 
# High freq. dielectric constant tensor:
#      x y z
#    x 1.808080 0.000000 -0.010010 
#    y 0.000000 1.783380 0.000000 
#    z -0.010010 0.000000 1.816060 
# 
# From -- ./inp_files/70176.got.cif
#   From: 2010.06.25/outbox.cif.g09.slc.cpg/sg10_36_cif.got.tgz:70176.got - 2010.06.27 22:07:45.
