data_PCOD8062436
_publ_section_title
;
Structure prediction by ZEFSAII (Michael W. Deem and Ramdas Pophale) SiO2 
 PCOD8062436
Probable space group: P 2/M
;
_chemical_formula_sum "Si O2"
_cell_formula_units_Z 32
_cell_length_a 11.838805
_cell_length_b 8.624841
_cell_length_c 15.252778
_cell_angle_alpha 90.000000
_cell_angle_beta 88.279043
_cell_angle_gamma 90.000000
_cell_volume 1556.725280
_symmetry_space_group_name_H-M "P 2/M"
_symmetry_group_IT_number 10
_symmetry_cell_setting 'monoclinic'
loop_
_space_group_symop_operation_xyz
x,y,z
-x,y,-z
-x,-y,-z
x,-y,z
loop_
_atom_site_type_symbol
_atom_site_label
_atom_site_fract_x
_atom_site_fract_y
_atom_site_fract_z
Si Si1 0.499827 0.819525 0.397695
Si Si2 0.270090 0.822040 0.860282
Si Si3 0.727377 0.682121 0.654501
Si Si4 0.124873 0.317182 0.510270
Si Si5 0.500238 0.319967 0.101967
Si Si6 0.128030 0.680618 0.015492
Si Si7 0.733197 0.181030 0.834755
Si Si8 0.745428 0.178642 0.337187
O O1 0.500000 0.782460 0.500000
O O2 0.404748 0.719192 0.352078
O O3 0.618128 0.761930 0.355311
O O4 0.476748 0.000000 0.378977
O O5 0.402247 0.779915 0.854494
O O6 0.219586 0.796008 0.764498
O O7 0.256388 0.000000 0.890058
O O8 0.203589 0.712787 0.928500
O O9 0.745533 0.500000 0.666313
O O10 0.793181 0.747861 0.567808
O O11 0.778020 0.769643 0.738008
O O12 0.121057 0.500000 0.503477
O O13 0.168080 0.272622 0.605223
O O14 0.000000 0.246574 0.500000
O O15 0.524174 0.500000 0.118181
O O16 0.380311 0.276065 0.144689
O O17 0.500000 0.278893 0.000000
O O18 0.137391 0.500000 0.038277
O O19 0.171060 0.778297 0.096963
O O20 0.000000 0.731654 0.000000
O O21 0.706589 0.000000 0.839463
O O22 0.752134 0.000000 0.365089
#
# Coordination Sequence:
#
# PCOD8062436 Si02
#       8
#     4   4   4   4   4   4   4   4
#     4  10  19  35  61  90 124 161 197 242 302 364
#     4  11  23  39  63  95 129 163 203 250 306 368
#     4  11  23  39  62  91 124 160 203 252 304 366
#     4  10  23  42  62  86 118 159 206 253 300 354
#     4  11  22  38  64  95 128 163 202 247 303 368
#     4  11  25  45  66  88 119 161 209 260 310 362
#     4  12  25  41  65  93 125 162 203 253 310 371
#     4  10  22  39  60  90 123 157 197 244 298 359
#
# _framework density 20.555972000000001
#
# number of rings (size 3 to 8) (size 9 to 14) (size 15 to 20)
#    0.000    1.250    2.500    3.375    0.000    6.000 
#    0.000    3.750    0.000    0.000    0.000    0.000 
#    0.000    0.000    0.000    0.000    0.000    0.000 
#
# Total GULP energy -397015.690859 kJ/mol
# GULP energy per Si atom -12406.740339 kJ/mol
# Density = 2.050919 g / cm^3
# Si number density = 20.555972 Si / 1000 Ang^3
#
#
#
# Elastic Constant Matrix: (Units=GPa)
#
#
# Indices 1 2 3 4 5 6 
#
# 1 108.0015 16.2175 34.3610 0.0000 19.0647 0.0000
# 2 16.2175 44.0793 31.4804 0.0000 4.6072 0.0000
# 3 34.3610 31.4804 115.0605 0.0000 19.9727 0.0000
# 4 0.0000 0.0000 0.0000 33.5565 0.0000 7.4114
# 5 19.0647 4.6072 19.9727 0.0000 16.1149 0.0000
# 6 0.0000 0.0000 0.0000 7.4114 0.0000 15.5802
#
#
#
# Elastic Compliance Matrix: (Units=1/GPa)
#
#
# Indices 1 2 3 4 5 6 
#
# 1 0.012122 -0.002638 -0.000688 0.000000 -0.012734 0.000000
# 2 -0.002638 0.028816 -0.007910 0.000000 0.004685 0.000000
# 3 -0.000688 -0.007910 0.013412 0.000000 -0.013548 0.000000
# 4 0.000000 0.000000 0.000000 0.033299 0.000000 -0.015840
# 5 -0.012734 0.004685 -0.013548 0.000000 0.092571 0.000000
# 6 0.000000 0.000000 0.000000 -0.015840 0.000000 0.071719
#
#
# Mechanical properties :
#
#
# Convention : Reuss Voigt Hill
#
# Bulk Modulus (GPa) = 31.36769 47.91769 39.64269
# Shear Modulus (GPa) = 17.54163 25.38915 21.46539
#
# Velocity S-wave (km/s) = 2.92440 3.51824 3.23498
# Velocity P-wave (km/s) = 5.16678 6.31391 5.76893
#
# Compressibility (1/GPa) = 0.03187994
#
# Stress axis : x y z
#
# Youngs Moduli (GPa) = 82.49521 34.70303 74.55849
#
# Poissons Ratio (x) = 0.09153 0.05129
# Poissons Ratio (y) = 0.21759 0.58973
# Poissons Ratio (z) = 0.05675 0.27449
#
# Static dielectric constant tensor:
#      x y z
#    x 3.735490 0.000000 -0.055670 
#    y 0.000000 3.584840 0.000000 
#    z -0.055670 0.000000 3.542510 
# 
# 
# High freq. dielectric constant tensor:
#      x y z
#    x 1.798270 0.000000 0.003000 
#    y 0.000000 1.800570 0.000000 
#    z 0.003000 0.000000 1.819130 
# 
# From -- ./inp_files/63787.got.cif
#   From: 2010.06.25/outbox.cif.g09.slc.cpg/sg10_32_cif.got.tgz:63787.got - 2010.06.27 22:07:45.
