data_PCOD8062854
_publ_section_title
;
Structure prediction by ZEFSAII (Michael W. Deem and Ramdas Pophale) SiO2 
 PCOD8062854
Probable space group: P 2/M
;
_chemical_formula_sum "Si O2"
_cell_formula_units_Z 28
_cell_length_a 9.722016
_cell_length_b 19.833720
_cell_length_c 17.539212
_cell_angle_alpha 90.000000
_cell_angle_beta 154.505279
_cell_angle_gamma 90.000000
_cell_volume 1455.697164
_symmetry_space_group_name_H-M "P 2/M"
_symmetry_group_IT_number 10
_symmetry_cell_setting 'monoclinic'
loop_
_space_group_symop_operation_xyz
x,y,z
-x,y,-z
-x,-y,-z
x,-y,z
loop_
_atom_site_type_symbol
_atom_site_label
_atom_site_fract_x
_atom_site_fract_y
_atom_site_fract_z
Si Si1 0.635100 0.577208 0.338071
Si Si2 0.402023 0.926731 0.274830
Si Si3 0.800150 0.324721 0.972628
Si Si4 0.647986 0.926881 0.921037
Si Si5 0.597951 0.195471 0.630325
Si Si6 0.417339 0.654137 0.371451
Si Si7 0.353312 0.792205 0.007194
O O1 0.524069 0.500000 0.281876
O O2 0.417087 0.614480 0.166342
O O3 0.604446 0.605506 0.408184
O O4 0.000000 0.585917 0.500000
O O5 0.506426 0.922669 0.239579
O O6 0.553520 0.860990 0.390065
O O7 0.518609 0.000000 0.365800
O O8 0.025273 0.920918 0.099259
O O9 0.571477 0.265713 0.892151
O O10 0.000000 0.295555 0.000000
O O11 0.039221 0.350429 0.159795
O O12 0.503826 0.865507 0.898615
O O13 0.560685 0.000000 0.914442
O O14 0.500000 0.168456 0.500000
O O15 0.454527 0.269250 0.577422
O O16 0.975699 0.202148 0.817895
O O17 0.500000 0.632242 0.500000
O O18 0.500000 0.769957 0.000000
#
# Coordination Sequence:
#
# PCOD8062854 Si02
#       7
#     4   4   4   4   4   4   4
#     4  10  22  39  58  83 111 138 172 216 263 315
#     4   8  14  25  45  70  95 132 179 219 252 300
#     4   9  20  35  57  80 106 144 180 219 256 316
#     4   8  15  26  44  69  98 132 174 218 258 303
#     4   9  18  31  49  72 106 134 174 217 259 306
#     4   9  19  35  56  81 110 145 178 219 262 309
#     4  10  20  31  51  77 104 133 172 219 264 308
#
# _framework density 19.234770000000001
#
# number of rings (size 3 to 8) (size 9 to 14) (size 15 to 20)
#    0.000    3.000    0.000    0.857    8.000    6.857 
#    0.000    0.000    0.000    2.143    0.000    2.000 
#    0.000    0.000    0.000    0.000    0.000    0.000 
#
# Total GULP energy -346893.643948 kJ/mol
# GULP energy per Si atom -12389.058712 kJ/mol
# Density = 1.919099 g / cm^3
# Si number density = 19.234770 Si / 1000 Ang^3
#
#
#
# Elastic Constant Matrix: (Units=GPa)
#
#
# Indices 1 2 3 4 5 6 
#
# 1 102.9021 82.5791 29.5472 0.0000 -15.9386 0.0000
# 2 82.5791 167.4734 38.7240 0.0000 -14.0580 0.0000
# 3 29.5472 38.7240 43.6109 0.0000 -25.0748 0.0000
# 4 0.0000 0.0000 0.0000 16.1277 0.0000 -6.1714
# 5 -15.9386 -14.0580 -25.0748 0.0000 29.0369 0.0000
# 6 0.0000 0.0000 0.0000 -6.1714 0.0000 21.5004
#
#
#
# Elastic Compliance Matrix: (Units=1/GPa)
#
#
# Indices 1 2 3 4 5 6 
#
# 1 0.017061 -0.007403 -0.003300 0.000000 0.002931 0.000000
# 2 -0.007403 0.010996 -0.007991 0.000000 -0.005641 0.000000
# 3 -0.003300 -0.007991 0.057590 0.000000 0.044051 0.000000
# 4 0.000000 0.000000 0.000000 0.069656 0.000000 0.019994
# 5 0.002931 -0.005641 0.044051 0.000000 0.071357 0.000000
# 6 0.000000 0.000000 0.000000 0.019994 0.000000 0.052250
#
#
# Mechanical properties :
#
#
# Convention : Reuss Voigt Hill
#
# Bulk Modulus (GPa) = 20.72248 68.40966 44.56607
# Shear Modulus (GPa) = 15.04287 24.20874 19.62581
#
# Velocity S-wave (km/s) = 2.79958 3.55151 3.19773
# Velocity P-wave (km/s) = 4.60945 7.24296 6.07073
#
# Compressibility (1/GPa) = 0.04825676
#
# Stress axis : x y z
#
# Youngs Moduli (GPa) = 58.61424 90.94365 17.36426
#
# Poissons Ratio (x) = 0.67329 0.05731
# Poissons Ratio (y) = 0.43394 0.13876
# Poissons Ratio (z) = 0.19344 0.72674
#
# Static dielectric constant tensor:
#      x y z
#    x 3.344080 0.000000 -0.273370 
#    y 0.000000 3.975830 0.000000 
#    z -0.273370 0.000000 3.270760 
# 
# 
# High freq. dielectric constant tensor:
#      x y z
#    x 1.730670 0.000000 -0.021030 
#    y 0.000000 1.758700 0.000000 
#    z -0.021030 0.000000 1.717580 
# 
# From -- ./inp_files/75518.got.cif
#   From: 2010.06.25/outbox.cif.g09.slc.cpg/sg10_38_cif.got.tgz:75518.got - 2010.06.27 22:07:45.
