data_PCOD8062742
_publ_section_title
;
Structure prediction by ZEFSAII (Michael W. Deem and Ramdas Pophale) SiO2 
 PCOD8062742
Probable space group: P 2/M
;
_chemical_formula_sum "Si O2"
_cell_formula_units_Z 24
_cell_length_a 12.495926
_cell_length_b 7.766195
_cell_length_c 12.091942
_cell_angle_alpha 90.000000
_cell_angle_beta 83.070253
_cell_angle_gamma 90.000000
_cell_volume 1164.899753
_symmetry_space_group_name_H-M "P 2/M"
_symmetry_group_IT_number 10
_symmetry_cell_setting 'monoclinic'
loop_
_space_group_symop_operation_xyz
x,y,z
-x,y,-z
-x,-y,-z
x,-y,z
loop_
_atom_site_type_symbol
_atom_site_label
_atom_site_fract_x
_atom_site_fract_y
_atom_site_fract_z
Si Si1 0.667751 0.296838 0.488190
Si Si2 0.324796 0.500000 0.047378
Si Si3 0.166018 0.199565 0.020667
Si Si4 0.952747 0.802688 0.183990
Si Si5 0.513005 0.500000 0.170718
Si Si6 0.495825 0.806374 0.671901
Si Si7 0.908320 0.304262 0.432596
O O1 0.662893 0.500000 0.462846
O O2 0.597148 0.194163 0.408426
O O3 0.612672 0.255946 0.612639
O O4 0.790054 0.222604 0.469478
O O5 0.258766 0.324218 0.049293
O O6 0.386329 0.500000 0.156438
O O7 0.412602 0.500000 0.943162
O O8 0.068906 0.231715 0.117435
O O9 0.202630 0.000000 0.020735
O O10 0.134124 0.250347 0.898773
O O11 0.938192 0.698719 0.299067
O O12 0.937441 0.000000 0.218052
O O13 0.541912 0.674683 0.230411
O O14 0.505484 0.000000 0.718392
O O15 0.899456 0.500000 0.472542
O O16 0.000000 0.215085 0.500000
#
# Coordination Sequence:
#
# PCOD8062742 Si02
#       7
#     4   2   4   4   2   4   4
#     4  10  19  38  63  91 129 159 207 260 290 358
#     4  11  26  41  66  85 119 164 197 258 322 362
#     4   9  21  41  64  94 120 155 209 254 301 362
#     4   9  20  38  60  90 127 156 199 257 294 354
#     4  11  26  45  56  93 123 150 209 258 314 366
#     4  11  22  40  67  91 120 163 208 255 307 361
#     4  10  23  37  56  92 131 166 201 243 303 370
#
# _framework density 20.602633000000001
#
# number of rings (size 3 to 8) (size 9 to 14) (size 15 to 20)
#    0.000    2.000    1.667    2.500    4.667    5.000 
#    0.000    3.333    0.000    0.000    0.000    0.000 
#    0.000    0.000    0.000    0.000    0.000    0.000 
#
# Total GULP energy -297529.851628 kJ/mol
# GULP energy per Si atom -12397.077151 kJ/mol
# Density = 2.055574 g / cm^3
# Si number density = 20.602633 Si / 1000 Ang^3
#
#
#
# Elastic Constant Matrix: (Units=GPa)
#
#
# Indices 1 2 3 4 5 6 
#
# 1 119.2183 28.3498 17.4706 0.0000 0.8982 0.0000
# 2 28.3498 99.8733 8.6723 0.0000 0.9582 0.0000
# 3 17.4706 8.6723 46.4517 0.0000 -5.8964 0.0000
# 4 0.0000 0.0000 0.0000 63.0713 0.0000 53.2693
# 5 0.8982 0.9582 -5.8964 0.0000 19.6155 0.0000
# 6 0.0000 0.0000 0.0000 53.2693 0.0000 56.1899
#
#
#
# Elastic Compliance Matrix: (Units=1/GPa)
#
#
# Indices 1 2 3 4 5 6 
#
# 1 0.009444 -0.002384 -0.003272 0.000000 -0.001299 0.000000
# 2 -0.002384 0.010803 -0.001220 0.000000 -0.000785 0.000000
# 3 -0.003272 -0.001220 0.023925 0.000000 0.007401 0.000000
# 4 0.000000 0.000000 0.000000 0.079550 0.000000 -0.075415
# 5 -0.001299 -0.000785 0.007401 0.000000 0.053303 0.000000
# 6 0.000000 0.000000 0.000000 -0.075415 0.000000 0.089292
#
#
# Mechanical properties :
#
#
# Convention : Reuss Voigt Hill
#
# Bulk Modulus (GPa) = 32.87213 41.61430 37.24322
# Shear Modulus (GPa) = 17.22897 41.84538 29.53717
#
# Velocity S-wave (km/s) = 2.89494 4.51163 3.79048
# Velocity P-wave (km/s) = 5.21193 6.88347 6.10517
#
# Compressibility (1/GPa) = 0.03042090
#
# Stress axis : x y z
#
# Youngs Moduli (GPa) = 105.88514 92.56754 41.79643
#
# Poissons Ratio (x) = 0.22070 0.13675
# Poissons Ratio (y) = 0.25246 0.05098
# Poissons Ratio (z) = 0.34644 0.11291
#
# Static dielectric constant tensor:
#      x y z
#    x 3.999520 0.000000 0.061320 
#    y 0.000000 3.603700 0.000000 
#    z 0.061320 0.000000 3.682070 
# 
# 
# High freq. dielectric constant tensor:
#      x y z
#    x 1.806620 0.000000 -0.005410 
#    y 0.000000 1.804270 0.000000 
#    z -0.005410 0.000000 1.797070 
# 
# From -- ./inp_files/45218.got.cif
#   From: 2010.06.25/outbox.cif.g09.slc.cpg/sg10_23_cif.got.tgz:45218.got - 2010.06.27 22:07:45.
