data_PCOD8062683
_publ_section_title
;
Structure prediction by ZEFSAII (Michael W. Deem and Ramdas Pophale) SiO2 
 PCOD8062683
Probable space group: P 2/M
;
_chemical_formula_sum "Si O2"
_cell_formula_units_Z 28
_cell_length_a 9.220354
_cell_length_b 8.857572
_cell_length_c 27.106379
_cell_angle_alpha 90.000000
_cell_angle_beta 141.475361
_cell_angle_gamma 90.000000
_cell_volume 1378.853248
_symmetry_space_group_name_H-M "P 2/M"
_symmetry_group_IT_number 10
_symmetry_cell_setting 'monoclinic'
loop_
_space_group_symop_operation_xyz
x,y,z
-x,y,-z
-x,-y,-z
x,-y,z
loop_
_atom_site_type_symbol
_atom_site_label
_atom_site_fract_x
_atom_site_fract_y
_atom_site_fract_z
Si Si1 0.269599 0.667370 0.062157
Si Si2 0.522198 0.679255 0.226397
Si Si3 0.152143 0.321919 0.206168
Si Si4 0.252992 0.831167 0.958915
Si Si5 0.048405 0.676976 0.367942
Si Si6 0.700628 0.821683 0.657213
Si Si7 0.211123 0.323910 0.521006
O O1 0.371057 0.500000 0.076696
O O2 0.397700 0.738225 0.143818
O O3 0.308547 0.783604 0.029103
O O4 0.000000 0.650313 0.000000
O O5 0.518892 0.500000 0.226129
O O6 0.378674 0.735375 0.236013
O O7 0.785222 0.740929 0.297738
O O8 0.158575 0.500000 0.216971
O O9 0.141678 0.239148 0.255994
O O10 0.921994 0.283478 0.114055
O O11 0.146840 0.000000 0.929502
O O12 0.500000 0.825428 0.000000
O O13 0.052992 0.500000 0.357257
O O14 0.203417 0.760198 0.368860
O O15 0.154101 0.711908 0.449326
O O16 0.437511 0.768892 0.596514
O O17 0.713034 0.000000 0.659357
O O18 0.264098 0.500000 0.543508
O O19 0.000000 0.272057 0.500000
#
# Coordination Sequence:
#
# PCOD8062683 Si02
#       7
#     4   4   4   4   4   4   4
#     4  10  19  37  62  90 118 154 207 257 302 356
#     4   9  19  37  63  92 118 148 201 263 306 351
#     4  11  22  42  67  89 116 157 209 258 305 358
#     4  11  25  41  57  86 128 164 200 249 309 368
#     4  10  21  39  64  93 122 159 203 249 301 357
#     4  12  26  41  59  90 131 165 199 245 304 365
#     4  10  21  41  69  96 122 157 207 256 298 352
#
# _framework density 20.306730000000002
#
# number of rings (size 3 to 8) (size 9 to 14) (size 15 to 20)
#    0.000    1.571    1.429    3.429    2.000    6.286 
#    0.000    2.857    0.000    0.000    0.000    0.000 
#    0.000    0.000    0.000    0.000    0.000    0.000 
#
# Total GULP energy -347287.638233 kJ/mol
# GULP energy per Si atom -12403.129937 kJ/mol
# Density = 2.026051 g / cm^3
# Si number density = 20.306730 Si / 1000 Ang^3
#
#
#
# Elastic Constant Matrix: (Units=GPa)
#
#
# Indices 1 2 3 4 5 6 
#
# 1 117.8106 54.0568 21.8457 0.0000 -17.3486 0.0000
# 2 54.0568 76.7857 31.6479 0.0000 -5.3474 0.0000
# 3 21.8457 31.6479 75.6015 0.0000 -11.8170 0.0000
# 4 0.0000 0.0000 0.0000 26.2013 0.0000 2.4756
# 5 -17.3486 -5.3474 -11.8170 0.0000 34.3714 0.0000
# 6 0.0000 0.0000 0.0000 2.4756 0.0000 9.1192
#
#
#
# Elastic Compliance Matrix: (Units=1/GPa)
#
#
# Indices 1 2 3 4 5 6 
#
# 1 0.013509 -0.009514 0.000965 0.000000 0.005671 0.000000
# 2 -0.009514 0.022440 -0.007238 0.000000 -0.003799 0.000000
# 3 0.000965 -0.007238 0.016780 0.000000 0.005130 0.000000
# 4 0.000000 0.000000 0.000000 0.039171 0.000000 -0.010634
# 5 0.005671 -0.003799 0.005130 0.000000 0.033129 0.000000
# 6 0.000000 0.000000 0.000000 -0.010634 0.000000 0.112545
#
#
# Mechanical properties :
#
#
# Convention : Reuss Voigt Hill
#
# Bulk Modulus (GPa) = 47.26821 53.92207 50.59514
# Shear Modulus (GPa) = 18.10286 24.78155 21.44221
#
# Velocity S-wave (km/s) = 2.98899 3.49716 3.25301
# Velocity P-wave (km/s) = 5.93631 6.55120 6.25132
#
# Compressibility (1/GPa) = 0.02115587
#
# Stress axis : x y z
#
# Youngs Moduli (GPa) = 74.02204 44.56422 59.59352
#
# Poissons Ratio (x) = 0.42396 -0.05752
# Poissons Ratio (y) = 0.70421 0.43136
# Poissons Ratio (z) = -0.07144 0.32257
#
# Static dielectric constant tensor:
#      x y z
#    x 3.793180 0.000000 -0.004190 
#    y 0.000000 3.575350 0.000000 
#    z -0.004190 0.000000 3.788690 
# 
# 
# High freq. dielectric constant tensor:
#      x y z
#    x 1.804490 0.000000 -0.005100 
#    y 0.000000 1.770100 0.000000 
#    z -0.005100 0.000000 1.806800 
# 
# From -- ./inp_files/36692.got.cif
#   From: 2010.06.25/outbox.cif.g09.slc.cpg/sg10_19_cif.got.tgz:36692.got - 2010.06.27 22:07:45.
