data_PCOD8062278
_publ_section_title
;
Structure prediction by ZEFSAII (Michael W. Deem and Ramdas Pophale) SiO2 
 PCOD8062278
Probable space group: P 2/M
;
_chemical_formula_sum "Si O2"
_cell_formula_units_Z 28
_cell_length_a 26.213759
_cell_length_b 8.982334
_cell_length_c 10.005627
_cell_angle_alpha 90.000000
_cell_angle_beta 38.934053
_cell_angle_gamma 90.000000
_cell_volume 1480.527915
_symmetry_space_group_name_H-M "P 2/M"
_symmetry_group_IT_number 10
_symmetry_cell_setting 'monoclinic'
loop_
_space_group_symop_operation_xyz
x,y,z
-x,y,-z
-x,-y,-z
x,-y,z
loop_
_atom_site_type_symbol
_atom_site_label
_atom_site_fract_x
_atom_site_fract_y
_atom_site_fract_z
Si Si1 0.342866 0.173681 0.093277
Si Si2 0.067661 0.323201 0.761820
Si Si3 0.239572 0.174763 0.051082
Si Si4 0.239509 0.323534 0.522052
Si Si5 0.689277 0.175921 0.376776
Si Si6 0.516281 0.174128 0.820443
Si Si7 0.928896 0.676531 0.547002
O O1 0.297262 0.228571 0.053888
O O2 0.312388 0.264974 0.282550
O O3 0.327211 0.000000 0.153290
O O4 0.439116 0.206093 0.881805
O O5 0.064137 0.500000 0.772822
O O6 0.155096 0.265877 0.631855
O O7 0.052159 0.266603 0.642112
O O8 0.000000 0.256207 0.000000
O O9 0.154626 0.257769 0.229697
O O10 0.223010 0.000000 0.092386
O O11 0.285811 0.221001 0.822821
O O12 0.242302 0.500000 0.524726
O O13 0.247914 0.256019 0.652275
O O14 0.598189 0.239238 0.587494
O O15 0.695078 0.000000 0.387432
O O16 0.530461 0.000000 0.809866
O O17 0.500000 0.245235 0.000000
O O18 0.920985 0.500000 0.565890
O O19 0.000000 0.732645 0.500000
#
# Coordination Sequence:
#
# PCOD8062278 Si02
#       7
#     4   4   4   4   4   4   4
#     4  10  19  35  58  80 108 147 184 222 271 327
#     4   9  19  35  54  80 108 135 178 227 265 313
#     4  10  22  37  56  82 114 147 179 226 279 325
#     4  11  21  34  57  84 109 143 182 227 274 321
#     4  10  21  37  55  80 113 146 184 227 271 322
#     4   9  16  30  55  81 105 142 187 226 265 317
#     4  10  21  37  59  81 107 146 184 221 267 325
#
# _framework density 18.912172999999999
#
# number of rings (size 3 to 8) (size 9 to 14) (size 15 to 20)
#    0.000    2.143    2.857    0.429    2.000    1.429 
#    0.000    4.286    0.000    2.143    0.000    3.000 
#    0.000    0.000    0.000    0.000    0.000    0.000 
#
# Total GULP energy -347211.692491 kJ/mol
# GULP energy per Si atom -12400.417589 kJ/mol
# Density = 1.886913 g / cm^3
# Si number density = 18.912173 Si / 1000 Ang^3
#
#
#
# Elastic Constant Matrix: (Units=GPa)
#
#
# Indices 1 2 3 4 5 6 
#
# 1 141.0827 25.6774 58.3862 0.0000 -6.0065 0.0000
# 2 25.6774 25.4843 23.2983 0.0000 2.8954 0.0000
# 3 58.3862 23.2983 134.7237 0.0000 -3.7099 0.0000
# 4 0.0000 0.0000 0.0000 16.3158 0.0000 3.0502
# 5 -6.0065 2.8954 -3.7099 0.0000 31.3740 0.0000
# 6 0.0000 0.0000 0.0000 3.0502 0.0000 21.3833
#
#
#
# Elastic Compliance Matrix: (Units=1/GPa)
#
#
# Indices 1 2 3 4 5 6 
#
# 1 0.009720 -0.007422 -0.002868 0.000000 0.002207 0.000000
# 2 -0.007422 0.053162 -0.006171 0.000000 -0.007057 0.000000
# 3 -0.002868 -0.006171 0.009765 0.000000 0.001175 0.000000
# 4 0.000000 0.000000 0.000000 0.062970 0.000000 -0.008982
# 5 0.002207 -0.007057 0.001175 0.000000 0.033086 0.000000
# 6 0.000000 0.000000 0.000000 -0.008982 0.000000 0.048047
#
#
# Mechanical properties :
#
#
# Convention : Reuss Voigt Hill
#
# Bulk Modulus (GPa) = 25.17375 57.33495 41.25435
# Shear Modulus (GPa) = 19.01769 26.74321 22.88045
#
# Velocity S-wave (km/s) = 3.17453 3.76450 3.48203
# Velocity P-wave (km/s) = 5.17461 7.01979 6.16661
#
# Compressibility (1/GPa) = 0.03972393
#
# Stress axis : x y z
#
# Youngs Moduli (GPa) = 102.88337 18.81051 102.40539
#
# Poissons Ratio (x) = 0.13961 0.29370
# Poissons Ratio (y) = 0.76361 0.63197
# Poissons Ratio (z) = 0.29507 0.11608
#
# Static dielectric constant tensor:
#      x y z
#    x 3.694910 0.000000 0.001390 
#    y 0.000000 3.096210 0.000000 
#    z 0.001390 0.000000 3.618290 
# 
# 
# High freq. dielectric constant tensor:
#      x y z
#    x 1.750960 0.000000 -0.002480 
#    y 0.000000 1.695440 0.000000 
#    z -0.002480 0.000000 1.739780 
# 
# From -- ./inp_files/36931.got.cif
#   From: 2010.06.25/outbox.cif.g09.slc.cpg/sg10_19_cif.got.tgz:36931.got - 2010.06.27 22:07:45.
