data_PCOD8062269
_publ_section_title
;
Structure prediction by ZEFSAII (Michael W. Deem and Ramdas Pophale) SiO2 
 PCOD8062269
Probable space group: P 2/M
;
_chemical_formula_sum "Si O2"
_cell_formula_units_Z 28
_cell_length_a 14.672197
_cell_length_b 8.978210
_cell_length_c 21.218970
_cell_angle_alpha 90.000000
_cell_angle_beta 151.024394
_cell_angle_gamma 90.000000
_cell_volume 1354.087393
_symmetry_space_group_name_H-M "P 2/M"
_symmetry_group_IT_number 10
_symmetry_cell_setting 'monoclinic'
loop_
_space_group_symop_operation_xyz
x,y,z
-x,y,-z
-x,-y,-z
x,-y,z
loop_
_atom_site_type_symbol
_atom_site_label
_atom_site_fract_x
_atom_site_fract_y
_atom_site_fract_z
Si Si1 0.120978 0.176162 0.273135
Si Si2 0.811980 0.324259 0.564558
Si Si3 0.257414 0.824075 0.018717
Si Si4 0.563910 0.822661 0.107991
Si Si5 0.394485 0.672746 0.350368
Si Si6 0.967418 0.176018 0.407409
Si Si7 0.220432 0.835196 0.134997
O O1 0.064558 0.246230 0.306409
O O2 0.318085 0.241470 0.365899
O O3 0.952624 0.228094 0.125743
O O4 0.138993 0.000000 0.290231
O O5 0.843348 0.500000 0.582725
O O6 0.600929 0.277106 0.454653
O O7 0.865937 0.256561 0.529781
O O8 0.264723 0.000000 0.016534
O O9 0.413583 0.755338 0.066656
O O10 0.301024 0.777225 0.116795
O O11 0.769012 0.768711 0.256881
O O12 0.561318 0.000000 0.105874
O O13 0.500000 0.763293 0.000000
O O14 0.383630 0.500000 0.360434
O O15 0.265245 0.711214 0.213049
O O16 0.000000 0.222369 0.500000
O O17 0.988235 0.000000 0.412503
O O18 0.305091 0.000000 0.202866
O O19 0.000000 0.854337 0.000000
#
# Coordination Sequence:
#
# PCOD8062269 Si02
#       7
#     4   4   4   4   4   4   4
#     4  11  21  38  63  91 118 150 196 246 295 349
#     4  11  25  42  59  82 119 163 199 238 298 359
#     4   9  18  32  56  87 117 148 184 238 301 352
#     4   9  17  32  56  86 118 149 185 241 308 357
#     4  11  24  39  56  83 121 161 200 238 290 359
#     4  10  22  39  62  92 117 148 204 260 299 350
#     4  10  19  35  57  84 116 151 196 244 291 345
#
# _framework density 20.678132999999999
#
# number of rings (size 3 to 8) (size 9 to 14) (size 15 to 20)
#    0.000    1.857    1.429    2.571    2.000    6.857 
#    0.000    0.000    0.000    4.714    0.000    0.000 
#    0.000    0.000    0.000    0.000    0.000    0.000 
#
# Total GULP energy -347114.670715 kJ/mol
# GULP energy per Si atom -12396.952526 kJ/mol
# Density = 2.063107 g / cm^3
# Si number density = 20.678133 Si / 1000 Ang^3
#
#
#
# Elastic Constant Matrix: (Units=GPa)
#
#
# Indices 1 2 3 4 5 6 
#
# 1 169.7096 40.6676 41.7058 0.0000 -9.2571 0.0000
# 2 40.6676 49.5932 24.3661 0.0000 0.3689 0.0000
# 3 41.7058 24.3661 83.8535 0.0000 -8.4001 0.0000
# 4 0.0000 0.0000 0.0000 14.0629 0.0000 -1.6852
# 5 -9.2571 0.3689 -8.4001 0.0000 36.1582 0.0000
# 6 0.0000 0.0000 0.0000 -1.6852 0.0000 22.7981
#
#
#
# Elastic Compliance Matrix: (Units=1/GPa)
#
#
# Indices 1 2 3 4 5 6 
#
# 1 0.007787 -0.005331 -0.002169 0.000000 0.001544 0.000000
# 2 -0.005331 0.027297 -0.005575 0.000000 -0.002938 0.000000
# 3 -0.002169 -0.005575 0.014922 0.000000 0.002968 0.000000
# 4 0.000000 0.000000 0.000000 0.071745 0.000000 0.005303
# 5 0.001544 -0.002938 0.002968 0.000000 0.028771 0.000000
# 6 0.000000 0.000000 0.000000 0.005303 0.000000 0.044255
#
#
# Mechanical properties :
#
#
# Convention : Reuss Voigt Hill
#
# Bulk Modulus (GPa) = 41.91961 57.40392 49.66177
# Shear Modulus (GPa) = 21.84561 27.69829 24.77195
#
# Velocity S-wave (km/s) = 3.25385 3.66388 3.46494
# Velocity P-wave (km/s) = 5.86798 6.76163 6.33059
#
# Compressibility (1/GPa) = 0.02385518
#
# Stress axis : x y z
#
# Youngs Moduli (GPa) = 128.41395 36.63439 67.01682
#
# Poissons Ratio (x) = 0.19532 0.14538
# Poissons Ratio (y) = 0.68464 0.37359
# Poissons Ratio (z) = 0.27856 0.20422
#
# Static dielectric constant tensor:
#      x y z
#    x 4.214840 0.000000 -0.139270 
#    y 0.000000 3.308650 0.000000 
#    z -0.139270 0.000000 3.903350 
# 
# 
# High freq. dielectric constant tensor:
#      x y z
#    x 1.829470 0.000000 -0.006470 
#    y 0.000000 1.767380 0.000000 
#    z -0.006470 0.000000 1.811190 
# 
# From -- ./inp_files/49620.got.cif
#   From: 2010.06.25/outbox.cif.g09.slc.cpg/sg10_25_cif.got.tgz:49620.got - 2010.06.27 22:07:45.
