data_PCOD8062377
_publ_section_title
;
Structure prediction by ZEFSAII (Michael W. Deem and Ramdas Pophale) SiO2 
 PCOD8062377
Probable space group: P 2/M
;
_chemical_formula_sum "Si O2"
_cell_formula_units_Z 28
_cell_length_a 11.142800
_cell_length_b 8.873157
_cell_length_c 14.899644
_cell_angle_alpha 90.000000
_cell_angle_beta 113.158104
_cell_angle_gamma 90.000000
_cell_volume 1354.452656
_symmetry_space_group_name_H-M "P 2/M"
_symmetry_group_IT_number 10
_symmetry_cell_setting 'monoclinic'
loop_
_space_group_symop_operation_xyz
x,y,z
-x,y,-z
-x,-y,-z
x,-y,z
loop_
_atom_site_type_symbol
_atom_site_label
_atom_site_fract_x
_atom_site_fract_y
_atom_site_fract_z
Si Si1 0.349220 0.321219 0.940537
Si Si2 0.071524 0.325399 0.336221
Si Si3 0.150266 0.320337 0.038867
Si Si4 0.534260 0.679528 0.414003
Si Si5 0.179518 0.823759 0.746460
Si Si6 0.813992 0.323385 0.440475
Si Si7 0.279328 0.677127 0.254439
O O1 0.348436 0.500000 0.935523
O O2 0.301349 0.256519 0.830771
O O3 0.500000 0.266073 0.000000
O O4 0.243167 0.263420 0.983839
O O5 0.036498 0.500000 0.310905
O O6 0.086498 0.293431 0.447744
O O7 0.204094 0.282411 0.324133
O O8 0.959383 0.228139 0.252996
O O9 0.148264 0.500000 0.035825
O O10 0.216443 0.250517 0.147497
O O11 0.000000 0.260836 0.000000
O O12 0.500000 0.749894 0.500000
O O13 0.535076 0.500000 0.421130
O O14 0.673541 0.739826 0.426656
O O15 0.427376 0.734925 0.309846
O O16 0.153987 0.771374 0.637470
O O17 0.201392 0.000000 0.760301
O O18 0.812703 0.500000 0.415780
O O19 0.277861 0.500000 0.238913
#
# Coordination Sequence:
#
# PCOD8062377 Si02
#       7
#     4   4   4   4   4   4   4
#     4  10  22  40  63  90 114 144 193 249 296 342
#     4  10  19  35  59  88 117 147 187 236 287 338
#     4   9  17  30  52  85 118 144 176 228 293 348
#     4   9  15  27  49  84 119 143 175 227 290 344
#     4  12  26  40  56  78 113 160 199 234 284 341
#     4  10  20  34  58  88 117 149 190 239 285 337
#     4   9  16  27  52  86 117 144 174 226 292 348
#
# _framework density 20.672557999999999
#
# number of rings (size 3 to 8) (size 9 to 14) (size 15 to 20)
#    0.000    2.143    1.429    2.571    2.000    4.857 
#    0.000    0.000    0.000    5.143    0.000    0.000 
#    0.000    0.000    0.000    0.000    0.000    0.000 
#
# Total GULP energy -346943.178337 kJ/mol
# GULP energy per Si atom -12390.827798 kJ/mol
# Density = 2.062551 g / cm^3
# Si number density = 20.672558 Si / 1000 Ang^3
#
#
#
# Elastic Constant Matrix: (Units=GPa)
#
#
# Indices 1 2 3 4 5 6 
#
# 1 105.8863 22.3345 38.9901 0.0000 22.2411 0.0000
# 2 22.3345 30.3354 23.1591 0.0000 6.0119 0.0000
# 3 38.9901 23.1591 117.2278 0.0000 18.8505 0.0000
# 4 0.0000 0.0000 0.0000 1.5585 0.0000 10.5992
# 5 22.2411 6.0119 18.8505 0.0000 42.7842 0.0000
# 6 0.0000 0.0000 0.0000 10.5992 0.0000 -1.8372
#
#
#
# Elastic Compliance Matrix: (Units=1/GPa)
#
#
# Indices 1 2 3 4 5 6 
#
# 1 0.012632 -0.006759 -0.002113 0.000000 -0.004686 0.000000
# 2 -0.006759 0.042635 -0.006217 0.000000 0.000262 0.000000
# 3 -0.002113 -0.006217 0.010918 0.000000 -0.002838 0.000000
# 4 0.000000 0.000000 0.000000 0.015947 0.000000 0.092002
# 5 -0.004686 0.000262 -0.002838 0.000000 0.027023 0.000000
# 6 0.000000 0.000000 0.000000 0.092002 0.000000 -0.013528
#
#
# Mechanical properties :
#
#
# Convention : Reuss Voigt Hill
#
# Bulk Modulus (GPa) = 27.77143 46.93519 37.35331
# Shear Modulus (GPa) = 36.28287 19.76550 28.02418
#
# Velocity S-wave (km/s) = 4.19396 3.09548 3.68587
# Velocity P-wave (km/s) = 6.07582 5.96065 6.01851
#
# Compressibility (1/GPa) = 0.03600823
#
# Stress axis : x y z
#
# Youngs Moduli (GPa) = 79.16451 23.45477 91.59440
#
# Poissons Ratio (x) = 0.15852 0.19351
# Poissons Ratio (y) = 0.53505 0.56944
# Poissons Ratio (z) = 0.16725 0.14582
#
# Static dielectric constant tensor:
#      x y z
#    x 4.240060 0.000000 0.160310 
#    y 0.000000 3.025220 0.000000 
#    z 0.160310 0.000000 3.935450 
# 
# 
# High freq. dielectric constant tensor:
#      x y z
#    x 1.828780 0.000000 0.011180 
#    y 0.000000 1.727370 0.000000 
#    z 0.011180 0.000000 1.822730 
# 
# From -- ./inp_files/63921.got.cif
#   From: 2010.06.25/outbox.cif.g09.slc.cpg/sg10_32_cif.got.tgz:63921.got - 2010.06.27 22:07:45.
