data_PCOD8062252
_publ_section_title
;
Structure prediction by ZEFSAII (Michael W. Deem and Ramdas Pophale) SiO2 
 PCOD8062252
Probable space group: P 2/M
;
_chemical_formula_sum "Si O2"
_cell_formula_units_Z 28
_cell_length_a 11.040460
_cell_length_b 9.181359
_cell_length_c 26.711761
_cell_angle_alpha 90.000000
_cell_angle_beta 31.266415
_cell_angle_gamma 90.000000
_cell_volume 1405.332909
_symmetry_space_group_name_H-M "P 2/M"
_symmetry_group_IT_number 10
_symmetry_cell_setting 'monoclinic'
loop_
_space_group_symop_operation_xyz
x,y,z
-x,y,-z
-x,-y,-z
x,-y,z
loop_
_atom_site_type_symbol
_atom_site_label
_atom_site_fract_x
_atom_site_fract_y
_atom_site_fract_z
Si Si1 0.782180 0.337501 0.938873
Si Si2 0.427789 0.172329 0.234432
Si Si3 0.934878 0.332350 0.251530
Si Si4 0.486574 0.173012 0.446705
Si Si5 0.133430 0.336149 0.904905
Si Si6 0.384147 0.332866 0.148007
Si Si7 0.030307 0.827186 0.546353
O O1 0.740267 0.500000 0.932950
O O2 0.915526 0.257270 0.846368
O O3 0.953395 0.333445 0.924421
O O4 0.530022 0.276840 0.047005
O O5 0.647177 0.235317 0.187457
O O6 0.449476 0.231635 0.170827
O O7 0.192491 0.228070 0.343893
O O8 0.438102 0.000000 0.229991
O O9 0.860574 0.500000 0.266942
O O10 0.706796 0.237590 0.340183
O O11 0.106249 0.323232 0.238700
O O12 0.500000 0.226794 0.500000
O O13 0.258325 0.229108 0.496580
O O14 0.500356 0.000000 0.440264
O O15 0.223199 0.500000 0.884090
O O16 0.000000 0.271198 0.000000
O O17 0.461945 0.500000 0.131352
O O18 0.000000 0.766237 0.500000
O O19 0.041105 0.000000 0.540191
#
# Coordination Sequence:
#
# PCOD8062252 Si02
#       7
#     4   4   4   4   4   4   4
#     4   9  18  34  55  80 112 148 184 218 265 334
#     4  11  22  35  57  84 110 140 187 238 274 317
#     4  10  21  35  58  87 111 140 184 236 277 320
#     4  10  21  39  61  81 108 149 192 231 282 344
#     4  10  19  35  57  80 112 152 185 215 266 338
#     4  10  19  36  58  80 111 152 186 215 270 342
#     4   9  20  38  57  78 108 148 188 228 280 341
#
# _framework density 19.924104
#
# number of rings (size 3 to 8) (size 9 to 14) (size 15 to 20)
#    0.000    2.143    1.429    1.714    2.000    4.000 
#    0.000    2.143    0.000    3.857    0.000    0.000 
#    0.000    0.000    0.000    0.000    0.000    0.000 
#
# Total GULP energy -347012.724216 kJ/mol
# GULP energy per Si atom -12393.311579 kJ/mol
# Density = 1.987876 g / cm^3
# Si number density = 19.924104 Si / 1000 Ang^3
#
#
#
# Elastic Constant Matrix: (Units=GPa)
#
#
# Indices 1 2 3 4 5 6 
#
# 1 84.9984 14.6490 41.9403 0.0000 -10.5538 0.0000
# 2 14.6490 35.5399 32.2361 0.0000 -6.5935 0.0000
# 3 41.9403 32.2361 149.3566 0.0000 -14.7084 0.0000
# 4 0.0000 0.0000 0.0000 31.9050 0.0000 -2.5954
# 5 -10.5538 -6.5935 -14.7084 0.0000 38.8012 0.0000
# 6 0.0000 0.0000 0.0000 -2.5954 0.0000 12.7883
#
#
#
# Elastic Compliance Matrix: (Units=1/GPa)
#
#
# Indices 1 2 3 4 5 6 
#
# 1 0.014039 -0.002488 -0.003190 0.000000 0.002187 0.000000
# 2 -0.002488 0.035815 -0.006751 0.000000 0.002850 0.000000
# 3 -0.003190 -0.006751 0.009193 0.000000 0.001470 0.000000
# 4 0.000000 0.000000 0.000000 0.031869 0.000000 0.006468
# 5 0.002187 0.002850 0.001470 0.000000 0.027409 0.000000
# 6 0.000000 0.000000 0.000000 0.006468 0.000000 0.079509
#
#
# Mechanical properties :
#
#
# Convention : Reuss Voigt Hill
#
# Bulk Modulus (GPa) = 29.24820 49.72730 39.48775
# Shear Modulus (GPa) = 21.35952 28.77021 25.06487
#
# Velocity S-wave (km/s) = 3.27776 3.80411 3.55070
# Velocity P-wave (km/s) = 5.38856 6.65639 6.05575
#
# Compressibility (1/GPa) = 0.03419014
#
# Stress axis : x y z
#
# Youngs Moduli (GPa) = 71.22911 27.92144 108.77872
#
# Poissons Ratio (x) = 0.06946 0.34701
# Poissons Ratio (y) = 0.17719 0.73434
# Poissons Ratio (z) = 0.22723 0.18849
#
# Static dielectric constant tensor:
#      x y z
#    x 3.911800 0.000000 -0.021300 
#    y 0.000000 3.239710 0.000000 
#    z -0.021300 0.000000 3.846880 
# 
# 
# High freq. dielectric constant tensor:
#      x y z
#    x 1.793670 0.000000 -0.006340 
#    y 0.000000 1.725900 0.000000 
#    z -0.006340 0.000000 1.790430 
# 
# From -- ./inp_files/92640.got.cif
#   From: 2010.06.25/outbox.cif.g09.slc.cpg/sg10_47_cif.got.tgz:92640.got - 2010.06.27 22:07:45.
