data_PCOD8062369
_publ_section_title
;
Structure prediction by ZEFSAII (Michael W. Deem and Ramdas Pophale) SiO2 
 PCOD8062369
Probable space group: P 2/M
;
_chemical_formula_sum "Si O2"
_cell_formula_units_Z 32
_cell_length_a 18.712567
_cell_length_b 10.315870
_cell_length_c 15.362804
_cell_angle_alpha 90.000000
_cell_angle_beta 32.286184
_cell_angle_gamma 90.000000
_cell_volume 1584.060416
_symmetry_space_group_name_H-M "P 2/M"
_symmetry_group_IT_number 10
_symmetry_cell_setting 'monoclinic'
loop_
_space_group_symop_operation_xyz
x,y,z
-x,y,-z
-x,-y,-z
x,-y,z
loop_
_atom_site_type_symbol
_atom_site_label
_atom_site_fract_x
_atom_site_fract_y
_atom_site_fract_z
Si Si1 0.071702 0.138611 0.834645
Si Si2 0.132543 0.147076 0.309684
Si Si3 0.235185 0.353580 0.464680
Si Si4 0.043251 0.778285 0.217554
Si Si5 0.264927 0.650252 0.890368
Si Si6 0.756354 0.354181 0.280576
Si Si7 0.656137 0.647835 0.839905
Si Si8 0.450471 0.646636 0.371479
O O1 0.165214 0.264398 0.730828
O O2 0.973155 0.135261 0.852525
O O3 0.149396 0.000000 0.753555
O O4 0.000000 0.152521 0.000000
O O5 0.100577 0.142186 0.239718
O O6 0.253941 0.249013 0.198936
O O7 0.000000 0.190469 0.500000
O O8 0.174339 0.000000 0.294338
O O9 0.207466 0.500000 0.525244
O O10 0.291871 0.349161 0.310561
O O11 0.345901 0.285139 0.413040
O O12 0.096864 0.278679 0.608290
O O13 0.150119 0.668325 0.079872
O O14 0.293880 0.500000 0.844479
O O15 0.229647 0.705904 0.830598
O O16 0.404087 0.715688 0.779940
O O17 0.816356 0.500000 0.223527
O O18 0.604299 0.352211 0.472577
O O19 0.671556 0.500000 0.861995
O O20 0.500000 0.689333 0.000000
O O21 0.467096 0.500000 0.319785
#
# Coordination Sequence:
#
# PCOD8062369 Si02
#       8
#     4   4   4   4   4   4   4   4
#     4  11  23  39  58  84 120 163 202 247 302 355
#     4  11  25  45  66  91 125 166 207 254 308 365
#     4  10  20  35  58  91 124 156 195 246 306 360
#     4  12  22  38  61  89 118 161 203 255 292 365
#     4  10  21  33  55  91 125 158 199 249 307 358
#     4  10  19  35  59  86 116 157 205 250 294 354
#     4  10  23  43  68  96 126 160 201 251 308 372
#     4   9  18  33  55  85 124 160 196 245 298 353
#
# _framework density 20.201250000000002
#
# number of rings (size 3 to 8) (size 9 to 14) (size 15 to 20)
#    0.000    1.625    3.750    1.125    1.750    3.750 
#    0.000    0.000    0.000    3.000    0.000    0.000 
#    0.000    0.000    0.000    0.000    0.000    0.000 
#
# Total GULP energy -396491.076364 kJ/mol
# GULP energy per Si atom -12390.346136 kJ/mol
# Density = 2.015527 g / cm^3
# Si number density = 20.201250 Si / 1000 Ang^3
#
#
#
# Elastic Constant Matrix: (Units=GPa)
#
#
# Indices 1 2 3 4 5 6 
#
# 1 113.5163 42.8174 44.2910 0.0000 -5.3176 0.0000
# 2 42.8174 90.8082 35.2338 0.0000 -19.7164 0.0000
# 3 44.2910 35.2338 106.0566 0.0000 -11.4164 0.0000
# 4 0.0000 0.0000 0.0000 5.9059 0.0000 -1.4510
# 5 -5.3176 -19.7164 -11.4164 0.0000 33.6084 0.0000
# 6 0.0000 0.0000 0.0000 -1.4510 0.0000 10.6861
#
#
#
# Elastic Compliance Matrix: (Units=1/GPa)
#
#
# Indices 1 2 3 4 5 6 
#
# 1 0.011885 -0.004641 -0.003645 0.000000 -0.002081 0.000000
# 2 -0.004641 0.015843 -0.002495 0.000000 0.007713 0.000000
# 3 -0.003645 -0.002495 0.011999 0.000000 0.002036 0.000000
# 4 0.000000 0.000000 0.000000 0.175167 0.000000 0.023785
# 5 -0.002081 0.007713 0.002036 0.000000 0.034641 0.000000
# 6 0.000000 0.000000 0.000000 0.023785 0.000000 0.096809
#
#
# Mechanical properties :
#
#
# Convention : Reuss Voigt Hill
#
# Bulk Modulus (GPa) = 55.05306 61.67397 58.36351
# Shear Modulus (GPa) = 13.37035 22.57601 17.97318
#
# Velocity S-wave (km/s) = 2.57545 3.34661 2.98603
# Velocity P-wave (km/s) = 6.01294 6.74753 6.39080
#
# Compressibility (1/GPa) = 0.01816430
#
# Stress axis : x y z
#
# Youngs Moduli (GPa) = 84.14119 63.11849 83.33834
#
# Poissons Ratio (x) = 0.29294 0.30380
# Poissons Ratio (y) = 0.39051 0.20792
# Poissons Ratio (z) = 0.30673 0.15748
#
# Static dielectric constant tensor:
#      x y z
#    x 3.853190 0.000000 -0.017170 
#    y 0.000000 3.544270 0.000000 
#    z -0.017170 0.000000 3.662010 
# 
# 
# High freq. dielectric constant tensor:
#      x y z
#    x 1.796840 0.000000 0.009050 
#    y 0.000000 1.751860 0.000000 
#    z 0.009050 0.000000 1.793560 
# 
# From -- ./inp_files/69165.got.cif
#   From: 2010.06.25/outbox.cif.g09.slc.cpg/sg10_35_cif.got.tgz:69165.got - 2010.06.27 22:07:45.
