data_PCOD8062212
_publ_section_title
;
Structure prediction by ZEFSAII (Michael W. Deem and Ramdas Pophale) SiO2 
 PCOD8062212
Probable space group: P 2/M
;
_chemical_formula_sum "Si O2"
_cell_formula_units_Z 32
_cell_length_a 14.394208
_cell_length_b 9.152554
_cell_length_c 14.047131
_cell_angle_alpha 90.000000
_cell_angle_beta 61.266315
_cell_angle_gamma 90.000000
_cell_volume 1622.743168
_symmetry_space_group_name_H-M "P 2/M"
_symmetry_group_IT_number 10
_symmetry_cell_setting 'monoclinic'
loop_
_space_group_symop_operation_xyz
x,y,z
-x,y,-z
-x,-y,-z
x,-y,z
loop_
_atom_site_type_symbol
_atom_site_label
_atom_site_fract_x
_atom_site_fract_y
_atom_site_fract_z
Si Si1 0.327620 0.331638 0.846842
Si Si2 0.944010 0.673027 0.303193
Si Si3 0.393607 0.664407 0.609502
Si Si4 0.098209 0.326392 0.890336
Si Si5 0.252469 0.168221 0.546726
Si Si6 0.513740 0.827174 0.102750
Si Si7 0.919730 0.173298 0.623910
Si Si8 0.312782 0.168900 0.313084
O O1 0.320244 0.500000 0.881681
O O2 0.404725 0.312396 0.717006
O O3 0.210143 0.270401 0.878539
O O4 0.378408 0.242305 0.908775
O O5 0.953360 0.500000 0.304812
O O6 0.920219 0.728730 0.208058
O O7 0.850959 0.733190 0.416808
O O8 0.050266 0.746360 0.292049
O O9 0.500000 0.691428 0.500000
O O10 0.349961 0.500000 0.611567
O O11 0.310692 0.782783 0.613611
O O12 0.100215 0.500000 0.889917
O O13 0.000000 0.265113 0.000000
O O14 0.328686 0.193239 0.418333
O O15 0.217188 0.000000 0.571778
O O16 0.411726 0.759794 0.208529
O O17 0.523750 0.000000 0.111136
O O18 0.500000 0.782746 0.000000
O O19 0.801562 0.232315 0.660142
O O20 0.000000 0.219200 0.500000
O O21 0.922378 0.000000 0.637306
O O22 0.312893 0.000000 0.286066
#
# Coordination Sequence:
#
# PCOD8062212 Si02
#       8
#     4   4   4   4   4   4   4   4
#     4  10  20  37  59  83 111 146 184 224 276 333
#     4  11  21  35  55  82 114 145 184 233 282 328
#     4  10  20  34  53  82 117 148 180 228 285 329
#     4   9  19  37  59  81 111 150 185 223 277 337
#     4  11  20  33  55  80 110 149 189 224 273 338
#     4  10  22  40  60  82 110 146 187 233 279 321
#     4  10  19  35  56  78 110 153 190 225 277 338
#     4   9  19  36  56  79 111 149 187 226 277 336
#
# _framework density 19.719695999999999
#
# number of rings (size 3 to 8) (size 9 to 14) (size 15 to 20)
#    0.000    2.000    2.500    1.500    0.000    2.250 
#    0.000    1.250    0.000    2.625    0.000    0.000 
#    0.000    0.000    0.000    0.000    0.000    0.000 
#
# Total GULP energy -396698.608479 kJ/mol
# GULP energy per Si atom -12396.831515 kJ/mol
# Density = 1.967481 g / cm^3
# Si number density = 19.719696 Si / 1000 Ang^3
#
#
#
# Elastic Constant Matrix: (Units=GPa)
#
#
# Indices 1 2 3 4 5 6 
#
# 1 134.7118 37.5249 47.1065 0.0000 15.2375 0.0000
# 2 37.5249 42.4280 20.9453 0.0000 8.5534 0.0000
# 3 47.1065 20.9453 86.5777 0.0000 -2.5768 0.0000
# 4 0.0000 0.0000 0.0000 17.4445 0.0000 4.5313
# 5 15.2375 8.5534 -2.5768 0.0000 33.1800 0.0000
# 6 0.0000 0.0000 0.0000 4.5313 0.0000 33.8726
#
#
#
# Elastic Compliance Matrix: (Units=1/GPa)
#
#
# Indices 1 2 3 4 5 6 
#
# 1 0.011439 -0.007069 -0.004626 0.000000 -0.003790 0.000000
# 2 -0.007069 0.033090 -0.004326 0.000000 -0.005620 0.000000
# 3 -0.004626 -0.004326 0.015246 0.000000 0.004424 0.000000
# 4 0.000000 0.000000 0.000000 0.059388 0.000000 -0.007945
# 5 -0.003790 -0.005620 0.004424 0.000000 0.033672 0.000000
# 6 0.000000 0.000000 0.000000 -0.007945 0.000000 0.030585
#
#
# Mechanical properties :
#
#
# Convention : Reuss Voigt Hill
#
# Bulk Modulus (GPa) = 36.06042 52.76345 44.41194
# Shear Modulus (GPa) = 22.25115 27.44214 24.84664
#
# Velocity S-wave (km/s) = 3.36277 3.73448 3.55349
# Velocity P-wave (km/s) = 5.77960 6.73869 6.27749
#
# Compressibility (1/GPa) = 0.02773124
#
# Stress axis : x y z
#
# Youngs Moduli (GPa) = 87.42113 30.22046 65.59140
#
# Poissons Ratio (x) = 0.21363 0.30346
# Poissons Ratio (y) = 0.61798 0.28378
# Poissons Ratio (z) = 0.40445 0.13075
#
# Static dielectric constant tensor:
#      x y z
#    x 3.781660 0.000000 -0.109030 
#    y 0.000000 3.254080 0.000000 
#    z -0.109030 0.000000 3.699190 
# 
# 
# High freq. dielectric constant tensor:
#      x y z
#    x 1.777110 0.000000 0.001190 
#    y 0.000000 1.735440 0.000000 
#    z 0.001190 0.000000 1.764730 
# 
# From -- ./inp_files/66519.got.cif
#   From: 2010.06.25/outbox.cif.g09.slc.cpg/sg10_34_cif.got.tgz:66519.got - 2010.06.27 22:07:45.
