data_PCOD8062172
_publ_section_title
;
Structure prediction by ZEFSAII (Michael W. Deem and Ramdas Pophale) SiO2 
 PCOD8062172
Probable space group: P 2/M
;
_chemical_formula_sum "Si O2"
_cell_formula_units_Z 32
_cell_length_a 18.247748
_cell_length_b 17.438883
_cell_length_c 13.544000
_cell_angle_alpha 90.000000
_cell_angle_beta 156.276995
_cell_angle_gamma 90.000000
_cell_volume 1733.969823
_symmetry_space_group_name_H-M "P 2/M"
_symmetry_group_IT_number 10
_symmetry_cell_setting 'monoclinic'
loop_
_space_group_symop_operation_xyz
x,y,z
-x,y,-z
-x,-y,-z
x,-y,z
loop_
_atom_site_type_symbol
_atom_site_label
_atom_site_fract_x
_atom_site_fract_y
_atom_site_fract_z
Si Si1 0.627562 0.676910 0.745135
Si Si2 0.787149 0.914604 0.877953
Si Si3 0.414699 0.659917 0.987658
Si Si4 0.926143 0.272515 0.510582
Si Si5 0.383522 0.757935 0.604556
Si Si6 0.012415 0.772339 0.828868
Si Si7 0.182036 0.586806 0.860021
Si Si8 0.541519 0.086762 0.386025
O O1 0.500000 0.645832 0.500000
O O2 0.493823 0.729214 0.645411
O O3 0.703470 0.604775 0.899815
O O4 0.803994 0.723693 0.923244
O O5 0.658345 0.902157 0.814001
O O6 0.683193 0.898445 0.648446
O O7 0.867612 0.000000 0.976993
O O8 0.957784 0.858032 0.095602
O O9 0.548757 0.713579 0.215569
O O10 0.315925 0.597220 0.932540
O O11 0.500000 0.613952 0.000000
O O12 0.285735 0.719334 0.770340
O O13 0.000000 0.235165 0.500000
O O14 0.971371 0.221015 0.660891
O O15 0.012419 0.356807 0.637441
O O16 0.421808 0.850024 0.654717
O O17 0.165262 0.740362 0.331862
O O18 0.110186 0.500000 0.775857
O O19 0.561311 0.000000 0.367755
#
# Coordination Sequence:
#
# PCOD8062172 Si02
#       8
#     4   4   4   4   4   4   4   4
#     4  10  21  36  54  79 112 145 179 217 263 318
#     4   9  18  32  51  75 107 142 179 221 272 321
#     4  10  19  35  54  78 108 134 172 221 273 317
#     4   9  19  34  55  77 104 136 173 219 269 320
#     4  11  21  33  56  82 107 141 185 227 263 321
#     4  11  20  33  55  80 107 141 182 226 267 314
#     4   9  20  36  56  82 106 136 178 217 263 324
#     4   9  18  33  51  75 108 144 177 221 273 316
#
# _framework density 18.454761000000001
#
# number of rings (size 3 to 8) (size 9 to 14) (size 15 to 20)
#    0.000    2.250    2.500    2.250    0.000    5.250 
#    0.000    1.250    0.000    1.500    0.000    3.500 
#    0.000    0.000    0.000    0.000    0.000    0.000 
#
# Total GULP energy -396483.179215 kJ/mol
# GULP energy per Si atom -12390.099350 kJ/mol
# Density = 1.841276 g / cm^3
# Si number density = 18.454761 Si / 1000 Ang^3
#
#
#
# Elastic Constant Matrix: (Units=GPa)
#
#
# Indices 1 2 3 4 5 6 
#
# 1 53.7003 14.2428 15.1572 0.0000 10.5283 0.0000
# 2 14.2428 72.6201 16.7028 0.0000 1.7140 0.0000
# 3 15.1572 16.7028 94.4873 0.0000 8.1428 0.0000
# 4 0.0000 0.0000 0.0000 20.0578 0.0000 -0.4515
# 5 10.5283 1.7140 8.1428 0.0000 31.2647 0.0000
# 6 0.0000 0.0000 0.0000 -0.4515 0.0000 5.9539
#
#
#
# Elastic Compliance Matrix: (Units=1/GPa)
#
#
# Indices 1 2 3 4 5 6 
#
# 1 0.021462 -0.003537 -0.002262 0.000000 -0.006444 0.000000
# 2 -0.003537 0.014937 -0.002154 0.000000 0.000933 0.000000
# 3 -0.002262 -0.002154 0.011510 0.000000 -0.002118 0.000000
# 4 0.000000 0.000000 0.000000 0.049941 0.000000 0.003787
# 5 -0.006444 0.000933 -0.002118 0.000000 0.034655 0.000000
# 6 0.000000 0.000000 0.000000 0.003787 0.000000 0.168245
#
#
# Mechanical properties :
#
#
# Convention : Reuss Voigt Hill
#
# Bulk Modulus (GPa) = 31.24668 34.77926 33.01297
# Shear Modulus (GPa) = 15.27541 23.10226 19.18884
#
# Velocity S-wave (km/s) = 2.88014 3.54196 3.22806
# Velocity P-wave (km/s) = 5.29420 5.96774 5.64103
#
# Compressibility (1/GPa) = 0.03200340
#
# Stress axis : x y z
#
# Youngs Moduli (GPa) = 46.59422 66.94661 86.88448
#
# Poissons Ratio (x) = 0.23678 0.19656
# Poissons Ratio (y) = 0.16480 0.18711
# Poissons Ratio (z) = 0.10541 0.14417
#
# Static dielectric constant tensor:
#      x y z
#    x 3.701920 0.000000 0.094770 
#    y 0.000000 3.111030 0.000000 
#    z 0.094770 0.000000 3.498690 
# 
# 
# High freq. dielectric constant tensor:
#      x y z
#    x 1.713840 0.000000 0.007410 
#    y 0.000000 1.684100 0.000000 
#    z 0.007410 0.000000 1.720010 
# 
# From -- ./inp_files/70885.got.cif
#   From: 2010.06.25/outbox.cif.g09.slc.cpg/sg10_36_cif.got.tgz:70885.got - 2010.06.27 22:07:45.
