data_PCOD8062763
_publ_section_title
;
Structure prediction by ZEFSAII (Michael W. Deem and Ramdas Pophale) SiO2 
 PCOD8062763
Probable space group: P 2/M
;
_chemical_formula_sum "Si O2"
_cell_formula_units_Z 32
_cell_length_a 12.124206
_cell_length_b 8.654760
_cell_length_c 28.369887
_cell_angle_alpha 90.000000
_cell_angle_beta 32.712209
_cell_angle_gamma 90.000000
_cell_volume 1608.781459
_symmetry_space_group_name_H-M "P 2/M"
_symmetry_group_IT_number 10
_symmetry_cell_setting 'monoclinic'
loop_
_space_group_symop_operation_xyz
x,y,z
-x,y,-z
-x,-y,-z
x,-y,z
loop_
_atom_site_type_symbol
_atom_site_label
_atom_site_fract_x
_atom_site_fract_y
_atom_site_fract_z
Si Si1 0.432715 0.821678 0.651955
Si Si2 0.524782 0.316927 0.844744
Si Si3 0.626284 0.316619 0.999199
Si Si4 0.130635 0.683130 0.496883
Si Si5 0.688899 0.671374 0.398298
Si Si6 0.973780 0.683119 0.653176
Si Si7 0.193615 0.173621 0.897555
Si Si8 0.091037 0.319819 0.838700
O O1 0.633994 0.728276 0.594262
O O2 0.367840 0.788754 0.622104
O O3 0.242809 0.776604 0.752220
O O4 0.483757 0.000000 0.639824
O O5 0.492064 0.500000 0.852430
O O6 0.750496 0.264756 0.749116
O O7 0.385467 0.231130 0.857628
O O8 0.475982 0.258590 0.915292
O O9 0.619709 0.500000 0.000402
O O10 0.860511 0.259890 0.912171
O O11 0.500000 0.248862 0.000000
O O12 0.117487 0.500000 0.502348
O O13 0.000000 0.749535 0.500000
O O14 0.036124 0.751545 0.579520
O O15 0.500000 0.651023 0.500000
O O16 0.745333 0.500000 0.357634
O O17 0.874618 0.745413 0.361021
O O18 0.994783 0.500000 0.643260
O O19 0.152354 0.292003 0.870426
O O20 0.234938 0.000000 0.863715
O O21 0.000000 0.175727 0.000000
O O22 0.111118 0.500000 0.819747
#
# Coordination Sequence:
#
# PCOD8062763 Si02
#       8
#     4   4   4   4   4   4   4   4
#     4  12  26  41  59  89 127 162 201 249 308 365
#     4  10  20  36  61  91 120 153 200 250 297 354
#     4   9  19  35  58  90 121 149 194 254 304 347
#     4  10  21  40  63  89 120 158 205 249 296 357
#     4  10  19  38  66  89 116 156 205 251 295 351
#     4   9  19  35  60  93 120 149 197 255 299 343
#     4  11  23  40  61  86 124 162 198 248 305 362
#     4  11  23  40  65  90 117 159 209 254 299 355
#
# _framework density 19.890830000000001
#
# number of rings (size 3 to 8) (size 9 to 14) (size 15 to 20)
#    0.000    1.750    2.500    1.875    3.500    1.000 
#    0.000    1.250    0.000    1.875    0.000    0.000 
#    0.000    0.000    0.000    0.000    0.000    0.000 
#
# Total GULP energy -396834.294221 kJ/mol
# GULP energy per Si atom -12401.071694 kJ/mol
# Density = 1.984556 g / cm^3
# Si number density = 19.890830 Si / 1000 Ang^3
#
#
#
# Elastic Constant Matrix: (Units=GPa)
#
#
# Indices 1 2 3 4 5 6 
#
# 1 159.3624 15.3168 65.0745 0.0000 -17.0308 0.0000
# 2 15.3168 24.3637 10.0784 0.0000 0.5412 0.0000
# 3 65.0745 10.0784 133.7126 0.0000 -14.3909 0.0000
# 4 0.0000 0.0000 0.0000 21.9506 0.0000 1.1410
# 5 -17.0308 0.5412 -14.3909 0.0000 37.3052 0.0000
# 6 0.0000 0.0000 0.0000 1.1410 0.0000 12.3933
#
#
#
# Elastic Compliance Matrix: (Units=1/GPa)
#
#
# Indices 1 2 3 4 5 6 
#
# 1 0.008343 -0.003853 -0.003499 0.000000 0.002515 0.000000
# 2 -0.003853 0.044278 -0.001795 0.000000 -0.003094 0.000000
# 3 -0.003499 -0.001795 0.009544 0.000000 0.002110 0.000000
# 4 0.000000 0.000000 0.000000 0.045776 0.000000 -0.004214
# 5 0.002515 -0.003094 0.002110 0.000000 0.028813 0.000000
# 6 0.000000 0.000000 0.000000 -0.004214 0.000000 0.081076
#
#
# Mechanical properties :
#
#
# Convention : Reuss Voigt Hill
#
# Bulk Modulus (GPa) = 22.79452 55.37535 39.08493
# Shear Modulus (GPa) = 19.94021 29.46109 24.70065
#
# Velocity S-wave (km/s) = 3.16964 3.85273 3.52776
# Velocity P-wave (km/s) = 4.98800 6.90590 6.02377
#
# Compressibility (1/GPa) = 0.04387019
#
# Stress axis : x y z
#
# Youngs Moduli (GPa) = 119.86098 22.58438 104.77639
#
# Poissons Ratio (x) = 0.08703 0.36664
# Poissons Ratio (y) = 0.46187 0.18808
# Poissons Ratio (z) = 0.41942 0.04054
#
# Static dielectric constant tensor:
#      x y z
#    x 3.807460 0.000000 -0.063030 
#    y 0.000000 3.394770 0.000000 
#    z -0.063030 0.000000 3.781740 
# 
# 
# High freq. dielectric constant tensor:
#      x y z
#    x 1.790900 0.000000 -0.003140 
#    y 0.000000 1.740480 0.000000 
#    z -0.003140 0.000000 1.787260 
# 
# From -- ./inp_files/94951.got.cif
#   From: 2010.06.25/outbox.cif.g09.slc.cpg/sg10_48_cif.got.tgz:94951.got - 2010.06.27 22:07:45.
