data_PCOD8062007
_publ_section_title
;
Structure prediction by ZEFSAII (Michael W. Deem and Ramdas Pophale) SiO2 
 PCOD8062007
Probable space group: P 2/M
;
_chemical_formula_sum "Si O2"
_cell_formula_units_Z 32
_cell_length_a 15.273524
_cell_length_b 8.652522
_cell_length_c 24.299086
_cell_angle_alpha 90.000000
_cell_angle_beta 28.808954
_cell_angle_gamma 90.000000
_cell_volume 1547.463343
_symmetry_space_group_name_H-M "P 2/M"
_symmetry_group_IT_number 10
_symmetry_cell_setting 'monoclinic'
loop_
_space_group_symop_operation_xyz
x,y,z
-x,y,-z
-x,-y,-z
x,-y,z
loop_
_atom_site_type_symbol
_atom_site_label
_atom_site_fract_x
_atom_site_fract_y
_atom_site_fract_z
Si Si1 0.030955 0.818106 0.234960
Si Si2 0.433590 0.672676 0.673650
Si Si3 0.737423 0.316227 0.584989
Si Si4 0.935254 0.821940 0.658665
Si Si5 0.308258 0.328425 0.631848
Si Si6 0.410823 0.821832 0.220512
Si Si7 0.042707 0.673118 0.920380
Si Si8 0.218677 0.317763 0.029214
O O1 0.827467 0.772218 0.329552
O O2 0.056569 0.756198 0.283393
O O3 0.182975 0.749566 0.109982
O O4 0.054371 0.000000 0.220977
O O5 0.497413 0.500000 0.620961
O O6 0.597962 0.752663 0.615879
O O7 0.360438 0.761065 0.659600
O O8 0.258046 0.667525 0.807948
O O9 0.720531 0.500000 0.598908
O O10 0.683693 0.247409 0.673256
O O11 0.937468 0.270487 0.454365
O O12 0.729031 0.801523 0.752627
O O13 0.997296 0.000000 0.622814
O O14 0.500000 0.354601 0.500000
O O15 0.218443 0.500000 0.692514
O O16 0.454791 0.000000 0.207793
O O17 0.595338 0.738471 0.100946
O O18 0.959808 0.500000 0.969074
O O19 0.950866 0.742740 0.915586
O O20 0.000000 0.767139 0.000000
O O21 0.228050 0.500000 0.030268
#
# Coordination Sequence:
#
# PCOD8062007 Si02
#       8
#     4   4   4   4   4   4   4   4
#     4  11  23  40  61  87 124 164 207 254 304 365
#     4   9  17  31  52  83 118 152 186 225 290 359
#     4  11  22  38  65  97 124 153 201 261 308 357
#     4  10  24  44  63  84 119 169 208 245 311 380
#     4  10  19  34  57  84 116 156 200 242 292 356
#     4  11  24  43  64  86 120 164 206 251 312 378
#     4   9  16  29  53  81 112 149 188 231 284 350
#     4  11  22  39  64  91 122 159 206 259 305 357
#
# _framework density 20.679005
#
# number of rings (size 3 to 8) (size 9 to 14) (size 15 to 20)
#    0.000    1.750    1.250    3.375    0.000    7.250 
#    0.000    3.750    0.000    1.500    0.000    0.000 
#    0.000    0.000    0.000    0.000    0.000    0.000 
#
# Total GULP energy -396491.994516 kJ/mol
# GULP energy per Si atom -12390.374829 kJ/mol
# Density = 2.063194 g / cm^3
# Si number density = 20.679005 Si / 1000 Ang^3
#
#
#
# Elastic Constant Matrix: (Units=GPa)
#
#
# Indices 1 2 3 4 5 6 
#
# 1 106.0472 25.0142 24.6531 0.0000 7.2613 0.0000
# 2 25.0142 64.1481 28.0876 0.0000 4.2584 0.0000
# 3 24.6531 28.0876 99.3518 0.0000 9.1799 0.0000
# 4 0.0000 0.0000 0.0000 39.7896 0.0000 -3.3358
# 5 7.2613 4.2584 9.1799 0.0000 41.4762 0.0000
# 6 0.0000 0.0000 0.0000 -3.3358 0.0000 26.6266
#
#
#
# Elastic Compliance Matrix: (Units=1/GPa)
#
#
# Indices 1 2 3 4 5 6 
#
# 1 0.010678 -0.003393 -0.001582 0.000000 -0.001171 0.000000
# 2 -0.003393 0.018891 -0.004466 0.000000 -0.000357 0.000000
# 3 -0.001582 -0.004466 0.011896 0.000000 -0.001897 0.000000
# 4 0.000000 0.000000 0.000000 0.025399 0.000000 0.003182
# 5 -0.001171 -0.000357 -0.001897 0.000000 0.024772 0.000000
# 6 0.000000 0.000000 0.000000 0.003182 0.000000 0.037955
#
#
# Mechanical properties :
#
#
# Convention : Reuss Voigt Hill
#
# Bulk Modulus (GPa) = 44.28198 47.22855 45.75527
# Shear Modulus (GPa) = 32.05112 34.36463 33.20787
#
# Velocity S-wave (km/s) = 3.94119 4.08096 4.01168
# Velocity P-wave (km/s) = 6.49393 6.71521 6.60550
#
# Compressibility (1/GPa) = 0.02258255
#
# Stress axis : x y z
#
# Youngs Moduli (GPa) = 93.64895 52.93467 84.06451
#
# Poissons Ratio (x) = 0.17963 0.13300
# Poissons Ratio (y) = 0.31779 0.37540
# Poissons Ratio (z) = 0.14817 0.23639
#
# Static dielectric constant tensor:
#      x y z
#    x 4.058980 0.000000 0.046120 
#    y 0.000000 3.477810 0.000000 
#    z 0.046120 0.000000 3.607950 
# 
# 
# High freq. dielectric constant tensor:
#      x y z
#    x 1.824670 0.000000 0.007650 
#    y 0.000000 1.773760 0.000000 
#    z 0.007650 0.000000 1.820460 
# 
# From -- ./inp_files/89500.got.cif
#   From: 2010.06.25/outbox.cif.g09.slc.cpg/sg10_45_cif.got.tgz:89500.got - 2010.06.27 22:07:45.
