data_PCOD8062828
_publ_section_title
;
Structure prediction by ZEFSAII (Michael W. Deem and Ramdas Pophale) SiO2 
 PCOD8062828
Probable space group: P 2/M
;
_chemical_formula_sum "Si O2"
_cell_formula_units_Z 28
_cell_length_a 27.785882
_cell_length_b 12.841010
_cell_length_c 22.625635
_cell_angle_alpha 90.000000
_cell_angle_beta 168.464667
_cell_angle_gamma 90.000000
_cell_volume 1614.335357
_symmetry_space_group_name_H-M "P 2/M"
_symmetry_group_IT_number 10
_symmetry_cell_setting 'monoclinic'
loop_
_space_group_symop_operation_xyz
x,y,z
-x,y,-z
-x,-y,-z
x,-y,z
loop_
_atom_site_type_symbol
_atom_site_label
_atom_site_fract_x
_atom_site_fract_y
_atom_site_fract_z
Si Si1 0.321819 0.122407 0.732729
Si Si2 0.819434 0.222913 0.121910
Si Si3 0.669393 0.728878 0.754119
Si Si4 0.981500 0.621075 0.222265
Si Si5 0.498576 0.883193 0.642265
Si Si6 0.390435 0.222932 0.692909
Si Si7 0.076101 0.883199 0.219804
O O1 0.437306 0.172500 0.812989
O O2 0.065364 0.172443 0.441044
O O3 0.291426 0.000000 0.687099
O O4 0.500000 0.149825 0.000000
O O5 0.872240 0.330013 0.150642
O O6 0.703387 0.141169 0.936872
O O7 0.643791 0.246460 0.965692
O O8 0.500000 0.677406 0.500000
O O9 0.505380 0.802162 0.597431
O O10 0.797528 0.638948 0.946331
O O11 0.862751 0.802161 0.954831
O O12 0.017796 0.500000 0.276714
O O13 0.241300 0.669972 0.519665
O O14 0.236214 0.872747 0.354351
O O15 0.544737 0.000000 0.674526
O O16 0.230562 0.141152 0.464067
O O17 0.974322 0.000000 0.104124
#
# Coordination Sequence:
#
# PCOD8062828 Si02
#       7
#     4   4   4   4   4   4   4
#     4  10  20  31  47  78 115 142 162 186 222 277
#     4   9  18  33  52  72  97 130 167 207 245 282
#     4  10  20  31  44  66  97 127 153 190 245 301
#     4   9  19  35  54  74  92 116 161 216 258 295
#     4   9  17  29  46  67  91 124 165 201 232 275
#     4   9  18  33  52  72  97 130 167 207 245 282
#     4   9  17  29  46  67  91 124 165 201 232 275
#
# _framework density 17.3446
#
# number of rings (size 3 to 8) (size 9 to 14) (size 15 to 20)
#    0.000    2.714    0.000    2.143    0.000    4.857 
#    0.000    2.857    0.000    6.857    0.000   16.000 
#    0.000    0.000    0.000    0.000    0.000    0.000 
#
# Total GULP energy -347176.524255 kJ/mol
# GULP energy per Si atom -12399.161581 kJ/mol
# Density = 1.730512 g / cm^3
# Si number density = 17.344600 Si / 1000 Ang^3
#
#
#
# Elastic Constant Matrix: (Units=GPa)
#
#
# Indices 1 2 3 4 5 6 
#
# 1 103.8552 38.6351 63.3354 0.0000 10.9238 0.0000
# 2 38.6351 95.0501 37.0051 0.0000 2.7030 0.0000
# 3 63.3354 37.0051 97.1076 0.0000 0.5179 0.0000
# 4 0.0000 0.0000 0.0000 14.3568 0.0000 1.1657
# 5 10.9238 2.7030 0.5179 0.0000 35.1242 0.0000
# 6 0.0000 0.0000 0.0000 1.1657 0.0000 15.0390
#
#
#
# Elastic Compliance Matrix: (Units=1/GPa)
#
#
# Indices 1 2 3 4 5 6 
#
# 1 0.017539 -0.002985 -0.010275 0.000000 -0.005073 0.000000
# 2 -0.002985 0.012889 -0.002965 0.000000 -0.000020 0.000000
# 3 -0.010275 -0.002965 0.018112 0.000000 0.003157 0.000000
# 4 0.000000 0.000000 0.000000 0.070095 0.000000 -0.005433
# 5 -0.005073 -0.000020 0.003157 0.000000 0.030003 0.000000
# 6 0.000000 0.000000 0.000000 -0.005433 0.000000 0.066915
#
#
# Mechanical properties :
#
#
# Convention : Reuss Voigt Hill
#
# Bulk Modulus (GPa) = 62.14483 63.77381 62.95932
# Shear Modulus (GPa) = 19.73441 23.37315 21.55378
#
# Velocity S-wave (km/s) = 3.37677 3.67492 3.52899
# Velocity P-wave (km/s) = 7.14917 7.40643 7.27894
#
# Compressibility (1/GPa) = 0.01609144
#
# Stress axis : x y z
#
# Youngs Moduli (GPa) = 57.01702 77.58705 55.21148
#
# Poissons Ratio (x) = 0.23156 0.56728
# Poissons Ratio (y) = 0.17017 0.16370
# Poissons Ratio (z) = 0.58583 0.23004
#
# Static dielectric constant tensor:
#      x y z
#    x 3.377450 0.000000 0.232000 
#    y 0.000000 2.947970 0.000000 
#    z 0.232000 0.000000 3.243410 
# 
# 
# High freq. dielectric constant tensor:
#      x y z
#    x 1.673540 0.000000 0.012290 
#    y 0.000000 1.646480 0.000000 
#    z 0.012290 0.000000 1.666430 
# 
# From -- ./inp_files/79519.got.cif
#   From: 2010.06.25/outbox.cif.g09.slc.cpg/sg10_40_cif.got.tgz:79519.got - 2010.06.27 22:07:45.
