data_PCOD8062587
_publ_section_title
;
Structure prediction by ZEFSAII (Michael W. Deem and Ramdas Pophale) SiO2 
 PCOD8062587
Probable space group: P 2/M
;
_chemical_formula_sum "Si O2"
_cell_formula_units_Z 32
_cell_length_a 12.832250
_cell_length_b 8.600422
_cell_length_c 31.670633
_cell_angle_alpha 90.000000
_cell_angle_beta 27.209043
_cell_angle_gamma 90.000000
_cell_volume 1598.166109
_symmetry_space_group_name_H-M "P 2/M"
_symmetry_group_IT_number 10
_symmetry_cell_setting 'monoclinic'
loop_
_space_group_symop_operation_xyz
x,y,z
-x,y,-z
-x,-y,-z
x,-y,z
loop_
_atom_site_type_symbol
_atom_site_label
_atom_site_fract_x
_atom_site_fract_y
_atom_site_fract_z
Si Si1 0.053924 0.682181 0.570047
Si Si2 0.246531 0.184068 0.901430
Si Si3 0.164431 0.316486 0.706333
Si Si4 0.415313 0.816911 0.290420
Si Si5 0.334144 0.680652 0.094517
Si Si6 0.423573 0.175664 0.146248
Si Si7 0.553950 0.817979 0.623625
Si Si8 0.903664 0.824496 0.356980
O O1 0.087741 0.500000 0.551148
O O2 0.198998 0.774830 0.483060
O O3 0.150580 0.725918 0.581549
O O4 0.792110 0.727590 0.657110
O O5 0.351201 0.230008 0.818148
O O6 0.413632 0.247284 0.877132
O O7 0.230376 0.000000 0.910395
O O8 0.000000 0.259568 0.000000
O O9 0.148501 0.500000 0.706187
O O10 0.360372 0.274512 0.668432
O O11 0.218029 0.245347 0.640780
O O12 0.923461 0.249357 0.811473
O O13 0.450522 0.766081 0.325969
O O14 0.364002 0.000000 0.304764
O O15 0.315157 0.500000 0.091655
O O16 0.453894 0.711370 0.095835
O O17 0.500000 0.760131 0.000000
O O18 0.172442 0.179615 0.255049
O O19 0.490833 0.000000 0.109015
O O20 0.507146 0.000000 0.635629
O O21 0.813971 0.000000 0.395646
#
# Coordination Sequence:
#
# PCOD8062587 Si02
#       8
#     4   4   4   4   4   4   4   4
#     4  12  24  38  61  89 116 152 197 243 296 355
#     4   9  17  32  56  86 116 147 186 236 292 338
#     4  10  21  38  58  84 120 155 194 242 294 348
#     4  10  21  40  61  84 117 157 199 243 289 346
#     4   9  19  35  55  79 111 154 192 229 284 346
#     4   9  17  31  54  81 109 143 186 239 286 331
#     4  11  24  40  60  85 117 158 198 242 295 350
#     4  10  19  36  61  86 114 149 193 241 290 346
#
# _framework density 20.022948
#
# number of rings (size 3 to 8) (size 9 to 14) (size 15 to 20)
#    0.000    2.000    1.250    2.625    0.000    5.250 
#    0.000    3.750    0.000    1.500    0.000    0.000 
#    0.000    0.000    0.000    0.000    0.000    0.000 
#
# Total GULP energy -396772.385291 kJ/mol
# GULP energy per Si atom -12399.137040 kJ/mol
# Density = 1.997738 g / cm^3
# Si number density = 20.022948 Si / 1000 Ang^3
#
#
#
# Elastic Constant Matrix: (Units=GPa)
#
#
# Indices 1 2 3 4 5 6 
#
# 1 115.8525 13.7966 47.3499 0.0000 7.9004 0.0000
# 2 13.7966 38.2597 8.6864 0.0000 1.6559 0.0000
# 3 47.3499 8.6864 103.0633 0.0000 17.7755 0.0000
# 4 0.0000 0.0000 0.0000 18.8423 0.0000 -1.9165
# 5 7.9004 1.6559 17.7755 0.0000 30.8555 0.0000
# 6 0.0000 0.0000 0.0000 -1.9165 0.0000 21.4278
#
#
#
# Elastic Compliance Matrix: (Units=1/GPa)
#
#
# Indices 1 2 3 4 5 6 
#
# 1 0.010925 -0.002855 -0.004799 0.000000 0.000121 0.000000
# 2 -0.002855 0.027394 -0.000966 0.000000 -0.000183 0.000000
# 3 -0.004799 -0.000966 0.013067 0.000000 -0.006247 0.000000
# 4 0.000000 0.000000 0.000000 0.053559 0.000000 0.004790
# 5 0.000121 -0.000183 -0.006247 0.000000 0.035987 0.000000
# 6 0.000000 0.000000 0.000000 0.004790 0.000000 0.047097
#
#
# Mechanical properties :
#
#
# Convention : Reuss Voigt Hill
#
# Bulk Modulus (GPa) = 29.28679 44.09349 36.69014
# Shear Modulus (GPa) = 23.07870 26.71465 24.89667
#
# Velocity S-wave (km/s) = 3.39870 3.65663 3.53002
# Velocity P-wave (km/s) = 5.48269 6.31643 5.91427
#
# Compressibility (1/GPa) = 0.03414509
#
# Stress axis : x y z
#
# Youngs Moduli (GPa) = 91.53311 36.50453 76.53141
#
# Poissons Ratio (x) = 0.10423 0.36731
# Poissons Ratio (y) = 0.26134 0.07389
# Poissons Ratio (z) = 0.43931 0.03525
#
# Static dielectric constant tensor:
#      x y z
#    x 3.701250 0.000000 0.101770 
#    y 0.000000 3.440510 0.000000 
#    z 0.101770 0.000000 3.879900 
# 
# 
# High freq. dielectric constant tensor:
#      x y z
#    x 1.786340 0.000000 0.006790 
#    y 0.000000 1.761740 0.000000 
#    z 0.006790 0.000000 1.784510 
# 
# From -- ./inp_files/94964.got.cif
#   From: 2010.06.25/outbox.cif.g09.slc.cpg/sg10_48_cif.got.tgz:94964.got - 2010.06.27 22:07:45.
