data_PCOD8062169
_publ_section_title
;
Structure prediction by ZEFSAII (Michael W. Deem and Ramdas Pophale) SiO2 
 PCOD8062169
Probable space group: P 2/M
;
_chemical_formula_sum "Si O2"
_cell_formula_units_Z 28
_cell_length_a 12.486859
_cell_length_b 8.921443
_cell_length_c 15.019625
_cell_angle_alpha 90.000000
_cell_angle_beta 58.063358
_cell_angle_gamma 90.000000
_cell_volume 1419.932199
_symmetry_space_group_name_H-M "P 2/M"
_symmetry_group_IT_number 10
_symmetry_cell_setting 'monoclinic'
loop_
_space_group_symop_operation_xyz
x,y,z
-x,y,-z
-x,-y,-z
x,-y,z
loop_
_atom_site_type_symbol
_atom_site_label
_atom_site_fract_x
_atom_site_fract_y
_atom_site_fract_z
Si Si1 0.382574 0.677546 0.493347
Si Si2 0.109733 0.679049 0.676766
Si Si3 0.341544 0.323530 0.311333
Si Si4 0.864980 0.828744 0.703389
Si Si5 0.781664 0.163355 0.930349
Si Si6 0.000382 0.672114 0.903879
Si Si7 0.491697 0.168813 0.904324
O O1 0.500000 0.744236 0.500000
O O2 0.385562 0.500000 0.500640
O O3 0.247544 0.737093 0.587875
O O4 0.391565 0.728033 0.386387
O O5 0.095783 0.500000 0.674318
O O6 0.095952 0.733363 0.786170
O O7 0.999359 0.751208 0.665074
O O8 0.321428 0.500000 0.317080
O O9 0.205837 0.249483 0.348518
O O10 0.448384 0.276425 0.194701
O O11 0.765476 0.815857 0.830189
O O12 0.893053 0.000000 0.665548
O O13 0.861204 0.304535 0.927274
O O14 0.849401 0.000000 0.913699
O O15 0.657789 0.162767 0.045192
O O16 0.031443 0.500000 0.905665
O O17 0.000000 0.756182 0.000000
O O18 0.550237 0.000000 0.873325
O O19 0.500000 0.236413 0.000000
#
# Coordination Sequence:
#
# PCOD8062169 Si02
#       7
#     4   4   4   4   4   4   4
#     4   9  20  39  59  79 109 150 190 229 279 335
#     4   9  18  35  58  80 107 145 184 227 276 330
#     4  11  22  34  55  86 112 143 191 238 274 323
#     4  10  19  35  56  80 112 145 178 222 282 340
#     4   9  18  32  51  73 103 145 179 209 260 331
#     4   9  18  31  50  79 109 136 173 226 277 316
#     4  10  19  35  54  76 111 151 179 210 272 338
#
# _framework density 19.719251
#
# number of rings (size 3 to 8) (size 9 to 14) (size 15 to 20)
#    0.000    2.429    1.429    0.857    0.000    3.429 
#    0.000    7.143    0.000    3.857    0.000    0.000 
#    0.000    0.000    0.000    0.000    0.000    0.000 
#
# Total GULP energy -346896.961400 kJ/mol
# GULP energy per Si atom -12389.177193 kJ/mol
# Density = 1.967437 g / cm^3
# Si number density = 19.719251 Si / 1000 Ang^3
#
#
#
# Elastic Constant Matrix: (Units=GPa)
#
#
# Indices 1 2 3 4 5 6 
#
# 1 127.2511 34.8123 77.4064 0.0000 6.5743 0.0000
# 2 34.8123 47.2236 33.7100 0.0000 3.1194 0.0000
# 3 77.4064 33.7100 129.6592 0.0000 5.6417 0.0000
# 4 0.0000 0.0000 0.0000 15.8615 0.0000 -4.3154
# 5 6.5743 3.1194 5.6417 0.0000 35.2014 0.0000
# 6 0.0000 0.0000 0.0000 -4.3154 0.0000 17.9708
#
#
#
# Elastic Compliance Matrix: (Units=1/GPa)
#
#
# Indices 1 2 3 4 5 6 
#
# 1 0.013291 -0.005034 -0.006583 0.000000 -0.000981 0.000000
# 2 -0.005034 0.027961 -0.004227 0.000000 -0.000860 0.000000
# 3 -0.006583 -0.004227 0.012761 0.000000 -0.000441 0.000000
# 4 0.000000 0.000000 0.000000 0.067453 0.000000 0.016198
# 5 -0.000981 -0.000860 -0.000441 0.000000 0.028738 0.000000
# 6 0.000000 0.000000 0.000000 0.016198 0.000000 0.059535
#
#
# Mechanical properties :
#
#
# Convention : Reuss Voigt Hill
#
# Bulk Modulus (GPa) = 44.79325 66.22127 55.50726
# Shear Modulus (GPa) = 20.09097 24.35374 22.22236
#
# Velocity S-wave (km/s) = 3.19541 3.51810 3.36063
# Velocity P-wave (km/s) = 6.03150 7.08221 6.57787
#
# Compressibility (1/GPa) = 0.02232479
#
# Stress axis : x y z
#
# Youngs Moduli (GPa) = 75.24036 35.76440 78.36453
#
# Poissons Ratio (x) = 0.18002 0.51589
# Poissons Ratio (y) = 0.37873 0.33125
# Poissons Ratio (z) = 0.49532 0.15118
#
# Static dielectric constant tensor:
#      x y z
#    x 3.596440 0.000000 0.060200 
#    y 0.000000 3.356370 0.000000 
#    z 0.060200 0.000000 3.788000 
# 
# 
# High freq. dielectric constant tensor:
#      x y z
#    x 1.762030 0.000000 -0.001540 
#    y 0.000000 1.742930 0.000000 
#    z -0.001540 0.000000 1.771180 
# 
# From -- ./inp_files/63672.got.cif
#   From: 2010.06.25/outbox.cif.g09.slc.cpg/sg10_32_cif.got.tgz:63672.got - 2010.06.27 22:07:45.
