data_PCOD8062929
_publ_section_title
;
Structure prediction by ZEFSAII (Michael W. Deem and Ramdas Pophale) SiO2 
 PCOD8062929
Probable space group: P 2/M
;
_chemical_formula_sum "Si O2"
_cell_formula_units_Z 28
_cell_length_a 14.045976
_cell_length_b 9.048409
_cell_length_c 18.570918
_cell_angle_alpha 90.000000
_cell_angle_beta 141.017609
_cell_angle_gamma 90.000000
_cell_volume 1484.787979
_symmetry_space_group_name_H-M "P 2/M"
_symmetry_group_IT_number 10
_symmetry_cell_setting 'monoclinic'
loop_
_space_group_symop_operation_xyz
x,y,z
-x,y,-z
-x,-y,-z
x,-y,z
loop_
_atom_site_type_symbol
_atom_site_label
_atom_site_fract_x
_atom_site_fract_y
_atom_site_fract_z
Si Si1 0.667639 0.828920 0.441911
Si Si2 0.566815 0.334228 0.248788
Si Si3 0.332598 0.830757 0.304315
Si Si4 0.139877 0.327400 0.909496
Si Si5 0.182959 0.326050 0.343871
Si Si6 0.441651 0.171331 0.045465
Si Si7 0.767077 0.336928 0.884101
O O1 0.673808 0.755120 0.366672
O O2 0.505001 0.806894 0.383006
O O3 0.792246 0.748690 0.564203
O O4 0.709371 0.000000 0.458385
O O5 0.631112 0.500000 0.276219
O O6 0.559950 0.252161 0.168113
O O7 0.399884 0.339684 0.182196
O O8 0.305118 0.736063 0.359426
O O9 0.221371 0.777607 0.174699
O O10 0.295774 0.000000 0.299963
O O11 0.179164 0.500000 0.923309
O O12 0.984685 0.283079 0.780074
O O13 0.272593 0.234323 0.951098
O O14 0.123321 0.290427 0.985409
O O15 0.206619 0.500000 0.364555
O O16 0.437311 0.000000 0.064269
O O17 0.500000 0.198265 0.000000
O O18 0.810360 0.500000 0.879931
#
# Coordination Sequence:
#
# PCOD8062929 Si02
#       7
#     4   4   4   4   4   4   4
#     4  10  20  34  51  72 101 136 175 216 254 295
#     4   9  17  31  53  78 102 132 168 204 246 294
#     4  10  20  32  47  70  98 131 174 218 257 297
#     4   9  20  36  52  73 101 134 170 206 251 306
#     4  11  22  34  49  70  99 136 176 216 255 296
#     4  10  20  34  56  85 110 130 156 196 248 303
#     4   8  15  30  49  68  94 128 166 208 251 295
#
# _framework density 18.857911000000001
#
# number of rings (size 3 to 8) (size 9 to 14) (size 15 to 20)
#    0.000    2.429    0.000    3.429    0.000    9.714 
#    0.000    2.857    0.000    0.857    0.000    6.000 
#    0.000    0.000    0.000    0.000    0.000    0.000 
#
# Total GULP energy -347215.816207 kJ/mol
# GULP energy per Si atom -12400.564865 kJ/mol
# Density = 1.881499 g / cm^3
# Si number density = 18.857911 Si / 1000 Ang^3
#
#
#
# Elastic Constant Matrix: (Units=GPa)
#
#
# Indices 1 2 3 4 5 6 
#
# 1 23.6907 26.0469 23.2343 0.0000 -15.4450 0.0000
# 2 26.0469 122.5077 69.2240 0.0000 -17.0206 0.0000
# 3 23.2343 69.2240 147.0027 0.0000 -25.6483 0.0000
# 4 0.0000 0.0000 0.0000 29.6433 0.0000 -12.9153
# 5 -15.4450 -17.0206 -25.6483 0.0000 23.3688 0.0000
# 6 0.0000 0.0000 0.0000 -12.9153 0.0000 20.8688
#
#
#
# Elastic Compliance Matrix: (Units=1/GPa)
#
#
# Indices 1 2 3 4 5 6 
#
# 1 0.087022 -0.011908 0.000464 0.000000 0.049351 0.000000
# 2 -0.011908 0.012914 -0.004862 0.000000 -0.003801 0.000000
# 3 0.000464 -0.004862 0.010457 0.000000 0.008242 0.000000
# 4 0.000000 0.000000 0.000000 0.046189 0.000000 0.028585
# 5 0.049351 -0.003801 0.008242 0.000000 0.081687 0.000000
# 6 0.000000 0.000000 0.000000 0.028585 0.000000 0.065609
#
#
# Mechanical properties :
#
#
# Convention : Reuss Voigt Hill
#
# Bulk Modulus (GPa) = 12.85667 58.91235 35.88451
# Shear Modulus (GPa) = 13.79625 26.42258 20.10941
#
# Velocity S-wave (km/s) = 2.70773 3.74724 3.26907
# Velocity P-wave (km/s) = 4.07531 7.07322 5.77228
#
# Compressibility (1/GPa) = 0.07778064
#
# Stress axis : x y z
#
# Youngs Moduli (GPa) = 11.49136 77.43607 95.62957
#
# Poissons Ratio (x) = 0.92207 -0.04435
# Poissons Ratio (y) = 0.13683 0.46498
# Poissons Ratio (z) = -0.00533 0.37652
#
# Static dielectric constant tensor:
#      x y z
#    x 3.020560 0.000000 -0.243390 
#    y 0.000000 3.604820 0.000000 
#    z -0.243390 0.000000 3.710270 
# 
# 
# High freq. dielectric constant tensor:
#      x y z
#    x 1.688060 0.000000 -0.021860 
#    y 0.000000 1.743050 0.000000 
#    z -0.021860 0.000000 1.741010 
# 
# From -- ./inp_files/54698.got.cif
#   From: 2010.06.25/outbox.cif.g09.slc.cpg/sg10_28_cif.got.tgz:54698.got - 2010.06.27 22:07:45.
