data_PCOD8062901
_publ_section_title
;
Structure prediction by ZEFSAII (Michael W. Deem and Ramdas Pophale) SiO2 
 PCOD8062901
Probable space group: P 2/M
;
_chemical_formula_sum "Si O2"
_cell_formula_units_Z 26
_cell_length_a 12.443036
_cell_length_b 25.441097
_cell_length_c 5.130801
_cell_angle_alpha 90.000000
_cell_angle_beta 105.482665
_cell_angle_gamma 90.000000
_cell_volume 1565.288147
_symmetry_space_group_name_H-M "P 2/M"
_symmetry_group_IT_number 10
_symmetry_cell_setting 'monoclinic'
loop_
_space_group_symop_operation_xyz
x,y,z
-x,y,-z
-x,-y,-z
x,-y,z
loop_
_atom_site_type_symbol
_atom_site_label
_atom_site_fract_x
_atom_site_fract_y
_atom_site_fract_z
Si Si1 0.576442 0.500000 0.796870
Si Si2 0.368119 0.238543 0.915160
Si Si3 0.366884 0.879109 0.909602
Si Si4 0.632942 0.940783 0.589631
Si Si5 0.875932 0.560533 0.359694
Si Si6 0.746570 0.589010 0.791365
Si Si7 0.632208 0.302233 0.587298
O O1 0.500000 0.500000 0.500000
O O2 0.650319 0.552103 0.843494
O O3 0.500000 0.500000 0.000000
O O4 0.318011 0.179929 0.856709
O O5 0.327200 0.276064 0.655473
O O6 0.500000 0.234295 0.000000
O O7 0.329274 0.262702 0.162288
O O8 0.321283 0.912713 0.638679
O O9 0.500000 0.877667 0.000000
O O10 0.321423 0.907325 0.138463
O O11 0.500000 0.941961 0.500000
O O12 0.680002 0.000000 0.635084
O O13 0.876666 0.500000 0.267003
O O14 0.802713 0.564350 0.572899
O O15 0.000000 0.580806 0.500000
O O16 0.832083 0.595486 0.088639
O O17 0.695803 0.643890 0.671416
O O18 0.500000 0.312874 0.500000
#
# Coordination Sequence:
#
# PCOD8062901 Si02
#       7
#     2   4   4   4   4   4   4
#     4  12  24  36  51  74 103 130 154 178 218 286
#     4   9  17  29  42  58  79 112 152 185 221 264
#     4   9  15  23  35  48  68  99 137 179 222 268
#     4   9  15  21  30  47  69  94 128 177 235 278
#     4  11  22  39  59  77  95 118 152 191 231 280
#     4  12  22  38  54  76  98 125 152 187 236 279
#     4  10  20  32  47  66  92 120 149 185 225 274
#
# _framework density 16.610361999999999
#
# number of rings (size 3 to 8) (size 9 to 14) (size 15 to 20)
#    0.000    1.846    1.538    4.154    0.000    8.615 
#    0.000    0.000    0.000    0.000    0.000    0.000 
#    0.000    0.000    0.000    0.000    0.000    0.000 
#
# Total GULP energy -322396.278964 kJ/mol
# GULP energy per Si atom -12399.856883 kJ/mol
# Density = 1.657256 g / cm^3
# Si number density = 16.610362 Si / 1000 Ang^3
#
#
#
# Elastic Constant Matrix: (Units=GPa)
#
#
# Indices 1 2 3 4 5 6 
#
# 1 35.7693 27.3566 30.2399 0.0000 -2.1467 0.0000
# 2 27.3566 136.8640 61.1570 0.0000 1.6072 0.0000
# 3 30.2399 61.1570 143.5357 0.0000 -13.1852 0.0000
# 4 0.0000 0.0000 0.0000 21.9639 0.0000 -8.6926
# 5 -2.1467 1.6072 -13.1852 0.0000 21.2331 0.0000
# 6 0.0000 0.0000 0.0000 -8.6926 0.0000 4.6049
#
#
#
# Elastic Compliance Matrix: (Units=1/GPa)
#
#
# Indices 1 2 3 4 5 6 
#
# 1 0.036359 -0.004787 -0.005567 0.000000 0.000581 0.000000
# 2 -0.004787 0.009872 -0.003511 0.000000 -0.003412 0.000000
# 3 -0.005567 -0.003511 0.010190 0.000000 0.006031 0.000000
# 4 0.000000 0.000000 0.000000 0.180024 0.000000 0.339833
# 5 0.000581 -0.003412 0.006031 0.000000 0.051158 0.000000
# 6 0.000000 0.000000 0.000000 0.339833 0.000000 0.858666
#
#
# Mechanical properties :
#
#
# Convention : Reuss Voigt Hill
#
# Bulk Modulus (GPa) = 34.85401 61.51953 48.18677
# Shear Modulus (GPa) = 4.22453 22.72141 13.47297
#
# Velocity S-wave (km/s) = 1.59651 3.70253 2.85110
# Velocity P-wave (km/s) = 4.94240 7.44282 6.31755
#
# Compressibility (1/GPa) = 0.02869110
#
# Stress axis : x y z
#
# Youngs Moduli (GPa) = 27.50319 101.29289 98.13674
#
# Poissons Ratio (x) = 0.48486 0.54636
# Poissons Ratio (y) = 0.13165 0.34459
# Poissons Ratio (z) = 0.15312 0.35567
#
# Static dielectric constant tensor:
#      x y z
#    x 2.749840 0.000000 -0.217110 
#    y 0.000000 3.253640 0.000000 
#    z -0.217110 0.000000 3.399700 
# 
# 
# High freq. dielectric constant tensor:
#      x y z
#    x 1.572670 0.000000 -0.028840 
#    y 0.000000 1.645470 0.000000 
#    z -0.028840 0.000000 1.658420 
# 
# From -- ./inp_files/7607.got.cif
#   From: 2010.06.25/outbox.cif.g09.slc.cpg/sg10_4_cif.got.tgz:7607.got - 2010.06.27 22:07:45.
