data_PCOD8062258
_publ_section_title
;
Structure prediction by ZEFSAII (Michael W. Deem and Ramdas Pophale) SiO2 
 PCOD8062258
Probable space group: P 2/M
;
_chemical_formula_sum "Si O2"
_cell_formula_units_Z 32
_cell_length_a 23.495551
_cell_length_b 9.284222
_cell_length_c 18.230545
_cell_angle_alpha 90.000000
_cell_angle_beta 24.700841
_cell_angle_gamma 90.000000
_cell_volume 1661.815533
_symmetry_space_group_name_H-M "P 2/M"
_symmetry_group_IT_number 10
_symmetry_cell_setting 'monoclinic'
loop_
_space_group_symop_operation_xyz
x,y,z
-x,y,-z
-x,-y,-z
x,-y,z
loop_
_atom_site_type_symbol
_atom_site_label
_atom_site_fract_x
_atom_site_fract_y
_atom_site_fract_z
Si Si1 0.610832 0.330044 0.548854
Si Si2 0.873176 0.336925 0.490988
Si Si3 0.353836 0.159432 0.637811
Si Si4 0.136360 0.167482 0.177927
Si Si5 0.138604 0.831462 0.007432
Si Si6 0.564700 0.168352 0.135808
Si Si7 0.599537 0.166388 0.815921
Si Si8 0.116859 0.660076 0.693867
O O1 0.584886 0.500000 0.577363
O O2 0.641263 0.274537 0.432311
O O3 0.481648 0.253820 0.737438
O O4 0.738989 0.283052 0.447514
O O5 0.870097 0.500000 0.525695
O O6 0.735078 0.256015 0.675451
O O7 0.880618 0.336185 0.395718
O O8 0.009510 0.256543 0.360873
O O9 0.500000 0.141122 0.500000
O O10 0.304351 0.000000 0.668817
O O11 0.258713 0.221953 0.813825
O O12 0.167175 0.215258 0.057868
O O13 0.095693 0.000000 0.228934
O O14 0.273432 0.198534 0.064418
O O15 0.000889 0.761645 0.137481
O O16 0.119915 0.000000 0.024275
O O17 0.480707 0.220701 0.162769
O O18 0.541235 0.000000 0.178406
O O19 0.641472 0.000000 0.757543
O O20 0.500000 0.189490 0.000000
O O21 0.089369 0.500000 0.756079
#
# Coordination Sequence:
#
# PCOD8062258 Si02
#       8
#     4   4   4   4   4   4   4   4
#     4  11  22  35  53  78 108 141 181 228 276 330
#     4  10  19  35  57  82 113 149 185 222 272 330
#     4  10  21  37  53  72 103 141 182 229 279 329
#     4   9  18  34  57  83 108 142 187 231 275 322
#     4   9  18  32  52  75 101 135 180 227 269 319
#     4  10  20  36  59  84 111 144 185 232 278 327
#     4  10  21  37  59  87 115 145 183 227 276 330
#     4   9  19  34  51  74 105 139 175 220 271 323
#
# _framework density 19.256048
#
# number of rings (size 3 to 8) (size 9 to 14) (size 15 to 20)
#    0.000    2.250    1.250    1.500    0.000    5.500 
#    0.000    5.625    0.000    3.750    0.000    0.000 
#    0.000    0.000    0.000    0.000    0.000    0.000 
#
# Total GULP energy -396751.935751 kJ/mol
# GULP energy per Si atom -12398.497992 kJ/mol
# Density = 1.921222 g / cm^3
# Si number density = 19.256048 Si / 1000 Ang^3
#
#
#
# Elastic Constant Matrix: (Units=GPa)
#
#
# Indices 1 2 3 4 5 6 
#
# 1 36.4086 22.7369 24.2785 0.0000 -5.2151 0.0000
# 2 22.7369 64.6484 52.4725 0.0000 -1.5341 0.0000
# 3 24.2785 52.4725 121.7861 0.0000 -12.7967 0.0000
# 4 0.0000 0.0000 0.0000 20.6355 0.0000 -1.6539
# 5 -5.2151 -1.5341 -12.7967 0.0000 25.6762 0.0000
# 6 0.0000 0.0000 0.0000 -1.6539 0.0000 20.0534
#
#
#
# Elastic Compliance Matrix: (Units=1/GPa)
#
#
# Indices 1 2 3 4 5 6 
#
# 1 0.036533 -0.011220 -0.001835 0.000000 0.005835 0.000000
# 2 -0.011220 0.027607 -0.010261 0.000000 -0.005744 0.000000
# 3 -0.001835 -0.010261 0.013607 0.000000 0.005796 0.000000
# 4 0.000000 0.000000 0.000000 0.048783 0.000000 0.004023
# 5 0.005835 -0.005744 0.005796 0.000000 0.042677 0.000000
# 6 0.000000 0.000000 0.000000 0.004023 0.000000 0.050199
#
#
# Mechanical properties :
#
#
# Convention : Reuss Voigt Hill
#
# Bulk Modulus (GPa) = 32.14133 46.86877 39.50505
# Shear Modulus (GPa) = 18.08905 21.49672 19.79288
#
# Velocity S-wave (km/s) = 3.06828 3.34483 3.20953
# Velocity P-wave (km/s) = 5.41112 6.26975 5.85619
#
# Compressibility (1/GPa) = 0.03111258
#
# Stress axis : x y z
#
# Youngs Moduli (GPa) = 27.37263 36.22283 73.49059
#
# Poissons Ratio (x) = 0.40643 0.13489
# Poissons Ratio (y) = 0.30713 0.75411
# Poissons Ratio (z) = 0.05024 0.37169
#
# Static dielectric constant tensor:
#      x y z
#    x 3.318530 0.000000 -0.156860 
#    y 0.000000 3.624150 0.000000 
#    z -0.156860 0.000000 3.614710 
# 
# 
# High freq. dielectric constant tensor:
#      x y z
#    x 1.730240 0.000000 -0.013000 
#    y 0.000000 1.743520 0.000000 
#    z -0.013000 0.000000 1.756120 
# 
# From -- ./inp_files/86771.got.cif
#   From: 2010.06.25/outbox.cif.g09.slc.cpg/sg10_44_cif.got.tgz:86771.got - 2010.06.27 22:07:45.
