data_PCOD8062106
_publ_section_title
;
Structure prediction by ZEFSAII (Michael W. Deem and Ramdas Pophale) SiO2 
 PCOD8062106
Probable space group: P 2/M
;
_chemical_formula_sum "Si O2"
_cell_formula_units_Z 28
_cell_length_a 25.706459
_cell_length_b 10.095503
_cell_length_c 8.775494
_cell_angle_alpha 90.000000
_cell_angle_beta 37.724892
_cell_angle_gamma 90.000000
_cell_volume 1393.482343
_symmetry_space_group_name_H-M "P 2/M"
_symmetry_group_IT_number 10
_symmetry_cell_setting 'monoclinic'
loop_
_space_group_symop_operation_xyz
x,y,z
-x,y,-z
-x,-y,-z
x,-y,z
loop_
_atom_site_type_symbol
_atom_site_label
_atom_site_fract_x
_atom_site_fract_y
_atom_site_fract_z
Si Si1 0.659398 0.654453 0.447693
Si Si2 0.482721 0.654784 0.705366
Si Si3 0.941333 0.250226 0.502803
Si Si4 0.133959 0.351654 0.612588
Si Si5 0.206057 0.149450 0.954176
Si Si6 0.082896 0.146572 0.971138
Si Si7 0.678439 0.343807 0.747743
O O1 0.684330 0.500000 0.367820
O O2 0.561834 0.680154 0.632588
O O3 0.719012 0.742864 0.199370
O O4 0.672630 0.706644 0.588191
O O5 0.500000 0.720184 0.500000
O O6 0.465865 0.500000 0.721144
O O7 0.398278 0.719918 0.975628
O O8 0.902025 0.356630 0.476360
O O9 0.000000 0.317997 0.500000
O O10 0.999923 0.151181 0.270089
O O11 0.864377 0.167744 0.752477
O O12 0.127262 0.500000 0.696577
O O13 0.231845 0.302825 0.385274
O O14 0.078642 0.254220 0.846326
O O15 0.242038 0.000000 0.884012
O O16 0.165437 0.174004 0.882331
O O17 0.086923 0.000000 0.888473
O O18 0.666149 0.500000 0.773396
#
# Coordination Sequence:
#
# PCOD8062106 Si02
#       7
#     4   4   4   4   4   4   4
#     4  10  19  34  59  86 116 152 189 232 285 340
#     4   9  18  31  54  86 117 150 190 231 273 334
#     4  10  23  39  57  83 114 154 198 240 286 343
#     4  11  23  38  60  88 120 151 187 242 297 341
#     4  10  21  38  60  86 116 150 193 243 293 340
#     4  10  21  40  63  84 111 150 199 242 285 345
#     4   9  18  34  54  83 117 148 185 230 281 337
#
# _framework density 20.093544999999999
#
# number of rings (size 3 to 8) (size 9 to 14) (size 15 to 20)
#    0.000    2.143    1.429    1.286    2.000    7.143 
#    0.000    2.857    0.000    3.000    0.000    0.000 
#    0.000    0.000    0.000    0.000    0.000    0.000 
#
# Total GULP energy -347107.005200 kJ/mol
# GULP energy per Si atom -12396.678757 kJ/mol
# Density = 2.004781 g / cm^3
# Si number density = 20.093545 Si / 1000 Ang^3
#
#
#
# Elastic Constant Matrix: (Units=GPa)
#
#
# Indices 1 2 3 4 5 6 
#
# 1 106.4614 33.0795 49.8514 0.0000 4.3307 0.0000
# 2 33.0795 82.1738 53.2908 0.0000 -0.4564 0.0000
# 3 49.8514 53.2908 144.2620 0.0000 -6.7900 0.0000
# 4 0.0000 0.0000 0.0000 19.3826 0.0000 1.6780
# 5 4.3307 -0.4564 -6.7900 0.0000 28.8528 0.0000
# 6 0.0000 0.0000 0.0000 1.6780 0.0000 16.3694
#
#
#
# Elastic Compliance Matrix: (Units=1/GPa)
#
#
# Indices 1 2 3 4 5 6 
#
# 1 0.011842 -0.002694 -0.003218 0.000000 -0.002577 0.000000
# 2 -0.002694 0.016654 -0.005248 0.000000 -0.000567 0.000000
# 3 -0.003218 -0.005248 0.010113 0.000000 0.002780 0.000000
# 4 0.000000 0.000000 0.000000 0.052055 0.000000 -0.005336
# 5 -0.002577 -0.000567 0.002780 0.000000 0.035691 0.000000
# 6 0.000000 0.000000 0.000000 -0.005336 0.000000 0.061636
#
#
# Mechanical properties :
#
#
# Convention : Reuss Voigt Hill
#
# Bulk Modulus (GPa) = 61.39146 67.26006 64.32576
# Shear Modulus (GPa) = 23.17591 26.03265 24.60428
#
# Velocity S-wave (km/s) = 3.39986 3.60331 3.50306
# Velocity P-wave (km/s) = 6.78463 7.13148 6.96021
#
# Compressibility (1/GPa) = 0.01628891
#
# Stress axis : x y z
#
# Youngs Moduli (GPa) = 84.44492 60.04570 98.88025
#
# Poissons Ratio (x) = 0.16179 0.31821
# Poissons Ratio (y) = 0.22753 0.51889
# Poissons Ratio (z) = 0.27176 0.31510
#
# Static dielectric constant tensor:
#      x y z
#    x 3.775500 0.000000 -0.004720 
#    y 0.000000 3.157780 0.000000 
#    z -0.004720 0.000000 3.778330 
# 
# 
# High freq. dielectric constant tensor:
#      x y z
#    x 1.793200 0.000000 -0.003380 
#    y 0.000000 1.733190 0.000000 
#    z -0.003380 0.000000 1.791270 
# 
# From -- ./inp_files/36972.got.cif
#   From: 2010.06.25/outbox.cif.g09.slc.cpg/sg10_19_cif.got.tgz:36972.got - 2010.06.27 22:07:45.
