data_PCOD8062484
_publ_section_title
;
Structure prediction by ZEFSAII (Michael W. Deem and Ramdas Pophale) SiO2 
 PCOD8062484
Probable space group: P 2/M
;
_chemical_formula_sum "Si O2"
_cell_formula_units_Z 24
_cell_length_a 11.325398
_cell_length_b 15.836264
_cell_length_c 14.541040
_cell_angle_alpha 90.000000
_cell_angle_beta 30.681651
_cell_angle_gamma 90.000000
_cell_volume 1330.759587
_symmetry_space_group_name_H-M "P 2/M"
_symmetry_group_IT_number 10
_symmetry_cell_setting 'monoclinic'
loop_
_space_group_symop_operation_xyz
x,y,z
-x,y,-z
-x,-y,-z
x,-y,z
loop_
_atom_site_type_symbol
_atom_site_label
_atom_site_fract_x
_atom_site_fract_y
_atom_site_fract_z
Si Si1 0.720026 0.500000 0.417852
Si Si2 0.615867 0.328602 0.143177
Si Si3 0.383196 0.316386 0.479488
Si Si4 0.911738 0.770362 0.807504
Si Si5 0.139021 0.500000 0.001421
Si Si6 0.753704 0.759857 0.711350
Si Si7 0.580586 0.091962 0.048270
O O1 0.500000 0.500000 0.500000
O O2 0.712497 0.411584 0.479906
O O3 0.960253 0.500000 0.203737
O O4 0.566793 0.290238 0.277990
O O5 0.683791 0.424193 0.111512
O O6 0.380369 0.320829 0.240837
O O7 0.829855 0.283704 0.949798
O O8 0.500000 0.314485 0.500000
O O9 0.182424 0.245587 0.612106
O O10 0.773053 0.744986 0.807544
O O11 0.841316 0.867960 0.875220
O O12 0.000000 0.500000 0.000000
O O13 0.599867 0.841921 0.785832
O O14 0.000000 0.771921 0.500000
O O15 0.583869 0.000000 0.096830
O O16 0.500000 0.075360 0.000000
#
# Coordination Sequence:
#
# PCOD8062484 Si02
#       7
#     2   4   4   4   2   4   4
#     4  10  20  36  51  75 106 135 182 238 267 305
#     4  11  22  36  56  78 108 148 183 229 274 321
#     4  11  21  35  55  81 109 141 189 231 272 321
#     4  10  20  36  57  79 113 147 174 225 277 331
#     4  12  22  36  55  77 111 146 189 236 274 305
#     4  10  19  36  57  81 114 145 180 222 276 329
#     4   8  16  31  54  83 111 139 178 221 270 325
#
# _framework density 18.034813
#
# number of rings (size 3 to 8) (size 9 to 14) (size 15 to 20)
#    0.000    1.833    3.333    4.000    0.000    0.333 
#    0.000    2.917    0.000    0.500    0.000    4.667 
#    0.000    0.000    0.000    0.000    0.000    0.000 
#
# Total GULP energy -297371.688562 kJ/mol
# GULP energy per Si atom -12390.487023 kJ/mol
# Density = 1.799377 g / cm^3
# Si number density = 18.034813 Si / 1000 Ang^3
#
#
#
# Elastic Constant Matrix: (Units=GPa)
#
#
# Indices 1 2 3 4 5 6 
#
# 1 74.0635 43.4015 27.6353 0.0000 6.1421 0.0000
# 2 43.4015 116.3288 43.0547 0.0000 -16.0464 0.0000
# 3 27.6353 43.0547 117.9597 0.0000 4.2311 0.0000
# 4 0.0000 0.0000 0.0000 17.7037 0.0000 2.2747
# 5 6.1421 -16.0464 4.2311 0.0000 35.0695 0.0000
# 6 0.0000 0.0000 0.0000 2.2747 0.0000 2.3931
#
#
#
# Elastic Compliance Matrix: (Units=1/GPa)
#
#
# Indices 1 2 3 4 5 6 
#
# 1 0.018948 -0.007416 -0.001498 0.000000 -0.006531 0.000000
# 2 -0.007416 0.013801 -0.003589 0.000000 0.008047 0.000000
# 3 -0.001498 -0.003589 0.010232 0.000000 -0.002614 0.000000
# 4 0.000000 0.000000 0.000000 0.064343 0.000000 -0.061158
# 5 -0.006531 0.008047 -0.002614 0.000000 0.033656 0.000000
# 6 0.000000 0.000000 0.000000 -0.061158 0.000000 0.475991
#
#
# Mechanical properties :
#
#
# Convention : Reuss Voigt Hill
#
# Bulk Modulus (GPa) = 55.62887 59.61502 57.62194
# Shear Modulus (GPa) = 7.71641 23.98395 15.85018
#
# Velocity S-wave (km/s) = 2.07073 3.65069 2.96778
# Velocity P-wave (km/s) = 6.05223 7.13424 6.61539
#
# Compressibility (1/GPa) = 0.01797628
#
# Stress axis : x y z
#
# Youngs Moduli (GPa) = 52.77519 72.45680 97.73205
#
# Poissons Ratio (x) = 0.53733 0.14642
# Poissons Ratio (y) = 0.39138 0.35073
# Poissons Ratio (z) = 0.07906 0.26002
#
# Static dielectric constant tensor:
#      x y z
#    x 3.201150 0.000000 0.051240 
#    y 0.000000 3.604460 0.000000 
#    z 0.051240 0.000000 3.530150 
# 
# 
# High freq. dielectric constant tensor:
#      x y z
#    x 1.672490 0.000000 0.004470 
#    y 0.000000 1.680600 0.000000 
#    z 0.004470 0.000000 1.716330 
# 
# From -- ./inp_files/51566.got.cif
#   From: 2010.06.25/outbox.cif.g09.slc.cpg/sg10_26_cif.got.tgz:51566.got - 2010.06.27 22:07:45.
