data_PCOD8062064
_publ_section_title
;
Structure prediction by ZEFSAII (Michael W. Deem and Ramdas Pophale) SiO2 
 PCOD8062064
Probable space group: P 2/M
;
_chemical_formula_sum "Si O2"
_cell_formula_units_Z 32
_cell_length_a 12.353401
_cell_length_b 8.539005
_cell_length_c 29.543696
_cell_angle_alpha 90.000000
_cell_angle_beta 149.186615
_cell_angle_gamma 90.000000
_cell_volume 1596.375674
_symmetry_space_group_name_H-M "P 2/M"
_symmetry_group_IT_number 10
_symmetry_cell_setting 'monoclinic'
loop_
_space_group_symop_operation_xyz
x,y,z
-x,y,-z
-x,-y,-z
x,-y,z
loop_
_atom_site_type_symbol
_atom_site_label
_atom_site_fract_x
_atom_site_fract_y
_atom_site_fract_z
Si Si1 0.389912 0.315694 0.247711
Si Si2 0.768698 0.315192 0.905812
Si Si3 0.187862 0.814793 0.827621
Si Si4 0.363747 0.316213 0.515391
Si Si5 0.021505 0.814716 0.862950
Si Si6 0.782495 0.815625 0.628658
Si Si7 0.773181 0.816519 0.438158
Si Si8 0.384864 0.185070 0.060970
O O1 0.433537 0.500000 0.263765
O O2 0.323722 0.250646 0.174531
O O3 0.200059 0.274718 0.213507
O O4 0.600820 0.227712 0.338638
O O5 0.785253 0.500000 0.908770
O O6 0.609650 0.263283 0.887917
O O7 0.000000 0.242804 0.000000
O O8 0.413700 0.746491 0.893585
O O9 0.133507 0.752223 0.857882
O O10 0.010119 0.761280 0.728243
O O11 0.203382 0.000000 0.835292
O O12 0.342224 0.500000 0.500812
O O13 0.228741 0.231501 0.427859
O O14 0.607644 0.267480 0.597239
O O15 0.273679 0.271665 0.531906
O O16 0.979726 0.000000 0.846269
O O17 0.171114 0.766525 0.958375
O O18 0.747290 0.000000 0.621139
O O19 0.000000 0.764431 0.500000
O O20 0.766338 0.000000 0.445577
O O21 0.401701 0.000000 0.072351
#
# Coordination Sequence:
#
# PCOD8062064 Si02
#       8
#     4   4   4   4   4   4   4   4
#     4  11  23  39  62  88 116 153 195 240 291 346
#     4  10  21  39  58  79 116 156 191 235 289 344
#     4   9  19  34  53  82 117 150 187 238 293 340
#     4  11  22  38  61  87 118 151 193 244 295 354
#     4  10  19  34  58  84 115 153 194 237 285 342
#     4  10  19  35  60  86 117 158 201 243 294 349
#     4  11  25  44  64  87 117 152 193 244 301 361
#     4  10  20  34  56  84 113 149 196 243 284 333
#
# _framework density 20.045404999999999
#
# number of rings (size 3 to 8) (size 9 to 14) (size 15 to 20)
#    0.000    1.750    1.250    4.125    0.000    5.750 
#    0.000    6.250    0.000    1.500    0.000    0.000 
#    0.000    0.000    0.000    0.000    0.000    0.000 
#
# Total GULP energy -396889.269135 kJ/mol
# GULP energy per Si atom -12402.789660 kJ/mol
# Density = 1.999978 g / cm^3
# Si number density = 20.045405 Si / 1000 Ang^3
#
#
#
# Elastic Constant Matrix: (Units=GPa)
#
#
# Indices 1 2 3 4 5 6 
#
# 1 133.2413 8.2744 51.7512 0.0000 -1.2478 0.0000
# 2 8.2744 23.8997 7.5240 0.0000 2.3534 0.0000
# 3 51.7512 7.5240 106.2063 0.0000 7.0506 0.0000
# 4 0.0000 0.0000 0.0000 14.5033 0.0000 -8.1181
# 5 -1.2478 2.3534 7.0506 0.0000 33.0500 0.0000
# 6 0.0000 0.0000 0.0000 -8.1181 0.0000 10.1010
#
#
#
# Elastic Compliance Matrix: (Units=1/GPa)
#
#
# Indices 1 2 3 4 5 6 
#
# 1 0.009405 -0.001971 -0.004540 0.000000 0.001464 0.000000
# 2 -0.001971 0.043403 -0.001932 0.000000 -0.002753 0.000000
# 3 -0.004540 -0.001932 0.011936 0.000000 -0.002580 0.000000
# 4 0.000000 0.000000 0.000000 0.125331 0.000000 0.100728
# 5 0.001464 -0.002753 -0.002580 0.000000 0.031059 0.000000
# 6 0.000000 0.000000 0.000000 0.100728 0.000000 0.179954
#
#
# Mechanical properties :
#
#
# Convention : Reuss Voigt Hill
#
# Bulk Modulus (GPa) = 20.89499 44.27182 32.58341
# Shear Modulus (GPa) = 11.52269 24.58404 18.05337
#
# Velocity S-wave (km/s) = 2.40016 3.50582 3.00430
# Velocity P-wave (km/s) = 4.25764 6.20657 5.32207
#
# Compressibility (1/GPa) = 0.04785835
#
# Stress axis : x y z
#
# Youngs Moduli (GPa) = 106.32968 23.03982 83.77952
#
# Poissons Ratio (x) = 0.04541 0.38038
# Poissons Ratio (y) = 0.20956 0.16184
# Poissons Ratio (z) = 0.48276 0.04451
#
# Static dielectric constant tensor:
#      x y z
#    x 3.768940 0.000000 -0.018980 
#    y 0.000000 3.424610 0.000000 
#    z -0.018980 0.000000 3.818800 
# 
# 
# High freq. dielectric constant tensor:
#      x y z
#    x 1.791450 0.000000 -0.005290 
#    y 0.000000 1.765940 0.000000 
#    z -0.005290 0.000000 1.788530 
# 
# From -- ./inp_files/95018.got.cif
#   From: 2010.06.25/outbox.cif.g09.slc.cpg/sg10_48_cif.got.tgz:95018.got - 2010.06.27 22:07:45.
