data_PCOD8062946
_publ_section_title
;
Structure prediction by ZEFSAII (Michael W. Deem and Ramdas Pophale) SiO2 
 PCOD8062946
Probable space group: P 2/M
;
_chemical_formula_sum "Si O2"
_cell_formula_units_Z 32
_cell_length_a 23.664371
_cell_length_b 9.036454
_cell_length_c 17.689217
_cell_angle_alpha 90.000000
_cell_angle_beta 31.076221
_cell_angle_gamma 90.000000
_cell_volume 1952.544929
_symmetry_space_group_name_H-M "P 2/M"
_symmetry_group_IT_number 10
_symmetry_cell_setting 'monoclinic'
loop_
_space_group_symop_operation_xyz
x,y,z
-x,y,-z
-x,-y,-z
x,-y,z
loop_
_atom_site_type_symbol
_atom_site_label
_atom_site_fract_x
_atom_site_fract_y
_atom_site_fract_z
Si Si1 0.973477 0.172525 0.444920
Si Si2 0.577152 0.671015 0.756024
Si Si3 0.640237 0.175510 0.947997
Si Si4 0.551644 0.675741 0.617965
Si Si5 0.625368 0.337270 0.380953
Si Si6 0.751912 0.328684 0.679726
Si Si7 0.313137 0.323531 0.846732
Si Si8 0.196933 0.827311 0.107702
O O1 0.873352 0.267615 0.528249
O O2 0.000000 0.219833 0.500000
O O3 0.076272 0.211266 0.274851
O O4 0.942510 0.000000 0.477423
O O5 0.539207 0.500000 0.800566
O O6 0.598871 0.724927 0.644976
O O7 0.689105 0.694602 0.672752
O O8 0.482509 0.766964 0.902570
O O9 0.689724 0.239055 0.815001
O O10 0.715008 0.229655 0.931925
O O11 0.640112 0.000000 0.941609
O O12 0.553571 0.500000 0.605334
O O13 0.625600 0.743615 0.463549
O O14 0.426341 0.730634 0.755637
O O15 0.500000 0.351436 0.500000
O O16 0.676798 0.500000 0.331804
O O17 0.691116 0.261118 0.235618
O O18 0.755833 0.500000 0.698492
O O19 0.304138 0.500000 0.857079
O O20 0.214183 0.255491 0.008369
O O21 0.211497 0.000000 0.077227
#
# Coordination Sequence:
#
# PCOD8062946 Si02
#       8
#     4   4   4   4   4   4   4   4
#     4  10  20  38  55  66  87 121 161 200 239 283
#     4  10  20  33  48  71 100 127 156 193 234 276
#     4  11  21  34  50  68  94 129 164 192 227 279
#     4   8  13  24  43  66  95 127 152 180 224 274
#     4   7  11  20  38  66  93 119 153 184 215 269
#     4  11  23  35  49  71  96 121 157 202 241 276
#     4   9  15  25  45  70  94 121 154 189 225 275
#     4  10  20  32  48  69  93 122 155 195 236 276
#
# _framework density 16.388867000000001
#
# number of rings (size 3 to 8) (size 9 to 14) (size 15 to 20)
#    0.000    2.500    2.500    2.625    0.000    3.750 
#    0.000    0.000    0.000    4.125    0.000    0.875 
#    0.000    7.000    0.000    0.000    0.000    0.000 
#
# Total GULP energy -396579.380005 kJ/mol
# GULP energy per Si atom -12393.105625 kJ/mol
# Density = 1.635157 g / cm^3
# Si number density = 16.388867 Si / 1000 Ang^3
#
#
#
# Elastic Constant Matrix: (Units=GPa)
#
#
# Indices 1 2 3 4 5 6 
#
# 1 76.2401 30.7864 71.7073 0.0000 11.6117 0.0000
# 2 30.7864 41.2092 36.1439 0.0000 1.7077 0.0000
# 3 71.7073 36.1439 108.9216 0.0000 23.0672 0.0000
# 4 0.0000 0.0000 0.0000 21.0943 0.0000 -6.8010
# 5 11.6117 1.7077 23.0672 0.0000 33.7882 0.0000
# 6 0.0000 0.0000 0.0000 -6.8010 0.0000 9.3068
#
#
#
# Elastic Compliance Matrix: (Units=1/GPa)
#
#
# Indices 1 2 3 4 5 6 
#
# 1 0.036775 -0.008219 -0.022088 0.000000 0.002857 0.000000
# 2 -0.008219 0.037562 -0.008475 0.000000 0.006712 0.000000
# 3 -0.022088 -0.008475 0.029034 0.000000 -0.011802 0.000000
# 4 0.000000 0.000000 0.000000 0.062018 0.000000 0.045320
# 5 0.002857 0.006712 -0.011802 0.000000 0.036333 0.000000
# 6 0.000000 0.000000 0.000000 0.045320 0.000000 0.140566
#
#
# Mechanical properties :
#
#
# Convention : Reuss Voigt Hill
#
# Bulk Modulus (GPa) = 38.74922 55.96069 47.35496
# Shear Modulus (GPa) = 11.66987 18.68675 15.17831
#
# Velocity S-wave (km/s) = 2.67134 3.38036 3.04655
# Velocity P-wave (km/s) = 5.76279 7.03246 6.42904
#
# Compressibility (1/GPa) = 0.02580697
#
# Stress axis : x y z
#
# Youngs Moduli (GPa) = 27.19228 26.62293 34.44233
#
# Poissons Ratio (x) = 0.21882 0.76077
# Poissons Ratio (y) = 0.22350 0.29189
# Poissons Ratio (z) = 0.60063 0.22562
#
# Static dielectric constant tensor:
#      x y z
#    x 3.212350 0.000000 0.314930 
#    y 0.000000 2.859410 0.000000 
#    z 0.314930 0.000000 3.194810 
# 
# 
# High freq. dielectric constant tensor:
#      x y z
#    x 1.616880 0.000000 0.027270 
#    y 0.000000 1.606650 0.000000 
#    z 0.027270 0.000000 1.622600 
# 
# From -- ./inp_files/54871.got.cif
#   From: 2010.06.25/outbox.cif.g09.slc.cpg/sg10_28_cif.got.tgz:54871.got - 2010.06.27 22:07:45.
