data_PCOD8062020
_publ_section_title
;
Structure prediction by ZEFSAII (Michael W. Deem and Ramdas Pophale) SiO2 
 PCOD8062020
Probable space group: P 2/M
;
_chemical_formula_sum "Si O2"
_cell_formula_units_Z 32
_cell_length_a 11.932731
_cell_length_b 8.850432
_cell_length_c 15.379615
_cell_angle_alpha 90.000000
_cell_angle_beta 90.581053
_cell_angle_gamma 90.000000
_cell_volume 1624.154916
_symmetry_space_group_name_H-M "P 2/M"
_symmetry_group_IT_number 10
_symmetry_cell_setting 'monoclinic'
loop_
_space_group_symop_operation_xyz
x,y,z
-x,y,-z
-x,-y,-z
x,-y,z
loop_
_atom_site_type_symbol
_atom_site_label
_atom_site_fract_x
_atom_site_fract_y
_atom_site_fract_z
Si Si1 0.504154 0.674774 0.398521
Si Si2 0.267473 0.679043 0.832992
Si Si3 0.741301 0.672774 0.655715
Si Si4 0.125666 0.178759 0.492646
Si Si5 0.507642 0.176992 0.100686
Si Si6 0.124937 0.679453 0.994753
Si Si7 0.716708 0.325245 0.850388
Si Si8 0.727627 0.178380 0.345122
O O1 0.500000 0.708209 0.500000
O O2 0.530954 0.500000 0.378676
O O3 0.386603 0.726286 0.356980
O O4 0.598499 0.776395 0.355133
O O5 0.267135 0.500000 0.826716
O O6 0.392405 0.733185 0.853762
O O7 0.183859 0.737875 0.907402
O O8 0.223678 0.747565 0.742071
O O9 0.752350 0.500000 0.624849
O O10 0.824547 0.771321 0.598960
O O11 0.774465 0.693106 0.756694
O O12 0.200480 0.241443 0.572947
O O13 0.000000 0.243685 0.500000
O O14 0.124803 0.000000 0.495055
O O15 0.394133 0.224713 0.147340
O O16 0.528844 0.000000 0.113019
O O17 0.500000 0.223435 0.000000
O O18 0.119450 0.500000 0.995342
O O19 0.195680 0.736613 0.078018
O O20 0.000000 0.748231 0.000000
O O21 0.684485 0.500000 0.867724
O O22 0.737533 0.000000 0.337126
#
# Coordination Sequence:
#
# PCOD8062020 Si02
#       8
#     4   4   4   4   4   4   4   4
#     4  10  19  34  57  85 118 148 183 232 287 346
#     4  11  22  37  61  87 116 155 193 235 290 346
#     4  10  21  36  58  87 114 145 186 240 290 336
#     4  10  23  42  60  80 113 157 197 235 285 345
#     4  11  22  36  58  88 122 154 190 236 285 342
#     4   9  19  36  57  82 112 148 193 240 284 337
#     4  10  20  36  59  86 116 151 192 235 287 344
#     4  11  23  38  59  86 117 152 193 240 288 344
#
# _framework density 19.702553000000002
#
# number of rings (size 3 to 8) (size 9 to 14) (size 15 to 20)
#    0.000    1.750    2.500    1.875    0.000    4.500 
#    0.000    1.250    0.000    3.375    0.000    0.000 
#    0.000    0.000    0.000    0.000    0.000    0.000 
#
# Total GULP energy -396944.961474 kJ/mol
# GULP energy per Si atom -12404.530046 kJ/mol
# Density = 1.965771 g / cm^3
# Si number density = 19.702553 Si / 1000 Ang^3
#
#
#
# Elastic Constant Matrix: (Units=GPa)
#
#
# Indices 1 2 3 4 5 6 
#
# 1 129.3164 21.9692 58.9102 0.0000 -11.2270 0.0000
# 2 21.9692 44.0676 33.1047 0.0000 -1.1855 0.0000
# 3 58.9102 33.1047 135.3413 0.0000 -14.0673 0.0000
# 4 0.0000 0.0000 0.0000 23.7196 0.0000 -9.4662
# 5 -11.2270 -1.1855 -14.0673 0.0000 14.1871 0.0000
# 6 0.0000 0.0000 0.0000 -9.4662 0.0000 10.6907
#
#
#
# Elastic Compliance Matrix: (Units=1/GPa)
#
#
# Indices 1 2 3 4 5 6 
#
# 1 0.010039 -0.002389 -0.003323 0.000000 0.004450 0.000000
# 2 -0.002389 0.028682 -0.006604 0.000000 -0.006042 0.000000
# 3 -0.003323 -0.006604 0.011282 0.000000 0.008006 0.000000
# 4 0.000000 0.000000 0.000000 0.065199 0.000000 0.057730
# 5 0.004450 -0.006042 0.008006 0.000000 0.081442 0.000000
# 6 0.000000 0.000000 0.000000 0.057730 0.000000 0.144657
#
#
# Mechanical properties :
#
#
# Convention : Reuss Voigt Hill
#
# Bulk Modulus (GPa) = 39.41320 59.63264 49.52292
# Shear Modulus (GPa) = 13.35512 22.70222 18.02867
#
# Velocity S-wave (km/s) = 2.60636 3.39816 3.02825
# Velocity P-wave (km/s) = 5.39490 6.76231 6.11694
#
# Compressibility (1/GPa) = 0.02537221
#
# Stress axis : x y z
#
# Youngs Moduli (GPa) = 99.61308 34.86540 88.63312
#
# Poissons Ratio (x) = 0.08329 0.29451
# Poissons Ratio (y) = 0.23796 0.58531
# Poissons Ratio (z) = 0.33099 0.23024
#
# Static dielectric constant tensor:
#      x y z
#    x 3.599630 0.000000 0.114870 
#    y 0.000000 3.339550 0.000000 
#    z 0.114870 0.000000 3.802600 
# 
# 
# High freq. dielectric constant tensor:
#      x y z
#    x 1.762700 0.000000 0.001210 
#    y 0.000000 1.747430 0.000000 
#    z 0.001210 0.000000 1.785980 
# 
# From -- ./inp_files/63789.got.cif
#   From: 2010.06.25/outbox.cif.g09.slc.cpg/sg10_32_cif.got.tgz:63789.got - 2010.06.27 22:07:45.
