data_PCOD8062710
_publ_section_title
;
Structure prediction by ZEFSAII (Michael W. Deem and Ramdas Pophale) SiO2 
 PCOD8062710
Probable space group: P 2/M
;
_chemical_formula_sum "Si O2"
_cell_formula_units_Z 20
_cell_length_a 13.632870
_cell_length_b 13.694234
_cell_length_c 5.049070
_cell_angle_alpha 90.000000
_cell_angle_beta 100.595184
_cell_angle_gamma 90.000000
_cell_volume 926.548620
_symmetry_space_group_name_H-M "P 2/M"
_symmetry_group_IT_number 10
_symmetry_cell_setting 'monoclinic'
loop_
_space_group_symop_operation_xyz
x,y,z
-x,y,-z
-x,-y,-z
x,-y,z
loop_
_atom_site_type_symbol
_atom_site_label
_atom_site_fract_x
_atom_site_fract_y
_atom_site_fract_z
Si Si1 0.291534 0.390839 0.454527
Si Si2 0.840769 0.390782 0.110723
Si Si3 0.282906 0.886276 0.852352
Si Si4 0.937638 0.805365 0.216969
Si Si5 0.386573 0.803912 0.403638
O O1 0.336286 0.500000 0.444446
O O2 0.249098 0.374388 0.727204
O O3 0.378310 0.312560 0.446618
O O4 0.201471 0.373933 0.204234
O O5 0.885747 0.500000 0.164041
O O6 0.927500 0.312503 0.204250
O O7 0.169317 0.855666 0.837920
O O8 0.315386 0.861566 0.570273
O O9 0.295135 0.000000 0.912784
O O10 0.353606 0.828506 0.090033
O O11 0.000000 0.838666 0.500000
O O12 0.000000 0.843855 0.000000
O O13 0.500000 0.837041 0.500000
#
# Coordination Sequence:
#
# PCOD8062710 Si02
#       5
#     4   4   4   4   4
#     4  10  19  37  64  93 130 170 207 252 313 382
#     4  10  20  37  62  91 129 171 209 255 314 378
#     4  12  27  47  67  93 131 168 216 277 324 371
#     4  12  24  40  67  94 127 167 216 263 322 384
#     4  12  24  43  71  99 129 169 214 261 326 387
#
# _framework density 21.585481999999999
#
# number of rings (size 3 to 8) (size 9 to 14) (size 15 to 20)
#    0.000    0.800    4.000    3.600    0.000    4.400 
#    0.000    0.000    0.000    6.000    0.000    0.000 
#    0.000    0.000    0.000    0.000    0.000    0.000 
#
# Total GULP energy -248120.694828 kJ/mol
# GULP energy per Si atom -12406.034741 kJ/mol
# Density = 2.153635 g / cm^3
# Si number density = 21.585482 Si / 1000 Ang^3
#
#
#
# Elastic Constant Matrix: (Units=GPa)
#
#
# Indices 1 2 3 4 5 6 
#
# 1 90.0517 28.7139 21.8958 0.0000 6.9912 0.0000
# 2 28.7139 100.6608 11.7576 0.0000 -4.8167 0.0000
# 3 21.8958 11.7576 103.7846 0.0000 1.4551 0.0000
# 4 0.0000 0.0000 0.0000 25.6341 0.0000 1.4627
# 5 6.9912 -4.8167 1.4551 0.0000 33.9657 0.0000
# 6 0.0000 0.0000 0.0000 1.4627 0.0000 7.9444
#
#
#
# Elastic Compliance Matrix: (Units=1/GPa)
#
#
# Indices 1 2 3 4 5 6 
#
# 1 0.013054 -0.003603 -0.002302 0.000000 -0.003099 0.000000
# 2 -0.003603 0.011137 -0.000534 0.000000 0.002344 0.000000
# 3 -0.002302 -0.000534 0.010182 0.000000 -0.000038 0.000000
# 4 0.000000 0.000000 0.000000 0.039425 0.000000 -0.007259
# 5 -0.003099 0.002344 -0.000038 0.000000 0.030413 0.000000
# 6 0.000000 0.000000 0.000000 -0.007259 0.000000 0.127211
#
#
# Mechanical properties :
#
#
# Convention : Reuss Voigt Hill
#
# Bulk Modulus (GPa) = 46.52638 46.58130 46.55384
# Shear Modulus (GPa) = 19.88340 28.98416 24.43378
#
# Velocity S-wave (km/s) = 3.03833 3.66835 3.36810
# Velocity P-wave (km/s) = 5.82322 6.29040 6.06131
#
# Compressibility (1/GPa) = 0.02149318
#
# Stress axis : x y z
#
# Youngs Moduli (GPa) = 76.60450 89.79302 98.21098
#
# Poissons Ratio (x) = 0.32353 0.22612
# Poissons Ratio (y) = 0.27601 0.05248
# Poissons Ratio (z) = 0.17638 0.04798
#
# Static dielectric constant tensor:
#      x y z
#    x 3.521410 0.000000 -0.105290 
#    y 0.000000 4.117730 0.000000 
#    z -0.105290 0.000000 4.030080 
# 
# 
# High freq. dielectric constant tensor:
#      x y z
#    x 1.824010 0.000000 -0.006770 
#    y 0.000000 1.855010 0.000000 
#    z -0.006770 0.000000 1.867110 
# 
# From -- ./inp_files/6623.got.cif
#   From: 2010.06.25/outbox.cif.g09.slc.cpg/sg10_4_cif.got.tgz:6623.got - 2010.06.27 22:07:45.
