data_PCOD8062014
_publ_section_title
;
Structure prediction by ZEFSAII (Michael W. Deem and Ramdas Pophale) SiO2 
 PCOD8062014
Probable space group: P 2/M
;
_chemical_formula_sum "Si O2"
_cell_formula_units_Z 24
_cell_length_a 18.982874
_cell_length_b 8.504649
_cell_length_c 9.569372
_cell_angle_alpha 90.000000
_cell_angle_beta 128.742609
_cell_angle_gamma 90.000000
_cell_volume 1204.972218
_symmetry_space_group_name_H-M "P 2/M"
_symmetry_group_IT_number 10
_symmetry_cell_setting 'monoclinic'
loop_
_space_group_symop_operation_xyz
x,y,z
-x,y,-z
-x,-y,-z
x,-y,z
loop_
_atom_site_type_symbol
_atom_site_label
_atom_site_fract_x
_atom_site_fract_y
_atom_site_fract_z
Si Si1 0.914131 0.314679 0.482799
Si Si2 0.749029 0.813154 0.103284
Si Si3 0.548414 0.187228 0.924987
Si Si4 0.759342 0.812503 0.799857
Si Si5 0.916926 0.815537 0.797470
Si Si6 0.567664 0.812999 0.471610
O O1 0.907871 0.500000 0.463241
O O2 0.822455 0.244118 0.305699
O O3 0.925257 0.268139 0.658458
O O4 0.000000 0.251565 0.500000
O O5 0.747316 0.000000 0.103512
O O6 0.649669 0.747009 0.023416
O O7 0.773835 0.752433 0.977469
O O8 0.474602 0.246008 0.723627
O O9 0.555611 0.000000 0.936731
O O10 0.500000 0.256997 0.000000
O O11 0.833216 0.748824 0.782992
O O12 0.666356 0.743464 0.623248
O O13 0.761127 0.000000 0.804505
O O14 0.908628 0.000000 0.756716
O O15 0.000000 0.775375 0.000000
O O16 0.500000 0.743508 0.500000
O O17 0.573462 0.000000 0.487897
#
# Coordination Sequence:
#
# PCOD8062014 Si02
#       6
#     4   4   4   4   4   4
#     4  11  25  42  58  78 108 147 186 223 273 334
#     4  10  19  34  57  85 114 145 183 227 276 323
#     4   9  17  26  43  78 117 148 178 218 269 323
#     4   9  17  29  50  81 114 144 176 221 275 324
#     4  10  21  37  59  87 112 136 175 229 281 326
#     4   9  14  24  41  69 111 148 175 210 261 319
#
# _framework density 19.917473999999999
#
# number of rings (size 3 to 8) (size 9 to 14) (size 15 to 20)
#    0.000    2.333    1.667    1.500    2.333    3.000 
#    0.000    0.833    0.000    0.500    0.000    1.167 
#    0.000    0.000    0.000    0.000    0.000    0.000 
#
# Total GULP energy -297405.861337 kJ/mol
# GULP energy per Si atom -12391.910889 kJ/mol
# Density = 1.987214 g / cm^3
# Si number density = 19.917474 Si / 1000 Ang^3
#
#
#
# Elastic Constant Matrix: (Units=GPa)
#
#
# Indices 1 2 3 4 5 6 
#
# 1 178.7196 14.9226 76.1147 0.0000 -9.2505 0.0000
# 2 14.9226 15.6498 7.7388 0.0000 -0.4866 0.0000
# 3 76.1147 7.7388 132.3711 0.0000 -7.7754 0.0000
# 4 0.0000 0.0000 0.0000 7.5338 0.0000 -3.6082
# 5 -9.2505 -0.4866 -7.7754 0.0000 46.0000 0.0000
# 6 0.0000 0.0000 0.0000 -3.6082 0.0000 11.6773
#
#
#
# Elastic Compliance Matrix: (Units=1/GPa)
#
#
# Indices 1 2 3 4 5 6 
#
# 1 0.007859 -0.005414 -0.004154 0.000000 0.000821 0.000000
# 2 -0.005414 0.069531 -0.000982 0.000000 -0.000519 0.000000
# 3 -0.004154 -0.000982 0.010051 0.000000 0.000853 0.000000
# 4 0.000000 0.000000 0.000000 0.155791 0.000000 0.048138
# 5 0.000821 -0.000519 0.000853 0.000000 0.022043 0.000000
# 6 0.000000 0.000000 0.000000 0.048138 0.000000 0.100510
#
#
# Mechanical properties :
#
#
# Convention : Reuss Voigt Hill
#
# Bulk Modulus (GPa) = 15.07404 58.25476 36.66440
# Shear Modulus (GPa) = 12.22495 28.23985 20.23240
#
# Velocity S-wave (km/s) = 2.48015 3.76951 3.19064
# Velocity P-wave (km/s) = 3.97318 6.94674 5.65877
#
# Compressibility (1/GPa) = 0.06633922
#
# Stress axis : x y z
#
# Youngs Moduli (GPa) = 127.23906 14.38211 99.49392
#
# Poissons Ratio (x) = 0.07787 0.41334
# Poissons Ratio (y) = 0.68889 0.09773
# Poissons Ratio (z) = 0.52860 0.01413
#
# Static dielectric constant tensor:
#      x y z
#    x 4.045580 0.000000 0.032580 
#    y 0.000000 2.951780 0.000000 
#    z 0.032580 0.000000 3.778620 
# 
# 
# High freq. dielectric constant tensor:
#      x y z
#    x 1.796430 0.000000 0.000830 
#    y 0.000000 1.710670 0.000000 
#    z 0.000830 0.000000 1.796120 
# 
# From -- ./inp_files/33957.got.cif
#   From: 2010.06.25/outbox.cif.g09.slc.cpg/sg10_17_cif.got.tgz:33957.got - 2010.06.27 22:07:45.
