data_PCOD8062050
_publ_section_title
;
Structure prediction by ZEFSAII (Michael W. Deem and Ramdas Pophale) SiO2 
 PCOD8062050
Probable space group: P 2/M
;
_chemical_formula_sum "Si O2"
_cell_formula_units_Z 32
_cell_length_a 25.706019
_cell_length_b 9.231829
_cell_length_c 19.906860
_cell_angle_alpha 90.000000
_cell_angle_beta 21.427027
_cell_angle_gamma 90.000000
_cell_volume 1725.813854
_symmetry_space_group_name_H-M "P 2/M"
_symmetry_group_IT_number 10
_symmetry_cell_setting 'monoclinic'
loop_
_space_group_symop_operation_xyz
x,y,z
-x,y,-z
-x,-y,-z
x,-y,z
loop_
_atom_site_type_symbol
_atom_site_label
_atom_site_fract_x
_atom_site_fract_y
_atom_site_fract_z
Si Si1 0.163568 0.668609 0.905542
Si Si2 0.159626 0.667127 0.297143
Si Si3 0.340030 0.169244 0.188008
Si Si4 0.120278 0.167850 0.564132
Si Si5 0.123241 0.171572 0.714800
Si Si6 0.155191 0.667360 0.149824
Si Si7 0.681315 0.330976 0.419823
Si Si8 0.362600 0.671417 0.786039
O O1 0.126745 0.500000 0.962372
O O2 0.222158 0.694380 0.761095
O O3 0.281369 0.725185 0.816904
O O4 0.022349 0.762107 0.082548
O O5 0.166902 0.500000 0.309993
O O6 0.266848 0.755531 0.213341
O O7 0.207222 0.690867 0.163134
O O8 0.000000 0.726273 0.500000
O O9 0.262044 0.205525 0.351858
O O10 0.338366 0.000000 0.174583
O O11 0.500000 0.229312 0.000000
O O12 0.144154 0.215017 0.612077
O O13 0.991701 0.252500 0.685382
O O14 0.081317 0.000000 0.606310
O O15 0.256134 0.239621 0.594052
O O16 0.120605 0.000000 0.728921
O O17 0.125805 0.500000 0.169433
O O18 0.277391 0.728404 0.953683
O O19 0.677741 0.500000 0.444021
O O20 0.523370 0.268836 0.594719
O O21 0.371060 0.500000 0.774468
#
# Coordination Sequence:
#
# PCOD8062050 Si02
#       8
#     4   4   4   4   4   4   4   4
#     4  10  19  35  60  83 105 141 186 227 269 321
#     4  10  20  34  55  85 115 141 175 222 273 323
#     4  10  22  39  58  81 110 146 187 225 265 319
#     4  10  21  37  56  78 107 143 184 225 266 317
#     4  11  23  37  54  79 112 147 182 223 272 324
#     4  10  19  34  58  84 110 141 180 224 270 323
#     4  10  21  36  55  82 112 141 180 228 273 322
#     4   9  18  34  57  83 109 139 180 227 272 317
#
# _framework density 18.541976999999999
#
# number of rings (size 3 to 8) (size 9 to 14) (size 15 to 20)
#    0.000    2.000    2.500    1.125    0.000    6.000 
#    0.000    1.250    0.000    1.500    0.000    0.000 
#    0.000    0.000    0.000    0.000    0.000    0.000 
#
# Total GULP energy -396888.469336 kJ/mol
# GULP energy per Si atom -12402.764667 kJ/mol
# Density = 1.849977 g / cm^3
# Si number density = 18.541977 Si / 1000 Ang^3
#
#
#
# Elastic Constant Matrix: (Units=GPa)
#
#
# Indices 1 2 3 4 5 6 
#
# 1 100.5774 31.4927 47.5469 0.0000 -7.6775 0.0000
# 2 31.4927 39.5821 35.5029 0.0000 -2.9217 0.0000
# 3 47.5469 35.5029 111.0684 0.0000 -9.7470 0.0000
# 4 0.0000 0.0000 0.0000 17.6126 0.0000 4.5701
# 5 -7.6775 -2.9217 -9.7470 0.0000 37.6763 0.0000
# 6 0.0000 0.0000 0.0000 4.5701 0.0000 40.0132
#
#
#
# Elastic Compliance Matrix: (Units=1/GPa)
#
#
# Indices 1 2 3 4 5 6 
#
# 1 0.014192 -0.008200 -0.003332 0.000000 0.001394 0.000000
# 2 -0.008200 0.040158 -0.009413 0.000000 -0.000992 0.000000
# 3 -0.003332 -0.009413 0.013624 0.000000 0.002116 0.000000
# 4 0.000000 0.000000 0.000000 0.058512 0.000000 -0.006683
# 5 0.001394 -0.000992 0.002116 0.000000 0.027296 0.000000
# 6 0.000000 0.000000 0.000000 -0.006683 0.000000 0.025755
#
#
# Mechanical properties :
#
#
# Convention : Reuss Voigt Hill
#
# Bulk Modulus (GPa) = 38.33764 53.36809 45.85286
# Shear Modulus (GPa) = 21.72763 28.17277 24.95020
#
# Velocity S-wave (km/s) = 3.42688 3.90218 3.67223
# Velocity P-wave (km/s) = 6.03150 7.01053 6.53936
#
# Compressibility (1/GPa) = 0.02608403
#
# Stress axis : x y z
#
# Youngs Moduli (GPa) = 70.46398 24.90163 73.39794
#
# Poissons Ratio (x) = 0.20419 0.24455
# Poissons Ratio (y) = 0.57780 0.69091
# Poissons Ratio (z) = 0.23477 0.23441
#
# Static dielectric constant tensor:
#      x y z
#    x 3.559240 0.000000 0.073790 
#    y 0.000000 3.232550 0.000000 
#    z 0.073790 0.000000 3.627340 
# 
# 
# High freq. dielectric constant tensor:
#      x y z
#    x 1.731740 0.000000 0.005670 
#    y 0.000000 1.698150 0.000000 
#    z 0.005670 0.000000 1.726750 
# 
# From -- ./inp_files/86727.got.cif
#   From: 2010.06.25/outbox.cif.g09.slc.cpg/sg10_44_cif.got.tgz:86727.got - 2010.06.27 22:07:45.
