data_PCOD8062783
_publ_section_title
;
Structure prediction by ZEFSAII (Michael W. Deem and Ramdas Pophale) SiO2 
 PCOD8062783
Probable space group: P 2/M
;
_chemical_formula_sum "Si O2"
_cell_formula_units_Z 24
_cell_length_a 14.370839
_cell_length_b 13.811516
_cell_length_c 11.423463
_cell_angle_alpha 90.000000
_cell_angle_beta 30.850055
_cell_angle_gamma 90.000000
_cell_volume 1162.688584
_symmetry_space_group_name_H-M "P 2/M"
_symmetry_group_IT_number 10
_symmetry_cell_setting 'monoclinic'
loop_
_space_group_symop_operation_xyz
x,y,z
-x,y,-z
-x,-y,-z
x,-y,z
loop_
_atom_site_type_symbol
_atom_site_label
_atom_site_fract_x
_atom_site_fract_y
_atom_site_fract_z
Si Si1 0.501467 0.385711 0.862489
Si Si2 0.762789 0.704622 0.038623
Si Si3 0.500000 0.226756 0.500000
Si Si4 0.655231 0.888923 0.547770
Si Si5 0.729232 0.107937 0.951574
Si Si6 0.139035 0.283162 0.579981
Si Si7 0.000000 0.798307 0.500000
O O1 0.488017 0.500000 0.868030
O O2 0.333048 0.341554 0.972434
O O3 0.685451 0.351000 0.600335
O O4 0.500000 0.351639 0.000000
O O5 0.642069 0.698146 0.285947
O O6 0.796629 0.818988 0.978741
O O7 0.969602 0.665773 0.833264
O O8 0.404426 0.156749 0.510993
O O9 0.820270 0.825264 0.417887
O O10 0.718000 0.000000 0.462134
O O11 0.490130 0.882658 0.820505
O O12 0.830253 0.134021 0.721355
O O13 0.782216 0.000000 0.933701
O O14 0.070503 0.274599 0.521913
#
# Coordination Sequence:
#
# PCOD8062783 Si02
#       7
#     4   4   2   4   4   4   2
#     4  11  23  42  67  92 123 160 202 255 316 377
#     4  10  22  40  62  91 121 162 204 255 306 364
#     4  10  19  42  65  86 126 166 209 262 299 352
#     4  10  21  36  59  89 124 168 212 253 301 357
#     4   9  17  32  52  81 119 159 199 242 292 354
#     4  11  22  39  60  90 127 160 208 251 310 367
#     4  10  21  32  55  86 126 168 205 250 299 376
#
# _framework density 20.641812000000002
#
# number of rings (size 3 to 8) (size 9 to 14) (size 15 to 20)
#    0.000    1.833    3.333    2.500    0.000    5.333 
#    0.000    5.000    0.000    1.000    0.000    0.000 
#    0.000    0.000    0.000    0.000    0.000    0.000 
#
# Total GULP energy -297412.787404 kJ/mol
# GULP energy per Si atom -12392.199475 kJ/mol
# Density = 2.059483 g / cm^3
# Si number density = 20.641812 Si / 1000 Ang^3
#
#
#
# Elastic Constant Matrix: (Units=GPa)
#
#
# Indices 1 2 3 4 5 6 
#
# 1 65.8374 19.7305 43.0603 0.0000 -5.6164 0.0000
# 2 19.7305 66.0972 30.1165 0.0000 -1.3457 0.0000
# 3 43.0603 30.1165 151.6307 0.0000 -4.1924 0.0000
# 4 0.0000 0.0000 0.0000 13.5254 0.0000 4.9974
# 5 -5.6164 -1.3457 -4.1924 0.0000 34.7932 0.0000
# 6 0.0000 0.0000 0.0000 4.9974 0.0000 17.2760
#
#
#
# Elastic Compliance Matrix: (Units=1/GPa)
#
#
# Indices 1 2 3 4 5 6 
#
# 1 0.019612 -0.003626 -0.004782 0.000000 0.002449 0.000000
# 2 -0.003626 0.017307 -0.002414 0.000000 -0.000207 0.000000
# 3 -0.004782 -0.002414 0.008436 0.000000 0.000151 0.000000
# 4 0.000000 0.000000 0.000000 0.082783 0.000000 -0.023946
# 5 0.002449 -0.000207 0.000151 0.000000 0.029147 0.000000
# 6 0.000000 0.000000 0.000000 -0.023946 0.000000 0.064811
#
#
# Mechanical properties :
#
#
# Convention : Reuss Voigt Hill
#
# Bulk Modulus (GPa) = 42.16994 52.15333 47.16163
# Shear Modulus (GPa) = 19.86955 25.82946 22.84950
#
# Velocity S-wave (km/s) = 3.10592 3.54123 3.33070
# Velocity P-wave (km/s) = 5.77374 6.48392 6.13911
#
# Compressibility (1/GPa) = 0.02371358
#
# Stress axis : x y z
#
# Youngs Moduli (GPa) = 50.98975 57.77993 118.53402
#
# Poissons Ratio (x) = 0.20950 0.56677
# Poissons Ratio (y) = 0.18488 0.28609
# Poissons Ratio (z) = 0.24381 0.13946
#
# Static dielectric constant tensor:
#      x y z
#    x 3.482670 0.000000 -0.086240 
#    y 0.000000 3.566220 0.000000 
#    z -0.086240 0.000000 4.419530 
# 
# 
# High freq. dielectric constant tensor:
#      x y z
#    x 1.782500 0.000000 -0.009280 
#    y 0.000000 1.783800 0.000000 
#    z -0.009280 0.000000 1.826570 
# 
# From -- ./inp_files/51571.got.cif
#   From: 2010.06.25/outbox.cif.g09.slc.cpg/sg10_26_cif.got.tgz:51571.got - 2010.06.27 22:07:45.
