data_PCOD8062261
_publ_section_title
;
Structure prediction by ZEFSAII (Michael W. Deem and Ramdas Pophale) SiO2 
 PCOD8062261
Probable space group: P 2/M
;
_chemical_formula_sum "Si O2"
_cell_formula_units_Z 32
_cell_length_a 31.378274
_cell_length_b 8.765612
_cell_length_c 12.019987
_cell_angle_alpha 90.000000
_cell_angle_beta 30.165014
_cell_angle_gamma 90.000000
_cell_volume 1661.286508
_symmetry_space_group_name_H-M "P 2/M"
_symmetry_group_IT_number 10
_symmetry_cell_setting 'monoclinic'
loop_
_space_group_symop_operation_xyz
x,y,z
-x,y,-z
-x,-y,-z
x,-y,z
loop_
_atom_site_type_symbol
_atom_site_label
_atom_site_fract_x
_atom_site_fract_y
_atom_site_fract_z
Si Si1 0.403140 0.820548 0.207233
Si Si2 0.232794 0.680643 0.188358
Si Si3 0.538489 0.674550 0.530433
Si Si4 0.740986 0.680988 0.327031
Si Si5 0.624812 0.674936 0.959049
Si Si6 0.285326 0.178401 0.841545
Si Si7 0.918734 0.680987 0.320199
Si Si8 0.894602 0.681389 0.128128
O O1 0.349020 0.741903 0.426292
O O2 0.364787 0.775276 0.174383
O O3 0.396941 0.000000 0.237415
O O4 0.500000 0.763020 0.000000
O O5 0.235520 0.500000 0.162605
O O6 0.309208 0.731433 0.096776
O O7 0.144393 0.738285 0.441258
O O8 0.240907 0.763875 0.053299
O O9 0.500000 0.724548 0.500000
O O10 0.571489 0.500000 0.449005
O O11 0.615126 0.785639 0.384522
O O12 0.469765 0.694466 0.781761
O O13 0.738453 0.500000 0.333726
O O14 0.758763 0.738542 0.162648
O O15 0.817164 0.747692 0.231024
O O16 0.644474 0.500000 0.882872
O O17 0.271422 0.000000 0.861128
O O18 0.916137 0.500000 0.320854
O O19 0.886847 0.742320 0.272130
O O20 0.014893 0.736768 0.127095
O O21 0.890993 0.500000 0.134417
#
# Coordination Sequence:
#
# PCOD8062261 Si02
#       8
#     4   4   4   4   4   4   4   4
#     4  11  24  39  54  78 113 147 182 226 275 326
#     4  10  19  35  57  83 111 143 183 228 277 327
#     4  10  19  36  58  80 107 141 185 233 274 321
#     4  11  22  38  60  81 108 147 191 230 273 330
#     4  10  20  34  57  84 109 139 181 227 274 327
#     4  12  25  38  53  77 112 151 190 230 278 330
#     4   8  14  28  56  89 117 135 165 226 286 330
#     4   8  15  30  55  89 115 136 171 223 283 331
#
# _framework density 19.262179
#
# number of rings (size 3 to 8) (size 9 to 14) (size 15 to 20)
#    0.000    2.000    1.250    4.125    0.000    6.250 
#    0.000    0.625    0.000    5.250    0.000    5.250 
#    0.000    0.000    0.000    0.000    0.000    0.000 
#
# Total GULP energy -396845.592929 kJ/mol
# GULP energy per Si atom -12401.424779 kJ/mol
# Density = 1.921834 g / cm^3
# Si number density = 19.262179 Si / 1000 Ang^3
#
#
#
# Elastic Constant Matrix: (Units=GPa)
#
#
# Indices 1 2 3 4 5 6 
#
# 1 123.1028 34.9951 63.0962 0.0000 3.3144 0.0000
# 2 34.9951 56.0110 33.6147 0.0000 1.6071 0.0000
# 3 63.0962 33.6147 134.8025 0.0000 0.9355 0.0000
# 4 0.0000 0.0000 0.0000 8.7818 0.0000 6.2048
# 5 3.3144 1.6071 0.9355 0.0000 31.0990 0.0000
# 6 0.0000 0.0000 0.0000 6.2048 0.0000 11.7980
#
#
#
# Elastic Compliance Matrix: (Units=1/GPa)
#
#
# Indices 1 2 3 4 5 6 
#
# 1 0.011681 -0.004699 -0.004290 0.000000 -0.000873 0.000000
# 2 -0.004699 0.022913 -0.003510 0.000000 -0.000578 0.000000
# 3 -0.004290 -0.003510 0.010299 0.000000 0.000329 0.000000
# 4 0.000000 0.000000 0.000000 0.181206 0.000000 -0.095300
# 5 -0.000873 -0.000578 0.000329 0.000000 0.032268 0.000000
# 6 0.000000 0.000000 0.000000 -0.095300 0.000000 0.134881
#
#
# Mechanical properties :
#
#
# Convention : Reuss Voigt Hill
#
# Bulk Modulus (GPa) = 50.26271 64.14757 57.20514
# Shear Modulus (GPa) = 11.76808 22.48311 17.12560
#
# Velocity S-wave (km/s) = 2.47441 3.42016 2.98498
# Velocity P-wave (km/s) = 5.85783 6.99795 6.45312
#
# Compressibility (1/GPa) = 0.01989546
#
# Stress axis : x y z
#
# Youngs Moduli (GPa) = 85.60695 43.64413 97.09483
#
# Poissons Ratio (x) = 0.20507 0.41652
# Poissons Ratio (y) = 0.40225 0.34082
# Poissons Ratio (z) = 0.36724 0.15320
#
# Static dielectric constant tensor:
#      x y z
#    x 3.676450 0.000000 -0.037560 
#    y 0.000000 3.149400 0.000000 
#    z -0.037560 0.000000 3.776830 
# 
# 
# High freq. dielectric constant tensor:
#      x y z
#    x 1.751850 0.000000 0.005050 
#    y 0.000000 1.715230 0.000000 
#    z 0.005050 0.000000 1.755550 
# 
# From -- ./inp_files/58204.got.cif
#   From: 2010.06.25/outbox.cif.g09.slc.cpg/sg10_30_cif.got.tgz:58204.got - 2010.06.27 22:07:45.
