data_PCOD8062681
_publ_section_title
;
Structure prediction by ZEFSAII (Michael W. Deem and Ramdas Pophale) SiO2 
 PCOD8062681
Probable space group: P 2/M
;
_chemical_formula_sum "Si O2"
_cell_formula_units_Z 24
_cell_length_a 15.989779
_cell_length_b 8.423797
_cell_length_c 21.902793
_cell_angle_alpha 90.000000
_cell_angle_beta 157.238493
_cell_angle_gamma 90.000000
_cell_volume 1141.416842
_symmetry_space_group_name_H-M "P 2/M"
_symmetry_group_IT_number 10
_symmetry_cell_setting 'monoclinic'
loop_
_space_group_symop_operation_xyz
x,y,z
-x,y,-z
-x,-y,-z
x,-y,z
loop_
_atom_site_type_symbol
_atom_site_label
_atom_site_fract_x
_atom_site_fract_y
_atom_site_fract_z
Si Si1 0.998186 0.680984 0.768193
Si Si2 0.254727 0.180268 0.836147
Si Si3 0.460475 0.184125 0.541914
Si Si4 0.657999 0.186515 0.910648
Si Si5 0.754576 0.685493 0.845892
Si Si6 0.215473 0.182678 0.670594
O O1 0.925968 0.500000 0.729022
O O2 0.140821 0.696412 0.803806
O O3 0.791261 0.789161 0.615128
O O4 0.130448 0.734865 0.916954
O O5 0.171683 0.199634 0.712334
O O6 0.225641 0.000000 0.841323
O O7 0.500000 0.230515 0.000000
O O8 0.500000 0.246176 0.500000
O O9 0.610889 0.280475 0.689663
O O10 0.519407 0.000000 0.588773
O O11 0.653717 0.223089 0.835838
O O12 0.440188 0.257258 0.796380
O O13 0.674147 0.000000 0.932995
O O14 0.749729 0.500000 0.857289
O O15 0.000000 0.744071 0.000000
O O16 0.000000 0.268099 0.500000
O O17 0.222475 0.000000 0.654288
#
# Coordination Sequence:
#
# PCOD8062681 Si02
#       6
#     4   4   4   4   4   4
#     4  12  25  40  62  93 131 169 209 263 327 381
#     4  10  19  37  62  88 122 165 215 262 309 369
#     4  11  25  45  70  97 123 160 214 266 310 372
#     4  11  22  40  65  93 125 168 219 263 309 370
#     4  11  25  44  66  95 133 169 200 249 322 384
#     4   9  19  35  58  89 122 160 207 261 311 360
#
# _framework density 21.026499999999999
#
# number of rings (size 3 to 8) (size 9 to 14) (size 15 to 20)
#    0.000    1.333    1.667    4.000    2.333    5.667 
#    0.000    0.000    0.000    2.500    0.000    0.000 
#    0.000    0.000    0.000    0.000    0.000    0.000 
#
# Total GULP energy -297631.164164 kJ/mol
# GULP energy per Si atom -12401.298507 kJ/mol
# Density = 2.097864 g / cm^3
# Si number density = 21.026500 Si / 1000 Ang^3
#
#
#
# Elastic Constant Matrix: (Units=GPa)
#
#
# Indices 1 2 3 4 5 6 
#
# 1 108.5203 16.8575 33.8756 0.0000 -4.9570 0.0000
# 2 16.8575 37.1212 9.8941 0.0000 25.4326 0.0000
# 3 33.8756 9.8941 143.5081 0.0000 -5.4654 0.0000
# 4 0.0000 0.0000 0.0000 26.8612 0.0000 -4.4638
# 5 -4.9570 25.4326 -5.4654 0.0000 -23.6560 0.0000
# 6 0.0000 0.0000 0.0000 -4.4638 0.0000 27.5739
#
#
#
# Elastic Compliance Matrix: (Units=1/GPa)
#
#
# Indices 1 2 3 4 5 6 
#
# 1 0.010065 -0.001651 -0.002389 0.000000 -0.003332 0.000000
# 2 -0.001651 0.015810 -0.000039 0.000000 0.017353 0.000000
# 3 -0.002389 -0.000039 0.007486 0.000000 -0.001271 0.000000
# 4 0.000000 0.000000 0.000000 0.038258 0.000000 0.006193
# 5 -0.003332 0.017353 -0.001271 0.000000 -0.022625 0.000000
# 6 0.000000 0.000000 0.000000 0.006193 0.000000 0.037269
#
#
# Mechanical properties :
#
#
# Convention : Reuss Voigt Hill
#
# Bulk Modulus (GPa) = 39.67806 45.60045 42.63925
# Shear Modulus (GPa) = 48.62717 21.39063 35.00890
#
# Velocity S-wave (km/s) = 4.81423 3.19300 4.08485
# Velocity P-wave (km/s) = 7.05790 5.94373 6.52464
#
# Compressibility (1/GPa) = 0.02520285
#
# Stress axis : x y z
#
# Youngs Moduli (GPa) = 99.35565 63.25003 133.57446
#
# Poissons Ratio (x) = 0.10443 0.31910
# Poissons Ratio (y) = 0.16404 0.00527
# Poissons Ratio (z) = 0.23735 0.00249
#
# Static dielectric constant tensor:
#      x y z
#    x 3.758700 0.000000 0.060800 
#    y 0.000000 3.498500 0.000000 
#    z 0.060800 0.000000 3.973580 
# 
# 
# High freq. dielectric constant tensor:
#      x y z
#    x 1.835130 0.000000 -0.001710 
#    y 0.000000 1.800040 0.000000 
#    z -0.001710 0.000000 1.838900 
# 
# From -- ./inp_files/80121.got.cif
#   From: 2010.06.25/outbox.cif.g09.slc.cpg/sg10_41_cif.got.tgz:80121.got - 2010.06.27 22:07:45.
