data_PCOD8062647
_publ_section_title
;
Structure prediction by ZEFSAII (Michael W. Deem and Ramdas Pophale) SiO2 
 PCOD8062647
Probable space group: P 2/M
;
_chemical_formula_sum "Si O2"
_cell_formula_units_Z 26
_cell_length_a 24.033228
_cell_length_b 11.939756
_cell_length_c 8.842749
_cell_angle_alpha 90.000000
_cell_angle_beta 148.681658
_cell_angle_gamma 90.000000
_cell_volume 1318.939779
_symmetry_space_group_name_H-M "P 2/M"
_symmetry_group_IT_number 10
_symmetry_cell_setting 'monoclinic'
loop_
_space_group_symop_operation_xyz
x,y,z
-x,y,-z
-x,-y,-z
x,-y,z
loop_
_atom_site_type_symbol
_atom_site_label
_atom_site_fract_x
_atom_site_fract_y
_atom_site_fract_z
Si Si1 0.170793 0.500000 0.207779
Si Si2 0.740522 0.127387 0.869298
Si Si3 0.179356 0.275213 0.362091
Si Si4 0.123142 0.500000 0.752340
Si Si5 0.610028 0.741868 0.341661
Si Si6 0.944611 0.870924 0.131416
Si Si7 0.154774 0.730266 0.655592
Si Si8 0.394282 0.500000 0.662696
O O1 0.118884 0.386532 0.153258
O O2 0.294702 0.500000 0.549186
O O3 0.181429 0.500000 0.049800
O O4 0.638222 0.166275 0.533292
O O5 0.720575 0.000000 0.868182
O O6 0.851036 0.144702 0.035943
O O7 0.750743 0.199259 0.045539
O O8 0.297409 0.259029 0.569766
O O9 0.188190 0.283929 0.560732
O O10 0.101867 0.171999 0.137208
O O11 0.152124 0.608537 0.723673
O O12 0.000000 0.500000 0.500000
O O13 0.606566 0.621076 0.423746
O O14 0.500000 0.771971 0.000000
O O15 0.043352 0.796229 0.415879
O O16 0.980522 0.000000 0.199608
O O17 0.500000 0.500000 0.000000
#
# Coordination Sequence:
#
# PCOD8062647 Si02
#       8
#     2   4   4   2   4   4   4   2
#     4  10  19  37  54  71 107 141 176 215 253 316
#     4  10  21  36  55  79 106 142 184 219 262 320
#     4  10  21  35  55  82 107 138 179 222 270 316
#     4  12  23  34  53  78 108 149 184 208 259 324
#     4   9  18  36  59  80 105 141 182 221 262 320
#     4  10  21  37  55  75 105 148 188 216 253 315
#     4  12  22  34  53  81 114 139 172 226 274 310
#     4   8  14  27  54  81  94 118 164 213 258 296
#
# _framework density 19.712804999999999
#
# number of rings (size 3 to 8) (size 9 to 14) (size 15 to 20)
#    0.000    1.846    0.000    6.462    0.000    3.385 
#    0.000    3.077    0.000    0.923    0.000   14.000 
#    0.000    0.000    0.000    0.000    0.000    0.000 
#
# Total GULP energy -322207.213271 kJ/mol
# GULP energy per Si atom -12392.585126 kJ/mol
# Density = 1.966794 g / cm^3
# Si number density = 19.712805 Si / 1000 Ang^3
#
#
#
# Elastic Constant Matrix: (Units=GPa)
#
#
# Indices 1 2 3 4 5 6 
#
# 1 56.2177 39.6073 37.9900 0.0000 -29.8592 0.0000
# 2 39.6073 164.6584 68.8865 0.0000 -21.0024 0.0000
# 3 37.9900 68.8865 123.1697 0.0000 -15.7959 0.0000
# 4 0.0000 0.0000 0.0000 33.1716 0.0000 -1.8207
# 5 -29.8592 -21.0024 -15.7959 0.0000 38.4736 0.0000
# 6 0.0000 0.0000 0.0000 -1.8207 0.0000 14.8558
#
#
#
# Elastic Compliance Matrix: (Units=1/GPa)
#
#
# Indices 1 2 3 4 5 6 
#
# 1 0.037668 -0.003091 -0.006710 0.000000 0.024791 0.000000
# 2 -0.003091 0.008446 -0.003680 0.000000 0.000700 0.000000
# 3 -0.006710 -0.003680 0.011950 0.000000 -0.002310 0.000000
# 4 0.000000 0.000000 0.000000 0.030350 0.000000 0.003720
# 5 0.024791 0.000700 -0.002310 0.000000 0.044666 0.000000
# 6 0.000000 0.000000 0.000000 0.003720 0.000000 0.067770
#
#
# Mechanical properties :
#
#
# Convention : Reuss Voigt Hill
#
# Bulk Modulus (GPa) = 32.15314 70.77926 51.46620
# Shear Modulus (GPa) = 20.99250 30.47101 25.73175
#
# Velocity S-wave (km/s) = 3.26685 3.93586 3.61686
# Velocity P-wave (km/s) = 5.52955 7.52581 6.60355
#
# Compressibility (1/GPa) = 0.03110117
#
# Stress axis : x y z
#
# Youngs Moduli (GPa) = 26.54790 118.40223 83.67873
#
# Poissons Ratio (x) = 0.36603 0.56146
# Poissons Ratio (y) = 0.08207 0.30796
# Poissons Ratio (z) = 0.17813 0.43575
#
# Static dielectric constant tensor:
#      x y z
#    x 3.232840 0.000000 -0.078380 
#    y 0.000000 5.406400 0.000000 
#    z -0.078380 0.000000 3.802110 
# 
# 
# High freq. dielectric constant tensor:
#      x y z
#    x 1.725700 0.000000 -0.005610 
#    y 0.000000 1.789810 0.000000 
#    z -0.005610 0.000000 1.773510 
# 
# From -- ./inp_files/37633.got.cif
#   From: 2010.06.25/outbox.cif.g09.slc.cpg/sg10_19_cif.got.tgz:37633.got - 2010.06.27 22:07:45.
