data_PCOD8062586
_publ_section_title
;
Structure prediction by ZEFSAII (Michael W. Deem and Ramdas Pophale) SiO2 
 PCOD8062586
Probable space group: P 2/M
;
_chemical_formula_sum "Si O2"
_cell_formula_units_Z 28
_cell_length_a 10.185166
_cell_length_b 9.030836
_cell_length_c 27.612395
_cell_angle_alpha 90.000000
_cell_angle_beta 145.316400
_cell_angle_gamma 90.000000
_cell_volume 1445.260477
_symmetry_space_group_name_H-M "P 2/M"
_symmetry_group_IT_number 10
_symmetry_cell_setting 'monoclinic'
loop_
_space_group_symop_operation_xyz
x,y,z
-x,y,-z
-x,-y,-z
x,-y,z
loop_
_atom_site_type_symbol
_atom_site_label
_atom_site_fract_x
_atom_site_fract_y
_atom_site_fract_z
Si Si1 0.108018 0.329365 0.482246
Si Si2 0.459661 0.326355 0.932013
Si Si3 0.632003 0.329450 0.663933
Si Si4 0.063756 0.825667 0.754702
Si Si5 0.635993 0.325114 0.775744
Si Si6 0.803013 0.174581 0.312966
Si Si7 0.932906 0.675765 0.031826
O O1 0.036920 0.500000 0.452501
O O2 0.381491 0.307951 0.564835
O O3 0.000000 0.273504 0.500000
O O4 0.009339 0.232156 0.409017
O O5 0.421862 0.500000 0.912158
O O6 0.232771 0.243193 0.845712
O O7 0.500000 0.289709 0.000000
O O8 0.681155 0.264745 0.970011
O O9 0.710577 0.500000 0.686392
O O10 0.628061 0.272363 0.717959
O O11 0.806625 0.233587 0.685295
O O12 0.143092 0.777593 0.725453
O O13 0.063378 0.000000 0.760993
O O14 0.596117 0.500000 0.767948
O O15 0.437828 0.246765 0.745928
O O16 0.880489 0.274244 0.871815
O O17 0.784317 0.000000 0.313145
O O18 0.925239 0.500000 0.027193
O O19 0.000000 0.742932 0.000000
#
# Coordination Sequence:
#
# PCOD8062586 Si02
#       7
#     4   4   4   4   4   4   4
#     4  10  20  39  64  90 116 145 191 247 296 345
#     4  10  20  37  61  85 111 148 197 247 292 341
#     4  10  21  38  62  88 113 147 195 246 294 346
#     4  11  25  41  56  83 124 163 197 234 285 350
#     4  10  19  36  61  86 114 148 192 247 296 343
#     4  11  24  39  57  85 122 161 196 234 287 351
#     4   9  17  29  51  83 111 139 181 234 289 338
#
# _framework density 19.373671999999999
#
# number of rings (size 3 to 8) (size 9 to 14) (size 15 to 20)
#    0.000    1.857    1.429    2.571    0.000    8.000 
#    0.000    3.571    0.000    2.571    0.000    0.000 
#    0.000    0.000    0.000    0.000    0.000    0.000 
#
# Total GULP energy -347329.876274 kJ/mol
# GULP energy per Si atom -12404.638438 kJ/mol
# Density = 1.932958 g / cm^3
# Si number density = 19.373672 Si / 1000 Ang^3
#
#
#
# Elastic Constant Matrix: (Units=GPa)
#
#
# Indices 1 2 3 4 5 6 
#
# 1 116.7184 42.3997 28.0021 0.0000 11.7179 0.0000
# 2 42.3997 50.1883 29.5960 0.0000 -2.7245 0.0000
# 3 28.0021 29.5960 91.7397 0.0000 7.1574 0.0000
# 4 0.0000 0.0000 0.0000 -5.2854 0.0000 -10.2016
# 5 11.7179 -2.7245 7.1574 0.0000 32.3692 0.0000
# 6 0.0000 0.0000 0.0000 -10.2016 0.0000 23.3385
#
#
#
# Elastic Compliance Matrix: (Units=1/GPa)
#
#
# Indices 1 2 3 4 5 6 
#
# 1 0.013371 -0.011703 0.000151 0.000000 -0.005859 0.000000
# 2 -0.011703 0.035341 -0.008539 0.000000 0.009099 0.000000
# 3 0.000151 -0.008539 0.013909 0.000000 -0.003849 0.000000
# 4 0.000000 0.000000 0.000000 -0.102620 0.000000 -0.044857
# 5 -0.005859 0.009099 -0.003849 0.000000 0.034631 0.000000
# 6 0.000000 0.000000 0.000000 -0.044857 0.000000 0.023240
#
#
# Mechanical properties :
#
#
# Convention : Reuss Voigt Hill
#
# Bulk Modulus (GPa) = 44.56385 50.96022 47.76204
# Shear Modulus (GPa) = 76.29541 20.66104 48.47822
#
# Velocity S-wave (km/s) = 6.28223 3.26920 5.00770
# Velocity P-wave (km/s) = 8.69909 6.37269 7.62513
#
# Compressibility (1/GPa) = 0.02243971
#
# Stress axis : x y z
#
# Youngs Moduli (GPa) = 74.78956 28.29543 71.89436
#
# Poissons Ratio (x) = 0.33115 -0.01088
# Poissons Ratio (y) = 0.87527 0.61392
# Poissons Ratio (z) = -0.01132 0.24162
#
# Static dielectric constant tensor:
#      x y z
#    x 3.704340 0.000000 -0.010170 
#    y 0.000000 3.281930 0.000000 
#    z -0.010170 0.000000 3.630070 
# 
# 
# High freq. dielectric constant tensor:
#      x y z
#    x 1.765770 0.000000 0.002950 
#    y 0.000000 1.727550 0.000000 
#    z 0.002950 0.000000 1.769520 
# 
# From -- ./inp_files/92112.got.cif
#   From: 2010.06.25/outbox.cif.g09.slc.cpg/sg10_47_cif.got.tgz:92112.got - 2010.06.27 22:07:45.
