data_PCOD8062604
_publ_section_title
;
Structure prediction by ZEFSAII (Michael W. Deem and Ramdas Pophale) SiO2 
 PCOD8062604
Probable space group: P 2/M
;
_chemical_formula_sum "Si O2"
_cell_formula_units_Z 32
_cell_length_a 17.525832
_cell_length_b 13.872932
_cell_length_c 12.397981
_cell_angle_alpha 90.000000
_cell_angle_beta 147.573971
_cell_angle_gamma 90.000000
_cell_volume 1616.341148
_symmetry_space_group_name_H-M "P 2/M"
_symmetry_group_IT_number 10
_symmetry_cell_setting 'monoclinic'
loop_
_space_group_symop_operation_xyz
x,y,z
-x,y,-z
-x,-y,-z
x,-y,z
loop_
_atom_site_type_symbol
_atom_site_label
_atom_site_fract_x
_atom_site_fract_y
_atom_site_fract_z
Si Si1 0.549940 0.721810 0.673430
Si Si2 0.996689 0.764091 0.874532
Si Si3 0.264305 0.108978 0.196823
Si Si4 0.311687 0.832510 0.491135
Si Si5 0.843797 0.267577 0.365779
Si Si6 0.647193 0.109081 0.225753
Si Si7 0.980504 0.395434 0.693495
Si Si8 0.276943 0.394085 0.951006
O O1 0.500000 0.675116 0.500000
O O2 0.627534 0.823608 0.739966
O O3 0.414793 0.742444 0.588524
O O4 0.648145 0.645916 0.852037
O O5 0.841338 0.795771 0.653416
O O6 0.040472 0.669626 0.861574
O O7 0.000000 0.728921 0.000000
O O8 0.105448 0.852193 0.985566
O O9 0.298226 0.105310 0.365322
O O10 0.276310 0.000000 0.166477
O O11 0.368932 0.889822 0.662975
O O12 0.779382 0.169393 0.336352
O O13 0.856499 0.342552 0.479482
O O14 0.723209 0.313579 0.143081
O O15 0.000000 0.245262 0.500000
O O16 0.674965 0.000000 0.221678
O O17 0.500000 0.148210 0.000000
O O18 0.924550 0.500000 0.668064
O O19 0.111339 0.412718 0.770906
O O20 0.343373 0.500000 0.999816
#
# Coordination Sequence:
#
# PCOD8062604 Si02
#       8
#     4   4   4   4   4   4   4   4
#     4  10  21  37  59  86 119 153 191 236 282 335
#     4  10  20  36  57  86 117 151 186 234 290 342
#     4  10  21  37  59  87 116 151 196 234 278 339
#     4  10  21  37  58  82 121 153 187 235 282 337
#     4  10  21  39  62  85 112 144 195 246 283 336
#     4  11  23  38  58  83 116 159 193 225 285 346
#     4  10  19  36  62  87 110 145 190 239 293 345
#     4  10  20  37  62  86 111 148 193 241 290 340
#
# _framework density 19.797802000000001
#
# number of rings (size 3 to 8) (size 9 to 14) (size 15 to 20)
#    0.000    1.875    2.500    1.500    0.000    7.750 
#    0.000    1.250    0.000    1.500    0.000    0.000 
#    0.000    0.000    0.000    0.000    0.000    0.000 
#
# Total GULP energy -396612.208826 kJ/mol
# GULP energy per Si atom -12394.131526 kJ/mol
# Density = 1.975274 g / cm^3
# Si number density = 19.797802 Si / 1000 Ang^3
#
#
#
# Elastic Constant Matrix: (Units=GPa)
#
#
# Indices 1 2 3 4 5 6 
#
# 1 39.8689 22.6781 36.4708 0.0000 -3.5610 0.0000
# 2 22.6781 112.6605 46.7474 0.0000 -8.5548 0.0000
# 3 36.4708 46.7474 116.4001 0.0000 -6.7536 0.0000
# 4 0.0000 0.0000 0.0000 20.1549 0.0000 -0.9204
# 5 -3.5610 -8.5548 -6.7536 0.0000 32.9992 0.0000
# 6 0.0000 0.0000 0.0000 -0.9204 0.0000 13.5724
#
#
#
# Elastic Compliance Matrix: (Units=1/GPa)
#
#
# Indices 1 2 3 4 5 6 
#
# 1 0.036066 -0.003019 -0.010026 0.000000 0.001057 0.000000
# 2 -0.003019 0.011024 -0.003375 0.000000 0.001841 0.000000
# 3 -0.010026 -0.003375 0.013130 0.000000 0.000730 0.000000
# 4 0.000000 0.000000 0.000000 0.049770 0.000000 0.003375
# 5 0.001057 0.001841 0.000730 0.000000 0.031045 0.000000
# 6 0.000000 0.000000 0.000000 0.003375 0.000000 0.073908
#
#
# Mechanical properties :
#
#
# Convention : Reuss Voigt Hill
#
# Bulk Modulus (GPa) = 36.52333 53.41356 44.96844
# Shear Modulus (GPa) = 19.46213 24.21419 21.83816
#
# Velocity S-wave (km/s) = 3.13876 3.50104 3.32484
# Velocity P-wave (km/s) = 5.62352 6.58644 6.12393
#
# Compressibility (1/GPa) = 0.02737976
#
# Stress axis : x y z
#
# Youngs Moduli (GPa) = 27.72711 90.71083 76.16067
#
# Poissons Ratio (x) = 0.27388 0.76361
# Poissons Ratio (y) = 0.08372 0.25700
# Poissons Ratio (z) = 0.27800 0.30610
#
# Static dielectric constant tensor:
#      x y z
#    x 3.475260 0.000000 -0.049350 
#    y 0.000000 3.556260 0.000000 
#    z -0.049350 0.000000 3.774350 
# 
# 
# High freq. dielectric constant tensor:
#      x y z
#    x 1.757050 0.000000 -0.007580 
#    y 0.000000 1.760200 0.000000 
#    z -0.007580 0.000000 1.782430 
# 
# From -- ./inp_files/54051.got.cif
#   From: 2010.06.25/outbox.cif.g09.slc.cpg/sg10_28_cif.got.tgz:54051.got - 2010.06.27 22:07:45.
