data_PCOD8062725
_publ_section_title
;
Structure prediction by ZEFSAII (Michael W. Deem and Ramdas Pophale) SiO2 
 PCOD8062725
Probable space group: P 2/M
;
_chemical_formula_sum "Si O2"
_cell_formula_units_Z 26
_cell_length_a 8.697087
_cell_length_b 15.005475
_cell_length_c 13.290183
_cell_angle_alpha 90.000000
_cell_angle_beta 54.102918
_cell_angle_gamma 90.000000
_cell_volume 1405.005025
_symmetry_space_group_name_H-M "P 2/M"
_symmetry_group_IT_number 10
_symmetry_cell_setting 'monoclinic'
loop_
_space_group_symop_operation_xyz
x,y,z
-x,y,-z
-x,-y,-z
x,-y,z
loop_
_atom_site_type_symbol
_atom_site_label
_atom_site_fract_x
_atom_site_fract_y
_atom_site_fract_z
Si Si1 0.659595 0.101643 0.862852
Si Si2 0.043138 0.751321 0.266650
Si Si3 0.387242 0.898326 0.349213
Si Si4 0.862008 0.400992 0.906452
Si Si5 0.714091 0.599507 0.174153
Si Si6 0.000000 0.802541 0.500000
Si Si7 0.383448 0.745527 0.641652
O O1 0.850361 0.158026 0.803863
O O2 0.575154 0.111324 0.783681
O O3 0.715308 0.000000 0.865746
O O4 0.500000 0.137052 0.000000
O O5 0.160776 0.667995 0.176530
O O6 0.038437 0.739419 0.389256
O O7 0.835478 0.758007 0.300003
O O8 0.176542 0.865941 0.458077
O O9 0.540840 0.840229 0.349452
O O10 0.409864 0.000000 0.376435
O O11 0.809009 0.500000 0.887811
O O12 0.076242 0.400108 0.861897
O O13 0.723678 0.374314 0.052259
O O14 0.627125 0.500000 0.219945
O O15 0.586133 0.670805 0.283412
O O16 0.500000 0.712494 0.500000
#
# Coordination Sequence:
#
# PCOD8062725 Si02
#       7
#     4   4   4   4   4   2   4
#     4   9  20  38  57  78 105 144 186 215 264 333
#     4  10  20  34  57  80 107 144 176 229 267 316
#     4  10  21  36  55  77 109 145 181 224 263 315
#     4   8  15  31  54  80 104 137 178 217 269 324
#     4   8  16  31  53  78 108 139 174 217 267 327
#     4  10  19  38  53  74 104 150 195 208 259 326
#     4  11  21  34  52  85 113 134 182 230 270 308
#
# _framework density 18.505272000000001
#
# number of rings (size 3 to 8) (size 9 to 14) (size 15 to 20)
#    0.000    2.615    1.538    1.154    2.154    1.846 
#    0.000    0.385    0.000    6.923    0.000    0.000 
#    0.000    0.000    0.000    0.000    0.000    0.000 
#
# Total GULP energy -322362.846465 kJ/mol
# GULP energy per Si atom -12398.571018 kJ/mol
# Density = 1.846315 g / cm^3
# Si number density = 18.505272 Si / 1000 Ang^3
#
#
#
# Elastic Constant Matrix: (Units=GPa)
#
#
# Indices 1 2 3 4 5 6 
#
# 1 54.9343 42.1739 32.6329 0.0000 -1.5266 0.0000
# 2 42.1739 133.4720 83.6243 0.0000 13.3150 0.0000
# 3 32.6329 83.6243 149.3554 0.0000 8.2041 0.0000
# 4 0.0000 0.0000 0.0000 30.5400 0.0000 5.4753
# 5 -1.5266 13.3150 8.2041 0.0000 18.2571 0.0000
# 6 0.0000 0.0000 0.0000 5.4753 0.0000 11.6017
#
#
#
# Elastic Compliance Matrix: (Units=1/GPa)
#
#
# Indices 1 2 3 4 5 6 
#
# 1 0.025462 -0.007890 -0.001618 0.000000 0.008611 0.000000
# 2 -0.007890 0.014584 -0.005969 0.000000 -0.008614 0.000000
# 3 -0.001618 -0.005969 0.010416 0.000000 -0.000463 0.000000
# 4 0.000000 0.000000 0.000000 0.035771 0.000000 -0.016882
# 5 0.008611 -0.008614 -0.000463 0.000000 0.061984 0.000000
# 6 0.000000 0.000000 0.000000 -0.016882 0.000000 0.094161
#
#
# Mechanical properties :
#
#
# Convention : Reuss Voigt Hill
#
# Bulk Modulus (GPa) = 51.26185 72.73600 61.99893
# Shear Modulus (GPa) = 17.86768 24.03513 20.95141
#
# Velocity S-wave (km/s) = 3.11069 3.60783 3.36845
# Velocity P-wave (km/s) = 6.37677 7.53300 6.97888
#
# Compressibility (1/GPa) = 0.01950768
#
# Stress axis : x y z
#
# Youngs Moduli (GPa) = 39.27461 68.56742 96.00363
#
# Poissons Ratio (x) = 0.54102 0.15537
# Poissons Ratio (y) = 0.30989 0.57300
# Poissons Ratio (z) = 0.06356 0.40925
#
# Static dielectric constant tensor:
#      x y z
#    x 3.043780 0.000000 0.066260 
#    y 0.000000 3.601460 0.000000 
#    z 0.066260 0.000000 3.744560 
# 
# 
# High freq. dielectric constant tensor:
#      x y z
#    x 1.688580 0.000000 0.003070 
#    y 0.000000 1.716410 0.000000 
#    z 0.003070 0.000000 1.730400 
# 
# From -- ./inp_files/42609.got.cif
#   From: 2010.06.25/outbox.cif.g09.slc.cpg/sg10_22_cif.got.tgz:42609.got - 2010.06.27 22:07:45.
