data_PCOD8062489
_publ_section_title
;
Structure prediction by ZEFSAII (Michael W. Deem and Ramdas Pophale) SiO2 
 PCOD8062489
Probable space group: P 2/M
;
_chemical_formula_sum "Si O2"
_cell_formula_units_Z 28
_cell_length_a 15.806329
_cell_length_b 8.809957
_cell_length_c 10.671633
_cell_angle_alpha 90.000000
_cell_angle_beta 73.938275
_cell_angle_gamma 90.000000
_cell_volume 1428.048287
_symmetry_space_group_name_H-M "P 2/M"
_symmetry_group_IT_number 10
_symmetry_cell_setting 'monoclinic'
loop_
_space_group_symop_operation_xyz
x,y,z
-x,y,-z
-x,-y,-z
x,-y,z
loop_
_atom_site_type_symbol
_atom_site_label
_atom_site_fract_x
_atom_site_fract_y
_atom_site_fract_z
Si Si1 0.904933 0.180054 0.487200
Si Si2 0.296392 0.820988 0.086693
Si Si3 0.724923 0.678584 0.647523
Si Si4 0.453141 0.679734 0.393989
Si Si5 0.066016 0.180216 0.798194
Si Si6 0.447378 0.675882 0.894193
Si Si7 0.880148 0.180318 0.961326
O O1 0.820153 0.244661 0.593318
O O2 0.895680 0.240557 0.348460
O O3 0.000000 0.237049 0.500000
O O4 0.900241 0.000000 0.502582
O O5 0.319071 0.732004 0.204392
O O6 0.299022 0.000000 0.110204
O O7 0.360086 0.776061 0.946552
O O8 0.201415 0.759634 0.083328
O O9 0.738978 0.500000 0.644285
O O10 0.651290 0.723933 0.572088
O O11 0.500000 0.748469 0.500000
O O12 0.461296 0.500000 0.393285
O O13 0.502501 0.739688 0.248914
O O14 0.125277 0.235471 0.891029
O O15 0.061244 0.000000 0.793106
O O16 0.967445 0.244084 0.858732
O O17 0.422922 0.500000 0.886844
O O18 0.500000 0.703217 0.000000
O O19 0.882287 0.000000 0.961321
#
# Coordination Sequence:
#
# PCOD8062489 Si02
#       7
#     4   4   4   4   4   4   4
#     4  10  20  34  54  81 112 146 182 221 271 329
#     4  11  21  33  54  83 110 136 178 226 276 325
#     4  11  22  37  56  79 108 144 187 229 274 327
#     4   9  19  37  59  80 107 147 189 227 274 333
#     4   8  14  28  49  71 103 141 176 212 259 315
#     4  10  19  36  58  79 105 140 181 221 266 322
#     4   8  15  28  48  75 103 137 175 215 261 318
#
# _framework density 19.60718
#
# number of rings (size 3 to 8) (size 9 to 14) (size 15 to 20)
#    0.000    2.429    1.429    2.571    0.000    4.000 
#    0.000    0.000    0.000    3.857    0.000    6.000 
#    0.000    0.000    0.000    0.000    0.000    0.000 
#
# Total GULP energy -346973.203894 kJ/mol
# GULP energy per Si atom -12391.900139 kJ/mol
# Density = 1.956255 g / cm^3
# Si number density = 19.607180 Si / 1000 Ang^3
#
#
#
# Elastic Constant Matrix: (Units=GPa)
#
#
# Indices 1 2 3 4 5 6 
#
# 1 122.4605 26.9108 47.0029 0.0000 2.9735 0.0000
# 2 26.9108 27.1836 16.2571 0.0000 0.5151 0.0000
# 3 47.0029 16.2571 121.0237 0.0000 1.6024 0.0000
# 4 0.0000 0.0000 0.0000 21.4281 0.0000 -7.4958
# 5 2.9735 0.5151 1.6024 0.0000 32.2638 0.0000
# 6 0.0000 0.0000 0.0000 -7.4958 0.0000 22.0696
#
#
#
# Elastic Compliance Matrix: (Units=1/GPa)
#
#
# Indices 1 2 3 4 5 6 
#
# 1 0.011481 -0.009450 -0.003180 0.000000 -0.000749 0.000000
# 2 -0.009450 0.047783 -0.002752 0.000000 0.000245 0.000000
# 3 -0.003180 -0.002752 0.009869 0.000000 -0.000153 0.000000
# 4 0.000000 0.000000 0.000000 0.052960 0.000000 0.017988
# 5 -0.000749 0.000245 -0.000153 0.000000 0.031067 0.000000
# 6 0.000000 0.000000 0.000000 0.017988 0.000000 0.051421
#
#
# Mechanical properties :
#
#
# Convention : Reuss Voigt Hill
#
# Bulk Modulus (GPa) = 26.06155 50.11213 38.08684
# Shear Modulus (GPa) = 20.15031 27.18543 23.66787
#
# Velocity S-wave (km/s) = 3.20925 3.72762 3.47811
# Velocity P-wave (km/s) = 5.20126 6.64382 5.96630
#
# Compressibility (1/GPa) = 0.03837070
#
# Stress axis : x y z
#
# Youngs Moduli (GPa) = 87.09886 20.92787 101.32304
#
# Poissons Ratio (x) = 0.19777 0.32217
# Poissons Ratio (y) = 0.82310 0.27881
# Poissons Ratio (z) = 0.27695 0.05759
#
# Static dielectric constant tensor:
#      x y z
#    x 3.891700 0.000000 0.110140 
#    y 0.000000 3.037790 0.000000 
#    z 0.110140 0.000000 3.882420 
# 
# 
# High freq. dielectric constant tensor:
#      x y z
#    x 1.772460 0.000000 0.002210 
#    y 0.000000 1.713400 0.000000 
#    z 0.002210 0.000000 1.770610 
# 
# From -- ./inp_files/49101.got.cif
#   From: 2010.06.25/outbox.cif.g09.slc.cpg/sg10_25_cif.got.tgz:49101.got - 2010.06.27 22:07:45.
