data_PCOD8062699
_publ_section_title
;
Structure prediction by ZEFSAII (Michael W. Deem and Ramdas Pophale) SiO2 
 PCOD8062699
Probable space group: P 2/M
;
_chemical_formula_sum "Si O2"
_cell_formula_units_Z 32
_cell_length_a 15.312167
_cell_length_b 9.071946
_cell_length_c 12.113258
_cell_angle_alpha 90.000000
_cell_angle_beta 89.509391
_cell_angle_gamma 90.000000
_cell_volume 1682.604939
_symmetry_space_group_name_H-M "P 2/M"
_symmetry_group_IT_number 10
_symmetry_cell_setting 'monoclinic'
loop_
_space_group_symop_operation_xyz
x,y,z
-x,y,-z
-x,-y,-z
x,-y,z
loop_
_atom_site_type_symbol
_atom_site_label
_atom_site_fract_x
_atom_site_fract_y
_atom_site_fract_z
Si Si1 0.654575 0.173074 0.763203
Si Si2 0.002956 0.674592 0.127529
Si Si3 0.101578 0.337220 0.488053
Si Si4 0.397596 0.163572 0.997296
Si Si5 0.651126 0.325447 0.218937
Si Si6 0.507369 0.674611 0.626962
Si Si7 0.854776 0.172246 0.728530
Si Si8 0.158168 0.675268 0.724366
O O1 0.633966 0.229535 0.886300
O O2 0.594818 0.255722 0.675345
O O3 0.754224 0.215013 0.742045
O O4 0.635655 0.000000 0.752240
O O5 0.011083 0.500000 0.140463
O O6 0.915411 0.734179 0.189459
O O7 0.088800 0.744182 0.180479
O O8 0.000000 0.722700 0.000000
O O9 0.142780 0.500000 0.462180
O O10 0.119824 0.219973 0.393879
O O11 0.138261 0.269725 0.601241
O O12 0.000000 0.359907 0.500000
O O13 0.357662 0.000000 0.976798
O O14 0.500000 0.151683 0.000000
O O15 0.368902 0.274970 0.903727
O O16 0.652535 0.500000 0.221611
O O17 0.578023 0.266969 0.305773
O O18 0.746442 0.261160 0.247562
O O19 0.500000 0.724633 0.500000
O O20 0.515531 0.500000 0.636950
O O21 0.871577 0.000000 0.743136
O O22 0.157175 0.500000 0.728480
#
# Coordination Sequence:
#
# PCOD8062699 Si02
#       8
#     4   4   4   4   4   4   4   4
#     4  10  23  41  58  81 115 155 193 231 280 341
#     4  10  21  39  61  84 113 151 194 232 278 345
#     4  10  19  37  64  85 110 150 194 235 281 338
#     4  10  20  38  61  80 107 149 193 233 279 338
#     4  10  21  36  57  86 116 143 181 236 288 331
#     4  10  22  38  57  85 117 147 185 235 286 336
#     4  11  24  39  57  85 120 151 189 240 288 334
#     4   9  19  36  57  85 115 145 183 232 283 331
#
# _framework density 19.018131
#
# number of rings (size 3 to 8) (size 9 to 14) (size 15 to 20)
#    0.000    2.000    2.500    0.375    3.500    2.500 
#    0.000    1.250    0.000    0.000    0.000    0.000 
#    0.000    0.000    0.000    0.000    0.000    0.000 
#
# Total GULP energy -396813.271080 kJ/mol
# GULP energy per Si atom -12400.414721 kJ/mol
# Density = 1.897484 g / cm^3
# Si number density = 19.018131 Si / 1000 Ang^3
#
#
#
# Elastic Constant Matrix: (Units=GPa)
#
#
# Indices 1 2 3 4 5 6 
#
# 1 139.8817 36.3917 77.6745 0.0000 9.4540 0.0000
# 2 36.3917 27.1107 33.9241 0.0000 1.9456 0.0000
# 3 77.6745 33.9241 166.7280 0.0000 9.1615 0.0000
# 4 0.0000 0.0000 0.0000 20.1911 0.0000 -4.0986
# 5 9.4540 1.9456 9.1615 0.0000 31.7668 0.0000
# 6 0.0000 0.0000 0.0000 -4.0986 0.0000 28.1572
#
#
#
# Elastic Compliance Matrix: (Units=1/GPa)
#
#
# Indices 1 2 3 4 5 6 
#
# 1 0.012212 -0.012433 -0.003050 0.000000 -0.001993 0.000000
# 2 -0.012433 0.062143 -0.006957 0.000000 0.001900 0.000000
# 3 -0.003050 -0.006957 0.008902 0.000000 -0.001234 0.000000
# 4 0.000000 0.000000 0.000000 0.051035 0.000000 0.007429
# 5 -0.001993 0.001900 -0.001234 0.000000 0.032312 0.000000
# 6 0.000000 0.000000 0.000000 0.007429 0.000000 0.036596
#
#
# Mechanical properties :
#
#
# Convention : Reuss Voigt Hill
#
# Bulk Modulus (GPa) = 26.05632 69.96678 48.01155
# Shear Modulus (GPa) = 19.16655 28.40503 23.78579
#
# Velocity S-wave (km/s) = 3.17804 3.86887 3.54035
# Velocity P-wave (km/s) = 5.21508 7.53837 6.48167
#
# Compressibility (1/GPa) = 0.03837841
#
# Stress axis : x y z
#
# Youngs Moduli (GPa) = 81.88858 16.09182 112.33554
#
# Poissons Ratio (x) = 0.20007 0.34261
# Poissons Ratio (y) = 1.01811 0.78147
# Poissons Ratio (z) = 0.24975 0.11194
#
# Static dielectric constant tensor:
#      x y z
#    x 3.686290 0.000000 -0.041120 
#    y 0.000000 3.311350 0.000000 
#    z -0.041120 0.000000 3.597440 
# 
# 
# High freq. dielectric constant tensor:
#      x y z
#    x 1.749660 0.000000 -0.000740 
#    y 0.000000 1.714540 0.000000 
#    z -0.000740 0.000000 1.752730 
# 
# From -- ./inp_files/49881.got.cif
#   From: 2010.06.25/outbox.cif.g09.slc.cpg/sg10_25_cif.got.tgz:49881.got - 2010.06.27 22:07:45.
