data_PCOD8062230
_publ_section_title
;
Structure prediction by ZEFSAII (Michael W. Deem and Ramdas Pophale) SiO2 
 PCOD8062230
Probable space group: P 2/M
;
_chemical_formula_sum "Si O2"
_cell_formula_units_Z 28
_cell_length_a 18.594909
_cell_length_b 11.825171
_cell_length_c 21.980911
_cell_angle_alpha 90.000000
_cell_angle_beta 18.071080
_cell_angle_gamma 90.000000
_cell_volume 1499.285129
_symmetry_space_group_name_H-M "P 2/M"
_symmetry_group_IT_number 10
_symmetry_cell_setting 'monoclinic'
loop_
_space_group_symop_operation_xyz
x,y,z
-x,y,-z
-x,-y,-z
x,-y,z
loop_
_atom_site_type_symbol
_atom_site_label
_atom_site_fract_x
_atom_site_fract_y
_atom_site_fract_z
Si Si1 0.722174 0.133626 0.399230
Si Si2 0.322850 0.000000 0.234207
Si Si3 0.878266 0.629231 0.465549
Si Si4 0.793587 0.134221 0.206713
Si Si5 0.162955 0.000000 0.230231
Si Si6 0.417341 0.777340 0.222101
Si Si7 0.061809 0.794236 0.229186
Si Si8 0.315502 0.627498 0.193483
O O1 0.817113 0.176176 0.257428
O O2 0.453992 0.171002 0.621954
O O3 0.865312 0.190323 0.337332
O O4 0.749509 0.000000 0.382500
O O5 0.288329 0.107002 0.306552
O O6 0.142889 0.000000 0.321068
O O7 0.572003 0.000000 0.003044
O O8 0.789912 0.500000 0.526599
O O9 0.671250 0.721243 0.643289
O O10 0.018542 0.671050 0.293278
O O11 0.053629 0.634251 0.381161
O O12 0.808740 0.000000 0.194174
O O13 0.000000 0.187463 0.000000
O O14 0.043950 0.888510 0.297165
O O15 0.336885 0.683174 0.240520
O O16 0.692315 0.797481 0.003036
O O17 0.399463 0.500000 0.135002
O O18 0.500000 0.689410 0.000000
#
# Coordination Sequence:
#
# PCOD8062230 Si02
#       8
#     4   2   4   4   2   4   4   4
#     4   9  17  31  51  80 114 145 176 206 253 314
#     4   9  20  33  51  73 101 143 189 220 261 329
#     4  11  24  38  55  78 101 135 189 241 285 325
#     4   8  15  29  52  80 109 144 178 211 243 297
#     4   9  18  33  53  74 104 146 178 216 267 324
#     4  11  22  36  53  76 105 140 183 231 279 326
#     4  11  21  35  54  78 113 146 174 216 272 330
#     4  10  19  35  57  74  93 130 183 244 289 316
#
# _framework density 18.675567000000001
#
# number of rings (size 3 to 8) (size 9 to 14) (size 15 to 20)
#    0.000    2.143    2.143    2.571    2.000    3.429 
#    0.000    2.143    0.000    0.000    0.000    2.000 
#    0.000    5.714    0.000    0.000    0.000    0.000 
#
# Total GULP energy -347069.189899 kJ/mol
# GULP energy per Si atom -12395.328211 kJ/mol
# Density = 1.863306 g / cm^3
# Si number density = 18.675567 Si / 1000 Ang^3
#
#
#
# Elastic Constant Matrix: (Units=GPa)
#
#
# Indices 1 2 3 4 5 6 
#
# 1 90.3892 29.5759 27.7416 0.0000 -19.6324 0.0000
# 2 29.5759 75.0176 30.0778 0.0000 -1.8640 0.0000
# 3 27.7416 30.0778 88.5423 0.0000 -0.7099 0.0000
# 4 0.0000 0.0000 0.0000 16.3266 0.0000 -39.2395
# 5 -19.6324 -1.8640 -0.7099 0.0000 21.8064 0.0000
# 6 0.0000 0.0000 0.0000 -39.2395 0.0000 -176.2089
#
#
#
# Elastic Compliance Matrix: (Units=1/GPa)
#
#
# Indices 1 2 3 4 5 6 
#
# 1 0.016948 -0.004902 -0.003527 0.000000 0.014724 0.000000
# 2 -0.004902 0.016879 -0.004223 0.000000 -0.003108 0.000000
# 3 -0.003527 -0.004223 0.013809 0.000000 -0.003087 0.000000
# 4 0.000000 0.000000 0.000000 0.039897 0.000000 -0.008884
# 5 0.014724 -0.003108 -0.003087 0.000000 0.058748 0.000000
# 6 0.000000 0.000000 0.000000 -0.008884 0.000000 -0.003697
#
#
# Mechanical properties :
#
#
# Convention : Reuss Voigt Hill
#
# Bulk Modulus (GPa) = 44.77801 47.63774 46.20788
# Shear Modulus (GPa) = 28.51764 -16.51159 6.00302
#
# Velocity S-wave (km/s) = 3.91193 -2.97665 1.79481
# Velocity P-wave (km/s) = 6.66581 3.70803 5.39363
#
# Compressibility (1/GPa) = 0.02233239
#
# Stress axis : x y z
#
# Youngs Moduli (GPa) = 59.00527 59.24662 72.41783
#
# Poissons Ratio (x) = 0.29041 0.25540
# Poissons Ratio (y) = 0.28923 0.30580
# Poissons Ratio (z) = 0.20810 0.25019
#
# Static dielectric constant tensor:
#      x y z
#    x 3.276760 0.000000 0.160030 
#    y 0.000000 3.302030 0.000000 
#    z 0.160030 0.000000 3.885510 
# 
# 
# High freq. dielectric constant tensor:
#      x y z
#    x 1.695660 0.000000 0.010090 
#    y 0.000000 1.698460 0.000000 
#    z 0.010090 0.000000 1.736860 
# 
# From -- ./inp_files/79538.got.cif
#   From: 2010.06.25/outbox.cif.g09.slc.cpg/sg10_40_cif.got.tgz:79538.got - 2010.06.27 22:07:45.
