data_PCOD8062697
_publ_section_title
;
Structure prediction by ZEFSAII (Michael W. Deem and Ramdas Pophale) SiO2 
 PCOD8062697
Probable space group: P 2/M
;
_chemical_formula_sum "Si O2"
_cell_formula_units_Z 24
_cell_length_a 10.855041
_cell_length_b 8.767447
_cell_length_c 22.880841
_cell_angle_alpha 90.000000
_cell_angle_beta 148.446073
_cell_angle_gamma 90.000000
_cell_volume 1139.535957
_symmetry_space_group_name_H-M "P 2/M"
_symmetry_group_IT_number 10
_symmetry_cell_setting 'monoclinic'
loop_
_space_group_symop_operation_xyz
x,y,z
-x,y,-z
-x,-y,-z
x,-y,z
loop_
_atom_site_type_symbol
_atom_site_label
_atom_site_fract_x
_atom_site_fract_y
_atom_site_fract_z
Si Si1 0.489028 0.820223 0.428303
Si Si2 0.211622 0.827984 0.127159
Si Si3 0.111597 0.323757 0.201360
Si Si4 0.920399 0.679072 0.532410
Si Si5 0.668092 0.827103 0.235508
Si Si6 0.375392 0.831156 0.010071
O O1 0.500000 0.761732 0.500000
O O2 0.230416 0.772940 0.301274
O O3 0.680853 0.750251 0.461244
O O4 0.521210 0.000000 0.439140
O O5 0.238871 0.714084 0.192122
O O6 0.460825 0.819757 0.197825
O O7 0.156868 0.000000 0.126570
O O8 0.000000 0.771282 0.000000
O O9 0.139178 0.500000 0.227802
O O10 0.839603 0.282666 0.083599
O O11 0.879656 0.500000 0.512018
O O12 0.000000 0.741941 0.500000
O O13 0.123248 0.716969 0.660848
O O14 0.765916 0.000000 0.268979
O O15 0.565178 0.765403 0.132623
O O16 0.290890 0.000000 0.998054
O O17 0.500000 0.849709 0.000000
#
# Coordination Sequence:
#
# PCOD8062697 Si02
#       6
#     4   4   4   4   4   4
#     4  11  26  47  71  95 123 169 226 273 319 382
#     4  10  19  37  63  91 125 165 211 257 303 365
#     4  12  25  40  63  95 132 165 202 258 326 386
#     4  11  25  44  66  96 135 173 211 264 331 391
#     4  10  21  38  64  95 125 164 213 261 308 366
#     4  10  22  41  64  90 124 167 214 258 305 371
#
# _framework density 21.061205000000001
#
# number of rings (size 3 to 8) (size 9 to 14) (size 15 to 20)
#    0.000    1.333    1.667    3.500    2.333    7.333 
#    0.000    0.000    0.000    0.000    0.000    0.000 
#    0.000    0.000    0.000    0.000    0.000    0.000 
#
# Total GULP energy -297613.183295 kJ/mol
# GULP energy per Si atom -12400.549304 kJ/mol
# Density = 2.101327 g / cm^3
# Si number density = 21.061205 Si / 1000 Ang^3
#
#
#
# Elastic Constant Matrix: (Units=GPa)
#
#
# Indices 1 2 3 4 5 6 
#
# 1 92.5163 30.2883 28.7671 0.0000 -15.8006 0.0000
# 2 30.2883 67.8299 27.2355 0.0000 -4.7120 0.0000
# 3 28.7671 27.2355 125.5888 0.0000 -19.6778 0.0000
# 4 0.0000 0.0000 0.0000 28.1872 0.0000 6.9548
# 5 -15.8006 -4.7120 -19.6778 0.0000 32.6964 0.0000
# 6 0.0000 0.0000 0.0000 6.9548 0.0000 18.4010
#
#
#
# Elastic Compliance Matrix: (Units=1/GPa)
#
#
# Indices 1 2 3 4 5 6 
#
# 1 0.013810 -0.005326 -0.001196 0.000000 0.005187 0.000000
# 2 -0.005326 0.018205 -0.003003 0.000000 -0.001758 0.000000
# 3 -0.001196 -0.003003 0.009638 0.000000 0.004790 0.000000
# 4 0.000000 0.000000 0.000000 0.039126 0.000000 -0.014788
# 5 0.005187 -0.001758 0.004790 0.000000 0.035720 0.000000
# 6 0.000000 0.000000 0.000000 -0.014788 0.000000 0.059934
#
#
# Mechanical properties :
#
#
# Convention : Reuss Voigt Hill
#
# Bulk Modulus (GPa) = 44.24234 50.94630 47.59432
# Shear Modulus (GPa) = 24.62829 29.16653 26.89741
#
# Velocity S-wave (km/s) = 3.42331 3.72539 3.57754
# Velocity P-wave (km/s) = 6.05620 6.53811 6.30176
#
# Compressibility (1/GPa) = 0.02260278
#
# Stress axis : x y z
#
# Youngs Moduli (GPa) = 72.41005 54.93007 103.75401
#
# Poissons Ratio (x) = 0.29258 0.12405
# Poissons Ratio (y) = 0.38568 0.31161
# Poissons Ratio (z) = 0.08657 0.16497
#
# Static dielectric constant tensor:
#      x y z
#    x 4.137100 0.000000 -0.109690 
#    y 0.000000 3.661780 0.000000 
#    z -0.109690 0.000000 3.960260 
# 
# 
# High freq. dielectric constant tensor:
#      x y z
#    x 1.832500 0.000000 -0.005130 
#    y 0.000000 1.808100 0.000000 
#    z -0.005130 0.000000 1.840010 
# 
# From -- ./inp_files/88750.got.cif
#   From: 2010.06.25/outbox.cif.g09.slc.cpg/sg10_45_cif.got.tgz:88750.got - 2010.06.27 22:07:45.
