data_PCOD8062122
_publ_section_title
;
Structure prediction by ZEFSAII (Michael W. Deem and Ramdas Pophale) SiO2 
 PCOD8062122
Probable space group: P 2/M
;
_chemical_formula_sum "Si O2"
_cell_formula_units_Z 32
_cell_length_a 23.639976
_cell_length_b 8.937300
_cell_length_c 13.925024
_cell_angle_alpha 90.000000
_cell_angle_beta 146.645286
_cell_angle_gamma 90.000000
_cell_volume 1617.597312
_symmetry_space_group_name_H-M "P 2/M"
_symmetry_group_IT_number 10
_symmetry_cell_setting 'monoclinic'
loop_
_space_group_symop_operation_xyz
x,y,z
-x,y,-z
-x,-y,-z
x,-y,z
loop_
_atom_site_type_symbol
_atom_site_label
_atom_site_fract_x
_atom_site_fract_y
_atom_site_fract_z
Si Si1 0.423141 0.175000 0.975745
Si Si2 0.711157 0.673297 0.677242
Si Si3 0.156501 0.172570 0.797076
Si Si4 0.204539 0.323207 0.668350
Si Si5 0.324726 0.329600 0.156987
Si Si6 0.925651 0.176991 0.978217
Si Si7 0.490182 0.671234 0.717443
Si Si8 0.023678 0.826251 0.314567
O O1 0.474423 0.219452 0.148644
O O2 0.398830 0.000000 0.942693
O O3 0.500000 0.219866 0.000000
O O4 0.317714 0.261867 0.809235
O O5 0.739317 0.500000 0.710164
O O6 0.668201 0.712744 0.721538
O O7 0.812159 0.765492 0.795495
O O8 0.624427 0.716812 0.476836
O O9 0.161485 0.272729 0.709944
O O10 0.047722 0.199598 0.694045
O O11 0.169892 0.000000 0.786178
O O12 0.246797 0.215433 0.997412
O O13 0.208991 0.500000 0.671667
O O14 0.129128 0.264105 0.478168
O O15 0.285412 0.500000 0.086231
O O16 0.437148 0.308835 0.271773
O O17 0.921169 0.000000 0.972988
O O18 0.000000 0.236941 0.000000
O O19 0.966801 0.236688 0.139126
O O20 0.494408 0.500000 0.760248
O O21 0.051094 0.000000 0.340452
#
# Coordination Sequence:
#
# PCOD8062122 Si02
#       8
#     4   4   4   4   4   4   4   4
#     4  11  25  44  64  86 116 157 203 250 299 351
#     4  10  21  37  60  90 125 158 194 239 293 357
#     4  11  21  36  61  90 123 158 195 242 296 354
#     4  12  25  40  62  91 121 156 197 245 300 360
#     4  10  19  34  59  89 123 160 192 232 294 358
#     4  10  22  41  62  84 115 157 204 250 296 346
#     4  10  21  38  61  91 124 158 194 238 296 355
#     4  10  22  40  61  88 122 159 198 246 300 352
#
# _framework density 19.782427999999999
#
# number of rings (size 3 to 8) (size 9 to 14) (size 15 to 20)
#    0.000    1.500    2.500    2.625    0.000    7.250 
#    0.000    3.750    0.000    2.250    0.000    0.000 
#    0.000    0.000    0.000    0.000    0.000    0.000 
#
# Total GULP energy -396955.997776 kJ/mol
# GULP energy per Si atom -12404.874930 kJ/mol
# Density = 1.973740 g / cm^3
# Si number density = 19.782428 Si / 1000 Ang^3
#
#
#
# Elastic Constant Matrix: (Units=GPa)
#
#
# Indices 1 2 3 4 5 6 
#
# 1 95.6999 39.6421 38.0615 0.0000 26.9032 0.0000
# 2 39.6421 78.8432 51.7265 0.0000 13.8290 0.0000
# 3 38.0615 51.7265 137.4178 0.0000 21.2108 0.0000
# 4 0.0000 0.0000 0.0000 32.7552 0.0000 -0.6140
# 5 26.9032 13.8290 21.2108 0.0000 13.3523 0.0000
# 6 0.0000 0.0000 0.0000 -0.6140 0.0000 21.4238
#
#
#
# Elastic Compliance Matrix: (Units=1/GPa)
#
#
# Indices 1 2 3 4 5 6 
#
# 1 0.026173 -0.006134 0.002940 0.000000 -0.051051 0.000000
# 2 -0.006134 0.019300 -0.005814 0.000000 0.001605 0.000000
# 3 0.002940 -0.005814 0.011442 0.000000 -0.018077 0.000000
# 4 0.000000 0.000000 0.000000 0.030546 0.000000 0.000875
# 5 -0.051051 0.001605 -0.018077 0.000000 0.204809 0.000000
# 6 0.000000 0.000000 0.000000 0.000875 0.000000 0.046702
#
#
# Mechanical properties :
#
#
# Convention : Reuss Voigt Hill
#
# Bulk Modulus (GPa) = 25.70793 63.42456 44.56625
# Shear Modulus (GPa) = 13.51522 25.67498 19.59510
#
# Velocity S-wave (km/s) = 2.61663 3.60650 3.15068
# Velocity P-wave (km/s) = 4.70665 7.03371 5.98438
#
# Compressibility (1/GPa) = 0.03889850
#
# Stress axis : x y z
#
# Youngs Moduli (GPa) = 38.20802 51.81313 87.40093
#
# Poissons Ratio (x) = 0.31780 -0.25692
# Poissons Ratio (y) = 0.23435 0.50813
# Poissons Ratio (z) = -0.11231 0.30123
#
# Static dielectric constant tensor:
#      x y z
#    x 3.693240 0.000000 -0.008200 
#    y 0.000000 3.545990 0.000000 
#    z -0.008200 0.000000 3.686900 
# 
# 
# High freq. dielectric constant tensor:
#      x y z
#    x 1.771220 0.000000 0.002140 
#    y 0.000000 1.765250 0.000000 
#    z 0.002140 0.000000 1.783060 
# 
# From -- ./inp_files/71633.got.cif
#   From: 2010.06.25/outbox.cif.g09.slc.cpg/sg10_36_cif.got.tgz:71633.got - 2010.06.27 22:07:45.
