data_PCOD8062264
_publ_section_title
;
Structure prediction by ZEFSAII (Michael W. Deem and Ramdas Pophale) SiO2 
 PCOD8062264
Probable space group: P 2/M
;
_chemical_formula_sum "Si O2"
_cell_formula_units_Z 32
_cell_length_a 12.792844
_cell_length_b 8.804440
_cell_length_c 31.384570
_cell_angle_alpha 90.000000
_cell_angle_beta 27.472010
_cell_angle_gamma 90.000000
_cell_volume 1630.732869
_symmetry_space_group_name_H-M "P 2/M"
_symmetry_group_IT_number 10
_symmetry_cell_setting 'monoclinic'
loop_
_space_group_symop_operation_xyz
x,y,z
-x,y,-z
-x,-y,-z
x,-y,z
loop_
_atom_site_type_symbol
_atom_site_label
_atom_site_fract_x
_atom_site_fract_y
_atom_site_fract_z
Si Si1 0.050565 0.681112 0.065531
Si Si2 0.066516 0.669780 0.152755
Si Si3 0.264557 0.827290 0.402485
Si Si4 0.683153 0.823137 0.400004
Si Si5 0.582752 0.175068 0.210744
Si Si6 0.545153 0.177597 0.127109
Si Si7 0.436500 0.669107 0.639927
Si Si8 0.849621 0.680839 0.785034
O O1 0.077744 0.500000 0.052830
O O2 0.791271 0.721695 0.149890
O O3 0.131325 0.742642 0.083448
O O4 0.205408 0.763500 0.974779
O O5 0.162935 0.500000 0.117911
O O6 0.161840 0.747849 0.161829
O O7 0.795639 0.672307 0.250120
O O8 0.366104 0.792164 0.319023
O O9 0.364460 0.712851 0.400542
O O10 0.000000 0.797126 0.500000
O O11 0.323280 0.000000 0.394138
O O12 0.500000 0.763924 0.500000
O O13 0.573042 0.790500 0.394268
O O14 0.920303 0.736207 0.320728
O O15 0.733409 0.000000 0.387454
O O16 0.503808 0.215843 0.191509
O O17 0.660859 0.000000 0.185041
O O18 0.364011 0.265533 0.164162
O O19 0.523917 0.000000 0.125378
O O20 0.480343 0.500000 0.605787
O O21 0.858536 0.500000 0.783786
#
# Coordination Sequence:
#
# PCOD8062264 Si02
#       8
#     4   4   4   4   4   4   4   4
#     4  11  21  37  62  88 113 149 199 247 298 355
#     4   8  17  34  57  83 112 145 181 236 295 344
#     4  10  21  37  58  85 114 150 195 241 296 357
#     4  10  21  37  59  86 116 154 196 237 288 350
#     4  10  22  40  59  81 116 157 195 243 296 354
#     4  11  24  40  56  82 122 162 198 240 297 357
#     4  10  19  35  57  83 114 148 188 240 295 344
#     4  10  21  39  60  85 118 153 195 244 298 349
#
# _framework density 19.623079000000001
#
# number of rings (size 3 to 8) (size 9 to 14) (size 15 to 20)
#    0.000    2.000    1.250    3.000    0.000    5.250 
#    0.000    6.875    0.000    0.000    0.000    0.000 
#    0.000    0.000    0.000    0.000    0.000    0.000 
#
# Total GULP energy -396715.617799 kJ/mol
# GULP energy per Si atom -12397.363056 kJ/mol
# Density = 1.957842 g / cm^3
# Si number density = 19.623079 Si / 1000 Ang^3
#
#
#
# Elastic Constant Matrix: (Units=GPa)
#
#
# Indices 1 2 3 4 5 6 
#
# 1 99.3922 21.7688 43.6999 0.0000 -4.3414 0.0000
# 2 21.7688 52.7154 26.2500 0.0000 -0.7707 0.0000
# 3 43.6999 26.2500 106.8272 0.0000 6.9023 0.0000
# 4 0.0000 0.0000 0.0000 27.3641 0.0000 -5.3424
# 5 -4.3414 -0.7707 6.9023 0.0000 25.7376 0.0000
# 6 0.0000 0.0000 0.0000 -5.3424 0.0000 30.2373
#
#
#
# Elastic Compliance Matrix: (Units=1/GPa)
#
#
# Indices 1 2 3 4 5 6 
#
# 1 0.012959 -0.002909 -0.004805 0.000000 0.003387 0.000000
# 2 -0.002909 0.022381 -0.004397 0.000000 0.001359 0.000000
# 3 -0.004805 -0.004397 0.012688 0.000000 -0.004345 0.000000
# 4 0.000000 0.000000 0.000000 0.037850 0.000000 0.006687
# 5 0.003387 0.001359 -0.004345 0.000000 0.040631 0.000000
# 6 0.000000 0.000000 0.000000 0.006687 0.000000 0.034253
#
#
# Mechanical properties :
#
#
# Convention : Reuss Voigt Hill
#
# Bulk Modulus (GPa) = 42.00907 49.15247 45.58077
# Shear Modulus (GPa) = 25.91761 27.81556 26.86658
#
# Velocity S-wave (km/s) = 3.63819 3.76904 3.70419
# Velocity P-wave (km/s) = 6.25324 6.63653 6.44774
#
# Compressibility (1/GPa) = 0.02380438
#
# Stress axis : x y z
#
# Youngs Moduli (GPa) = 77.16674 44.68156 78.81591
#
# Poissons Ratio (x) = 0.12998 0.37872
# Poissons Ratio (y) = 0.22449 0.34657
# Poissons Ratio (z) = 0.37080 0.19647
#
# Static dielectric constant tensor:
#      x y z
#    x 3.639780 0.000000 0.216960 
#    y 0.000000 3.502360 0.000000 
#    z 0.216960 0.000000 3.619030 
# 
# 
# High freq. dielectric constant tensor:
#      x y z
#    x 1.771000 0.000000 0.008380 
#    y 0.000000 1.755590 0.000000 
#    z 0.008380 0.000000 1.763030 
# 
# From -- ./inp_files/94952.got.cif
#   From: 2010.06.25/outbox.cif.g09.slc.cpg/sg10_48_cif.got.tgz:94952.got - 2010.06.27 22:07:45.
