data_PCOD8062520
_publ_section_title
;
Structure prediction by ZEFSAII (Michael W. Deem and Ramdas Pophale) SiO2 
 PCOD8062520
Probable space group: P 2/M
;
_chemical_formula_sum "Si O2"
_cell_formula_units_Z 32
_cell_length_a 30.362692
_cell_length_b 8.685851
_cell_length_c 12.998741
_cell_angle_alpha 90.000000
_cell_angle_beta 27.865403
_cell_angle_gamma 90.000000
_cell_volume 1602.282202
_symmetry_space_group_name_H-M "P 2/M"
_symmetry_group_IT_number 10
_symmetry_cell_setting 'monoclinic'
loop_
_space_group_symop_operation_xyz
x,y,z
-x,y,-z
-x,-y,-z
x,-y,z
loop_
_atom_site_type_symbol
_atom_site_label
_atom_site_fract_x
_atom_site_fract_y
_atom_site_fract_z
Si Si1 0.296616 0.181250 0.417402
Si Si2 0.285239 0.680115 0.055545
Si Si3 0.266341 0.682178 0.865835
Si Si4 0.902587 0.182224 0.242247
Si Si5 0.945186 0.320490 0.717843
Si Si6 0.404930 0.180119 0.987689
Si Si7 0.609309 0.318551 0.577302
Si Si8 0.897402 0.819290 0.485570
O O1 0.187072 0.234123 0.640989
O O2 0.347673 0.265247 0.404417
O O3 0.306339 0.000000 0.414063
O O4 0.344527 0.230851 0.211279
O O5 0.302047 0.500000 0.041095
O O6 0.175597 0.720445 0.296767
O O7 0.310170 0.726470 0.886414
O O8 0.349677 0.778808 0.998156
O O9 0.260221 0.500000 0.870963
O O10 0.331769 0.751449 0.640377
O O11 0.160402 0.746749 0.072129
O O12 0.884124 0.235114 0.396197
O O13 0.911689 0.000000 0.220182
O O14 0.000000 0.257403 0.000000
O O15 0.946354 0.500000 0.744702
O O16 0.000000 0.288533 0.500000
O O17 0.996740 0.222815 0.699923
O O18 0.502490 0.268242 0.788251
O O19 0.425265 0.000000 0.947422
O O20 0.613941 0.500000 0.563411
O O21 0.877307 0.000000 0.540716
#
# Coordination Sequence:
#
# PCOD8062520 Si02
#       8
#     4   4   4   4   4   4   4   4
#     4  10  21  40  63  86 119 159 194 238 296 354
#     4  11  21  39  65  88 115 159 202 240 292 356
#     4   9  21  40  59  84 122 160 196 241 296 350
#     4   9  19  36  57  83 119 159 191 226 289 359
#     4  10  19  36  59  81 112 158 198 230 279 349
#     4  11  23  42  64  89 118 151 194 248 303 353
#     4  11  24  41  61  88 119 153 198 249 296 350
#     4  11  21  35  56  88 120 152 195 247 292 341
#
# _framework density 19.971512000000001
#
# number of rings (size 3 to 8) (size 9 to 14) (size 15 to 20)
#    0.000    1.750    2.500    1.875    1.750    3.250 
#    0.000    5.625    0.000    1.875    0.000    0.000 
#    0.000    0.000    0.000    0.000    0.000    0.000 
#
# Total GULP energy -396841.715050 kJ/mol
# GULP energy per Si atom -12401.303595 kJ/mol
# Density = 1.992606 g / cm^3
# Si number density = 19.971512 Si / 1000 Ang^3
#
#
#
# Elastic Constant Matrix: (Units=GPa)
#
#
# Indices 1 2 3 4 5 6 
#
# 1 138.6084 20.9150 56.1440 0.0000 -3.1398 0.0000
# 2 20.9150 23.4609 23.8875 0.0000 7.0855 0.0000
# 3 56.1440 23.8875 121.5710 0.0000 -12.2502 0.0000
# 4 0.0000 0.0000 0.0000 11.8395 0.0000 -8.7643
# 5 -3.1398 7.0855 -12.2502 0.0000 30.4566 0.0000
# 6 0.0000 0.0000 0.0000 -8.7643 0.0000 31.9389
#
#
#
# Elastic Compliance Matrix: (Units=1/GPa)
#
#
# Indices 1 2 3 4 5 6 
#
# 1 0.009326 -0.005391 -0.003152 0.000000 0.000948 0.000000
# 2 -0.005391 0.066877 -0.012793 0.000000 -0.021260 0.000000
# 3 -0.003152 -0.012793 0.012989 0.000000 0.007876 0.000000
# 4 0.000000 0.000000 0.000000 0.105994 0.000000 0.029086
# 5 0.000948 -0.021260 0.007876 0.000000 0.041045 0.000000
# 6 0.000000 0.000000 0.000000 0.029086 0.000000 0.039291
#
#
# Mechanical properties :
#
#
# Convention : Reuss Voigt Hill
#
# Bulk Modulus (GPa) = 21.49667 53.94814 37.72240
# Shear Modulus (GPa) = 14.98347 27.02658 21.00502
#
# Velocity S-wave (km/s) = 2.74203 3.68265 3.24659
# Velocity P-wave (km/s) = 4.56201 6.71966 5.74307
#
# Compressibility (1/GPa) = 0.04651883
#
# Stress axis : x y z
#
# Youngs Moduli (GPa) = 107.22309 14.95293 76.98913
#
# Poissons Ratio (x) = 0.08061 0.24270
# Poissons Ratio (y) = 0.57801 0.98495
# Poissons Ratio (z) = 0.33801 0.19130
#
# Static dielectric constant tensor:
#      x y z
#    x 3.798450 0.000000 -0.045170 
#    y 0.000000 3.337880 0.000000 
#    z -0.045170 0.000000 3.980960 
# 
# 
# High freq. dielectric constant tensor:
#      x y z
#    x 1.795330 0.000000 -0.003310 
#    y 0.000000 1.754140 0.000000 
#    z -0.003310 0.000000 1.784300 
# 
# From -- ./inp_files/58211.got.cif
#   From: 2010.06.25/outbox.cif.g09.slc.cpg/sg10_30_cif.got.tgz:58211.got - 2010.06.27 22:07:45.
