data_PCOD8062794
_publ_section_title
;
Structure prediction by ZEFSAII (Michael W. Deem and Ramdas Pophale) SiO2 
 PCOD8062794
Probable space group: P 2/M
;
_chemical_formula_sum "Si O2"
_cell_formula_units_Z 32
_cell_length_a 19.407340
_cell_length_b 14.135868
_cell_length_c 21.904685
_cell_angle_alpha 90.000000
_cell_angle_beta 160.498562
_cell_angle_gamma 90.000000
_cell_volume 2006.095221
_symmetry_space_group_name_H-M "P 2/M"
_symmetry_group_IT_number 10
_symmetry_cell_setting 'monoclinic'
loop_
_space_group_symop_operation_xyz
x,y,z
-x,y,-z
-x,-y,-z
x,-y,z
loop_
_atom_site_type_symbol
_atom_site_label
_atom_site_fract_x
_atom_site_fract_y
_atom_site_fract_z
Si Si1 0.201958 0.391272 0.701407
Si Si2 0.158916 0.888055 0.083121
Si Si3 0.691343 0.889819 0.279763
Si Si4 0.731650 0.202358 0.061079
Si Si5 0.657860 0.609101 0.047678
Si Si6 0.010231 0.112370 0.829308
Si Si7 0.872007 0.890070 0.302137
Si Si8 0.441228 0.111927 0.516872
O O1 0.193599 0.500000 0.676411
O O2 0.202756 0.378781 0.775077
O O3 0.000000 0.341752 0.500000
O O4 0.422218 0.354958 0.860632
O O5 0.388517 0.856424 0.292168
O O6 0.129999 0.000000 0.059602
O O7 0.120101 0.851207 0.982620
O O8 0.000000 0.844505 0.000000
O O9 0.748616 0.855142 0.259181
O O10 0.884377 0.872758 0.485701
O O11 0.634002 0.000000 0.229806
O O12 0.498450 0.833389 0.146332
O O13 0.745144 0.317196 0.070544
O O14 0.891583 0.163071 0.146192
O O15 0.791089 0.169269 0.178232
O O16 0.669320 0.500000 0.034558
O O17 0.775545 0.148294 0.638612
O O18 0.028261 0.000000 0.835371
O O19 0.827143 0.000000 0.252731
O O20 0.500000 0.155822 0.500000
O O21 0.430101 0.000000 0.499962
#
# Coordination Sequence:
#
# PCOD8062794 Si02
#       8
#     4   4   4   4   4   4   4   4
#     4   8  15  31  52  69  85 108 146 200 254 294
#     4   9  15  26  45  65  88 120 152 180 215 265
#     4   9  19  34  49  65  88 124 169 204 230 270
#     4  12  22  31  47  68  95 128 158 198 246 287
#     4   9  20  34  47  69  94 118 154 200 248 300
#     4  10  20  30  42  67  96 123 157 188 223 272
#     4   9  19  34  49  65  88 124 169 204 230 270
#     4   9  15  26  45  65  88 120 152 180 215 265
#
# _framework density 15.951385999999999
#
# number of rings (size 3 to 8) (size 9 to 14) (size 15 to 20)
#    0.000    2.625    1.250    3.000    3.500    3.000 
#    0.000    2.500    0.000    0.000    0.000    0.000 
#    0.000    1.000    0.000    0.000    0.000    0.250 
#
# Total GULP energy -396602.474936 kJ/mol
# GULP energy per Si atom -12393.827342 kJ/mol
# Density = 1.591508 g / cm^3
# Si number density = 15.951386 Si / 1000 Ang^3
#
#
#
# Elastic Constant Matrix: (Units=GPa)
#
#
# Indices 1 2 3 4 5 6 
#
# 1 53.5313 23.9627 28.9616 0.0000 14.7985 0.0000
# 2 23.9627 48.9473 20.9518 0.0000 7.4525 0.0000
# 3 28.9616 20.9518 110.0744 0.0000 4.3510 0.0000
# 4 0.0000 0.0000 0.0000 3.4792 0.0000 -1.0250
# 5 14.7985 7.4525 4.3510 0.0000 24.5799 0.0000
# 6 0.0000 0.0000 0.0000 -1.0250 0.0000 9.6593
#
#
#
# Elastic Compliance Matrix: (Units=1/GPa)
#
#
# Indices 1 2 3 4 5 6 
#
# 1 0.030087 -0.010278 -0.005405 0.000000 -0.014041 0.000000
# 2 -0.010278 0.026680 -0.002315 0.000000 -0.001491 0.000000
# 3 -0.005405 -0.002315 0.010867 0.000000 0.002032 0.000000
# 4 0.000000 0.000000 0.000000 0.296694 0.000000 0.031483
# 5 -0.014041 -0.001491 0.002032 0.000000 0.049230 0.000000
# 6 0.000000 0.000000 0.000000 0.031483 0.000000 0.106868
#
#
# Mechanical properties :
#
#
# Convention : Reuss Voigt Hill
#
# Bulk Modulus (GPa) = 31.60738 40.03391 35.82064
# Shear Modulus (GPa) = 8.81884 16.78883 12.80383
#
# Velocity S-wave (km/s) = 2.35384 3.24775 2.83623
# Velocity P-wave (km/s) = 5.21970 6.26225 5.76459
#
# Compressibility (1/GPa) = 0.03163818
#
# Stress axis : x y z
#
# Youngs Moduli (GPa) = 33.23658 37.48131 92.02043
#
# Poissons Ratio (x) = 0.38524 0.49736
# Poissons Ratio (y) = 0.34161 0.21303
# Poissons Ratio (z) = 0.17964 0.08677
#
# Static dielectric constant tensor:
#      x y z
#    x 2.821270 0.000000 -0.055670 
#    y 0.000000 2.711640 0.000000 
#    z -0.055670 0.000000 3.380540 
# 
# 
# High freq. dielectric constant tensor:
#      x y z
#    x 1.583720 0.000000 -0.007350 
#    y 0.000000 1.567400 0.000000 
#    z -0.007350 0.000000 1.633950 
# 
# From -- ./inp_files/79700.got.cif
#   From: 2010.06.25/outbox.cif.g09.slc.cpg/sg10_40_cif.got.tgz:79700.got - 2010.06.27 22:07:45.
