data_PCOD8062554
_publ_section_title
;
Structure prediction by ZEFSAII (Michael W. Deem and Ramdas Pophale) SiO2 
 PCOD8062554
Probable space group: P 2/M
;
_chemical_formula_sum "Si O2"
_cell_formula_units_Z 24
_cell_length_a 5.112271
_cell_length_b 13.013358
_cell_length_c 18.627427
_cell_angle_alpha 90.000000
_cell_angle_beta 92.381805
_cell_angle_gamma 90.000000
_cell_volume 1238.171366
_symmetry_space_group_name_H-M "P 2/M"
_symmetry_group_IT_number 10
_symmetry_cell_setting 'monoclinic'
loop_
_space_group_symop_operation_xyz
x,y,z
-x,y,-z
-x,-y,-z
x,-y,z
loop_
_atom_site_type_symbol
_atom_site_label
_atom_site_fract_x
_atom_site_fract_y
_atom_site_fract_z
Si Si1 0.802209 0.181822 0.353376
Si Si2 0.289659 0.305530 0.344169
Si Si3 0.260278 0.882189 0.803698
Si Si4 0.740291 0.000000 0.453684
Si Si5 0.256965 0.621381 0.043899
Si Si6 0.755276 0.500000 0.552827
Si Si7 0.774701 0.750794 0.817168
O O1 0.594112 0.275122 0.351233
O O2 0.812538 0.118248 0.280388
O O3 0.092712 0.221646 0.375538
O O4 0.709175 0.103671 0.410642
O O5 0.242914 0.405863 0.391397
O O6 0.211517 0.312147 0.258349
O O7 0.547665 0.835766 0.817242
O O8 0.043012 0.810874 0.839549
O O9 0.253983 0.000000 0.832148
O O10 0.500000 0.000000 0.500000
O O11 0.000000 0.000000 0.500000
O O12 0.259922 0.500000 0.053054
O O13 0.275106 0.666369 0.123376
O O14 0.500000 0.660919 0.000000
O O15 0.000000 0.659984 0.000000
O O16 0.500000 0.500000 0.500000
O O17 0.000000 0.500000 0.500000
#
# Coordination Sequence:
#
# PCOD8062554 Si02
#       7
#     4   4   4   2   4   2   4
#     4  10  21  39  55  81 112 142 190 243 286 337
#     4  10  23  39  61  83 110 152 196 241 281 336
#     4  10  19  36  60  84 115 148 195 241 282 331
#     4  12  24  34  54  82 110 148 182 234 302 350
#     4  10  21  38  61  90 124 157 187 233 293 346
#     4  12  26  42  60  82 114 156 192 236 300 350
#     4  10  21  36  62  90 114 154 194 240 283 334
#
# _framework density 19.383421999999999
#
# number of rings (size 3 to 8) (size 9 to 14) (size 15 to 20)
#    0.000    1.667    0.833    3.500    1.167    4.000 
#    0.000    0.000    0.000   10.000    0.000    0.000 
#    0.000    0.000    0.000    0.000    0.000    0.000 
#
# Total GULP energy -297503.588231 kJ/mol
# GULP energy per Si atom -12395.982843 kJ/mol
# Density = 1.933930 g / cm^3
# Si number density = 19.383422 Si / 1000 Ang^3
#
#
#
# Elastic Constant Matrix: (Units=GPa)
#
#
# Indices 1 2 3 4 5 6 
#
# 1 117.7962 24.9719 31.0951 0.0000 -16.4395 0.0000
# 2 24.9719 75.5421 55.3284 0.0000 -6.2447 0.0000
# 3 31.0951 55.3284 101.2457 0.0000 -15.7325 0.0000
# 4 0.0000 0.0000 0.0000 30.8374 0.0000 -4.9645
# 5 -16.4395 -6.2447 -15.7325 0.0000 29.6679 0.0000
# 6 0.0000 0.0000 0.0000 -4.9645 0.0000 18.8391
#
#
#
# Elastic Compliance Matrix: (Units=1/GPa)
#
#
# Indices 1 2 3 4 5 6 
#
# 1 0.009851 -0.001962 -0.001274 0.000000 0.004370 0.000000
# 2 -0.001962 0.022562 -0.012160 0.000000 -0.002786 0.000000
# 3 -0.001274 -0.012160 0.017879 0.000000 0.006216 0.000000
# 4 0.000000 0.000000 0.000000 0.033865 0.000000 0.008924
# 5 0.004370 -0.002786 0.006216 0.000000 0.038837 0.000000
# 6 0.000000 0.000000 0.000000 0.008924 0.000000 0.055433
#
#
# Mechanical properties :
#
#
# Convention : Reuss Voigt Hill
#
# Bulk Modulus (GPa) = 51.28180 57.48608 54.38394
# Shear Modulus (GPa) = 23.17809 28.08146 25.62978
#
# Velocity S-wave (km/s) = 3.46174 3.81036 3.64022
# Velocity P-wave (km/s) = 6.51860 7.00572 6.76655
#
# Compressibility (1/GPa) = 0.01950010
#
# Stress axis : x y z
#
# Youngs Moduli (GPa) = 101.50788 44.32204 55.93031
#
# Poissons Ratio (x) = 0.08696 0.07128
# Poissons Ratio (y) = 0.19915 0.68012
# Poissons Ratio (z) = 0.12936 0.53896
#
# Static dielectric constant tensor:
#      x y z
#    x 4.047000 0.000000 -0.107950 
#    y 0.000000 3.343780 0.000000 
#    z -0.107950 0.000000 3.537250 
# 
# 
# High freq. dielectric constant tensor:
#      x y z
#    x 1.777910 0.000000 -0.007870 
#    y 0.000000 1.747560 0.000000 
#    z -0.007870 0.000000 1.747120 
# 
# From -- ./inp_files/73201.got.cif
#   From: 2010.06.25/outbox.cif.g09.slc.cpg/sg10_37_cif.got.tgz:73201.got - 2010.06.27 22:07:45.
