data_PCOD8062463
_publ_section_title
;
Structure prediction by ZEFSAII (Michael W. Deem and Ramdas Pophale) SiO2 
 PCOD8062463
Probable space group: P 2/M
;
_chemical_formula_sum "Si O2"
_cell_formula_units_Z 32
_cell_length_a 10.041485
_cell_length_b 13.681377
_cell_length_c 21.393529
_cell_angle_alpha 90.000000
_cell_angle_beta 33.048758
_cell_angle_gamma 90.000000
_cell_volume 1602.830217
_symmetry_space_group_name_H-M "P 2/M"
_symmetry_group_IT_number 10
_symmetry_cell_setting 'monoclinic'
loop_
_space_group_symop_operation_xyz
x,y,z
-x,y,-z
-x,-y,-z
x,-y,z
loop_
_atom_site_type_symbol
_atom_site_label
_atom_site_fract_x
_atom_site_fract_y
_atom_site_fract_z
Si Si1 0.461055 0.392394 0.169799
Si Si2 0.137777 0.239362 0.354607
Si Si3 0.452969 0.108416 0.154237
Si Si4 0.738002 0.610581 0.188716
Si Si5 0.375387 0.110995 0.611786
Si Si6 0.203599 0.257228 0.022069
Si Si7 0.619420 0.249711 0.610530
Si Si8 0.165547 0.107525 0.145759
O O1 0.381463 0.500000 0.180362
O O2 0.221237 0.337569 0.287222
O O3 0.654043 0.394527 0.150429
O O4 0.585993 0.340677 0.060505
O O5 0.208736 0.146178 0.284744
O O6 0.279075 0.214696 0.362947
O O7 0.851492 0.259929 0.473791
O O8 0.395078 0.110015 0.102650
O O9 0.513724 0.000000 0.154330
O O10 0.692121 0.177788 0.070506
O O11 0.815168 0.500000 0.179580
O O12 0.526848 0.648713 0.319527
O O13 0.951836 0.690685 0.104173
O O14 0.500000 0.154730 0.500000
O O15 0.443692 0.170611 0.647585
O O16 0.085000 0.116467 0.716593
O O17 0.466749 0.000000 0.586076
O O18 0.177366 0.201252 0.097091
O O19 0.165687 0.000000 0.111303
#
# Coordination Sequence:
#
# PCOD8062463 Si02
#       8
#     4   4   4   4   4   4   4   4
#     4   9  19  35  56  81 109 143 184 230 274 325
#     4   9  20  34  58  82 113 142 182 227 279 325
#     4  10  21  37  56  80 110 148 189 224 270 326
#     4  10  20  35  57  82 111 146 184 227 277 331
#     4  10  20  34  55  82 110 145 185 221 262 324
#     4  11  19  32  54  81 107 141 180 227 270 319
#     4  10  19  36  55  86 112 144 180 228 277 327
#     4  10  20  35  55  80 108 143 187 226 264 321
#
# _framework density 19.964684999999999
#
# number of rings (size 3 to 8) (size 9 to 14) (size 15 to 20)
#    0.000    2.125    1.250    2.250    0.000    4.500 
#    0.000    3.750    0.000   19.125    0.000    0.000 
#    0.000    0.000    0.000    0.000    0.000    0.000 
#
# Total GULP energy -396490.346160 kJ/mol
# GULP energy per Si atom -12390.323317 kJ/mol
# Density = 1.991924 g / cm^3
# Si number density = 19.964685 Si / 1000 Ang^3
#
#
#
# Elastic Constant Matrix: (Units=GPa)
#
#
# Indices 1 2 3 4 5 6 
#
# 1 32.8590 30.0736 10.6187 0.0000 -5.5954 0.0000
# 2 30.0736 154.9735 57.6878 0.0000 -0.3478 0.0000
# 3 10.6187 57.6878 112.6114 0.0000 -4.5198 0.0000
# 4 0.0000 0.0000 0.0000 24.5618 0.0000 5.7076
# 5 -5.5954 -0.3478 -4.5198 0.0000 30.6248 0.0000
# 6 0.0000 0.0000 0.0000 5.7076 0.0000 19.0292
#
#
#
# Elastic Compliance Matrix: (Units=1/GPa)
#
#
# Indices 1 2 3 4 5 6 
#
# 1 0.038455 -0.007663 0.000581 0.000000 0.007025 0.000000
# 2 -0.007663 0.009508 -0.004225 0.000000 -0.001916 0.000000
# 3 0.000581 -0.004225 0.011058 0.000000 0.001690 0.000000
# 4 0.000000 0.000000 0.000000 0.043764 0.000000 -0.013127
# 5 0.007025 -0.001916 0.001690 0.000000 0.034164 0.000000
# 6 0.000000 0.000000 0.000000 -0.013127 0.000000 0.056488
#
#
# Mechanical properties :
#
#
# Convention : Reuss Voigt Hill
#
# Bulk Modulus (GPa) = 27.46716 55.24489 41.35603
# Shear Modulus (GPa) = 21.91193 28.31409 25.11301
#
# Velocity S-wave (km/s) = 3.31650 3.77000 3.55050
# Velocity P-wave (km/s) = 5.33416 6.83241 6.12924
#
# Compressibility (1/GPa) = 0.03640711
#
# Stress axis : x y z
#
# Youngs Moduli (GPa) = 26.00451 105.17174 90.43614
#
# Poissons Ratio (x) = 0.80594 -0.05258
# Poissons Ratio (y) = 0.19927 0.38210
# Poissons Ratio (z) = -0.01512 0.44436
#
# Static dielectric constant tensor:
#      x y z
#    x 3.249730 0.000000 -0.039400 
#    y 0.000000 3.839370 0.000000 
#    z -0.039400 0.000000 3.932100 
# 
# 
# High freq. dielectric constant tensor:
#      x y z
#    x 1.735560 0.000000 -0.004500 
#    y 0.000000 1.779670 0.000000 
#    z -0.004500 0.000000 1.803850 
# 
# From -- ./inp_files/88905.got.cif
#   From: 2010.06.25/outbox.cif.g09.slc.cpg/sg10_45_cif.got.tgz:88905.got - 2010.06.27 22:07:45.
