data_PCOD8062023
_publ_section_title
;
Structure prediction by ZEFSAII (Michael W. Deem and Ramdas Pophale) SiO2 
 PCOD8062023
Probable space group: P 2/M
;
_chemical_formula_sum "Si O2"
_cell_formula_units_Z 22
_cell_length_a 22.577164
_cell_length_b 8.128889
_cell_length_c 5.043302
_cell_angle_alpha 90.000000
_cell_angle_beta 95.842488
_cell_angle_gamma 90.000000
_cell_volume 920.775452
_symmetry_space_group_name_H-M "P 2/M"
_symmetry_group_IT_number 10
_symmetry_cell_setting 'monoclinic'
loop_
_space_group_symop_operation_xyz
x,y,z
-x,y,-z
-x,-y,-z
x,-y,z
loop_
_atom_site_type_symbol
_atom_site_label
_atom_site_fract_x
_atom_site_fract_y
_atom_site_fract_z
Si Si1 0.542254 0.000000 0.264453
Si Si2 0.269283 0.311151 0.548037
Si Si3 0.336997 0.191253 0.088900
Si Si4 0.430105 0.320698 0.510709
Si Si5 0.861308 0.805264 0.470824
Si Si6 0.066168 0.804597 0.998397
O O1 0.500000 0.000000 0.500000
O O2 0.582948 0.167377 0.290893
O O3 0.500000 0.000000 0.000000
O O4 0.275498 0.500000 0.470134
O O5 0.286891 0.205499 0.297186
O O6 0.202614 0.273326 0.607854
O O7 0.313857 0.273480 0.809212
O O8 0.396643 0.283449 0.218801
O O9 0.352416 0.000000 0.045550
O O10 0.500000 0.329572 0.500000
O O11 0.408508 0.500000 0.610051
O O12 0.889924 0.738764 0.754274
O O13 0.853407 0.000000 0.463521
O O14 0.906353 0.745373 0.264634
O O15 0.062104 0.000000 0.014835
O O16 0.000000 0.729378 0.000000
#
# Coordination Sequence:
#
# PCOD8062023 Si02
#       6
#     2   4   4   4   4   4
#     4  10  22  40  62  90 126 164 208 254 311 384
#     4  12  26  44  66  95 132 174 221 273 333 397
#     4  12  25  45  70  97 130 171 223 278 333 400
#     4  10  22  43  69  99 133 172 216 270 336 403
#     4  10  19  34  57  85 120 163 212 262 317 381
#     4   9  17  30  54  88 122 158 207 265 317 373
#
# _framework density 23.892906
#
# number of rings (size 3 to 8) (size 9 to 14) (size 15 to 20)
#    0.000    1.455    0.909    4.909    0.000    6.909 
#    0.000    3.636    0.000    3.273    0.000    0.000 
#    0.000    0.000    0.000    0.000    0.000    0.000 
#
# Total GULP energy -272787.562065 kJ/mol
# GULP energy per Si atom -12399.434639 kJ/mol
# Density = 2.383852 g / cm^3
# Si number density = 23.892906 Si / 1000 Ang^3
#
#
#
# Elastic Constant Matrix: (Units=GPa)
#
#
# Indices 1 2 3 4 5 6 
#
# 1 102.9114 4.8029 -16.9782 0.0000 26.7124 0.0000
# 2 4.8029 145.6232 27.8690 0.0000 11.6018 0.0000
# 3 -16.9782 27.8690 95.7125 0.0000 18.5832 0.0000
# 4 0.0000 0.0000 0.0000 26.4361 0.0000 -4.7745
# 5 26.7124 11.6018 18.5832 0.0000 40.5460 0.0000
# 6 0.0000 0.0000 0.0000 -4.7745 0.0000 -31.3209
#
#
#
# Elastic Compliance Matrix: (Units=1/GPa)
#
#
# Indices 1 2 3 4 5 6 
#
# 1 0.013270 -0.000459 0.004566 0.000000 -0.010704 0.000000
# 2 -0.000459 0.007343 -0.002053 0.000000 -0.000858 0.000000
# 3 0.004566 -0.002053 0.013530 0.000000 -0.008621 0.000000
# 4 0.000000 0.000000 0.000000 0.036814 0.000000 -0.005612
# 5 -0.010704 -0.000858 -0.008621 0.000000 0.035912 0.000000
# 6 0.000000 0.000000 0.000000 -0.005612 0.000000 -0.031072
#
#
# Mechanical properties :
#
#
# Convention : Reuss Voigt Hill
#
# Bulk Modulus (GPa) = 26.14285 41.73715 33.94000
# Shear Modulus (GPa) = 59.21427 29.03579 44.12503
#
# Velocity S-wave (km/s) = 4.98367 3.48982 4.30208
# Velocity P-wave (km/s) = 6.63939 5.80903 6.23804
#
# Compressibility (1/GPa) = 0.03825137
#
# Stress axis : x y z
#
# Youngs Moduli (GPa) = 75.35712 136.17623 73.91226
#
# Poissons Ratio (x) = 0.06246 -0.33747
# Poissons Ratio (y) = 0.03456 0.15174
# Poissons Ratio (z) = -0.34406 0.27956
#
# Static dielectric constant tensor:
#      x y z
#    x 4.497650 0.000000 0.020630 
#    y 0.000000 6.704140 0.000000 
#    z 0.020630 0.000000 4.424730 
# 
# 
# High freq. dielectric constant tensor:
#      x y z
#    x 1.963420 0.000000 0.004420 
#    y 0.000000 1.936670 0.000000 
#    z 0.004420 0.000000 1.952820 
# 
# From -- ./inp_files/13027.got.cif
#   From: 2010.06.25/outbox.cif.g09.slc.cpg/sg10_7_cif.got.tgz:13027.got - 2010.06.27 22:07:45.
