data_PCOD8062052
_publ_section_title
;
Structure prediction by ZEFSAII (Michael W. Deem and Ramdas Pophale) SiO2 
 PCOD8062052
Probable space group: P 2/M
;
_chemical_formula_sum "Si O2"
_cell_formula_units_Z 32
_cell_length_a 14.730101
_cell_length_b 18.443156
_cell_length_c 9.466163
_cell_angle_alpha 90.000000
_cell_angle_beta 140.105810
_cell_angle_gamma 90.000000
_cell_volume 1649.395583
_symmetry_space_group_name_H-M "P 2/M"
_symmetry_group_IT_number 10
_symmetry_cell_setting 'monoclinic'
loop_
_space_group_symop_operation_xyz
x,y,z
-x,y,-z
-x,-y,-z
x,-y,z
loop_
_atom_site_type_symbol
_atom_site_label
_atom_site_fract_x
_atom_site_fract_y
_atom_site_fract_z
Si Si1 0.742401 0.085382 0.047920
Si Si2 0.557274 0.078634 0.225206
Si Si3 0.922103 0.671465 0.046868
Si Si4 0.631433 0.583318 0.069947
Si Si5 0.636846 0.583630 0.750877
Si Si6 0.195052 0.836864 0.585429
Si Si7 0.881852 0.680111 0.467883
Si Si8 0.939983 0.158629 0.080185
O O1 0.804348 0.127528 0.258648
O O2 0.805493 0.112445 0.973501
O O3 0.770469 0.000000 0.103791
O O4 0.574471 0.102252 0.833875
O O5 0.681446 0.137281 0.373598
O O6 0.616762 0.000000 0.345181
O O7 0.500000 0.070861 0.000000
O O8 0.895422 0.757542 0.018414
O O9 0.032087 0.646960 0.298431
O O10 0.771835 0.632216 0.875801
O O11 0.000000 0.645991 0.000000
O O12 0.650365 0.500000 0.134515
O O13 0.780161 0.619504 0.284310
O O14 0.500000 0.617327 0.000000
O O15 0.595746 0.594125 0.864170
O O16 0.500000 0.609938 0.500000
O O17 0.673383 0.500000 0.759777
O O18 0.213091 0.750210 0.611580
O O19 0.050461 0.857118 0.336222
O O20 0.000000 0.706542 0.500000
O O21 0.000000 0.131877 0.000000
#
# Coordination Sequence:
#
# PCOD8062052 Si02
#       8
#     4   4   4   4   4   4   4   4
#     4  10  20  35  58  85 111 145 190 239 286 340
#     4   8  16  32  53  80 111 139 176 231 285 333
#     4  10  22  40  59  83 118 157 196 243 294 349
#     4  10  23  40  58  86 124 157 190 242 295 343
#     4  10  22  41  63  88 119 155 197 243 288 346
#     4  10  19  34  58  84 110 143 186 238 285 340
#     4  11  21  37  59  87 117 154 198 243 293 347
#     4  10  22  39  54  77 117 152 187 236 286 340
#
# _framework density 19.401045
#
# number of rings (size 3 to 8) (size 9 to 14) (size 15 to 20)
#    0.000    2.125    1.250    3.000    1.750    4.250 
#    0.000    0.625    0.000    1.500    0.000    0.000 
#    0.000    0.000    0.000    0.000    0.000    0.000 
#
# Total GULP energy -396707.263835 kJ/mol
# GULP energy per Si atom -12397.101995 kJ/mol
# Density = 1.935689 g / cm^3
# Si number density = 19.401045 Si / 1000 Ang^3
#
#
#
# Elastic Constant Matrix: (Units=GPa)
#
#
# Indices 1 2 3 4 5 6 
#
# 1 151.2436 59.7225 48.8757 0.0000 12.5545 0.0000
# 2 59.7225 79.6890 55.2056 0.0000 18.1295 0.0000
# 3 48.8757 55.2056 98.0523 0.0000 5.5118 0.0000
# 4 0.0000 0.0000 0.0000 30.0732 0.0000 13.4148
# 5 12.5545 18.1295 5.5118 0.0000 31.1998 0.0000
# 6 0.0000 0.0000 0.0000 13.4148 0.0000 33.9206
#
#
#
# Elastic Compliance Matrix: (Units=1/GPa)
#
#
# Indices 1 2 3 4 5 6 
#
# 1 0.009475 -0.006294 -0.001182 0.000000 0.000054 0.000000
# 2 -0.006294 0.028396 -0.012186 0.000000 -0.011815 0.000000
# 3 -0.001182 -0.012186 0.017397 0.000000 0.004483 0.000000
# 4 0.000000 0.000000 0.000000 0.040375 0.000000 -0.015967
# 5 0.000054 -0.011815 0.004483 0.000000 0.038103 0.000000
# 6 0.000000 0.000000 0.000000 -0.015967 0.000000 0.035795
#
#
# Mechanical properties :
#
#
# Convention : Reuss Voigt Hill
#
# Bulk Modulus (GPa) = 62.72337 72.95472 67.83905
# Shear Modulus (GPa) = 23.34496 30.05078 26.69787
#
# Velocity S-wave (km/s) = 3.47260 3.93991 3.71361
# Velocity P-wave (km/s) = 6.96266 7.64083 7.30962
#
# Compressibility (1/GPa) = 0.01594302
#
# Stress axis : x y z
#
# Youngs Moduli (GPa) = 105.54302 35.21668 57.48182
#
# Poissons Ratio (x) = 0.22166 0.06795
# Poissons Ratio (y) = 0.66430 0.70047
# Poissons Ratio (z) = 0.12477 0.42915
#
# Static dielectric constant tensor:
#      x y z
#    x 3.917660 0.000000 0.126530 
#    y 0.000000 3.478220 0.000000 
#    z 0.126530 0.000000 3.482070 
# 
# 
# High freq. dielectric constant tensor:
#      x y z
#    x 1.767020 0.000000 0.006180 
#    y 0.000000 1.747840 0.000000 
#    z 0.006180 0.000000 1.743560 
# 
# From -- ./inp_files/30324.got.cif
#   From: 2010.06.25/outbox.cif.g09.slc.cpg/sg10_16_cif.got.tgz:30324.got - 2010.06.27 22:07:45.
