data_PCOD8062802
_publ_section_title
;
Structure prediction by ZEFSAII (Michael W. Deem and Ramdas Pophale) SiO2 
 PCOD8062802
Probable space group: P 2/M
;
_chemical_formula_sum "Si O2"
_cell_formula_units_Z 32
_cell_length_a 28.822692
_cell_length_b 13.442923
_cell_length_c 9.552243
_cell_angle_alpha 90.000000
_cell_angle_beta 32.228776
_cell_angle_gamma 90.000000
_cell_volume 1973.813762
_symmetry_space_group_name_H-M "P 2/M"
_symmetry_group_IT_number 10
_symmetry_cell_setting 'monoclinic'
loop_
_space_group_symop_operation_xyz
x,y,z
-x,y,-z
-x,-y,-z
x,-y,z
loop_
_atom_site_type_symbol
_atom_site_label
_atom_site_fract_x
_atom_site_fract_y
_atom_site_fract_z
Si Si1 0.701430 0.295431 0.259068
Si Si2 0.598538 0.888761 0.088737
Si Si3 0.356281 0.684609 0.101556
Si Si4 0.601589 0.111144 0.409710
Si Si5 0.096971 0.381999 0.755593
Si Si6 0.234394 0.615530 0.181775
Si Si7 0.771694 0.616412 0.344348
Si Si8 0.522898 0.385032 0.789313
O O1 0.663113 0.184292 0.342704
O O2 0.767261 0.310961 0.221373
O O3 0.621509 0.370110 0.488362
O O4 0.757821 0.322409 0.979556
O O5 0.499172 0.877972 0.290078
O O6 0.608047 0.867475 0.228872
O O7 0.632580 0.000000 0.965471
O O8 0.657569 0.804840 0.862733
O O9 0.320131 0.632561 0.055056
O O10 0.314689 0.633901 0.343844
O O11 0.459599 0.665586 0.837258
O O12 0.634307 0.000000 0.360564
O O13 0.093827 0.500000 0.756167
O O14 0.151306 0.343973 0.482292
O O15 0.144460 0.350694 0.778559
O O16 0.000000 0.335965 0.000000
O O17 0.224282 0.500000 0.170406
O O18 0.776230 0.500000 0.289325
O O19 0.501472 0.500000 0.846946
O O20 0.500000 0.338213 0.000000
#
# Coordination Sequence:
#
# PCOD8062802 Si02
#       8
#     4   4   4   4   4   4   4   4
#     4  12  20  31  46  69 100 128 164 204 244 275
#     4   9  17  31  47  63  85 123 176 221 250 272
#     4  11  18  31  46  65  92 130 173 202 234 280
#     4   9  18  32  46  62  89 128 168 210 254 280
#     4   8  16  34  55  71  93 129 160 184 232 298
#     4  10  20  30  46  73 100 122 158 207 237 276
#     4  10  20  32  48  70 102 134 155 191 243 289
#     4  11  21  30  42  60  95 143 174 192 228 287
#
# _framework density 16.21227
#
# number of rings (size 3 to 8) (size 9 to 14) (size 15 to 20)
#    0.000    2.000    3.750    3.750    0.000    0.500 
#    0.000    2.500    0.000    5.250    0.000    0.000 
#    0.000   19.000    0.000    0.000    0.000    0.000 
#
# Total GULP energy -396669.544346 kJ/mol
# GULP energy per Si atom -12395.923261 kJ/mol
# Density = 1.617537 g / cm^3
# Si number density = 16.212270 Si / 1000 Ang^3
#
#
#
# Elastic Constant Matrix: (Units=GPa)
#
#
# Indices 1 2 3 4 5 6 
#
# 1 92.7257 26.1696 44.6209 0.0000 2.4936 0.0000
# 2 26.1696 76.2296 14.2026 0.0000 3.1590 0.0000
# 3 44.6209 14.2026 63.3558 0.0000 -0.6090 0.0000
# 4 0.0000 0.0000 0.0000 10.2610 0.0000 4.1472
# 5 2.4936 3.1590 -0.6090 0.0000 24.1736 0.0000
# 6 0.0000 0.0000 0.0000 4.1472 0.0000 20.3691
#
#
#
# Elastic Compliance Matrix: (Units=1/GPa)
#
#
# Indices 1 2 3 4 5 6 
#
# 1 0.017385 -0.003776 -0.011413 0.000000 -0.001587 0.000000
# 2 -0.003776 0.014595 -0.000627 0.000000 -0.001534 0.000000
# 3 -0.011413 -0.000627 0.023980 0.000000 0.001863 0.000000
# 4 0.000000 0.000000 0.000000 0.106195 0.000000 -0.021621
# 5 -0.001587 -0.001534 0.001863 0.000000 0.041779 0.000000
# 6 0.000000 0.000000 0.000000 -0.021621 0.000000 0.053496
#
#
# Mechanical properties :
#
#
# Convention : Reuss Voigt Hill
#
# Bulk Modulus (GPa) = 41.10442 44.69970 42.90206
# Shear Modulus (GPa) = 16.82531 20.78194 18.80363
#
# Velocity S-wave (km/s) = 3.22501 3.58420 3.40934
# Velocity P-wave (km/s) = 6.26710 6.69029 6.48215
#
# Compressibility (1/GPa) = 0.02432828
#
# Stress axis : x y z
#
# Youngs Moduli (GPa) = 57.52126 68.51673 41.70094
#
# Poissons Ratio (x) = 0.25873 0.47592
# Poissons Ratio (y) = 0.21721 0.02615
# Poissons Ratio (z) = 0.65648 0.04296
#
# Static dielectric constant tensor:
#      x y z
#    x 3.147600 0.000000 0.034610 
#    y 0.000000 2.995230 0.000000 
#    z 0.034610 0.000000 2.966240 
# 
# 
# High freq. dielectric constant tensor:
#      x y z
#    x 1.615940 0.000000 0.012480 
#    y 0.000000 1.607400 0.000000 
#    z 0.012480 0.000000 1.592710 
# 
# From -- ./inp_files/37637.got.cif
#   From: 2010.06.25/outbox.cif.g09.slc.cpg/sg10_19_cif.got.tgz:37637.got - 2010.06.27 22:07:45.
