data_PCOD8062848
_publ_section_title
;
Structure prediction by ZEFSAII (Michael W. Deem and Ramdas Pophale) SiO2 
 PCOD8062848
Probable space group: P 2/M
;
_chemical_formula_sum "Si O2"
_cell_formula_units_Z 24
_cell_length_a 22.641881
_cell_length_b 9.323967
_cell_length_c 16.263408
_cell_angle_alpha 90.000000
_cell_angle_beta 157.136804
_cell_angle_gamma 90.000000
_cell_volume 1333.987453
_symmetry_space_group_name_H-M "P 2/M"
_symmetry_group_IT_number 10
_symmetry_cell_setting 'monoclinic'
loop_
_space_group_symop_operation_xyz
x,y,z
-x,y,-z
-x,-y,-z
x,-y,z
loop_
_atom_site_type_symbol
_atom_site_label
_atom_site_fract_x
_atom_site_fract_y
_atom_site_fract_z
Si Si1 0.607883 0.835546 0.065854
Si Si2 0.098509 0.329806 0.009372
Si Si3 0.176591 0.330924 0.930622
Si Si4 0.461277 0.669666 0.187855
Si Si5 0.955611 0.164181 0.532937
Si Si6 0.779554 0.329564 0.663758
O O1 0.777014 0.818746 0.317219
O O2 0.572060 0.000000 0.996506
O O3 0.500000 0.779586 0.000000
O O4 0.584034 0.739790 0.955682
O O5 0.099584 0.500000 0.013355
O O6 0.171847 0.274158 0.018567
O O7 0.923012 0.277679 0.792920
O O8 0.197921 0.272183 0.213842
O O9 0.150380 0.500000 0.893060
O O10 0.037391 0.259534 0.705163
O O11 0.337440 0.287090 0.097676
O O12 0.466266 0.500000 0.181029
O O13 0.623476 0.732171 0.425881
O O14 0.000000 0.222025 0.500000
O O15 0.009848 0.000000 0.612141
O O16 0.769637 0.500000 0.652309
#
# Coordination Sequence:
#
# PCOD8062848 Si02
#       6
#     4   4   4   4   4   4
#     4  10  22  38  53  71  97 131 169 204 244 296
#     4   8  15  29  48  71  99 132 165 197 241 294
#     4  10  20  31  49  78 104 128 163 206 246 284
#     4  10  20  32  49  77 105 128 161 206 249 286
#     4  10  20  36  54  70  95 134 169 198 241 298
#     4   8  15  29  48  70 100 133 163 198 242 293
#
# _framework density 17.991173
#
# number of rings (size 3 to 8) (size 9 to 14) (size 15 to 20)
#    0.000    2.667    1.667    1.000    2.333    2.000 
#    0.000    3.333    0.000    1.000    0.000    4.667 
#    0.000    0.000    0.000    0.000    0.000    0.000 
#
# Total GULP energy -297553.465012 kJ/mol
# GULP energy per Si atom -12398.061042 kJ/mol
# Density = 1.795022 g / cm^3
# Si number density = 17.991173 Si / 1000 Ang^3
#
#
#
# Elastic Constant Matrix: (Units=GPa)
#
#
# Indices 1 2 3 4 5 6 
#
# 1 136.3543 30.3948 38.9525 0.0000 9.6050 0.0000
# 2 30.3948 20.3105 24.5470 0.0000 -1.1325 0.0000
# 3 38.9525 24.5470 96.8040 0.0000 3.8229 0.0000
# 4 0.0000 0.0000 0.0000 7.7895 0.0000 12.7519
# 5 9.6050 -1.1325 3.8229 0.0000 27.9640 0.0000
# 6 0.0000 0.0000 0.0000 12.7519 0.0000 -1.5180
#
#
#
# Elastic Compliance Matrix: (Units=1/GPa)
#
#
# Indices 1 2 3 4 5 6 
#
# 1 0.011589 -0.017580 -0.000020 0.000000 -0.004690 0.000000
# 2 -0.017580 0.098470 -0.018391 0.000000 0.012540 0.000000
# 3 -0.000020 -0.018391 0.015112 0.000000 -0.002804 0.000000
# 4 0.000000 0.000000 0.000000 0.008703 0.000000 0.073104
# 5 -0.004690 0.012540 -0.002804 0.000000 0.038262 0.000000
# 6 0.000000 0.000000 0.000000 0.073104 0.000000 -0.044656
#
#
# Mechanical properties :
#
#
# Convention : Reuss Voigt Hill
#
# Bulk Modulus (GPa) = 18.80069 49.02861 33.91465
# Shear Modulus (GPa) = 23.02130 17.48540 20.25335
#
# Velocity S-wave (km/s) = 3.58101 3.12089 3.35884
# Velocity P-wave (km/s) = 5.25080 6.34801 5.82530
#
# Compressibility (1/GPa) = 0.05318953
#
# Stress axis : x y z
#
# Youngs Moduli (GPa) = 86.29169 10.15543 66.17069
#
# Poissons Ratio (x) = 0.17853 0.00133
# Poissons Ratio (y) = 1.51697 1.21693
# Poissons Ratio (z) = 0.00174 0.18677
#
# Static dielectric constant tensor:
#      x y z
#    x 3.614610 0.000000 0.089490 
#    y 0.000000 2.927670 0.000000 
#    z 0.089490 0.000000 3.513880 
# 
# 
# High freq. dielectric constant tensor:
#      x y z
#    x 1.707850 0.000000 0.005140 
#    y 0.000000 1.651120 0.000000 
#    z 0.005140 0.000000 1.704540 
# 
# From -- ./inp_files/27988.got.cif
#   From: 2010.06.25/outbox.cif.g09.slc.cpg/sg10_14_cif.got.tgz:27988.got - 2010.06.27 22:07:45.
