data_PCOD8062583
_publ_section_title
;
Structure prediction by ZEFSAII (Michael W. Deem and Ramdas Pophale) SiO2 
 PCOD8062583
Probable space group: P 2/M
;
_chemical_formula_sum "Si O2"
_cell_formula_units_Z 32
_cell_length_a 25.960553
_cell_length_b 9.054615
_cell_length_c 21.055026
_cell_angle_alpha 90.000000
_cell_angle_beta 20.151125
_cell_angle_gamma 90.000000
_cell_volume 1705.005558
_symmetry_space_group_name_H-M "P 2/M"
_symmetry_group_IT_number 10
_symmetry_cell_setting 'monoclinic'
loop_
_space_group_symop_operation_xyz
x,y,z
-x,y,-z
-x,-y,-z
x,-y,z
loop_
_atom_site_type_symbol
_atom_site_label
_atom_site_fract_x
_atom_site_fract_y
_atom_site_fract_z
Si Si1 0.341449 0.667487 0.988578
Si Si2 0.640199 0.325496 0.299054
Si Si3 0.527148 0.674078 0.294258
Si Si4 0.672771 0.330807 0.645910
Si Si5 0.034603 0.673544 0.033127
Si Si6 0.325713 0.336151 0.212691
Si Si7 0.161374 0.172813 0.296851
Si Si8 0.765490 0.175681 0.414688
O O1 0.286158 0.500000 0.055993
O O2 0.364217 0.717345 0.889447
O O3 0.494968 0.689528 0.848699
O O4 0.214190 0.764697 0.168150
O O5 0.500000 0.257302 0.500000
O O6 0.638580 0.500000 0.308593
O O7 0.616717 0.278163 0.253252
O O8 0.798507 0.267764 0.142915
O O9 0.488527 0.500000 0.337978
O O10 0.369908 0.758616 0.470543
O O11 0.714733 0.500000 0.580784
O O12 0.719735 0.288613 0.663057
O O13 0.754235 0.225134 0.501267
O O14 0.017516 0.500000 0.067924
O O15 0.921023 0.764817 0.207703
O O16 0.000000 0.707351 0.000000
O O17 0.259812 0.500000 0.274881
O O18 0.266195 0.215110 0.233662
O O19 0.500000 0.342659 0.000000
O O20 0.000000 0.238525 0.500000
O O21 0.158292 0.000000 0.292685
O O22 0.761136 0.000000 0.415818
#
# Coordination Sequence:
#
# PCOD8062583 Si02
#       8
#     4   4   4   4   4   4   4   4
#     4   9  17  33  56  78 104 139 183 232 276 323
#     4   9  17  32  58  88 111 136 181 232 273 317
#     4   9  18  35  58  82 108 140 183 232 274 322
#     4   9  18  35  59  84 109 138 180 234 280 326
#     4  10  20  36  60  86 114 148 184 228 278 323
#     4  10  19  36  61  85 106 134 183 239 282 324
#     4  11  24  38  51  75 113 151 183 223 276 336
#     4  11  22  35  54  82 117 151 183 221 270 332
#
# _framework density 18.768267000000002
#
# number of rings (size 3 to 8) (size 9 to 14) (size 15 to 20)
#    0.000    2.250    1.250    3.000    0.000    6.000 
#    2.250    0.625    0.000    1.500    0.000    0.000 
#    0.000    0.000    0.000    0.000    0.000    0.000 
#
# Total GULP energy -396761.353503 kJ/mol
# GULP energy per Si atom -12398.792297 kJ/mol
# Density = 1.872555 g / cm^3
# Si number density = 18.768267 Si / 1000 Ang^3
#
#
#
# Elastic Constant Matrix: (Units=GPa)
#
#
# Indices 1 2 3 4 5 6 
#
# 1 121.0745 30.5065 69.3461 0.0000 8.7241 0.0000
# 2 30.5065 62.7489 53.1058 0.0000 2.7055 0.0000
# 3 69.3461 53.1058 141.5628 0.0000 5.3870 0.0000
# 4 0.0000 0.0000 0.0000 22.6007 0.0000 -9.1428
# 5 8.7241 2.7055 5.3870 0.0000 21.5033 0.0000
# 6 0.0000 0.0000 0.0000 -9.1428 0.0000 7.1653
#
#
#
# Elastic Compliance Matrix: (Units=1/GPa)
#
#
# Indices 1 2 3 4 5 6 
#
# 1 0.011774 -0.001182 -0.005198 0.000000 -0.003326 0.000000
# 2 -0.001182 0.023480 -0.008214 0.000000 -0.000417 0.000000
# 3 -0.005198 -0.008214 0.012693 0.000000 -0.000038 0.000000
# 4 0.000000 0.000000 0.000000 0.091452 0.000000 0.116691
# 5 -0.003326 -0.000417 -0.000038 0.000000 0.047916 0.000000
# 6 0.000000 0.000000 0.000000 0.116691 0.000000 0.288458
#
#
# Mechanical properties :
#
#
# Convention : Reuss Voigt Hill
#
# Bulk Modulus (GPa) = 53.30225 70.14479 61.72352
# Shear Modulus (GPa) = 9.78066 21.74903 15.76484
#
# Velocity S-wave (km/s) = 2.28530 3.40784 2.90137
# Velocity P-wave (km/s) = 5.95192 7.27597 6.64699
#
# Compressibility (1/GPa) = 0.01876093
#
# Stress axis : x y z
#
# Youngs Moduli (GPa) = 84.93469 42.58854 78.78462
#
# Poissons Ratio (x) = 0.05033 0.40949
# Poissons Ratio (y) = 0.10037 0.64711
# Poissons Ratio (z) = 0.44146 0.34981
#
# Static dielectric constant tensor:
#      x y z
#    x 3.478720 0.000000 0.176370 
#    y 0.000000 3.192100 0.000000 
#    z 0.176370 0.000000 3.498680 
# 
# 
# High freq. dielectric constant tensor:
#      x y z
#    x 1.732270 0.000000 0.015910 
#    y 0.000000 1.702180 0.000000 
#    z 0.015910 0.000000 1.729320 
# 
# From -- ./inp_files/86737.got.cif
#   From: 2010.06.25/outbox.cif.g09.slc.cpg/sg10_44_cif.got.tgz:86737.got - 2010.06.27 22:07:45.
