data_PCOD8062359
_publ_section_title
;
Structure prediction by ZEFSAII (Michael W. Deem and Ramdas Pophale) SiO2 
 PCOD8062359
Probable space group: P 2/M
;
_chemical_formula_sum "Si O2"
_cell_formula_units_Z 32
_cell_length_a 14.175421
_cell_length_b 8.944776
_cell_length_c 12.917522
_cell_angle_alpha 90.000000
_cell_angle_beta 86.387270
_cell_angle_gamma 90.000000
_cell_volume 1634.634783
_symmetry_space_group_name_H-M "P 2/M"
_symmetry_group_IT_number 10
_symmetry_cell_setting 'monoclinic'
loop_
_space_group_symop_operation_xyz
x,y,z
-x,y,-z
-x,-y,-z
x,-y,z
loop_
_atom_site_type_symbol
_atom_site_label
_atom_site_fract_x
_atom_site_fract_y
_atom_site_fract_z
Si Si1 0.102033 0.323801 0.696439
Si Si2 0.789992 0.823178 0.500320
Si Si3 0.442750 0.823719 0.104368
Si Si4 0.590596 0.671729 0.222408
Si Si5 0.216441 0.676179 0.881995
Si Si6 0.397151 0.328112 0.538034
Si Si7 0.240956 0.324809 0.107721
Si Si8 0.115947 0.674731 0.311366
O O1 0.119174 0.500000 0.681638
O O2 0.159653 0.242147 0.603591
O O3 0.138568 0.264174 0.805902
O O4 0.992738 0.282369 0.696294
O O5 0.682208 0.766780 0.515604
O O6 0.844959 0.771450 0.597912
O O7 0.791307 0.000000 0.494086
O O8 0.498105 0.767565 0.202072
O O9 0.338319 0.759962 0.115727
O O10 0.435716 0.000000 0.106374
O O11 0.500000 0.765347 0.000000
O O12 0.568885 0.500000 0.196121
O O13 0.679130 0.737850 0.152054
O O14 0.617779 0.690000 0.339434
O O15 0.220084 0.500000 0.868629
O O16 0.192223 0.722338 0.001649
O O17 0.500000 0.265704 0.500000
O O18 0.387260 0.500000 0.502912
O O19 0.263244 0.500000 0.106932
O O20 0.169337 0.279362 0.202844
O O21 0.128820 0.500000 0.336001
#
# Coordination Sequence:
#
# PCOD8062359 Si02
#       8
#     4   4   4   4   4   4   4   4
#     4  10  20  40  66  90 115 149 197 250 301 352
#     4  12  25  40  61  88 122 159 197 242 291 353
#     4  11  23  36  53  81 118 158 195 233 279 339
#     4  10  19  35  59  85 112 150 195 242 290 342
#     4   9  17  33  61  90 116 146 189 243 295 346
#     4  10  22  40  62  88 118 153 194 241 294 350
#     4  10  21  38  59  87 119 154 196 241 295 355
#     4  10  23  40  62  88 117 155 198 247 300 352
#
# _framework density 19.576236999999999
#
# number of rings (size 3 to 8) (size 9 to 14) (size 15 to 20)
#    0.000    1.750    2.500    1.875    1.750    4.250 
#    0.000    3.125    0.000    0.000    0.000    2.625 
#    0.000    0.000    0.000    0.000    0.000    0.000 
#
# Total GULP energy -396865.409523 kJ/mol
# GULP energy per Si atom -12402.044048 kJ/mol
# Density = 1.953168 g / cm^3
# Si number density = 19.576237 Si / 1000 Ang^3
#
#
#
# Elastic Constant Matrix: (Units=GPa)
#
#
# Indices 1 2 3 4 5 6 
#
# 1 157.9018 54.5731 64.9169 0.0000 14.6074 0.0000
# 2 54.5731 59.3752 36.5687 0.0000 10.7156 0.0000
# 3 64.9169 36.5687 99.4015 0.0000 22.6855 0.0000
# 4 0.0000 0.0000 0.0000 7.1659 0.0000 -4.3915
# 5 14.6074 10.7156 22.6855 0.0000 32.5182 0.0000
# 6 0.0000 0.0000 0.0000 -4.3915 0.0000 5.1425
#
#
#
# Elastic Compliance Matrix: (Units=1/GPa)
#
#
# Indices 1 2 3 4 5 6 
#
# 1 0.010540 -0.007080 -0.004437 0.000000 0.000694 0.000000
# 2 -0.007080 0.026630 -0.004634 0.000000 -0.002362 0.000000
# 3 -0.004437 -0.004634 0.016484 0.000000 -0.007979 0.000000
# 4 0.000000 0.000000 0.000000 0.292755 0.000000 0.249999
# 5 0.000694 -0.002362 -0.007979 0.000000 0.036785 0.000000
# 6 0.000000 0.000000 0.000000 0.249999 0.000000 0.407943
#
#
# Mechanical properties :
#
#
# Convention : Reuss Voigt Hill
#
# Bulk Modulus (GPa) = 46.83524 69.86622 58.35073
# Shear Modulus (GPa) = 6.02006 19.67332 12.84669
#
# Velocity S-wave (km/s) = 1.75552 3.17355 2.56450
# Velocity P-wave (km/s) = 5.29959 7.01394 6.21615
#
# Compressibility (1/GPa) = 0.02135144
#
# Stress axis : x y z
#
# Youngs Moduli (GPa) = 94.87655 37.55209 60.66551
#
# Poissons Ratio (x) = 0.26587 0.26918
# Poissons Ratio (y) = 0.67172 0.28112
# Poissons Ratio (z) = 0.42098 0.17401
#
# Static dielectric constant tensor:
#      x y z
#    x 3.684460 0.000000 0.062150 
#    y 0.000000 3.295920 0.000000 
#    z 0.062150 0.000000 3.782350 
# 
# 
# High freq. dielectric constant tensor:
#      x y z
#    x 1.771620 0.000000 0.006270 
#    y 0.000000 1.733380 0.000000 
#    z 0.006270 0.000000 1.774010 
# 
# From -- ./inp_files/49979.got.cif
#   From: 2010.06.25/outbox.cif.g09.slc.cpg/sg10_25_cif.got.tgz:49979.got - 2010.06.27 22:07:45.
