data_PCOD8062934
_publ_section_title
;
Structure prediction by ZEFSAII (Michael W. Deem and Ramdas Pophale) SiO2 
 PCOD8062934
Probable space group: P 2/M
;
_chemical_formula_sum "Si O2"
_cell_formula_units_Z 28
_cell_length_a 16.578010
_cell_length_b 9.012034
_cell_length_c 14.716373
_cell_angle_alpha 90.000000
_cell_angle_beta 42.060605
_cell_angle_gamma 90.000000
_cell_volume 1472.911149
_symmetry_space_group_name_H-M "P 2/M"
_symmetry_group_IT_number 10
_symmetry_cell_setting 'monoclinic'
loop_
_space_group_symop_operation_xyz
x,y,z
-x,y,-z
-x,-y,-z
x,-y,z
loop_
_atom_site_type_symbol
_atom_site_label
_atom_site_fract_x
_atom_site_fract_y
_atom_site_fract_z
Si Si1 0.134814 0.664937 0.920791
Si Si2 0.615432 0.662128 0.840039
Si Si3 0.443223 0.674480 0.452287
Si Si4 0.765468 0.322689 0.875144
Si Si5 0.456360 0.324315 0.821067
Si Si6 0.792926 0.825237 0.313621
Si Si7 0.055201 0.825549 0.159591
O O1 0.190384 0.500000 0.890913
O O2 0.213012 0.749300 0.780287
O O3 0.136677 0.757715 0.011306
O O4 0.000000 0.649408 0.000000
O O5 0.665717 0.500000 0.771794
O O6 0.720286 0.738683 0.813866
O O7 0.569584 0.744293 0.785806
O O8 0.500000 0.644207 0.000000
O O9 0.500000 0.728109 0.500000
O O10 0.415809 0.500000 0.477096
O O11 0.532361 0.718098 0.294666
O O12 0.319213 0.761355 0.536591
O O13 0.779650 0.500000 0.862520
O O14 0.893729 0.246065 0.790102
O O15 0.670608 0.269511 0.032364
O O16 0.464419 0.500000 0.828323
O O17 0.915038 0.783109 0.265216
O O18 0.782698 0.000000 0.308555
O O19 0.073394 0.000000 0.144681
#
# Coordination Sequence:
#
# PCOD8062934 Si02
#       7
#     4   4   4   4   4   4   4
#     4   9  17  30  49  70  91 121 162 204 243 284
#     4   7  11  23  45  72  98 124 157 198 247 297
#     4  10  21  34  50  73  99 130 168 207 243 286
#     4   9  16  27  50  79 100 124 161 202 247 300
#     4   8  15  29  48  72 102 130 158 202 252 292
#     4  10  21  36  50  66  96 135 170 202 241 292
#     4  10  20  32  47  71 102 132 160 198 251 298
#
# _framework density 19.009972999999999
#
# number of rings (size 3 to 8) (size 9 to 14) (size 15 to 20)
#    0.000    3.000    0.000    3.000    2.000    3.714 
#    0.000    0.714    0.000    5.571    0.000    6.000 
#    0.000    0.000    0.000    0.000    0.000    0.000 
#
# Total GULP energy -346897.065747 kJ/mol
# GULP energy per Si atom -12389.180920 kJ/mol
# Density = 1.896671 g / cm^3
# Si number density = 19.009973 Si / 1000 Ang^3
#
#
#
# Elastic Constant Matrix: (Units=GPa)
#
#
# Indices 1 2 3 4 5 6 
#
# 1 132.5323 29.5509 19.4345 0.0000 5.4495 0.0000
# 2 29.5509 51.6521 11.8718 0.0000 -6.1204 0.0000
# 3 19.4345 11.8718 43.9770 0.0000 2.1014 0.0000
# 4 0.0000 0.0000 0.0000 15.8698 0.0000 -6.0260
# 5 5.4495 -6.1204 2.1014 0.0000 24.3481 0.0000
# 6 0.0000 0.0000 0.0000 -6.0260 0.0000 17.9579
#
#
#
# Elastic Compliance Matrix: (Units=1/GPa)
#
#
# Indices 1 2 3 4 5 6 
#
# 1 0.009167 -0.005026 -0.002546 0.000000 -0.003095 0.000000
# 2 -0.005026 0.024214 -0.004679 0.000000 0.007615 0.000000
# 3 -0.002546 -0.004679 0.025261 0.000000 -0.002787 0.000000
# 4 0.000000 0.000000 0.000000 0.072214 0.000000 0.024233
# 5 -0.003095 0.007615 -0.002787 0.000000 0.043919 0.000000
# 6 0.000000 0.000000 0.000000 0.024233 0.000000 0.063817
#
#
# Mechanical properties :
#
#
# Convention : Reuss Voigt Hill
#
# Bulk Modulus (GPa) = 29.29299 38.87510 34.08404
# Shear Modulus (GPa) = 18.21668 22.78877 20.50272
#
# Velocity S-wave (km/s) = 3.09895 3.46610 3.28765
# Velocity P-wave (km/s) = 5.31483 6.04257 5.69035
#
# Compressibility (1/GPa) = 0.03413786
#
# Stress axis : x y z
#
# Youngs Moduli (GPa) = 109.09145 41.29912 39.58704
#
# Poissons Ratio (x) = 0.20756 0.10080
# Poissons Ratio (y) = 0.54828 0.18524
# Poissons Ratio (z) = 0.27778 0.19325
#
# Static dielectric constant tensor:
#      x y z
#    x 3.849200 0.000000 0.130910 
#    y 0.000000 3.121710 0.000000 
#    z 0.130910 0.000000 3.205860 
# 
# 
# High freq. dielectric constant tensor:
#      x y z
#    x 1.757810 0.000000 -0.000780 
#    y 0.000000 1.701170 0.000000 
#    z -0.000780 0.000000 1.696170 
# 
# From -- ./inp_files/68598.got.cif
#   From: 2010.06.25/outbox.cif.g09.slc.cpg/sg10_35_cif.got.tgz:68598.got - 2010.06.27 22:07:45.
