data_PCOD8062345
_publ_section_title
;
Structure prediction by ZEFSAII (Michael W. Deem and Ramdas Pophale) SiO2 
 PCOD8062345
Probable space group: P 2/M
;
_chemical_formula_sum "Si O2"
_cell_formula_units_Z 32
_cell_length_a 27.843525
_cell_length_b 8.955557
_cell_length_c 21.623505
_cell_angle_alpha 90.000000
_cell_angle_beta 18.626611
_cell_angle_gamma 90.000000
_cell_volume 1722.174263
_symmetry_space_group_name_H-M "P 2/M"
_symmetry_group_IT_number 10
_symmetry_cell_setting 'monoclinic'
loop_
_space_group_symop_operation_xyz
x,y,z
-x,y,-z
-x,-y,-z
x,-y,z
loop_
_atom_site_type_symbol
_atom_site_label
_atom_site_fract_x
_atom_site_fract_y
_atom_site_fract_z
Si Si1 0.668726 0.174492 0.273919
Si Si2 0.131940 0.173356 0.205834
Si Si3 0.940906 0.321926 0.005567
Si Si4 0.365382 0.677397 0.285519
Si Si5 0.104638 0.670847 0.687751
Si Si6 0.791595 0.671669 0.006862
Si Si7 0.790876 0.175779 0.635896
Si Si8 0.674662 0.172674 0.911638
O O1 0.500000 0.208853 0.500000
O O2 0.778659 0.251469 0.189659
O O3 0.688686 0.240629 0.181048
O O4 0.704791 0.000000 0.228318
O O5 0.201211 0.204854 0.188167
O O6 0.960395 0.230387 0.416576
O O7 0.138814 0.000000 0.180088
O O8 0.229009 0.262135 0.036472
O O9 0.922905 0.500000 0.022769
O O10 0.000000 0.269856 0.000000
O O11 0.060825 0.260739 0.808230
O O12 0.354447 0.500000 0.295449
O O13 0.250369 0.744687 0.477715
O O14 0.324124 0.742078 0.269024
O O15 0.530618 0.727683 0.103039
O O16 0.143469 0.500000 0.651846
O O17 0.965727 0.691804 0.811201
O O18 0.741084 0.500000 0.069237
O O19 0.746542 0.221586 0.759218
O O20 0.775303 0.000000 0.644730
O O21 0.625809 0.000000 0.970306
#
# Coordination Sequence:
#
# PCOD8062345 Si02
#       8
#     4   4   4   4   4   4   4   4
#     4  10  21  37  57  83 117 149 181 223 269 319
#     4  10  20  36  58  81 108 142 182 226 277 326
#     4   9  18  35  59  84 111 144 185 228 271 319
#     4  11  21  35  54  78 111 144 181 226 275 324
#     4   8  16  32  53  77 106 139 176 222 263 311
#     4  10  19  35  59  83 109 143 185 227 268 319
#     4  10  20  36  59  80 102 141 188 227 271 328
#     4  10  22  38  53  77 112 144 180 228 275 327
#
# _framework density 18.581161000000002
#
# number of rings (size 3 to 8) (size 9 to 14) (size 15 to 20)
#    0.000    2.250    1.250    2.625    0.000    5.250 
#    2.250    0.625    0.000    2.250    0.000    0.000 
#    0.000    0.000    0.000    0.000    0.000    0.000 
#
# Total GULP energy -396815.177758 kJ/mol
# GULP energy per Si atom -12400.474305 kJ/mol
# Density = 1.853887 g / cm^3
# Si number density = 18.581161 Si / 1000 Ang^3
#
#
#
# Elastic Constant Matrix: (Units=GPa)
#
#
# Indices 1 2 3 4 5 6 
#
# 1 96.4170 27.5608 35.8923 0.0000 17.8916 0.0000
# 2 27.5608 50.9776 39.4388 0.0000 6.4322 0.0000
# 3 35.8923 39.4388 101.4520 0.0000 13.5852 0.0000
# 4 0.0000 0.0000 0.0000 28.5521 0.0000 -0.1116
# 5 17.8916 6.4322 13.5852 0.0000 28.0747 0.0000
# 6 0.0000 0.0000 0.0000 -0.1116 0.0000 25.5512
#
#
#
# Elastic Compliance Matrix: (Units=1/GPa)
#
#
# Indices 1 2 3 4 5 6 
#
# 1 0.013807 -0.005056 -0.002028 0.000000 -0.006660 0.000000
# 2 -0.005056 0.029945 -0.010014 0.000000 0.001207 0.000000
# 3 -0.002028 -0.010014 0.014956 0.000000 -0.003651 0.000000
# 4 0.000000 0.000000 0.000000 0.035024 0.000000 0.000153
# 5 -0.006660 0.001207 -0.003651 0.000000 0.041353 0.000000
# 6 0.000000 0.000000 0.000000 0.000153 0.000000 0.039138
#
#
# Mechanical properties :
#
#
# Convention : Reuss Voigt Hill
#
# Bulk Modulus (GPa) = 40.79396 50.51449 45.65422
# Shear Modulus (GPa) = 23.08515 26.16591 24.62553
#
# Velocity S-wave (km/s) = 3.52859 3.75666 3.64441
# Velocity P-wave (km/s) = 6.21316 6.78687 6.50634
#
# Compressibility (1/GPa) = 0.02451343
#
# Stress axis : x y z
#
# Youngs Moduli (GPa) = 72.42443 33.39484 66.86345
#
# Poissons Ratio (x) = 0.16884 0.13557
# Poissons Ratio (y) = 0.36618 0.66955
# Poissons Ratio (z) = 0.14685 0.33441
#
# Static dielectric constant tensor:
#      x y z
#    x 3.413550 0.000000 0.190000 
#    y 0.000000 3.282880 0.000000 
#    z 0.190000 0.000000 3.503270 
# 
# 
# High freq. dielectric constant tensor:
#      x y z
#    x 1.721240 0.000000 0.013110 
#    y 0.000000 1.707390 0.000000 
#    z 0.013110 0.000000 1.723860 
# 
# From -- ./inp_files/86897.got.cif
#   From: 2010.06.25/outbox.cif.g09.slc.cpg/sg10_44_cif.got.tgz:86897.got - 2010.06.27 22:07:45.
