data_PCOD8062060
_publ_section_title
;
Structure prediction by ZEFSAII (Michael W. Deem and Ramdas Pophale) SiO2 
 PCOD8062060
Probable space group: P 2/M
;
_chemical_formula_sum "Si O2"
_cell_formula_units_Z 22
_cell_length_a 9.101381
_cell_length_b 13.843495
_cell_length_c 8.993030
_cell_angle_alpha 90.000000
_cell_angle_beta 89.931046
_cell_angle_gamma 90.000000
_cell_volume 1133.075296
_symmetry_space_group_name_H-M "P 2/M"
_symmetry_group_IT_number 10
_symmetry_cell_setting 'monoclinic'
loop_
_space_group_symop_operation_xyz
x,y,z
-x,y,-z
-x,-y,-z
x,-y,z
loop_
_atom_site_type_symbol
_atom_site_label
_atom_site_fract_x
_atom_site_fract_y
_atom_site_fract_z
Si Si1 0.243747 0.500000 0.526939
Si Si2 0.627915 0.823473 0.398593
Si Si3 0.544934 0.294389 0.839104
Si Si4 0.000000 0.661009 0.500000
Si Si5 0.479794 0.500000 0.266284
Si Si6 0.191374 0.213823 0.322448
Si Si7 0.801007 0.000000 0.338724
Si Si8 0.882187 0.000000 0.681901
O O1 0.141214 0.594754 0.536453
O O2 0.341766 0.500000 0.378299
O O3 0.359360 0.500000 0.660574
O O4 0.500000 0.871530 0.500000
O O5 0.563885 0.744598 0.287577
O O6 0.739408 0.773841 0.512613
O O7 0.704682 0.906470 0.301093
O O8 0.533242 0.408934 0.841215
O O9 0.712611 0.265461 0.803459
O O10 0.500000 0.252893 0.000000
O O11 0.036961 0.729920 0.354251
O O12 0.184902 0.102383 0.265011
O O13 0.859282 0.000000 0.506433
O O14 0.953196 0.000000 0.249433
#
# Coordination Sequence:
#
# PCOD8062060 Si02
#       8
#     2   4   4   2   2   4   2   2
#     4  10  22  32  61  90 113 136 184 234 285 329
#     4   9  18  31  53  82 108 143 183 228 273 319
#     4  11  23  37  56  79 109 148 188 229 276 331
#     4  11  18  33  56  94 114 141 174 235 276 336
#     4  11  21  40  55  82 112 145 183 231 282 337
#     4  10  19  34  58  84 115 143 183 228 275 327
#     4   9  15  30  52  81 112 140 174 231 282 325
#     4   9  18  30  52  85 111 141 184 225 278 324
#
# _framework density 19.416184000000001
#
# number of rings (size 3 to 8) (size 9 to 14) (size 15 to 20)
#    0.000    2.000    1.818    3.818    5.091    2.182 
#    0.000    1.818    0.000   12.000    0.000    0.000 
#    0.000    0.000    0.000    0.000    0.000    0.000 
#
# Total GULP energy -272579.919186 kJ/mol
# GULP energy per Si atom -12389.996327 kJ/mol
# Density = 1.937199 g / cm^3
# Si number density = 19.416184 Si / 1000 Ang^3
#
#
#
# Elastic Constant Matrix: (Units=GPa)
#
#
# Indices 1 2 3 4 5 6 
#
# 1 111.7084 53.0866 30.7071 0.0000 -13.6488 0.0000
# 2 53.0866 136.2962 25.3641 0.0000 -8.2758 0.0000
# 3 30.7071 25.3641 56.3684 0.0000 -19.4143 0.0000
# 4 0.0000 0.0000 0.0000 4.9793 0.0000 -4.7362
# 5 -13.6488 -8.2758 -19.4143 0.0000 20.7195 0.0000
# 6 0.0000 0.0000 0.0000 -4.7362 0.0000 27.0780
#
#
#
# Elastic Compliance Matrix: (Units=1/GPa)
#
#
# Indices 1 2 3 4 5 6 
#
# 1 0.012211 -0.003850 -0.003955 0.000000 0.002800 0.000000
# 2 -0.003850 0.009222 -0.002447 0.000000 -0.001145 0.000000
# 3 -0.003955 -0.002447 0.029179 0.000000 0.023758 0.000000
# 4 0.000000 0.000000 0.000000 0.240913 0.000000 0.042138
# 5 0.002800 -0.001145 0.023758 0.000000 0.071912 0.000000
# 6 0.000000 0.000000 0.000000 0.042138 0.000000 0.044300
#
#
# Mechanical properties :
#
#
# Convention : Reuss Voigt Hill
#
# Bulk Modulus (GPa) = 33.21419 58.07650 45.64535
# Shear Modulus (GPa) = 11.40829 23.56970 17.48900
#
# Velocity S-wave (km/s) = 2.42661 3.48792 3.00449
# Velocity P-wave (km/s) = 4.99948 6.79684 5.96623
#
# Compressibility (1/GPa) = 0.03010761
#
# Stress axis : x y z
#
# Youngs Moduli (GPa) = 81.89456 108.43246 34.27158
#
# Poissons Ratio (x) = 0.41746 0.13555
# Poissons Ratio (y) = 0.31529 0.08386
# Poissons Ratio (z) = 0.32391 0.26533
#
# Static dielectric constant tensor:
#      x y z
#    x 3.911720 0.000000 -0.065530 
#    y 0.000000 3.728730 0.000000 
#    z -0.065530 0.000000 2.909360 
# 
# 
# High freq. dielectric constant tensor:
#      x y z
#    x 1.772030 0.000000 -0.006960 
#    y 0.000000 1.776180 0.000000 
#    z -0.006960 0.000000 1.685360 
# 
# From -- ./inp_files/18957.got.cif
#   From: 2010.06.25/outbox.cif.g09.slc.cpg/sg10_10_cif.got.tgz:18957.got - 2010.06.27 22:07:45.
