data_PCOD8062461
_publ_section_title
;
Structure prediction by ZEFSAII (Michael W. Deem and Ramdas Pophale) SiO2 
 PCOD8062461
Probable space group: P 2/M
;
_chemical_formula_sum "Si O2"
_cell_formula_units_Z 20
_cell_length_a 12.954691
_cell_length_b 13.408383
_cell_length_c 18.713436
_cell_angle_alpha 90.000000
_cell_angle_beta 18.940945
_cell_angle_gamma 90.000000
_cell_volume 1055.107546
_symmetry_space_group_name_H-M "P 2/M"
_symmetry_group_IT_number 10
_symmetry_cell_setting 'monoclinic'
loop_
_space_group_symop_operation_xyz
x,y,z
-x,y,-z
-x,-y,-z
x,-y,z
loop_
_atom_site_type_symbol
_atom_site_label
_atom_site_fract_x
_atom_site_fract_y
_atom_site_fract_z
Si Si1 0.136454 0.698141 0.233204
Si Si2 0.758468 0.774526 0.096808
Si Si3 0.162159 0.213501 0.698567
Si Si4 0.248469 0.612946 0.397187
Si Si5 0.203580 0.888028 0.531564
O O1 0.025451 0.700813 0.223210
O O2 0.931272 0.615947 0.408972
O O3 0.067225 0.807815 0.315095
O O4 0.500000 0.668407 0.000000
O O5 0.560942 0.681063 0.195831
O O6 0.534189 0.860411 0.276220
O O7 0.000000 0.736628 0.000000
O O8 0.955338 0.821072 0.901842
O O9 0.500000 0.259962 0.500000
O O10 0.235817 0.120042 0.597066
O O11 0.355997 0.500000 0.310504
O O12 0.000000 0.651759 0.500000
O O13 0.104586 0.000000 0.574694
#
# Coordination Sequence:
#
# PCOD8062461 Si02
#       5
#     4   4   4   4   4
#     4   9  19  36  56  79 112 149 179 236 274 326
#     4  11  20  38  59  81 116 151 184 230 283 325
#     4  10  19  36  55  80 111 149 184 229 277 323
#     4  10  21  37  60  86 112 144 185 230 280 339
#     4   9  21  35  54  84 114 148 192 228 272 329
#
# _framework density 18.955413
#
# number of rings (size 3 to 8) (size 9 to 14) (size 15 to 20)
#    1.200    1.000    2.000    1.200    0.000    2.800 
#    0.000    1.000    0.000    6.000    0.000    0.000 
#    0.000    0.000    0.000    0.000    0.000    0.000 
#
# Total GULP energy -247792.772401 kJ/mol
# GULP energy per Si atom -12389.638620 kJ/mol
# Density = 1.891227 g / cm^3
# Si number density = 18.955413 Si / 1000 Ang^3
#
#
#
# Elastic Constant Matrix: (Units=GPa)
#
#
# Indices 1 2 3 4 5 6 
#
# 1 70.3611 8.7369 17.2389 0.0000 18.0230 0.0000
# 2 8.7369 66.0840 8.5945 0.0000 1.5875 0.0000
# 3 17.2389 8.5945 98.0299 0.0000 24.9236 0.0000
# 4 0.0000 0.0000 0.0000 15.2188 0.0000 -3.5858
# 5 18.0230 1.5875 24.9236 0.0000 45.6009 0.0000
# 6 0.0000 0.0000 0.0000 -3.5858 0.0000 7.9230
#
#
#
# Elastic Compliance Matrix: (Units=1/GPa)
#
#
# Indices 1 2 3 4 5 6 
#
# 1 0.016196 -0.001843 -0.001249 0.000000 -0.005654 0.000000
# 2 -0.001843 0.015519 -0.001259 0.000000 0.000876 0.000000
# 3 -0.001249 -0.001259 0.012072 0.000000 -0.006061 0.000000
# 4 0.000000 0.000000 0.000000 0.073551 0.000000 0.033288
# 5 -0.005654 0.000876 -0.006061 0.000000 0.027446 0.000000
# 6 0.000000 0.000000 0.000000 0.033288 0.000000 0.141281
#
#
# Mechanical properties :
#
#
# Convention : Reuss Voigt Hill
#
# Bulk Modulus (GPa) = 28.50316 33.73506 31.11911
# Shear Modulus (GPa) = 16.31528 27.07552 21.69540
#
# Velocity S-wave (km/s) = 2.93698 3.78349 3.38679
# Velocity P-wave (km/s) = 5.15468 6.07636 5.63440
#
# Compressibility (1/GPa) = 0.03508383
#
# Stress axis : x y z
#
# Youngs Moduli (GPa) = 61.74524 64.43864 82.83728
#
# Poissons Ratio (x) = 0.11876 0.10345
# Poissons Ratio (y) = 0.11379 0.10432
# Poissons Ratio (z) = 0.07711 0.08115
#
# Static dielectric constant tensor:
#      x y z
#    x 3.527780 0.000000 0.136050 
#    y 0.000000 2.953980 0.000000 
#    z 0.136050 0.000000 3.551960 
# 
# 
# High freq. dielectric constant tensor:
#      x y z
#    x 1.737630 0.000000 0.009840 
#    y 0.000000 1.692930 0.000000 
#    z 0.009840 0.000000 1.746930 
# 
# From -- ./inp_files/42366.got.cif
#   From: 2010.06.25/outbox.cif.g09.slc.cpg/sg10_22_cif.got.tgz:42366.got - 2010.06.27 22:07:45.
