data_PCOD8062178
_publ_section_title
;
Structure prediction by ZEFSAII (Michael W. Deem and Ramdas Pophale) SiO2 
 PCOD8062178
Probable space group: P 2/M
;
_chemical_formula_sum "Si O2"
_cell_formula_units_Z 28
_cell_length_a 15.265873
_cell_length_b 11.129026
_cell_length_c 9.255832
_cell_angle_alpha 90.000000
_cell_angle_beta 70.465192
_cell_angle_gamma 90.000000
_cell_volume 1481.996903
_symmetry_space_group_name_H-M "P 2/M"
_symmetry_group_IT_number 10
_symmetry_cell_setting 'monoclinic'
loop_
_space_group_symop_operation_xyz
x,y,z
-x,y,-z
-x,-y,-z
x,-y,z
loop_
_atom_site_type_symbol
_atom_site_label
_atom_site_fract_x
_atom_site_fract_y
_atom_site_fract_z
Si Si1 0.284576 0.369405 0.025945
Si Si2 0.911716 0.861732 0.967816
Si Si3 0.897913 0.633960 0.409389
Si Si4 0.404777 0.135864 0.969783
Si Si5 0.768660 0.732868 0.232244
Si Si6 0.103714 0.696291 0.277412
Si Si7 0.410330 0.136379 0.629143
O O1 0.335209 0.500000 0.026105
O O2 0.187570 0.379786 0.164325
O O3 0.338630 0.248622 0.050227
O O4 0.265984 0.365907 0.863667
O O5 0.902331 0.820392 0.807286
O O6 0.930189 0.000000 0.947479
O O7 0.818408 0.836110 0.109470
O O8 0.000000 0.800028 0.000000
O O9 0.865236 0.500000 0.468383
O O10 0.838757 0.679074 0.308115
O O11 0.880391 0.718171 0.559694
O O12 0.006275 0.627809 0.307742
O O13 0.427655 0.145237 0.789321
O O14 0.363641 0.000000 0.026291
O O15 0.500000 0.154463 0.000000
O O16 0.681275 0.789523 0.365144
O O17 0.500000 0.192916 0.500000
O O18 0.396097 0.000000 0.584213
#
# Coordination Sequence:
#
# PCOD8062178 Si02
#       7
#     4   4   4   4   4   4   4
#     4  10  20  34  55  82 111 141 185 232 275 330
#     4  10  19  35  55  77 108 143 181 226 274 326
#     4  11  21  36  54  74 109 147 183 228 275 328
#     4   9  19  36  58  80 105 139 179 223 277 335
#     4  10  20  34  55  81 107 144 187 223 276 330
#     4  10  21  36  53  78 108 146 186 223 276 326
#     4   9  18  34  55  78 105 136 175 223 271 325
#
# _framework density 18.893426999999999
#
# number of rings (size 3 to 8) (size 9 to 14) (size 15 to 20)
#    0.000    2.143    1.429    2.571    0.000    4.857 
#    0.000    5.000    0.000   10.714    0.000    0.000 
#    0.000    0.000    0.000    0.000    0.000    0.000 
#
# Total GULP energy -346947.482923 kJ/mol
# GULP energy per Si atom -12390.981533 kJ/mol
# Density = 1.885042 g / cm^3
# Si number density = 18.893427 Si / 1000 Ang^3
#
#
#
# Elastic Constant Matrix: (Units=GPa)
#
#
# Indices 1 2 3 4 5 6 
#
# 1 91.7597 49.5647 41.6666 0.0000 0.4483 0.0000
# 2 49.5647 117.4476 39.0496 0.0000 -3.0571 0.0000
# 3 41.6666 39.0496 81.5418 0.0000 -13.3578 0.0000
# 4 0.0000 0.0000 0.0000 7.5921 0.0000 2.2246
# 5 0.4483 -3.0571 -13.3578 0.0000 38.2563 0.0000
# 6 0.0000 0.0000 0.0000 2.2246 0.0000 14.5723
#
#
#
# Elastic Compliance Matrix: (Units=1/GPa)
#
#
# Indices 1 2 3 4 5 6 
#
# 1 0.016530 -0.004859 -0.006592 0.000000 -0.002884 0.000000
# 2 -0.004859 0.011587 -0.003081 0.000000 -0.000093 0.000000
# 3 -0.006592 -0.003081 0.018116 0.000000 0.006157 0.000000
# 4 0.000000 0.000000 0.000000 0.137883 0.000000 -0.021049
# 5 -0.002884 -0.000093 0.006157 0.000000 0.028316 0.000000
# 6 0.000000 0.000000 0.000000 -0.021049 0.000000 0.071837
#
#
# Mechanical properties :
#
#
# Convention : Reuss Voigt Hill
#
# Bulk Modulus (GPa) = 58.24607 61.25677 59.75142
# Shear Modulus (GPa) = 15.67119 22.78202 19.22660
#
# Velocity S-wave (km/s) = 2.88315 3.47625 3.19350
# Velocity P-wave (km/s) = 6.47912 6.97174 6.72994
#
# Compressibility (1/GPa) = 0.01716854
#
# Stress axis : x y z
#
# Youngs Moduli (GPa) = 60.49519 86.30237 55.19942
#
# Poissons Ratio (x) = 0.41937 0.36387
# Poissons Ratio (y) = 0.29397 0.17008
# Poissons Ratio (z) = 0.39878 0.26591
#
# Static dielectric constant tensor:
#      x y z
#    x 3.532860 0.000000 -0.004760 
#    y 0.000000 3.417360 0.000000 
#    z -0.004760 0.000000 3.438300 
# 
# 
# High freq. dielectric constant tensor:
#      x y z
#    x 1.732090 0.000000 0.000250 
#    y 0.000000 1.724010 0.000000 
#    z 0.000250 0.000000 1.726670 
# 
# From -- ./inp_files/28206.got.cif
#   From: 2010.06.25/outbox.cif.g09.slc.cpg/sg10_15_cif.got.tgz:28206.got - 2010.06.27 22:07:45.
