data_PCOD8062201
_publ_section_title
;
Structure prediction by ZEFSAII (Michael W. Deem and Ramdas Pophale) SiO2 
 PCOD8062201
Probable space group: P 2/M
;
_chemical_formula_sum "Si O2"
_cell_formula_units_Z 32
_cell_length_a 9.031887
_cell_length_b 19.805229
_cell_length_c 10.191557
_cell_angle_alpha 90.000000
_cell_angle_beta 58.576383
_cell_angle_gamma 90.000000
_cell_volume 1555.675287
_symmetry_space_group_name_H-M "P 2/M"
_symmetry_group_IT_number 10
_symmetry_cell_setting 'monoclinic'
loop_
_space_group_symop_operation_xyz
x,y,z
-x,y,-z
-x,-y,-z
x,-y,z
loop_
_atom_site_type_symbol
_atom_site_label
_atom_site_fract_x
_atom_site_fract_y
_atom_site_fract_z
Si Si1 0.790561 0.317997 0.916825
Si Si2 0.811075 0.721032 0.618707
Si Si3 0.384099 0.427013 0.857237
Si Si4 0.155800 0.128622 0.339021
Si Si5 0.357334 0.616300 0.458512
Si Si6 0.525228 0.074269 0.141407
Si Si7 0.153431 0.165625 0.033632
Si Si8 0.089877 0.425951 0.776767
O O1 0.745120 0.303553 0.788996
O O2 0.814613 0.246341 0.979697
O O3 0.959925 0.364220 0.853847
O O4 0.627716 0.362224 0.042539
O O5 0.808633 0.800550 0.609043
O O6 0.684342 0.692188 0.567317
O O7 0.000000 0.691289 0.500000
O O8 0.373758 0.500000 0.934958
O O9 0.567256 0.426823 0.696875
O O10 0.224553 0.419582 0.831781
O O11 0.333376 0.088818 0.286791
O O12 0.111612 0.137291 0.201876
O O13 0.000000 0.095399 0.500000
O O14 0.500000 0.626734 0.500000
O O15 0.189390 0.578359 0.592121
O O16 0.584958 0.000000 0.164301
O O17 0.500000 0.073678 0.000000
O O18 0.673763 0.129569 0.105172
O O19 0.000000 0.149531 0.000000
O O20 0.997592 0.500000 0.824655
#
# Coordination Sequence:
#
# PCOD8062201 Si02
#       8
#     4   4   4   4   4   4   4   4
#     4  11  21  35  56  81 114 145 191 239 293 338
#     4  10  20  38  56  79 112 147 184 234 291 347
#     4  10  21  35  52  79 110 143 187 242 295 342
#     4   9  20  38  61  89 121 156 198 246 294 342
#     4  10  21  37  57  79 104 146 191 236 290 353
#     4   9  19  38  63  91 124 164 201 232 287 362
#     4  10  21  37  60  91 123 159 199 243 292 356
#     4  10  19  35  56  76 108 151 191 235 292 351
#
# _framework density 20.569845000000001
#
# number of rings (size 3 to 8) (size 9 to 14) (size 15 to 20)
#    0.000    2.125    1.250    1.875    1.750    3.500 
#    0.000    4.375    0.000    0.750    0.000    0.000 
#    0.000    0.000    0.000    0.000    0.000    0.000 
#
# Total GULP energy -396434.485316 kJ/mol
# GULP energy per Si atom -12388.577666 kJ/mol
# Density = 2.052303 g / cm^3
# Si number density = 20.569845 Si / 1000 Ang^3
#
#
#
# Elastic Constant Matrix: (Units=GPa)
#
#
# Indices 1 2 3 4 5 6 
#
# 1 30.8489 38.4729 30.9316 0.0000 -15.1251 0.0000
# 2 38.4729 127.4074 44.7322 0.0000 -19.0443 0.0000
# 3 30.9316 44.7322 124.5773 0.0000 -20.0149 0.0000
# 4 0.0000 0.0000 0.0000 19.7074 0.0000 6.3387
# 5 -15.1251 -19.0443 -20.0149 0.0000 24.9449 0.0000
# 6 0.0000 0.0000 0.0000 6.3387 0.0000 71.0651
#
#
#
# Elastic Compliance Matrix: (Units=1/GPa)
#
#
# Indices 1 2 3 4 5 6 
#
# 1 0.072042 -0.014992 -0.008409 0.000000 0.025489 0.000000
# 2 -0.014992 0.012655 -0.000838 0.000000 -0.000101 0.000000
# 3 -0.008409 -0.000838 0.010899 0.000000 0.003006 0.000000
# 4 0.000000 0.000000 0.000000 0.052241 0.000000 -0.004660
# 5 0.025489 -0.000101 0.003006 0.000000 0.057879 0.000000
# 6 0.000000 0.000000 0.000000 -0.004660 0.000000 0.014487
#
#
# Mechanical properties :
#
#
# Convention : Reuss Voigt Hill
#
# Bulk Modulus (GPa) = 21.22332 56.78968 39.00650
# Shear Modulus (GPa) = 17.58168 34.38994 25.98581
#
# Velocity S-wave (km/s) = 2.92675 4.09328 3.55814
# Velocity P-wave (km/s) = 4.66489 7.07164 5.99038
#
# Compressibility (1/GPa) = 0.04711799
#
# Stress axis : x y z
#
# Youngs Moduli (GPa) = 13.88078 79.02012 91.75184
#
# Poissons Ratio (x) = 1.18467 0.77156
# Poissons Ratio (y) = 0.20810 0.07688
# Poissons Ratio (z) = 0.11673 0.06621
#
# Static dielectric constant tensor:
#      x y z
#    x 3.541680 0.000000 -0.174190 
#    y 0.000000 3.946390 0.000000 
#    z -0.174190 0.000000 4.407560 
# 
# 
# High freq. dielectric constant tensor:
#      x y z
#    x 1.781110 0.000000 -0.012430 
#    y 0.000000 1.799820 0.000000 
#    z -0.012430 0.000000 1.815420 
# 
# From -- ./inp_files/43585.got.cif
#   From: 2010.06.25/outbox.cif.g09.slc.cpg/sg10_22_cif.got.tgz:43585.got - 2010.06.27 22:07:45.
