data_PCOD8062280
_publ_section_title
;
Structure prediction by ZEFSAII (Michael W. Deem and Ramdas Pophale) SiO2 
 PCOD8062280
Probable space group: P 2/M
;
_chemical_formula_sum "Si O2"
_cell_formula_units_Z 28
_cell_length_a 13.645496
_cell_length_b 8.868718
_cell_length_c 18.538903
_cell_angle_alpha 90.000000
_cell_angle_beta 143.536496
_cell_angle_gamma 90.000000
_cell_volume 1333.360858
_symmetry_space_group_name_H-M "P 2/M"
_symmetry_group_IT_number 10
_symmetry_cell_setting 'monoclinic'
loop_
_space_group_symop_operation_xyz
x,y,z
-x,y,-z
-x,-y,-z
x,-y,z
loop_
_atom_site_type_symbol
_atom_site_label
_atom_site_fract_x
_atom_site_fract_y
_atom_site_fract_z
Si Si1 0.258284 0.169994 0.337851
Si Si2 0.754953 0.169166 0.502820
Si Si3 0.102600 0.824541 0.875723
Si Si4 0.685740 0.820238 0.131984
Si Si5 0.439232 0.673931 0.323602
Si Si6 0.939911 0.321221 0.383974
Si Si7 0.184566 0.831706 0.081651
O O1 0.295281 0.168382 0.443690
O O2 0.397309 0.263630 0.378391
O O3 0.078427 0.247497 0.220924
O O4 0.261297 0.000000 0.307735
O O5 0.594718 0.249226 0.374283
O O6 0.920452 0.263022 0.588002
O O7 0.779157 0.000000 0.486945
O O8 0.201659 0.757283 0.866768
O O9 0.073273 0.000000 0.841611
O O10 0.204764 0.798299 0.008868
O O11 0.763336 0.748946 0.252209
O O12 0.690442 0.000000 0.143726
O O13 0.500000 0.768407 0.000000
O O14 0.479762 0.500000 0.354824
O O15 0.284091 0.703203 0.180974
O O16 0.923683 0.500000 0.370800
O O17 0.000000 0.270023 0.500000
O O18 0.252988 0.000000 0.138788
O O19 0.000000 0.820903 0.000000
#
# Coordination Sequence:
#
# PCOD8062280 Si02
#       7
#     4   4   4   4   4   4   4
#     4  10  19  37  62  86 115 156 207 254 299 354
#     4  11  23  41  66  90 117 158 212 260 303 361
#     4   9  17  34  60  88 115 150 200 256 303 349
#     4  10  21  40  67  98 126 158 212 270 315 374
#     4  12  25  37  54  88 132 165 201 250 306 371
#     4  11  25  44  66  95 134 171 205 256 326 390
#     4  10  19  35  58  80 112 160 208 249 296 357
#
# _framework density 20.999565
#
# number of rings (size 3 to 8) (size 9 to 14) (size 15 to 20)
#    0.000    1.571    2.857    2.571    0.000    5.714 
#    0.000    2.143    0.000    0.000    0.000    0.000 
#    0.000    0.000    0.000    0.000    0.000    0.000 
#
# Total GULP energy -347030.315616 kJ/mol
# GULP energy per Si atom -12393.939843 kJ/mol
# Density = 2.095177 g / cm^3
# Si number density = 20.999565 Si / 1000 Ang^3
#
#
#
# Elastic Constant Matrix: (Units=GPa)
#
#
# Indices 1 2 3 4 5 6 
#
# 1 65.1308 25.6926 42.1673 0.0000 0.2551 0.0000
# 2 25.6926 76.5254 42.6357 0.0000 2.0924 0.0000
# 3 42.1673 42.6357 124.0321 0.0000 4.5140 0.0000
# 4 0.0000 0.0000 0.0000 23.8019 0.0000 -0.4143
# 5 0.2551 2.0924 4.5140 0.0000 36.7552 0.0000
# 6 0.0000 0.0000 0.0000 -0.4143 0.0000 20.1127
#
#
#
# Elastic Compliance Matrix: (Units=1/GPa)
#
#
# Indices 1 2 3 4 5 6 
#
# 1 0.020527 -0.003722 -0.005727 0.000000 0.000773 0.000000
# 2 -0.003722 0.016840 -0.004510 0.000000 -0.000379 0.000000
# 3 -0.005727 -0.004510 0.011601 0.000000 -0.001128 0.000000
# 4 0.000000 0.000000 0.000000 0.042029 0.000000 0.000866
# 5 0.000773 -0.000379 -0.001128 0.000000 0.027362 0.000000
# 6 0.000000 0.000000 0.000000 0.000866 0.000000 0.049738
#
#
# Mechanical properties :
#
#
# Convention : Reuss Voigt Hill
#
# Bulk Modulus (GPa) = 47.50567 54.07551 50.79059
# Shear Modulus (GPa) = 24.62693 26.48014 25.55354
#
# Velocity S-wave (km/s) = 3.42824 3.55489 3.49214
# Velocity P-wave (km/s) = 6.19207 6.53118 6.36388
#
# Compressibility (1/GPa) = 0.02105012
#
# Stress axis : x y z
#
# Youngs Moduli (GPa) = 48.71663 59.38248 86.20137
#
# Poissons Ratio (x) = 0.22102 0.49370
# Poissons Ratio (y) = 0.18132 0.38873
# Poissons Ratio (z) = 0.27901 0.26779
#
# Static dielectric constant tensor:
#      x y z
#    x 3.805050 0.000000 0.004670 
#    y 0.000000 3.535830 0.000000 
#    z 0.004670 0.000000 3.978530 
# 
# 
# High freq. dielectric constant tensor:
#      x y z
#    x 1.815890 0.000000 0.001240 
#    y 0.000000 1.789140 0.000000 
#    z 0.001240 0.000000 1.837480 
# 
# From -- ./inp_files/84992.got.cif
#   From: 2010.06.25/outbox.cif.g09.slc.cpg/sg10_43_cif.got.tgz:84992.got - 2010.06.27 22:07:45.
