data_PCOD8062632
_publ_section_title
;
Structure prediction by ZEFSAII (Michael W. Deem and Ramdas Pophale) SiO2 
 PCOD8062632
Probable space group: P 2/M
;
_chemical_formula_sum "Si O2"
_cell_formula_units_Z 32
_cell_length_a 13.482964
_cell_length_b 14.454170
_cell_length_c 8.544573
_cell_angle_alpha 90.000000
_cell_angle_beta 110.418355
_cell_angle_gamma 90.000000
_cell_volume 1560.584908
_symmetry_space_group_name_H-M "P 2/M"
_symmetry_group_IT_number 10
_symmetry_cell_setting 'monoclinic'
loop_
_space_group_symop_operation_xyz
x,y,z
-x,y,-z
-x,-y,-z
x,-y,z
loop_
_atom_site_type_symbol
_atom_site_label
_atom_site_fract_x
_atom_site_fract_y
_atom_site_fract_z
Si Si1 0.896660 0.099860 0.844402
Si Si2 0.913584 0.763214 0.583817
Si Si3 0.295518 0.110582 0.047205
Si Si4 0.244739 0.397313 0.857433
Si Si5 0.290642 0.783305 0.723183
Si Si6 0.447901 0.602703 0.138703
Si Si7 0.991688 0.391974 0.174910
Si Si8 0.507256 0.789334 0.686409
O O1 0.936307 0.165178 0.730923
O O2 0.800158 0.141293 0.892726
O O3 0.859882 0.000000 0.756938
O O4 0.000000 0.084159 0.000000
O O5 0.799829 0.790650 0.455800
O O6 0.924577 0.660886 0.667347
O O7 0.000000 0.776530 0.500000
O O8 0.402620 0.151626 0.178600
O O9 0.304608 0.000000 0.033597
O O10 0.269625 0.155654 0.865211
O O11 0.244211 0.500000 0.781351
O O12 0.295479 0.325966 0.763453
O O13 0.126605 0.366452 0.835778
O O14 0.319976 0.397057 0.051601
O O15 0.398111 0.819677 0.706016
O O16 0.486072 0.500000 0.213461
O O17 0.476569 0.679138 0.283164
O O18 0.500000 0.628174 0.000000
O O19 0.017188 0.500000 0.205405
O O20 0.000000 0.359275 0.000000
O O21 0.500000 0.813367 0.500000
#
# Coordination Sequence:
#
# PCOD8062632 Si02
#       8
#     4   4   4   4   4   4   4   4
#     4  10  23  43  67  94 126 166 210 262 321 383
#     4  12  24  37  63  97 133 172 207 263 324 381
#     4  11  25  47  71  92 123 168 216 267 327 387
#     4  10  20  37  64  91 124 168 215 257 305 369
#     4  12  24  40  63  97 122 166 217 262 324 378
#     4  10  19  36  63  90 123 167 211 257 311 372
#     4  10  23  41  63  95 134 179 223 261 307 374
#     4  12  25  41  63  95 133 163 208 272 321 392
#
# _framework density 20.505130999999999
#
# number of rings (size 3 to 8) (size 9 to 14) (size 15 to 20)
#    0.000    1.125    3.750    2.250    1.750    4.000 
#    0.000    0.000    0.000    0.000    0.000    0.000 
#    0.000    0.000    0.000    0.000    0.000    0.000 
#
# Total GULP energy -396731.395835 kJ/mol
# GULP energy per Si atom -12397.856120 kJ/mol
# Density = 2.045846 g / cm^3
# Si number density = 20.505131 Si / 1000 Ang^3
#
#
#
# Elastic Constant Matrix: (Units=GPa)
#
#
# Indices 1 2 3 4 5 6 
#
# 1 107.3188 37.7750 41.0138 0.0000 -0.3485 0.0000
# 2 37.7750 103.2626 49.2296 0.0000 -9.7219 0.0000
# 3 41.0138 49.2296 104.0365 0.0000 0.4724 0.0000
# 4 0.0000 0.0000 0.0000 -33.4824 0.0000 6.4831
# 5 -0.3485 -9.7219 0.4724 0.0000 39.4600 0.0000
# 6 0.0000 0.0000 0.0000 6.4831 0.0000 22.7833
#
#
#
# Elastic Compliance Matrix: (Units=1/GPa)
#
#
# Indices 1 2 3 4 5 6 
#
# 1 0.011514 -0.002710 -0.003254 0.000000 -0.000527 0.000000
# 2 -0.002710 0.013548 -0.005358 0.000000 0.003378 0.000000
# 3 -0.003254 -0.005358 0.013437 0.000000 -0.001510 0.000000
# 4 0.000000 0.000000 0.000000 -0.028307 0.000000 0.008055
# 5 -0.000527 0.003378 -0.001510 0.000000 0.026188 0.000000
# 6 0.000000 0.000000 0.000000 0.008055 0.000000 0.041600
#
#
# Mechanical properties :
#
#
# Convention : Reuss Voigt Hill
#
# Bulk Modulus (GPa) = 63.07347 63.40608 63.23977
# Shear Modulus (GPa) = 47.21059 18.19212 32.70136
#
# Velocity S-wave (km/s) = 4.80352 2.98182 3.99781
# Velocity P-wave (km/s) = 7.84804 6.54555 7.22620
#
# Compressibility (1/GPa) = 0.01585453
#
# Stress axis : x y z
#
# Youngs Moduli (GPa) = 86.85124 73.81325 74.42141
#
# Poissons Ratio (x) = 0.20004 0.24219
# Poissons Ratio (y) = 0.23538 0.39872
# Poissons Ratio (z) = 0.28264 0.39547
#
# Static dielectric constant tensor:
#      x y z
#    x 3.901730 0.000000 0.155230 
#    y 0.000000 3.862530 0.000000 
#    z 0.155230 0.000000 3.690170 
# 
# 
# High freq. dielectric constant tensor:
#      x y z
#    x 1.812700 0.000000 0.011120 
#    y 0.000000 1.809520 0.000000 
#    z 0.011120 0.000000 1.789100 
# 
# From -- ./inp_files/29567.got.cif
#   From: 2010.06.25/outbox.cif.g09.slc.cpg/sg10_15_cif.got.tgz:29567.got - 2010.06.27 22:07:45.
