data_PCOD8062732
_publ_section_title
;
Structure prediction by ZEFSAII (Michael W. Deem and Ramdas Pophale) SiO2 
 PCOD8062732
Probable space group: P 2/M
;
_chemical_formula_sum "Si O2"
_cell_formula_units_Z 28
_cell_length_a 9.239535
_cell_length_b 15.005114
_cell_length_c 11.072989
_cell_angle_alpha 90.000000
_cell_angle_beta 64.483355
_cell_angle_gamma 90.000000
_cell_volume 1385.422799
_symmetry_space_group_name_H-M "P 2/M"
_symmetry_group_IT_number 10
_symmetry_cell_setting 'monoclinic'
loop_
_space_group_symop_operation_xyz
x,y,z
-x,y,-z
-x,-y,-z
x,-y,z
loop_
_atom_site_type_symbol
_atom_site_label
_atom_site_fract_x
_atom_site_fract_y
_atom_site_fract_z
Si Si1 0.852529 0.214533 0.129600
Si Si2 0.142235 0.634573 0.529198
Si Si3 0.194061 0.404486 0.775053
Si Si4 0.457700 0.599605 0.266935
Si Si5 0.488669 0.780266 0.865402
Si Si6 0.760449 0.899006 0.659703
Si Si7 0.905586 0.834103 0.377651
O O1 0.889375 0.320334 0.131536
O O2 0.689349 0.198354 0.116682
O O3 0.842774 0.165102 0.262621
O O4 0.000000 0.174346 0.000000
O O5 0.136363 0.586238 0.658994
O O6 0.309700 0.615746 0.406557
O O7 0.114870 0.738686 0.554636
O O8 0.000000 0.593504 0.500000
O O9 0.150590 0.500000 0.854105
O O10 0.385246 0.389506 0.706716
O O11 0.449238 0.500000 0.211644
O O12 0.464801 0.675415 0.160941
O O13 0.607295 0.838406 0.741580
O O14 0.500000 0.809203 0.000000
O O15 0.800844 0.898574 0.501440
O O16 0.908926 0.862977 0.685992
O O17 0.722054 0.000000 0.711700
#
# Coordination Sequence:
#
# PCOD8062732 Si02
#       7
#     4   4   4   4   4   4   4
#     4  10  22  38  61  86 117 165 201 244 304 354
#     4  11  18  30  52  83 120 152 193 243 296 343
#     4   9  20  34  51  78 115 159 205 247 290 347
#     4  10  20  36  55  80 118 163 203 241 292 350
#     4  11  23  41  62  88 124 159 204 251 297 356
#     4  11  22  41  68  94 120 155 194 245 308 362
#     4  10  19  38  62  90 123 151 195 241 297 359
#
# _framework density 20.210436999999999
#
# number of rings (size 3 to 8) (size 9 to 14) (size 15 to 20)
#    0.000    1.714    2.857    2.571    0.000    4.857 
#    0.000    2.143    0.000    3.000    0.000    0.000 
#    0.000    0.000    0.000    0.000    0.000    0.000 
#
# Total GULP energy -347114.612887 kJ/mol
# GULP energy per Si atom -12396.950460 kJ/mol
# Density = 2.016444 g / cm^3
# Si number density = 20.210437 Si / 1000 Ang^3
#
#
#
# Elastic Constant Matrix: (Units=GPa)
#
#
# Indices 1 2 3 4 5 6 
#
# 1 109.3995 29.5504 56.1168 0.0000 8.5545 0.0000
# 2 29.5504 97.5101 12.5687 0.0000 -8.0366 0.0000
# 3 56.1168 12.5687 88.1050 0.0000 0.7564 0.0000
# 4 0.0000 0.0000 0.0000 13.3632 0.0000 7.8625
# 5 8.5545 -8.0366 0.7564 0.0000 34.6929 0.0000
# 6 0.0000 0.0000 0.0000 7.8625 0.0000 21.0587
#
#
#
# Elastic Compliance Matrix: (Units=1/GPa)
#
#
# Indices 1 2 3 4 5 6 
#
# 1 0.015170 -0.003791 -0.009083 0.000000 -0.004421 0.000000
# 2 -0.003791 0.011608 0.000728 0.000000 0.003608 0.000000
# 3 -0.009083 0.000728 0.017014 0.000000 0.002037 0.000000
# 4 0.000000 0.000000 0.000000 0.095899 0.000000 -0.035805
# 5 -0.004421 0.003608 0.002037 0.000000 0.030706 0.000000
# 6 0.000000 0.000000 0.000000 -0.035805 0.000000 0.060855
#
#
# Mechanical properties :
#
#
# Convention : Reuss Voigt Hill
#
# Bulk Modulus (GPa) = 51.28555 54.60959 52.94757
# Shear Modulus (GPa) = 19.08078 26.94154 23.01116
#
# Velocity S-wave (km/s) = 3.07596 3.65506 3.37794
# Velocity P-wave (km/s) = 6.16817 6.70013 6.43964
#
# Compressibility (1/GPa) = 0.01949867
#
# Stress axis : x y z
#
# Youngs Moduli (GPa) = 65.92066 86.14975 58.77413
#
# Poissons Ratio (x) = 0.32657 0.53387
# Poissons Ratio (y) = 0.24989 -0.04276
# Poissons Ratio (z) = 0.59878 -0.06268
#
# Static dielectric constant tensor:
#      x y z
#    x 3.699030 0.000000 0.011070 
#    y 0.000000 3.730510 0.000000 
#    z 0.011070 0.000000 3.436200 
# 
# 
# High freq. dielectric constant tensor:
#      x y z
#    x 1.790820 0.000000 -0.004370 
#    y 0.000000 1.786990 0.000000 
#    z -0.004370 0.000000 1.774010 
# 
# From -- ./inp_files/25221.got.cif
#   From: 2010.06.25/outbox.cif.g09.slc.cpg/sg10_13_cif.got.tgz:25221.got - 2010.06.27 22:07:45.
