data_PCOD8062407
_publ_section_title
;
Structure prediction by ZEFSAII (Michael W. Deem and Ramdas Pophale) SiO2 
 PCOD8062407
Probable space group: P 2/M
;
_chemical_formula_sum "Si O2"
_cell_formula_units_Z 28
_cell_length_a 15.683624
_cell_length_b 8.666737
_cell_length_c 23.998091
_cell_angle_alpha 90.000000
_cell_angle_beta 154.894086
_cell_angle_gamma 90.000000
_cell_volume 1384.026775
_symmetry_space_group_name_H-M "P 2/M"
_symmetry_group_IT_number 10
_symmetry_cell_setting 'monoclinic'
loop_
_space_group_symop_operation_xyz
x,y,z
-x,y,-z
-x,-y,-z
x,-y,z
loop_
_atom_site_type_symbol
_atom_site_label
_atom_site_fract_x
_atom_site_fract_y
_atom_site_fract_z
Si Si1 0.004918 0.680724 0.145503
Si Si2 0.740193 0.320032 0.086405
Si Si3 0.435345 0.818117 0.400448
Si Si4 0.415696 0.682476 0.622457
Si Si5 0.707843 0.318754 0.191789
Si Si6 0.806851 0.680200 0.915989
Si Si7 0.963913 0.820560 0.541427
O O1 0.059273 0.500000 0.180608
O O2 0.207603 0.770969 0.251987
O O3 0.911534 0.748501 0.147461
O O4 0.833881 0.711960 0.997645
O O5 0.724535 0.500000 0.065135
O O6 0.801676 0.288075 0.186202
O O7 0.519560 0.254711 0.941854
O O8 0.500000 0.755018 0.500000
O O9 0.578120 0.749157 0.436700
O O10 0.457935 0.000000 0.412050
O O11 0.424696 0.500000 0.622804
O O12 0.600328 0.750398 0.769067
O O13 0.211684 0.726621 0.532649
O O14 0.722450 0.500000 0.215596
O O15 0.827055 0.213697 0.304877
O O16 0.801569 0.500000 0.899291
O O17 0.000000 0.755376 0.000000
O O18 0.000000 0.763513 0.500000
O O19 0.909986 0.000000 0.512088
#
# Coordination Sequence:
#
# PCOD8062407 Si02
#       7
#     4   4   4   4   4   4   4
#     4  10  19  35  60  88 118 154 197 245 297 350
#     4   8  17  33  59  91 119 147 190 255 305 343
#     4  11  25  42  58  85 127 167 201 240 293 360
#     4  11  23  41  67  92 115 153 204 254 302 351
#     4   9  18  37  61  88 117 150 201 251 298 351
#     4   9  17  33  57  87 117 142 183 245 298 343
#     4  11  26  44  59  83 125 166 200 243 299 359
#
# _framework density 20.230823000000001
#
# number of rings (size 3 to 8) (size 9 to 14) (size 15 to 20)
#    0.000    2.143    1.429    2.143    4.000    2.286 
#    0.000    4.286    0.000    0.000    0.000    0.000 
#    0.000    0.000    0.000    0.000    0.000    0.000 
#
# Total GULP energy -347147.573807 kJ/mol
# GULP energy per Si atom -12398.127636 kJ/mol
# Density = 2.018478 g / cm^3
# Si number density = 20.230823 Si / 1000 Ang^3
#
#
#
# Elastic Constant Matrix: (Units=GPa)
#
#
# Indices 1 2 3 4 5 6 
#
# 1 143.7273 30.8901 36.3331 0.0000 -9.6302 0.0000
# 2 30.8901 43.5154 23.4432 0.0000 -6.9341 0.0000
# 3 36.3331 23.4432 98.3896 0.0000 -14.7402 0.0000
# 4 0.0000 0.0000 0.0000 12.0642 0.0000 -3.1658
# 5 -9.6302 -6.9341 -14.7402 0.0000 29.8454 0.0000
# 6 0.0000 0.0000 0.0000 -3.1658 0.0000 23.0864
#
#
#
# Elastic Compliance Matrix: (Units=1/GPa)
#
#
# Indices 1 2 3 4 5 6 
#
# 1 0.008539 -0.004944 -0.001873 0.000000 0.000682 0.000000
# 2 -0.004944 0.029525 -0.004774 0.000000 0.002907 0.000000
# 3 -0.001873 -0.004774 0.012674 0.000000 0.004546 0.000000
# 4 0.000000 0.000000 0.000000 0.085984 0.000000 0.011791
# 5 0.000682 0.002907 0.004546 0.000000 0.036646 0.000000
# 6 0.000000 0.000000 0.000000 0.011791 0.000000 0.044932
#
#
# Mechanical properties :
#
#
# Convention : Reuss Voigt Hill
#
# Bulk Modulus (GPa) = 36.28949 51.88500 44.08725
# Shear Modulus (GPa) = 19.94664 25.99691 22.97178
#
# Velocity S-wave (km/s) = 3.14340 3.58860 3.37335
# Velocity P-wave (km/s) = 5.58133 6.54774 6.08376
#
# Compressibility (1/GPa) = 0.02755619
#
# Stress axis : x y z
#
# Youngs Moduli (GPa) = 117.10390 33.86971 78.90223
#
# Poissons Ratio (x) = 0.16745 0.14781
# Poissons Ratio (y) = 0.57897 0.37666
# Poissons Ratio (z) = 0.21937 0.16168
#
# Static dielectric constant tensor:
#      x y z
#    x 4.096500 0.000000 -0.015990 
#    y 0.000000 3.254880 0.000000 
#    z -0.015990 0.000000 3.795590 
# 
# 
# High freq. dielectric constant tensor:
#      x y z
#    x 1.803600 0.000000 -0.005020 
#    y 0.000000 1.750980 0.000000 
#    z -0.005020 0.000000 1.796400 
# 
# From -- ./inp_files/84961.got.cif
#   From: 2010.06.25/outbox.cif.g09.slc.cpg/sg10_43_cif.got.tgz:84961.got - 2010.06.27 22:07:45.
