data_PCOD8062622
_publ_section_title
;
Structure prediction by ZEFSAII (Michael W. Deem and Ramdas Pophale) SiO2 
 PCOD8062622
Probable space group: P 2/M
;
_chemical_formula_sum "Si O2"
_cell_formula_units_Z 32
_cell_length_a 22.482066
_cell_length_b 8.816885
_cell_length_c 15.143703
_cell_angle_alpha 90.000000
_cell_angle_beta 148.478487
_cell_angle_gamma 90.000000
_cell_volume 1569.403320
_symmetry_space_group_name_H-M "P 2/M"
_symmetry_group_IT_number 10
_symmetry_cell_setting 'monoclinic'
loop_
_space_group_symop_operation_xyz
x,y,z
-x,y,-z
-x,-y,-z
x,-y,z
loop_
_atom_site_type_symbol
_atom_site_label
_atom_site_fract_x
_atom_site_fract_y
_atom_site_fract_z
Si Si1 0.369173 0.821097 0.329462
Si Si2 0.230521 0.820014 0.634391
Si Si3 0.693162 0.326093 0.571438
Si Si4 0.666432 0.174360 0.054164
Si Si5 0.756044 0.321677 0.995289
Si Si6 0.407489 0.826081 0.715478
Si Si7 0.990743 0.821567 0.256900
Si Si8 0.052624 0.673950 0.158381
O O1 0.500000 0.768137 0.500000
O O2 0.305120 0.767835 0.336235
O O3 0.358739 0.000000 0.307043
O O4 0.309502 0.748665 0.169969
O O5 0.261271 0.763098 0.771382
O O6 0.320941 0.754914 0.677852
O O7 0.103985 0.763840 0.450480
O O8 0.239736 0.000000 0.643597
O O9 0.667546 0.500000 0.562397
O O10 0.598435 0.264241 0.384330
O O11 0.812606 0.305123 0.673352
O O12 0.690963 0.279044 0.001910
O O13 0.697787 0.000000 0.071274
O O14 0.534378 0.187857 0.913673
O O15 0.758339 0.500000 0.985691
O O16 0.884119 0.260722 0.165731
O O17 0.375511 0.000000 0.654465
O O18 0.998972 0.780599 0.164512
O O19 0.974534 0.000000 0.246622
O O20 0.018148 0.500000 0.134392
O O21 0.000000 0.728577 0.000000
#
# Coordination Sequence:
#
# PCOD8062622 Si02
#       8
#     4   4   4   4   4   4   4   4
#     4  11  24  42  64  90 120 158 207 257 302 354
#     4   9  19  37  63  94 122 155 202 258 312 358
#     4  11  22  35  57  89 125 162 195 239 301 366
#     4  10  21  39  64  90 119 159 208 258 307 361
#     4  12  26  43  61  86 125 165 206 251 304 369
#     4  10  19  36  62  92 125 159 202 254 305 363
#     4  11  22  39  64  90 120 157 204 256 304 358
#     4  10  21  37  56  82 117 156 196 239 295 359
#
# _framework density 20.389914999999998
#
# number of rings (size 3 to 8) (size 9 to 14) (size 15 to 20)
#    0.000    1.500    1.250    4.125    0.000    8.250 
#    0.000    4.375    0.000    1.500    0.000    0.000 
#    0.000    0.000    0.000    0.000    0.000    0.000 
#
# Total GULP energy -396974.894734 kJ/mol
# GULP energy per Si atom -12405.465460 kJ/mol
# Density = 2.034351 g / cm^3
# Si number density = 20.389915 Si / 1000 Ang^3
#
#
#
# Elastic Constant Matrix: (Units=GPa)
#
#
# Indices 1 2 3 4 5 6 
#
# 1 95.6495 30.6758 42.8536 0.0000 -5.3832 0.0000
# 2 30.6758 72.8312 34.8757 0.0000 3.9257 0.0000
# 3 42.8536 34.8757 134.0581 0.0000 -9.0174 0.0000
# 4 0.0000 0.0000 0.0000 7.7478 0.0000 15.5562
# 5 -5.3832 3.9257 -9.0174 0.0000 37.9822 0.0000
# 6 0.0000 0.0000 0.0000 15.5562 0.0000 11.7704
#
#
#
# Elastic Compliance Matrix: (Units=1/GPa)
#
#
# Indices 1 2 3 4 5 6 
#
# 1 0.013256 -0.004217 -0.003033 0.000000 0.001594 0.000000
# 2 -0.004217 0.017289 -0.003364 0.000000 -0.003183 0.000000
# 3 -0.003033 -0.003364 0.009450 0.000000 0.002161 0.000000
# 4 0.000000 0.000000 0.000000 -0.078053 0.000000 0.103157
# 5 0.001594 -0.003183 0.002161 0.000000 0.027396 0.000000
# 6 0.000000 0.000000 0.000000 0.103157 0.000000 -0.051378
#
#
# Mechanical properties :
#
#
# Convention : Reuss Voigt Hill
#
# Bulk Modulus (GPa) = 53.28617 57.70543 55.49580
# Shear Modulus (GPa) = -144.68956 24.44233 -60.12362
#
# Velocity S-wave (km/s) = -8.43299 3.46605 -5.43608
# Velocity P-wave (km/s) = 8.28433 6.66186 3.48208
#
# Compressibility (1/GPa) = 0.01876659
#
# Stress axis : x y z
#
# Youngs Moduli (GPa) = 75.43822 57.84075 105.82497
#
# Poissons Ratio (x) = 0.24390 0.32099
# Poissons Ratio (y) = 0.31810 0.35599
# Poissons Ratio (z) = 0.22882 0.19457
#
# Static dielectric constant tensor:
#      x y z
#    x 3.666750 0.000000 0.041360 
#    y 0.000000 3.540730 0.000000 
#    z 0.041360 0.000000 3.911410 
# 
# 
# High freq. dielectric constant tensor:
#      x y z
#    x 1.800390 0.000000 0.000950 
#    y 0.000000 1.780360 0.000000 
#    z 0.000950 0.000000 1.811280 
# 
# From -- ./inp_files/71642.got.cif
#   From: 2010.06.25/outbox.cif.g09.slc.cpg/sg10_36_cif.got.tgz:71642.got - 2010.06.27 22:07:45.
