data_PCOD8062263
_publ_section_title
;
Structure prediction by ZEFSAII (Michael W. Deem and Ramdas Pophale) SiO2 
 PCOD8062263
Probable space group: P 2/M
;
_chemical_formula_sum "Si O2"
_cell_formula_units_Z 32
_cell_length_a 12.808982
_cell_length_b 9.005049
_cell_length_c 31.813241
_cell_angle_alpha 90.000000
_cell_angle_beta 153.680549
_cell_angle_gamma 90.000000
_cell_volume 1626.972867
_symmetry_space_group_name_H-M "P 2/M"
_symmetry_group_IT_number 10
_symmetry_cell_setting 'monoclinic'
loop_
_space_group_symop_operation_xyz
x,y,z
-x,y,-z
-x,-y,-z
x,-y,z
loop_
_atom_site_type_symbol
_atom_site_label
_atom_site_fract_x
_atom_site_fract_y
_atom_site_fract_z
Si Si1 0.536619 0.165937 0.137212
Si Si2 0.525302 0.825426 0.275268
Si Si3 0.955082 0.175005 0.568125
Si Si4 0.737828 0.672924 0.891204
Si Si5 0.374861 0.673257 0.911709
Si Si6 0.158189 0.326378 0.296812
Si Si7 0.448997 0.323495 0.626476
Si Si8 0.084950 0.164717 0.352408
O O1 0.430989 0.277503 0.132534
O O2 0.486931 0.232565 0.073334
O O3 0.811471 0.159146 0.244097
O O4 0.427914 0.000000 0.101702
O O5 0.317561 0.765916 0.170609
O O6 0.495321 0.743847 0.308413
O O7 0.773562 0.786997 0.343004
O O8 0.495629 0.000000 0.271398
O O9 0.802884 0.264536 0.479596
O O10 0.882980 0.229883 0.588955
O O11 0.910249 0.000000 0.546675
O O12 0.698482 0.500000 0.867576
O O13 0.000000 0.709293 0.000000
O O14 0.403226 0.500000 0.911383
O O15 0.099414 0.718170 0.813589
O O16 0.500000 0.715996 0.000000
O O17 0.181631 0.500000 0.310573
O O18 0.349828 0.266619 0.332968
O O19 0.213958 0.260679 0.363207
O O20 0.443083 0.500000 0.627717
O O21 0.193295 0.000000 0.389470
#
# Coordination Sequence:
#
# PCOD8062263 Si02
#       8
#     4   4   4   4   4   4   4   4
#     4  10  19  35  57  83 114 147 188 240 292 342
#     4  11  23  42  64  86 117 155 198 247 298 349
#     4  10  21  39  61  86 115 152 198 246 298 352
#     4  11  24  40  60  88 119 153 193 237 291 351
#     4   9  18  34  57  82 109 150 197 238 290 351
#     4   9  20  37  54  79 117 153 189 240 295 348
#     4  11  24  39  56  85 123 160 198 243 296 354
#     4   9  18  35  59  84 111 146 190 241 291 345
#
# _framework density 19.668427999999999
#
# number of rings (size 3 to 8) (size 9 to 14) (size 15 to 20)
#    0.000    2.000    1.250    1.875    0.000    7.250 
#    0.000    5.000    0.000    0.000    0.000    0.000 
#    0.000    0.000    0.000    0.000    0.000    0.000 
#
# Total GULP energy -396854.070359 kJ/mol
# GULP energy per Si atom -12401.689699 kJ/mol
# Density = 1.962366 g / cm^3
# Si number density = 19.668428 Si / 1000 Ang^3
#
#
#
# Elastic Constant Matrix: (Units=GPa)
#
#
# Indices 1 2 3 4 5 6 
#
# 1 131.3170 46.9394 43.7832 0.0000 -18.0203 0.0000
# 2 46.9394 58.8295 37.4410 0.0000 -2.1318 -0.0001
# 3 43.7832 37.4410 76.0792 0.0000 -19.1684 0.0001
# 4 0.0000 0.0000 0.0000 51.7930 0.0000 44.5056
# 5 -18.0203 -2.1318 -19.1684 0.0000 28.0911 0.0000
# 6 0.0000 -0.0001 0.0001 44.5056 0.0000 151.2364
#
#
#
# Elastic Compliance Matrix: (Units=1/GPa)
#
#
# Indices 1 2 3 4 5 6 
#
# 1 0.011897 -0.008611 -0.001027 0.000000 0.006278 0.000000
# 2 -0.008611 0.032472 -0.014244 0.000000 -0.012780 0.000000
# 3 -0.001027 -0.014244 0.024523 0.000000 0.014994 0.000000
# 4 0.000000 0.000000 0.000000 0.025843 0.000000 -0.007605
# 5 0.006278 -0.012780 0.014994 0.000000 0.048887 0.000000
# 6 0.000000 0.000000 0.000000 -0.007605 0.000000 0.008850
#
#
# Mechanical properties :
#
#
# Convention : Reuss Voigt Hill
#
# Bulk Modulus (GPa) = 47.33489 58.06142 52.69816
# Shear Modulus (GPa) = 24.12195 55.42822 39.77509
#
# Velocity S-wave (km/s) = 3.50584 5.31437 4.50186
# Velocity P-wave (km/s) = 6.36448 8.20005 7.33987
#
# Compressibility (1/GPa) = 0.02112607
#
# Stress axis : x y z
#
# Youngs Moduli (GPa) = 84.05287 30.79598 40.77767
#
# Poissons Ratio (x) = 0.26520 0.04189
# Poissons Ratio (y) = 0.72382 0.58085
# Poissons Ratio (z) = 0.08634 0.43867
#
# Static dielectric constant tensor:
#      x y z
#    x 4.027310 0.000000 0.138290 
#    y 0.000000 3.672840 0.000000 
#    z 0.138290 0.000000 3.768830 
# 
# 
# High freq. dielectric constant tensor:
#      x y z
#    x 1.775430 0.000000 -0.010080 
#    y 0.000000 1.766290 0.000000 
#    z -0.010080 0.000000 1.761940 
# 
# From -- ./inp_files/95048.got.cif
#   From: 2010.06.25/outbox.cif.g09.slc.cpg/sg10_48_cif.got.tgz:95048.got - 2010.06.27 22:07:45.
