data_PCOD8062653
_publ_section_title
;
Structure prediction by ZEFSAII (Michael W. Deem and Ramdas Pophale) SiO2 
 PCOD8062653
Probable space group: P 2/M
;
_chemical_formula_sum "Si O2"
_cell_formula_units_Z 28
_cell_length_a 9.469838
_cell_length_b 16.146127
_cell_length_c 13.658860
_cell_angle_alpha 90.000000
_cell_angle_beta 134.467032
_cell_angle_gamma 90.000000
_cell_volume 1490.434343
_symmetry_space_group_name_H-M "P 2/M"
_symmetry_group_IT_number 10
_symmetry_cell_setting 'monoclinic'
loop_
_space_group_symop_operation_xyz
x,y,z
-x,y,-z
-x,-y,-z
x,-y,z
loop_
_atom_site_type_symbol
_atom_site_label
_atom_site_fract_x
_atom_site_fract_y
_atom_site_fract_z
Si Si1 0.267341 0.500000 0.412503
Si Si2 0.680226 0.906227 0.832347
Si Si3 0.168186 0.349114 0.506168
Si Si4 0.683978 0.651568 0.023709
Si Si5 0.910754 0.769098 0.269305
Si Si6 0.968567 0.907327 0.144596
Si Si7 0.438837 0.243499 0.761280
Si Si8 0.061355 0.500000 0.917450
O O1 0.500000 0.500000 0.500000
O O2 0.220289 0.419638 0.454194
O O3 0.129034 0.500000 0.248032
O O4 0.514191 0.835950 0.736563
O O5 0.845882 0.887246 0.833168
O O6 0.596163 0.000000 0.778257
O O7 0.769004 0.896740 0.984640
O O8 0.364658 0.320072 0.658618
O O9 0.000000 0.382362 0.500000
O O10 0.096836 0.264854 0.419696
O O11 0.846087 0.694027 0.169692
O O12 0.795907 0.577396 0.026948
O O13 0.500000 0.619180 0.000000
O O14 0.615830 0.718655 0.911098
O O15 0.974639 0.849226 0.241134
O O16 0.733702 0.793686 0.255291
O O17 0.982204 0.000000 0.192325
O O18 0.000000 0.500000 0.000000
#
# Coordination Sequence:
#
# PCOD8062653 Si02
#       8
#     2   4   4   4   4   4   4   2
#     4  12  27  44  60  86 120 156 197 236 288 352
#     4   9  18  33  53  83 117 151 188 233 286 342
#     4  10  23  43  63  81 114 158 194 235 291 349
#     4  10  21  39  62  86 114 150 196 243 293 342
#     4  10  19  37  58  84 112 148 194 237 285 341
#     4   9  18  32  54  82 117 154 187 228 288 345
#     4  10  21  35  60  88 111 145 193 241 286 339
#     4  12  27  42  60  90 122 152 189 246 292 338
#
# _framework density 18.786470000000001
#
# number of rings (size 3 to 8) (size 9 to 14) (size 15 to 20)
#    0.000    2.000    2.857    1.286    2.000    2.857 
#    0.000    2.143    0.000    4.286    0.000    0.000 
#    0.000    0.000    0.000    0.000    0.000    0.000 
#
# Total GULP energy -347153.650933 kJ/mol
# GULP energy per Si atom -12398.344676 kJ/mol
# Density = 1.874371 g / cm^3
# Si number density = 18.786470 Si / 1000 Ang^3
#
#
#
# Elastic Constant Matrix: (Units=GPa)
#
#
# Indices 1 2 3 4 5 6 
#
# 1 101.3540 77.0005 38.7107 0.0000 -4.8357 0.0000
# 2 77.0005 104.6202 17.6293 0.0000 0.2614 0.0000
# 3 38.7107 17.6293 53.1552 0.0000 -5.8798 0.0000
# 4 0.0000 0.0000 0.0000 6.8150 0.0000 -14.3704
# 5 -4.8357 0.2614 -5.8798 0.0000 26.4712 0.0000
# 6 0.0000 0.0000 0.0000 -14.3704 0.0000 31.5242
#
#
#
# Elastic Compliance Matrix: (Units=1/GPa)
#
#
# Indices 1 2 3 4 5 6 
#
# 1 0.031918 -0.020789 -0.016077 0.000000 0.002465 0.000000
# 2 -0.020789 0.023684 0.007011 0.000000 -0.002474 0.000000
# 3 -0.016077 0.007011 0.028565 0.000000 0.003339 0.000000
# 4 0.000000 0.000000 0.000000 3.784027 0.000000 1.724958
# 5 0.002465 -0.002474 0.003339 0.000000 0.038993 0.000000
# 6 0.000000 0.000000 0.000000 1.724958 0.000000 0.818048
#
#
# Mechanical properties :
#
#
# Convention : Reuss Voigt Hill
#
# Bulk Modulus (GPa) = 40.88780 58.42337 49.65559
# Shear Modulus (GPa) = 1.04317 21.34801 11.19559
#
# Velocity S-wave (km/s) = 0.74598 3.37464 2.44383
# Velocity P-wave (km/s) = 4.74908 6.80811 5.86959
#
# Compressibility (1/GPa) = 0.02445717
#
# Stress axis : x y z
#
# Youngs Moduli (GPa) = 31.33029 42.22329 35.00753
#
# Poissons Ratio (x) = 0.87777 0.56282
# Poissons Ratio (y) = 0.65131 -0.24544
# Poissons Ratio (z) = 0.50370 -0.29603
#
# Static dielectric constant tensor:
#      x y z
#    x 3.914250 0.000000 -0.814480 
#    y 0.000000 3.355360 0.000000 
#    z -0.814480 0.000000 4.650260 
# 
# 
# High freq. dielectric constant tensor:
#      x y z
#    x 1.727400 0.000000 -0.002410 
#    y 0.000000 1.733340 0.000000 
#    z -0.002410 0.000000 1.722120 
# 
# From -- ./inp_files/35282.got.cif
#   From: 2010.06.25/outbox.cif.g09.slc.cpg/sg10_18_cif.got.tgz:35282.got - 2010.06.27 22:07:45.
