data_PCOD8062858
_publ_section_title
;
Structure prediction by ZEFSAII (Michael W. Deem and Ramdas Pophale) SiO2 
 PCOD8062858
Probable space group: P 2/M
;
_chemical_formula_sum "Si O2"
_cell_formula_units_Z 32
_cell_length_a 25.585327
_cell_length_b 9.153463
_cell_length_c 14.725076
_cell_angle_alpha 90.000000
_cell_angle_beta 149.513343
_cell_angle_gamma 90.000000
_cell_volume 1749.569010
_symmetry_space_group_name_H-M "P 2/M"
_symmetry_group_IT_number 10
_symmetry_cell_setting 'monoclinic'
loop_
_space_group_symop_operation_xyz
x,y,z
-x,y,-z
-x,-y,-z
x,-y,z
loop_
_atom_site_type_symbol
_atom_site_label
_atom_site_fract_x
_atom_site_fract_y
_atom_site_fract_z
Si Si1 0.112922 0.672677 0.665546
Si Si2 0.213865 0.669534 0.150980
Si Si3 0.665535 0.329796 0.488110
Si Si4 0.434036 0.326734 0.140875
Si Si5 0.731092 0.328692 0.252842
Si Si6 0.211536 0.829314 0.481171
Si Si7 0.722737 0.326019 0.948737
Si Si8 0.986453 0.829607 0.082467
O O1 0.104861 0.500000 0.662871
O O2 0.167299 0.712472 0.652158
O O3 0.000000 0.745529 0.500000
O O4 0.178385 0.733711 0.848025
O O5 0.186178 0.500000 0.098732
O O6 0.296421 0.696500 0.352970
O O7 0.268186 0.730975 0.140728
O O8 0.106659 0.749648 0.007499
O O9 0.670912 0.500000 0.468934
O O10 0.549763 0.266160 0.307287
O O11 0.738811 0.238091 0.533726
O O12 0.436790 0.500000 0.150452
O O13 0.379398 0.267496 0.151625
O O14 0.369600 0.279695 0.955133
O O15 0.726610 0.500000 0.268547
O O16 0.734671 0.240889 0.351218
O O17 0.089447 0.797419 0.294599
O O18 0.234462 0.000000 0.516240
O O19 0.720329 0.500000 0.947563
O O20 0.960028 0.000000 0.039340
O O21 0.000000 0.769678 0.000000
#
# Coordination Sequence:
#
# PCOD8062858 Si02
#       8
#     4   4   4   4   4   4   4   4
#     4   8  14  25  44  72 102 131 163 202 249 298
#     4  10  20  31  52  84 107 129 169 219 255 289
#     4  10  20  34  53  78 105 135 173 214 255 299
#     4   8  16  33  54  76 107 140 167 203 256 313
#     4   9  18  33  54  77 101 134 173 211 251 300
#     4  11  23  37  53  74 102 137 174 213 260 309
#     4   8  15  28  46  75 109 134 162 203 254 304
#     4  10  21  38  54  68  99 144 174 203 258 319
#
# _framework density 18.290220000000001
#
# number of rings (size 3 to 8) (size 9 to 14) (size 15 to 20)
#    0.000    2.750    1.250    1.875    1.750    2.250 
#    0.000    5.625    0.000    4.125    0.000    1.750 
#    0.000    0.000    0.000    0.000    0.000    0.000 
#
# Total GULP energy -396691.055333 kJ/mol
# GULP energy per Si atom -12396.595479 kJ/mol
# Density = 1.824859 g / cm^3
# Si number density = 18.290220 Si / 1000 Ang^3
#
#
#
# Elastic Constant Matrix: (Units=GPa)
#
#
# Indices 1 2 3 4 5 6 
#
# 1 69.7383 29.5154 29.3251 0.0000 -18.5026 0.0000
# 2 29.5154 38.8638 30.7420 0.0000 -4.1057 0.0000
# 3 29.3251 30.7420 96.4755 0.0000 2.9457 0.0000
# 4 0.0000 0.0000 0.0000 12.3535 0.0000 1.3661
# 5 -18.5026 -4.1057 2.9457 0.0000 31.5503 0.0000
# 6 0.0000 0.0000 0.0000 1.3661 0.0000 -0.5290
#
#
#
# Elastic Compliance Matrix: (Units=1/GPa)
#
#
# Indices 1 2 3 4 5 6 
#
# 1 0.025931 -0.015655 -0.003305 0.000000 0.013478 0.000000
# 2 -0.015655 0.044838 -0.009454 0.000000 -0.002463 0.000000
# 3 -0.003305 -0.009454 0.014521 0.000000 -0.004524 0.000000
# 4 0.000000 0.000000 0.000000 0.062969 0.000000 0.162595
# 5 0.013478 -0.002463 -0.004524 0.000000 0.039702 0.000000
# 6 0.000000 0.000000 0.000000 0.162595 0.000000 -1.470364
#
#
# Mechanical properties :
#
#
# Convention : Reuss Voigt Hill
#
# Bulk Modulus (GPa) = 35.13519 42.69362 38.91441
# Shear Modulus (GPa) = -4.11154 16.37462 6.13154
#
# Velocity S-wave (km/s) = -1.50094 2.99535 1.83293
# Velocity P-wave (km/s) = 4.03085 5.94607 5.07954
#
# Compressibility (1/GPa) = 0.02846149
#
# Stress axis : x y z
#
# Youngs Moduli (GPa) = 38.56415 22.30240 68.86763
#
# Poissons Ratio (x) = 0.34914 0.22761
# Poissons Ratio (y) = 0.60372 0.65107
# Poissons Ratio (z) = 0.12746 0.21085
#
# Static dielectric constant tensor:
#      x y z
#    x 3.540660 0.000000 0.096890 
#    y 0.000000 2.923110 0.000000 
#    z 0.096890 0.000000 3.714810 
# 
# 
# High freq. dielectric constant tensor:
#      x y z
#    x 1.716890 0.000000 -0.000740 
#    y 0.000000 1.659530 0.000000 
#    z -0.000740 0.000000 1.717870 
# 
# From -- ./inp_files/66557.got.cif
#   From: 2010.06.25/outbox.cif.g09.slc.cpg/sg10_34_cif.got.tgz:66557.got - 2010.06.27 22:07:45.
