data_PCOD8062777
_publ_section_title
;
Structure prediction by ZEFSAII (Michael W. Deem and Ramdas Pophale) SiO2 
 PCOD8062777
Probable space group: P 2/M
;
_chemical_formula_sum "Si O2"
_cell_formula_units_Z 32
_cell_length_a 13.492318
_cell_length_b 15.791408
_cell_length_c 15.125146
_cell_angle_alpha 90.000000
_cell_angle_beta 150.149928
_cell_angle_gamma 90.000000
_cell_volume 1603.993762
_symmetry_space_group_name_H-M "P 2/M"
_symmetry_group_IT_number 10
_symmetry_cell_setting 'monoclinic'
loop_
_space_group_symop_operation_xyz
x,y,z
-x,y,-z
-x,-y,-z
x,-y,z
loop_
_atom_site_type_symbol
_atom_site_label
_atom_site_fract_x
_atom_site_fract_y
_atom_site_fract_z
Si Si1 0.981046 0.595968 0.720959
Si Si2 0.581505 0.244885 0.200395
Si Si3 0.592274 0.154375 0.475968
Si Si4 0.979909 0.903614 0.239877
Si Si5 0.851290 0.400247 0.959519
Si Si6 0.583651 0.331080 0.383420
Si Si7 0.179853 0.746930 0.783895
Si Si8 0.409935 0.094672 0.164122
O O1 0.051840 0.500000 0.753904
O O2 0.740123 0.597141 0.534903
O O3 0.049256 0.662994 0.699542
O O4 0.067628 0.626848 0.881897
O O5 0.616428 0.311830 0.305237
O O6 0.770194 0.247799 0.281313
O O7 0.563812 0.151152 0.227286
O O8 0.379694 0.266576 0.993687
O O9 0.500000 0.141628 0.500000
O O10 0.627170 0.251987 0.480247
O O11 0.433120 0.113953 0.285441
O O12 0.802569 0.106362 0.633271
O O13 0.939359 0.833133 0.284152
O O14 0.957674 0.000000 0.260414
O O15 0.819432 0.887605 0.038048
O O16 0.831495 0.500000 0.937951
O O17 0.639804 0.360359 0.774390
O O18 0.000000 0.364955 0.000000
O O19 0.474089 0.000000 0.190877
#
# Coordination Sequence:
#
# PCOD8062777 Si02
#       8
#     4   4   4   4   4   4   4   4
#     4  11  23  40  64  91 124 162 204 254 304 364
#     4   9  20  37  63  87 119 164 195 255 313 361
#     4  11  24  38  58  88 123 164 202 249 302 362
#     4  10  21  39  62  87 120 159 199 252 308 361
#     4  10  23  41  63  91 123 159 204 259 308 356
#     4  11  22  40  61  89 124 162 204 249 304 368
#     4  10  19  40  63  88 123 157 205 254 312 367
#     4   9  20  39  60  86 119 156 205 253 302 363
#
# _framework density 19.950202000000001
#
# number of rings (size 3 to 8) (size 9 to 14) (size 15 to 20)
#    0.000    1.875    2.500    0.750    1.750    2.500 
#    0.000    8.750    0.000    2.250    0.000    0.000 
#    0.000    0.000    0.000    0.000    0.000    0.000 
#
# Total GULP energy -396805.070822 kJ/mol
# GULP energy per Si atom -12400.158463 kJ/mol
# Density = 1.990479 g / cm^3
# Si number density = 19.950202 Si / 1000 Ang^3
#
#
#
# Elastic Constant Matrix: (Units=GPa)
#
#
# Indices 1 2 3 4 5 6 
#
# 1 132.1778 40.1662 35.8210 0.0000 15.3132 0.0000
# 2 40.1662 67.4095 22.1160 0.0000 13.6180 0.0000
# 3 35.8210 22.1160 85.3012 0.0000 14.4105 0.0000
# 4 0.0000 0.0000 0.0000 30.7074 0.0000 4.1053
# 5 15.3132 13.6180 14.4105 0.0000 21.6680 0.0000
# 6 0.0000 0.0000 0.0000 4.1053 0.0000 17.6686
#
#
#
# Elastic Compliance Matrix: (Units=1/GPa)
#
#
# Indices 1 2 3 4 5 6 
#
# 1 0.009938 -0.004587 -0.002574 0.000000 -0.002429 0.000000
# 2 -0.004587 0.019785 -0.001859 0.000000 -0.007957 0.000000
# 3 -0.002574 -0.001859 0.014399 0.000000 -0.006589 0.000000
# 4 0.000000 0.000000 0.000000 0.033609 0.000000 -0.007809
# 5 -0.002429 -0.007957 -0.006589 0.000000 0.057250 0.000000
# 6 0.000000 0.000000 0.000000 -0.007809 0.000000 0.058412
#
#
# Mechanical properties :
#
#
# Convention : Reuss Voigt Hill
#
# Bulk Modulus (GPa) = 38.33957 53.45500 45.89728
# Shear Modulus (GPa) = 22.71402 26.46116 24.58759
#
# Velocity S-wave (km/s) = 3.37788 3.64587 3.51443
# Velocity P-wave (km/s) = 5.87135 6.67649 6.28683
#
# Compressibility (1/GPa) = 0.02608271
#
# Stress axis : x y z
#
# Youngs Moduli (GPa) = 100.62069 50.54314 69.44831
#
# Poissons Ratio (x) = 0.23182 0.17875
# Poissons Ratio (y) = 0.46151 0.12914
# Poissons Ratio (z) = 0.25899 0.09398
#
# Static dielectric constant tensor:
#      x y z
#    x 3.596790 0.000000 -0.030790 
#    y 0.000000 3.661260 0.000000 
#    z -0.030790 0.000000 3.774680 
# 
# 
# High freq. dielectric constant tensor:
#      x y z
#    x 1.762110 0.000000 -0.001310 
#    y 0.000000 1.778870 0.000000 
#    z -0.001310 0.000000 1.794430 
# 
# From -- ./inp_files/65407.got.cif
#   From: 2010.06.25/outbox.cif.g09.slc.cpg/sg10_33_cif.got.tgz:65407.got - 2010.06.27 22:07:45.
