data_PCOD8062180
_publ_section_title
;
Structure prediction by ZEFSAII (Michael W. Deem and Ramdas Pophale) SiO2 
 PCOD8062180
Probable space group: P 2/M
;
_chemical_formula_sum "Si O2"
_cell_formula_units_Z 32
_cell_length_a 24.168674
_cell_length_b 9.190015
_cell_length_c 15.670916
_cell_angle_alpha 90.000000
_cell_angle_beta 151.780999
_cell_angle_gamma 90.000000
_cell_volume 1645.812649
_symmetry_space_group_name_H-M "P 2/M"
_symmetry_group_IT_number 10
_symmetry_cell_setting 'monoclinic'
loop_
_space_group_symop_operation_xyz
x,y,z
-x,y,-z
-x,-y,-z
x,-y,z
loop_
_atom_site_type_symbol
_atom_site_label
_atom_site_fract_x
_atom_site_fract_y
_atom_site_fract_z
Si Si1 0.768035 0.170921 0.502417
Si Si2 0.864090 0.170466 0.810407
Si Si3 0.412728 0.332122 0.309930
Si Si4 0.485572 0.172676 0.882188
Si Si5 0.824516 0.332138 0.917264
Si Si6 0.638339 0.328481 0.948712
Si Si7 0.908744 0.336746 0.299570
Si Si8 0.997595 0.170279 0.729670
O O1 0.816492 0.232137 0.656906
O O2 0.641458 0.238287 0.313194
O O3 0.859503 0.207517 0.550766
O O4 0.753160 0.000000 0.489487
O O5 0.791367 0.257659 0.782879
O O6 0.841186 0.000000 0.791586
O O7 0.000000 0.208817 0.000000
O O8 0.500000 0.258391 0.500000
O O9 0.448276 0.500000 0.353164
O O10 0.280219 0.309868 0.159007
O O11 0.415430 0.270618 0.215798
O O12 0.579219 0.247080 0.947451
O O13 0.497180 0.000000 0.885745
O O14 0.500000 0.217164 0.000000
O O15 0.852996 0.500000 0.941045
O O16 0.938282 0.252202 0.106929
O O17 0.616243 0.500000 0.926992
O O18 0.776755 0.293734 0.145572
O O19 0.907475 0.500000 0.257948
O O20 0.000000 0.330233 0.500000
O O21 0.955841 0.220267 0.297373
O O22 0.021185 0.000000 0.773936
#
# Coordination Sequence:
#
# PCOD8062180 Si02
#       8
#     4   4   4   4   4   4   4   4
#     4   9  20  38  57  80 115 155 193 239 294 343
#     4  10  19  35  55  77 112 153 187 228 285 344
#     4   9  19  36  57  80 113 154 188 230 289 346
#     4  10  23  42  62  83 114 155 198 246 292 338
#     4  11  21  35  56  83 117 150 189 237 289 344
#     4  10  21  40  62  86 119 153 191 237 291 351
#     4  10  22  40  61  87 119 151 184 238 301 343
#     4  11  21  37  61  86 115 152 195 237 289 350
#
# _framework density 19.443282
#
# number of rings (size 3 to 8) (size 9 to 14) (size 15 to 20)
#    0.000    2.000    2.500    0.750    3.500    1.250 
#    0.000    1.250    0.000    1.875    0.000    0.000 
#    0.000    0.000    0.000    0.000    0.000    0.000 
#
# Total GULP energy -396663.590649 kJ/mol
# GULP energy per Si atom -12395.737208 kJ/mol
# Density = 1.939903 g / cm^3
# Si number density = 19.443282 Si / 1000 Ang^3
#
#
#
# Elastic Constant Matrix: (Units=GPa)
#
#
# Indices 1 2 3 4 5 6 
#
# 1 149.1550 51.2564 64.2190 0.0000 -6.1922 0.0000
# 2 51.2564 57.1258 31.4021 0.0000 0.2155 0.0000
# 3 64.2190 31.4021 138.6298 0.0000 -2.8468 0.0000
# 4 0.0000 0.0000 0.0000 14.0976 0.0000 2.1910
# 5 -6.1922 0.2155 -2.8468 0.0000 28.0465 0.0000
# 6 0.0000 0.0000 0.0000 2.1910 0.0000 31.2676
#
#
#
# Elastic Compliance Matrix: (Units=1/GPa)
#
#
# Indices 1 2 3 4 5 6 
#
# 1 0.010944 -0.008070 -0.003197 0.000000 0.002154 0.000000
# 2 -0.008070 0.025956 -0.002187 0.000000 -0.002203 0.000000
# 3 -0.003197 -0.002187 0.009195 0.000000 0.000244 0.000000
# 4 0.000000 0.000000 0.000000 0.071715 0.000000 -0.005025
# 5 0.002154 -0.002203 0.000244 0.000000 0.036172 0.000000
# 6 0.000000 0.000000 0.000000 -0.005025 0.000000 0.032334
#
#
# Mechanical properties :
#
#
# Convention : Reuss Voigt Hill
#
# Bulk Modulus (GPa) = 52.11767 70.96285 61.54026
# Shear Modulus (GPa) = 22.76672 27.88456 25.32564
#
# Velocity S-wave (km/s) = 3.42560 3.79112 3.61299
# Velocity P-wave (km/s) = 6.51993 7.46593 7.00891
#
# Compressibility (1/GPa) = 0.01918735
#
# Stress axis : x y z
#
# Youngs Moduli (GPa) = 91.37762 38.52661 108.75585
#
# Poissons Ratio (x) = 0.31090 0.34773
# Poissons Ratio (y) = 0.73739 0.23780
# Poissons Ratio (z) = 0.29217 0.08424
#
# Static dielectric constant tensor:
#      x y z
#    x 3.607420 0.000000 -0.115950 
#    y 0.000000 3.288700 0.000000 
#    z -0.115950 0.000000 3.883740 
# 
# 
# High freq. dielectric constant tensor:
#      x y z
#    x 1.766110 0.000000 -0.002920 
#    y 0.000000 1.726710 0.000000 
#    z -0.002920 0.000000 1.766690 
# 
# From -- ./inp_files/71573.got.cif
#   From: 2010.06.25/outbox.cif.g09.slc.cpg/sg10_36_cif.got.tgz:71573.got - 2010.06.27 22:07:45.
