data_PCOD8062198
_publ_section_title
;
Structure prediction by ZEFSAII (Michael W. Deem and Ramdas Pophale) SiO2 
 PCOD8062198
Probable space group: P 2/M
;
_chemical_formula_sum "Si O2"
_cell_formula_units_Z 32
_cell_length_a 15.218748
_cell_length_b 24.417969
_cell_length_c 8.774354
_cell_angle_alpha 90.000000
_cell_angle_beta 29.861779
_cell_angle_gamma 90.000000
_cell_volume 1623.505957
_symmetry_space_group_name_H-M "P 2/M"
_symmetry_group_IT_number 10
_symmetry_cell_setting 'monoclinic'
loop_
_space_group_symop_operation_xyz
x,y,z
-x,y,-z
-x,-y,-z
x,-y,z
loop_
_atom_site_type_symbol
_atom_site_label
_atom_site_fract_x
_atom_site_fract_y
_atom_site_fract_z
Si Si1 0.524771 0.940820 0.141535
Si Si2 0.181449 0.246393 0.137103
Si Si3 0.665442 0.831628 0.862470
Si Si4 0.166306 0.940820 0.858465
Si Si5 0.521830 0.436894 0.141946
Si Si6 0.027913 0.831627 0.137529
Si Si7 0.163778 0.563105 0.858054
Si Si8 0.818571 0.629999 0.862860
O O1 0.338923 0.928232 0.500000
O O2 0.600495 0.000000 0.086435
O O3 0.500000 0.945160 0.000000
O O4 0.652497 0.889016 0.976898
O O5 0.327793 0.216124 0.021004
O O6 0.151203 0.216124 0.021004
O O7 0.245027 0.308061 0.009949
O O8 0.000000 0.246093 0.500000
O O9 0.838971 0.832843 0.500000
O O10 0.500000 0.821593 0.000000
O O11 0.186931 0.000000 0.913564
O O12 0.129396 0.889016 0.023100
O O13 0.000000 0.945160 0.000000
O O14 0.579151 0.500000 0.072954
O O15 0.340967 0.424917 0.500000
O O16 0.500000 0.420478 0.000000
O O17 0.672268 0.399582 0.983971
O O18 0.000000 0.821593 0.000000
O O19 0.152126 0.500000 0.927032
O O20 0.156230 0.600422 0.016036
O O21 0.000000 0.579513 0.000000
O O22 0.000000 0.628222 0.500000
#
# Coordination Sequence:
#
# PCOD8062198 Si02
#       8
#     4   4   4   4   4   4   4   4
#     4   9  16  27  46  74 104 132 166 211 265 323
#     4   9  22  40  55  76 108 145 184 225 266 317
#     4  10  19  35  56  76 102 137 177 220 268 319
#     4   9  16  27  46  74 104 132 166 211 265 323
#     4  10  21  38  60  88 120 151 186 228 275 329
#     4  10  19  35  56  76 102 137 177 220 268 319
#     4  10  21  38  60  88 120 151 186 228 275 329
#     4  11  22  38  59  83 115 152 190 233 280 327
#
# _framework density 19.710429999999999
#
# number of rings (size 3 to 8) (size 9 to 14) (size 15 to 20)
#    0.000    2.250    0.000    4.500    0.000    5.500 
#    0.000   10.625    0.000    3.750    0.000    0.000 
#    0.000    0.000    0.000    0.000    0.000    0.000 
#
# Total GULP energy -396613.145587 kJ/mol
# GULP energy per Si atom -12394.160800 kJ/mol
# Density = 1.966557 g / cm^3
# Si number density = 19.710430 Si / 1000 Ang^3
#
#
#
# Elastic Constant Matrix: (Units=GPa)
#
#
# Indices 1 2 3 4 5 6 
#
# 1 122.8770 98.7229 53.0004 0.0000 -0.3930 0.0000
# 2 98.7229 176.4895 63.9742 0.0000 -1.1602 0.0000
# 3 53.0004 63.9742 97.9483 0.0000 -0.4411 0.0000
# 4 0.0000 0.0000 0.0000 28.6839 0.0000 0.6764
# 5 -0.3930 -1.1602 -0.4411 0.0000 29.0486 0.0000
# 6 0.0000 0.0000 0.0000 0.6764 0.0000 8.4693
#
#
#
# Elastic Compliance Matrix: (Units=1/GPa)
#
#
# Indices 1 2 3 4 5 6 
#
# 1 0.015702 -0.007473 -0.003616 0.000000 -0.000141 0.000000
# 2 -0.007473 0.010982 -0.003128 0.000000 0.000290 0.000000
# 3 -0.003616 -0.003128 0.014209 0.000000 0.000042 0.000000
# 4 0.000000 0.000000 0.000000 0.034929 0.000000 -0.002790
# 5 -0.000141 0.000290 0.000042 0.000000 0.034435 0.000000
# 6 0.000000 0.000000 0.000000 -0.002790 0.000000 0.118297
#
#
# Mechanical properties :
#
#
# Convention : Reuss Voigt Hill
#
# Bulk Modulus (GPa) = 80.26208 92.07884 86.17046
# Shear Modulus (GPa) = 19.14681 25.34816 22.24749
#
# Velocity S-wave (km/s) = 3.12012 3.59001 3.36328
# Velocity P-wave (km/s) = 7.33411 8.00009 7.67433
#
# Compressibility (1/GPa) = 0.01245918
#
# Stress axis : x y z
#
# Youngs Moduli (GPa) = 63.68780 91.05792 70.37809
#
# Poissons Ratio (x) = 0.68050 0.25447
# Poissons Ratio (y) = 0.47596 0.22012
# Poissons Ratio (z) = 0.23028 0.28480
#
# Static dielectric constant tensor:
#      x y z
#    x 3.612840 0.000000 0.000270 
#    y 0.000000 4.245590 0.000000 
#    z 0.000270 0.000000 3.619970 
# 
# 
# High freq. dielectric constant tensor:
#      x y z
#    x 1.755370 0.000000 0.000530 
#    y 0.000000 1.778440 0.000000 
#    z 0.000530 0.000000 1.771220 
# 
# From -- ./inp_files/30550.got.cif
#   From: 2010.06.25/outbox.cif.g09.slc.cpg/sg10_16_cif.got.tgz:30550.got - 2010.06.27 22:07:45.
