data_PCOD8062898
_publ_section_title
;
Structure prediction by ZEFSAII (Michael W. Deem and Ramdas Pophale) SiO2 
 PCOD8062898
Probable space group: P 2/M
;
_chemical_formula_sum "Si O2"
_cell_formula_units_Z 28
_cell_length_a 15.047735
_cell_length_b 8.683838
_cell_length_c 18.190658
_cell_angle_alpha 90.000000
_cell_angle_beta 42.376274
_cell_angle_gamma 90.000000
_cell_volume 1602.097423
_symmetry_space_group_name_H-M "P 2/M"
_symmetry_group_IT_number 10
_symmetry_cell_setting 'monoclinic'
loop_
_space_group_symop_operation_xyz
x,y,z
-x,y,-z
-x,-y,-z
x,-y,z
loop_
_atom_site_type_symbol
_atom_site_label
_atom_site_fract_x
_atom_site_fract_y
_atom_site_fract_z
Si Si1 0.722760 0.819733 0.570331
Si Si2 0.494154 0.823345 0.610683
Si Si3 0.683385 0.676209 0.380467
Si Si4 0.441253 0.169278 0.955135
Si Si5 0.916526 0.323107 0.335039
Si Si6 0.684497 0.321211 0.746583
Si Si7 0.191723 0.819563 0.186542
O O1 0.571038 0.780301 0.639107
O O2 0.826859 0.724764 0.458648
O O3 0.740988 0.773067 0.643403
O O4 0.752276 0.000000 0.541479
O O5 0.600939 0.790604 0.482096
O O6 0.360040 0.723439 0.676725
O O7 0.451613 0.000000 0.636684
O O8 0.643131 0.500000 0.420629
O O9 0.837288 0.699583 0.306176
O O10 0.290066 0.225980 0.058820
O O11 0.446011 0.000000 0.914612
O O12 0.500000 0.157215 0.000000
O O13 0.528926 0.285381 0.853479
O O14 0.958283 0.500000 0.320242
O O15 0.044995 0.218254 0.250727
O O16 0.700941 0.500000 0.720352
O O17 0.772286 0.274987 0.762596
O O18 0.206672 0.000000 0.195251
#
# Coordination Sequence:
#
# PCOD8062898 Si02
#       7
#     4   4   4   4   4   4   4
#     4  10  20  33  47  66  95 128 159 190 227 274
#     4   9  16  26  43  64  86 116 154 191 222 262
#     4   9  16  26  42  63  90 120 147 184 230 270
#     4   8  16  32  51  69  89 115 151 192 231 271
#     4  10  20  32  46  69  98 125 156 191 228 274
#     4  11  21  32  49  71  94 121 154 193 233 273
#     4  10  20  34  51  69  92 124 157 190 229 272
#
# _framework density 17.477087999999998
#
# number of rings (size 3 to 8) (size 9 to 14) (size 15 to 20)
#    0.000    2.429    0.000    5.143    0.000    7.143 
#    0.000    2.857    0.000    0.000    0.000    1.000 
#    0.000    8.000    0.000    0.000    0.000    0.000 
#
# Total GULP energy -346960.221579 kJ/mol
# GULP energy per Si atom -12391.436485 kJ/mol
# Density = 1.743731 g / cm^3
# Si number density = 17.477088 Si / 1000 Ang^3
#
#
#
# Elastic Constant Matrix: (Units=GPa)
#
#
# Indices 1 2 3 4 5 6 
#
# 1 70.9850 20.5128 23.7412 0.0000 -25.5960 0.0000
# 2 20.5128 55.1346 13.1573 0.0000 -5.6106 0.0000
# 3 23.7412 13.1573 47.3712 0.0000 -22.9849 0.0000
# 4 0.0000 0.0000 0.0000 20.4260 0.0000 -2.5749
# 5 -25.5960 -5.6106 -22.9849 0.0000 16.8486 0.0000
# 6 0.0000 0.0000 0.0000 -2.5749 0.0000 25.7256
#
#
#
# Elastic Compliance Matrix: (Units=1/GPa)
#
#
# Indices 1 2 3 4 5 6 
#
# 1 0.051489 -0.015865 0.041386 0.000000 0.129396 0.000000
# 2 -0.015865 0.024353 -0.019441 0.000000 -0.042514 0.000000
# 3 0.041386 -0.019441 0.098005 0.000000 0.190098 0.000000
# 4 0.000000 0.000000 0.000000 0.049583 0.000000 0.004963
# 5 0.129396 -0.042514 0.190098 0.000000 0.501103 0.000000
# 6 0.000000 0.000000 0.000000 0.004963 0.000000 0.039368
#
#
# Mechanical properties :
#
#
# Convention : Reuss Voigt Hill
#
# Bulk Modulus (GPa) = 5.37617 32.03484 18.70550
# Shear Modulus (GPa) = 6.14444 20.33866 13.24155
#
# Velocity S-wave (km/s) = 1.87706 3.41505 2.75553
# Velocity P-wave (km/s) = 2.78937 5.82405 4.56619
#
# Compressibility (1/GPa) = 0.18600620
#
# Stress axis : x y z
#
# Youngs Moduli (GPa) = 19.42179 41.06238 10.20357
#
# Poissons Ratio (x) = 0.65146 -0.42228
# Poissons Ratio (y) = 0.30813 0.19837
# Poissons Ratio (z) = -0.80379 0.79829
#
# Static dielectric constant tensor:
#      x y z
#    x 3.620190 0.000000 -0.187770 
#    y 0.000000 3.273990 0.000000 
#    z -0.187770 0.000000 3.090180 
# 
# 
# High freq. dielectric constant tensor:
#      x y z
#    x 1.671950 0.000000 -0.017560 
#    y 0.000000 1.687080 0.000000 
#    z -0.017560 0.000000 1.627460 
# 
# From -- ./inp_files/77720.got.cif
#   From: 2010.06.25/outbox.cif.g09.slc.cpg/sg10_39_cif.got.tgz:77720.got - 2010.06.27 22:07:45.
