data_PCOD8062393
_publ_section_title
;
Structure prediction by ZEFSAII (Michael W. Deem and Ramdas Pophale) SiO2 
 PCOD8062393
Probable space group: P 2/M
;
_chemical_formula_sum "Si O2"
_cell_formula_units_Z 28
_cell_length_a 19.234469
_cell_length_b 8.736514
_cell_length_c 14.136744
_cell_angle_alpha 90.000000
_cell_angle_beta 144.455802
_cell_angle_gamma 90.000000
_cell_volume 1380.991799
_symmetry_space_group_name_H-M "P 2/M"
_symmetry_group_IT_number 10
_symmetry_cell_setting 'monoclinic'
loop_
_space_group_symop_operation_xyz
x,y,z
-x,y,-z
-x,-y,-z
x,-y,z
loop_
_atom_site_type_symbol
_atom_site_label
_atom_site_fract_x
_atom_site_fract_y
_atom_site_fract_z
Si Si1 0.114915 0.180983 0.074441
Si Si2 0.198990 0.819219 0.967200
Si Si3 0.976753 0.318662 0.367955
Si Si4 0.310480 0.179488 0.435321
Si Si5 0.201894 0.676738 0.496159
Si Si6 0.546008 0.318205 0.759546
Si Si7 0.549015 0.676381 0.148890
O O1 0.237000 0.231585 0.261488
O O2 0.104018 0.000000 0.068680
O O3 0.119396 0.232745 0.969698
O O4 0.000000 0.255777 0.000000
O O5 0.145089 0.748841 0.811116
O O6 0.203313 0.000000 0.961444
O O7 0.331161 0.758449 0.135029
O O8 0.964935 0.500000 0.357941
O O9 0.083975 0.264397 0.418671
O O10 0.000000 0.255936 0.500000
O O11 0.227574 0.221108 0.433267
O O12 0.436615 0.268227 0.570718
O O13 0.336896 0.000000 0.466459
O O14 0.191556 0.500000 0.452846
O O15 0.308595 0.696331 0.689800
O O16 0.557652 0.500000 0.769085
O O17 0.513117 0.253032 0.827208
O O18 0.511117 0.500000 0.104387
O O19 0.500000 0.759360 0.000000
#
# Coordination Sequence:
#
# PCOD8062393 Si02
#       7
#     4   4   4   4   4   4   4
#     4   9  19  36  59  85 112 151 195 233 281 343
#     4  11  23  39  59  84 116 148 191 244 289 337
#     4  10  22  38  58  82 113 154 195 231 280 347
#     4  10  19  35  60  85 113 149 192 237 285 338
#     4   9  18  33  53  81 112 143 185 233 280 333
#     4  10  21  37  57  82 117 152 189 234 287 347
#     4   8  15  28  52  78 100 137 185 227 266 320
#
# _framework density 20.275283999999999
#
# number of rings (size 3 to 8) (size 9 to 14) (size 15 to 20)
#    0.000    2.429    0.000    3.000    2.000    2.571 
#    0.000    5.714    0.000    7.286    0.000    0.000 
#    0.000    0.000    0.000    0.000    0.000    0.000 
#
# Total GULP energy -347148.418758 kJ/mol
# GULP energy per Si atom -12398.157813 kJ/mol
# Density = 2.022914 g / cm^3
# Si number density = 20.275284 Si / 1000 Ang^3
#
#
#
# Elastic Constant Matrix: (Units=GPa)
#
#
# Indices 1 2 3 4 5 6 
#
# 1 82.0768 23.5751 55.1741 0.0000 7.1394 0.0000
# 2 23.5751 37.3685 23.6766 0.0000 -2.4134 0.0000
# 3 55.1741 23.6766 121.9146 0.0000 -9.4170 0.0000
# 4 0.0000 0.0000 0.0000 29.6378 0.0000 3.0888
# 5 7.1394 -2.4134 -9.4170 0.0000 38.3479 0.0000
# 6 0.0000 0.0000 0.0000 3.0888 0.0000 24.8177
#
#
#
# Elastic Compliance Matrix: (Units=1/GPa)
#
#
# Indices 1 2 3 4 5 6 
#
# 1 0.020634 -0.008211 -0.008236 0.000000 -0.006381 0.000000
# 2 -0.008211 0.033791 -0.002614 0.000000 0.003013 0.000000
# 3 -0.008236 -0.002614 0.012786 0.000000 0.004509 0.000000
# 4 0.000000 0.000000 0.000000 0.034184 0.000000 -0.004255
# 5 -0.006381 0.003013 0.004509 0.000000 0.028562 0.000000
# 6 0.000000 0.000000 0.000000 -0.004255 0.000000 0.040823
#
#
# Mechanical properties :
#
#
# Convention : Reuss Voigt Hill
#
# Bulk Modulus (GPa) = 34.37753 49.57905 41.97829
# Shear Modulus (GPa) = 22.87291 27.82295 25.34793
#
# Velocity S-wave (km/s) = 3.36239 3.70842 3.53964
# Velocity P-wave (km/s) = 5.66272 6.54542 6.12001
#
# Compressibility (1/GPa) = 0.02908876
#
# Stress axis : x y z
#
# Youngs Moduli (GPa) = 48.46372 29.59337 78.21162
#
# Poissons Ratio (x) = 0.24299 0.64418
# Poissons Ratio (y) = 0.39794 0.20442
# Poissons Ratio (z) = 0.39917 0.07735
#
# Static dielectric constant tensor:
#      x y z
#    x 3.798950 0.000000 -0.083080 
#    y 0.000000 3.300420 0.000000 
#    z -0.083080 0.000000 3.878040 
# 
# 
# High freq. dielectric constant tensor:
#      x y z
#    x 1.789590 0.000000 0.001010 
#    y 0.000000 1.759380 0.000000 
#    z 0.001010 0.000000 1.806200 
# 
# From -- ./inp_files/70305.got.cif
#   From: 2010.06.25/outbox.cif.g09.slc.cpg/sg10_36_cif.got.tgz:70305.got - 2010.06.27 22:07:45.
