data_PCOD8062759
_publ_section_title
;
Structure prediction by ZEFSAII (Michael W. Deem and Ramdas Pophale) SiO2 
 PCOD8062759
Probable space group: P 2/M
;
_chemical_formula_sum "Si O2"
_cell_formula_units_Z 28
_cell_length_a 15.855451
_cell_length_b 8.794029
_cell_length_c 17.599574
_cell_angle_alpha 90.000000
_cell_angle_beta 34.969992
_cell_angle_gamma 90.000000
_cell_volume 1406.484426
_symmetry_space_group_name_H-M "P 2/M"
_symmetry_group_IT_number 10
_symmetry_cell_setting 'monoclinic'
loop_
_space_group_symop_operation_xyz
x,y,z
-x,y,-z
-x,-y,-z
x,-y,z
loop_
_atom_site_type_symbol
_atom_site_label
_atom_site_fract_x
_atom_site_fract_y
_atom_site_fract_z
Si Si1 0.668496 0.178235 0.868133
Si Si2 0.124346 0.320217 0.713412
Si Si3 0.166859 0.674676 0.386621
Si Si4 0.801539 0.319814 0.915442
Si Si5 0.165646 0.323534 0.852620
Si Si6 0.371103 0.177626 0.822498
Si Si7 0.679689 0.675667 0.569282
O O1 0.725104 0.222023 0.743003
O O2 0.766303 0.266299 0.856944
O O3 0.685093 0.000000 0.869706
O O4 0.500000 0.230434 0.000000
O O5 0.110693 0.500000 0.717889
O O6 0.184722 0.271898 0.751267
O O7 0.236636 0.260939 0.566843
O O8 0.961099 0.252963 0.820764
O O9 0.182513 0.500000 0.348588
O O10 0.209423 0.694952 0.442684
O O11 0.000000 0.731582 0.500000
O O12 0.799599 0.500000 0.919837
O O13 0.680251 0.260520 0.063402
O O14 0.206062 0.500000 0.834729
O O15 0.274733 0.223031 0.821271
O O16 0.000000 0.291744 0.000000
O O17 0.538525 0.220761 0.684022
O O18 0.357988 0.000000 0.846206
O O19 0.631725 0.500000 0.594806
#
# Coordination Sequence:
#
# PCOD8062759 Si02
#       7
#     4   4   4   4   4   4   4
#     4  11  24  39  56  85 123 158 195 242 300 361
#     4   9  19  37  64  92 115 145 195 255 298 344
#     4  10  21  39  63  89 117 154 204 256 300 351
#     4  11  21  39  65  90 114 149 201 252 298 349
#     4  10  19  38  65  91 118 152 200 249 298 351
#     4  12  25  39  57  87 127 163 196 240 297 356
#     4  10  21  39  62  88 118 156 200 245 299 353
#
# _framework density 19.907793999999999
#
# number of rings (size 3 to 8) (size 9 to 14) (size 15 to 20)
#    0.000    1.571    1.429    3.857    0.000    7.429 
#    0.000    6.429    0.000    0.000    0.000    0.000 
#    0.000    0.000    0.000    0.000    0.000    0.000 
#
# Total GULP energy -347359.011080 kJ/mol
# GULP energy per Si atom -12405.678967 kJ/mol
# Density = 1.986248 g / cm^3
# Si number density = 19.907794 Si / 1000 Ang^3
#
#
#
# Elastic Constant Matrix: (Units=GPa)
#
#
# Indices 1 2 3 4 5 6 
#
# 1 80.8664 21.1735 19.3614 0.0000 11.6413 0.0000
# 2 21.1735 58.1166 18.7870 0.0000 -2.2436 0.0000
# 3 19.3614 18.7870 103.3932 0.0000 18.4313 0.0000
# 4 0.0000 0.0000 0.0000 10.2837 0.0000 -0.7526
# 5 11.6413 -2.2436 18.4313 0.0000 36.0516 0.0000
# 6 0.0000 0.0000 0.0000 -0.7526 0.0000 -4.8469
#
#
#
# Elastic Compliance Matrix: (Units=1/GPa)
#
#
# Indices 1 2 3 4 5 6 
#
# 1 0.014611 -0.005180 -0.000986 0.000000 -0.004536 0.000000
# 2 -0.005180 0.020441 -0.003597 0.000000 0.004784 0.000000
# 3 -0.000986 -0.003597 0.011545 0.000000 -0.005808 0.000000
# 4 0.000000 0.000000 0.000000 0.096149 0.000000 -0.014930
# 5 -0.004536 0.004784 -0.005808 0.000000 0.032470 0.000000
# 6 0.000000 0.000000 0.000000 -0.014930 0.000000 -0.204000
#
#
# Mechanical properties :
#
#
# Convention : Reuss Voigt Hill
#
# Bulk Modulus (GPa) = 36.93834 40.11333 38.52584
# Shear Modulus (GPa) = -21412.92576 20.50130 -10696.21223
#
# Velocity S-wave (km/s) = -103.82390 3.21255 -73.37943
# Velocity P-wave (km/s) = 119.80793 5.82700 84.61674
#
# Compressibility (1/GPa) = 0.02707214
#
# Stress axis : x y z
#
# Youngs Moduli (GPa) = 68.43943 48.92040 86.61404
#
# Poissons Ratio (x) = 0.25339 0.08543
# Poissons Ratio (y) = 0.35449 0.31156
# Poissons Ratio (z) = 0.06750 0.17597
#
# Static dielectric constant tensor:
#      x y z
#    x 3.415030 0.000000 0.102390 
#    y 0.000000 3.387000 0.000000 
#    z 0.102390 0.000000 3.760740 
# 
# 
# High freq. dielectric constant tensor:
#      x y z
#    x 1.791240 0.000000 0.004040 
#    y 0.000000 1.753650 0.000000 
#    z 0.004040 0.000000 1.787070 
# 
# From -- ./inp_files/77718.got.cif
#   From: 2010.06.25/outbox.cif.g09.slc.cpg/sg10_39_cif.got.tgz:77718.got - 2010.06.27 22:07:45.
