data_PCOD8062476
_publ_section_title
;
Structure prediction by ZEFSAII (Michael W. Deem and Ramdas Pophale) SiO2 
 PCOD8062476
Probable space group: P 2/M
;
_chemical_formula_sum "Si O2"
_cell_formula_units_Z 32
_cell_length_a 11.674328
_cell_length_b 8.829739
_cell_length_c 33.109570
_cell_angle_alpha 90.000000
_cell_angle_beta 29.932613
_cell_angle_gamma 90.000000
_cell_volume 1703.010769
_symmetry_space_group_name_H-M "P 2/M"
_symmetry_group_IT_number 10
_symmetry_cell_setting 'monoclinic'
loop_
_space_group_symop_operation_xyz
x,y,z
-x,y,-z
-x,-y,-z
x,-y,z
loop_
_atom_site_type_symbol
_atom_site_label
_atom_site_fract_x
_atom_site_fract_y
_atom_site_fract_z
Si Si1 0.331243 0.166495 0.514003
Si Si2 0.980842 0.178302 0.684059
Si Si3 0.821530 0.321276 0.149878
Si Si4 0.316178 0.677567 0.645163
Si Si5 0.130756 0.178417 0.778695
Si Si6 0.457997 0.822441 0.832677
Si Si7 0.348558 0.325893 0.083860
Si Si8 0.722851 0.673821 0.035492
O O1 0.500000 0.155360 0.500000
O O2 0.434252 0.282686 0.449919
O O3 0.087808 0.220819 0.607236
O O4 0.307636 0.000000 0.501031
O O5 0.716349 0.226496 0.764518
O O6 0.106681 0.268061 0.681175
O O7 0.014310 0.000000 0.682258
O O8 0.811038 0.500000 0.158454
O O9 0.612978 0.264732 0.186059
O O10 0.796106 0.245867 0.200975
O O11 0.062890 0.269980 0.056512
O O12 0.295289 0.500000 0.657342
O O13 0.303235 0.756929 0.692482
O O14 0.872769 0.221806 0.845251
O O15 0.153971 0.000000 0.773269
O O16 0.290830 0.774347 0.920207
O O17 0.436464 0.000000 0.831607
O O18 0.272254 0.500000 0.100387
O O19 0.490636 0.305312 0.081270
O O20 0.500000 0.270570 0.000000
O O21 0.757766 0.500000 0.037973
#
# Coordination Sequence:
#
# PCOD8062476 Si02
#       8
#     4   4   4   4   4   4   4   4
#     4   8  15  31  54  79 111 147 176 210 266 327
#     4   9  19  36  56  81 115 148 177 217 271 326
#     4  11  23  41  58  74 102 144 188 228 276 324
#     4  11  21  33  54  85 116 144 179 221 268 321
#     4  12  24  37  55  80 110 144 184 225 272 325
#     4  11  23  37  55  81 109 139 182 230 270 315
#     4  10  19  36  57  79 108 142 178 219 270 324
#     4  10  21  37  57  78 105 143 183 223 272 325
#
# _framework density 18.790248999999999
#
# number of rings (size 3 to 8) (size 9 to 14) (size 15 to 20)
#    0.000    1.750    1.250    4.875    0.000    8.500 
#    0.000    0.000    0.000    0.750    0.000    5.250 
#    0.000    0.000    0.000    0.000    0.000    0.000 
#
# Total GULP energy -396883.446904 kJ/mol
# GULP energy per Si atom -12402.607716 kJ/mol
# Density = 1.874748 g / cm^3
# Si number density = 18.790249 Si / 1000 Ang^3
#
#
#
# Elastic Constant Matrix: (Units=GPa)
#
#
# Indices 1 2 3 4 5 6 
#
# 1 76.3386 41.8085 36.6247 0.0000 19.0728 0.0000
# 2 41.8085 103.3027 48.5158 0.0000 12.9698 0.0000
# 3 36.6247 48.5158 106.5186 0.0000 24.3237 0.0000
# 4 0.0000 0.0000 0.0000 28.9574 0.0000 4.6652
# 5 19.0728 12.9698 24.3237 0.0000 21.9342 0.0000
# 6 0.0000 0.0000 0.0000 4.6652 0.0000 29.5865
#
#
#
# Elastic Compliance Matrix: (Units=1/GPa)
#
#
# Indices 1 2 3 4 5 6 
#
# 1 0.020122 -0.005936 -0.001367 0.000000 -0.012471 0.000000
# 2 -0.005936 0.014099 -0.004895 0.000000 0.002253 0.000000
# 3 -0.001367 -0.004895 0.014938 0.000000 -0.012482 0.000000
# 4 0.000000 0.000000 0.000000 0.035434 0.000000 -0.005587
# 5 -0.012471 0.002253 -0.012482 0.000000 0.068944 0.000000
# 6 0.000000 0.000000 0.000000 -0.005587 0.000000 0.034680
#
#
# Mechanical properties :
#
#
# Convention : Reuss Voigt Hill
#
# Bulk Modulus (GPa) = 40.38391 60.00645 50.19518
# Shear Modulus (GPa) = 22.63795 26.70967 24.67381
#
# Velocity S-wave (km/s) = 3.47475 3.77432 3.62763
# Velocity P-wave (km/s) = 6.13491 7.14130 6.65715
#
# Compressibility (1/GPa) = 0.02476234
#
# Stress axis : x y z
#
# Youngs Moduli (GPa) = 49.69613 70.92834 66.94345
#
# Poissons Ratio (x) = 0.42103 0.09153
# Poissons Ratio (y) = 0.29499 0.32769
# Poissons Ratio (z) = 0.06795 0.34720
#
# Static dielectric constant tensor:
#      x y z
#    x 3.285720 0.000000 0.049230 
#    y 0.000000 3.389130 0.000000 
#    z 0.049230 0.000000 3.802860 
# 
# 
# High freq. dielectric constant tensor:
#      x y z
#    x 1.708020 0.000000 0.010810 
#    y 0.000000 1.728870 0.000000 
#    z 0.010810 0.000000 1.735690 
# 
# From -- ./inp_files/94944.got.cif
#   From: 2010.06.25/outbox.cif.g09.slc.cpg/sg10_48_cif.got.tgz:94944.got - 2010.06.27 22:07:45.
