data_PCOD8062878
_publ_section_title
;
Structure prediction by ZEFSAII (Michael W. Deem and Ramdas Pophale) SiO2 
 PCOD8062878
Probable space group: P 2/M
;
_chemical_formula_sum "Si O2"
_cell_formula_units_Z 32
_cell_length_a 15.594079
_cell_length_b 8.931847
_cell_length_c 27.573739
_cell_angle_alpha 90.000000
_cell_angle_beta 28.277514
_cell_angle_gamma 90.000000
_cell_volume 1819.445821
_symmetry_space_group_name_H-M "P 2/M"
_symmetry_group_IT_number 10
_symmetry_cell_setting 'monoclinic'
loop_
_space_group_symop_operation_xyz
x,y,z
-x,y,-z
-x,-y,-z
x,-y,z
loop_
_atom_site_type_symbol
_atom_site_label
_atom_site_fract_x
_atom_site_fract_y
_atom_site_fract_z
Si Si1 0.551101 0.322116 0.081564
Si Si2 0.208001 0.174471 0.115391
Si Si3 0.840495 0.326079 0.296156
Si Si4 0.445622 0.677941 0.639346
Si Si5 0.211083 0.321794 0.843726
Si Si6 0.194251 0.322210 0.959732
Si Si7 0.172485 0.325573 0.585103
Si Si8 0.195655 0.825662 0.234616
O O1 0.546918 0.500000 0.082299
O O2 0.671099 0.258957 0.066461
O O3 0.348380 0.260143 0.189258
O O4 0.631496 0.260726 0.991376
O O5 0.227377 0.209604 0.162408
O O6 0.015647 0.233614 0.192201
O O7 0.226304 0.000000 0.094977
O O8 0.883519 0.500000 0.265067
O O9 0.673399 0.268588 0.347141
O O10 0.791066 0.295658 0.376408
O O11 0.449084 0.500000 0.637997
O O12 0.358663 0.742427 0.732340
O O13 0.651259 0.735754 0.531262
O O14 0.212151 0.500000 0.841482
O O15 0.258791 0.266122 0.874313
O O16 0.010433 0.265242 0.928487
O O17 0.197090 0.500000 0.959547
O O18 0.136903 0.500000 0.593048
O O19 0.000262 0.234457 0.651474
O O20 0.206616 0.000000 0.240804
#
# Coordination Sequence:
#
# PCOD8062878 Si02
#       8
#     4   4   4   4   4   4   4   4
#     4  11  20  30  48  71  91 115 152 192 229 269
#     4  10  20  32  45  65  94 124 153 184 221 270
#     4   9  16  27  44  68  97 124 151 185 224 266
#     4   9  15  24  44  71  95 121 153 188 227 269
#     4   8  13  24  42  67  99 124 141 172 223 274
#     4   8  15  26  42  68  98 121 142 176 223 273
#     4   9  17  29  45  67  94 122 154 192 228 262
#     4  10  21  35  47  62  89 124 157 188 225 269
#
# _framework density 17.587774
#
# number of rings (size 3 to 8) (size 9 to 14) (size 15 to 20)
#    0.000    2.750    0.000    3.375    0.000    6.500 
#    0.000    0.625    0.000    3.750    0.000   23.625 
#    0.000    0.000    0.000    0.000    0.000    0.000 
#
# Total GULP energy -396737.696961 kJ/mol
# GULP energy per Si atom -12398.053030 kJ/mol
# Density = 1.754774 g / cm^3
# Si number density = 17.587774 Si / 1000 Ang^3
#
#
#
# Elastic Constant Matrix: (Units=GPa)
#
#
# Indices 1 2 3 4 5 6 
#
# 1 84.7292 27.9327 60.0671 0.0000 -16.4436 0.0000
# 2 27.9327 41.9261 30.7338 0.0000 -7.4790 0.0000
# 3 60.0671 30.7338 140.4023 0.0000 -12.3401 0.0000
# 4 0.0000 0.0000 0.0000 10.1355 0.0000 0.0124
# 5 -16.4436 -7.4790 -12.3401 0.0000 26.7070 0.0000
# 6 0.0000 0.0000 0.0000 0.0124 0.0000 7.5790
#
#
#
# Elastic Compliance Matrix: (Units=1/GPa)
#
#
# Indices 1 2 3 4 5 6 
#
# 1 0.020217 -0.007485 -0.006359 0.000000 0.007413 0.000000
# 2 -0.007485 0.031919 -0.003548 0.000000 0.002690 0.000000
# 3 -0.006359 -0.003548 0.010619 0.000000 -0.000002 0.000000
# 4 0.000000 0.000000 0.000000 0.098664 0.000000 -0.000161
# 5 0.007413 0.002690 -0.000002 0.000000 0.042760 0.000000
# 6 0.000000 0.000000 0.000000 -0.000161 0.000000 0.131943
#
#
# Mechanical properties :
#
#
# Convention : Reuss Voigt Hill
#
# Bulk Modulus (GPa) = 35.75212 56.05832 45.90522
# Shear Modulus (GPa) = 13.14989 18.77258 15.96124
#
# Velocity S-wave (km/s) = 2.73733 3.27060 3.01577
# Velocity P-wave (km/s) = 5.51022 6.79743 6.18739
#
# Compressibility (1/GPa) = 0.02797037
#
# Stress axis : x y z
#
# Youngs Moduli (GPa) = 49.46370 31.32890 94.16661
#
# Poissons Ratio (x) = 0.23451 0.59882
# Poissons Ratio (y) = 0.37025 0.33413
# Poissons Ratio (z) = 0.31455 0.11116
#
# Static dielectric constant tensor:
#      x y z
#    x 3.341110 0.000000 -0.042650 
#    y 0.000000 2.902200 0.000000 
#    z -0.042650 0.000000 3.492150 
# 
# 
# High freq. dielectric constant tensor:
#      x y z
#    x 1.665880 0.000000 -0.011080 
#    y 0.000000 1.642640 0.000000 
#    z -0.011080 0.000000 1.679700 
# 
# From -- ./inp_files/66470.got.cif
#   From: 2010.06.25/outbox.cif.g09.slc.cpg/sg10_34_cif.got.tgz:66470.got - 2010.06.27 22:07:45.
