data_PCOD8062842
_publ_section_title
;
Structure prediction by ZEFSAII (Michael W. Deem and Ramdas Pophale) SiO2 
 PCOD8062842
Probable space group: P 2/M
;
_chemical_formula_sum "Si O2"
_cell_formula_units_Z 32
_cell_length_a 21.149279
_cell_length_b 8.955729
_cell_length_c 26.474210
_cell_angle_alpha 90.000000
_cell_angle_beta 20.613813
_cell_angle_gamma 90.000000
_cell_volume 1765.408510
_symmetry_space_group_name_H-M "P 2/M"
_symmetry_group_IT_number 10
_symmetry_cell_setting 'monoclinic'
loop_
_space_group_symop_operation_xyz
x,y,z
-x,y,-z
-x,-y,-z
x,-y,z
loop_
_atom_site_type_symbol
_atom_site_label
_atom_site_fract_x
_atom_site_fract_y
_atom_site_fract_z
Si Si1 0.288305 0.667544 0.158526
Si Si2 0.801125 0.177697 0.142652
Si Si3 0.519896 0.177891 0.155665
Si Si4 0.529534 0.177527 0.262592
Si Si5 0.233959 0.822364 0.560471
Si Si6 0.505283 0.177627 0.440121
Si Si7 0.798703 0.325162 0.665186
Si Si8 0.164993 0.176655 0.152380
O O1 0.215321 0.500000 0.203185
O O2 0.223738 0.729101 0.260644
O O3 0.214992 0.778032 0.171357
O O4 0.500000 0.668439 0.000000
O O5 0.704446 0.233222 0.163295
O O6 0.685480 0.231915 0.277209
O O7 0.811416 0.000000 0.133998
O O8 0.000000 0.247299 0.000000
O O9 0.538206 0.240268 0.199133
O O10 0.335158 0.237123 0.270967
O O11 0.514581 0.000000 0.158701
O O12 0.689591 0.239334 0.996482
O O13 0.347702 0.234071 0.426619
O O14 0.529200 0.000000 0.261790
O O15 0.331734 0.767287 0.538481
O O16 0.032521 0.756395 0.711598
O O17 0.227838 0.000000 0.563606
O O18 0.500000 0.248494 0.500000
O O19 0.503963 0.000000 0.444133
O O20 0.755698 0.500000 0.692179
O O21 0.000000 0.284463 0.500000
O O22 0.161758 0.000000 0.151614
#
# Coordination Sequence:
#
# PCOD8062842 Si02
#       8
#     4   4   4   4   4   4   4   4
#     4  10  20  36  54  69  90 121 151 186 234 277
#     4   8  13  21  34  53  78 113 153 185 218 263
#     4  10  20  32  47  70  96 121 153 191 229 272
#     4   8  15  27  40  57  87 122 152 186 228 271
#     4   8  15  27  40  58  87 121 153 185 227 272
#     4   8  13  21  34  53  79 113 151 186 219 261
#     4  10  22  38  53  70  92 118 151 191 232 275
#     4  10  20  31  47  71  95 121 154 191 228 271
#
# _framework density 18.126116
#
# number of rings (size 3 to 8) (size 9 to 14) (size 15 to 20)
#    0.000    3.000    1.250    1.500    1.750    2.000 
#    0.000    5.000    0.000    0.000    0.000    0.000 
#    0.000    1.000    0.000    2.000    0.000    2.500 
#
# Total GULP energy -396633.805889 kJ/mol
# GULP energy per Si atom -12394.806434 kJ/mol
# Density = 1.808486 g / cm^3
# Si number density = 18.126116 Si / 1000 Ang^3
#
#
#
# Elastic Constant Matrix: (Units=GPa)
#
#
# Indices 1 2 3 4 5 6 
#
# 1 172.5560 12.6968 97.6460 0.0000 12.6498 0.0000
# 2 12.6968 6.1097 13.3384 0.0000 -0.8950 0.0000
# 3 97.6460 13.3384 151.0619 0.0000 -4.3696 0.0000
# 4 0.0000 0.0000 0.0000 11.5295 0.0000 5.1457
# 5 12.6498 -0.8950 -4.3696 0.0000 33.3014 0.0000
# 6 0.0000 0.0000 0.0000 5.1457 0.0000 0.1716
#
#
#
# Elastic Compliance Matrix: (Units=1/GPa)
#
#
# Indices 1 2 3 4 5 6 
#
# 1 0.010158 -0.008896 -0.005922 0.000000 -0.004875 0.000000
# 2 -0.008896 0.210873 -0.012655 0.000000 0.007386 0.000000
# 3 -0.005922 -0.012655 0.011665 0.000000 0.003440 0.000000
# 4 0.000000 0.000000 0.000000 -0.007003 0.000000 0.210026
# 5 -0.004875 0.007386 0.003440 0.000000 0.032530 0.000000
# 6 0.000000 0.000000 0.000000 0.210026 0.000000 -0.470583
#
#
# Mechanical properties :
#
#
# Convention : Reuss Voigt Hill
#
# Bulk Modulus (GPa) = 5.62591 64.12110 34.87351
# Shear Modulus (GPa) = -50.93542 22.73691 -14.09925
#
# Velocity S-wave (km/s) = -5.30675 3.54556 -2.79201
# Velocity P-wave (km/s) = 5.86841 7.22586 2.98117
#
# Compressibility (1/GPa) = 0.17774892
#
# Stress axis : x y z
#
# Youngs Moduli (GPa) = 98.44320 4.74219 85.73009
#
# Poissons Ratio (x) = 0.04219 0.50767
# Poissons Ratio (y) = 0.87577 1.08495
# Poissons Ratio (z) = 0.58295 0.06001
#
# Static dielectric constant tensor:
#      x y z
#    x 3.604150 0.000000 0.062440 
#    y 0.000000 2.753150 0.000000 
#    z 0.062440 0.000000 3.717130 
# 
# 
# High freq. dielectric constant tensor:
#      x y z
#    x 1.712120 0.000000 0.002090 
#    y 0.000000 1.636340 0.000000 
#    z 0.002090 0.000000 1.714150 
# 
# From -- ./inp_files/93655.got.cif
#   From: 2010.06.25/outbox.cif.g09.slc.cpg/sg10_47_cif.got.tgz:93655.got - 2010.06.27 22:07:45.
