data_PCOD8062980
_publ_section_title
;
Structure prediction by ZEFSAII (Michael W. Deem and Ramdas Pophale) SiO2 
 PCOD8062980
Probable space group: P 2/M
;
_chemical_formula_sum "Si O2"
_cell_formula_units_Z 32
_cell_length_a 23.596130
_cell_length_b 9.902467
_cell_length_c 15.569642
_cell_angle_alpha 90.000000
_cell_angle_beta 151.540635
_cell_angle_gamma 90.000000
_cell_volume 1733.636141
_symmetry_space_group_name_H-M "P 2/M"
_symmetry_group_IT_number 10
_symmetry_cell_setting 'monoclinic'
loop_
_space_group_symop_operation_xyz
x,y,z
-x,y,-z
-x,-y,-z
x,-y,z
loop_
_atom_site_type_symbol
_atom_site_label
_atom_site_fract_x
_atom_site_fract_y
_atom_site_fract_z
Si Si1 0.713209 0.155051 0.638265
Si Si2 0.633151 0.659456 0.163823
Si Si3 0.442694 0.151590 0.247843
Si Si4 0.138024 0.657529 0.441348
Si Si5 0.105715 0.658405 0.205276
Si Si6 0.239597 0.848768 0.104357
Si Si7 0.299238 0.656564 0.937038
Si Si8 0.900706 0.656259 0.202296
O O1 0.575799 0.189870 0.447779
O O2 0.778228 0.256756 0.661793
O O3 0.756901 0.186682 0.791645
O O4 0.740095 0.000000 0.648707
O O5 0.621359 0.500000 0.158959
O O6 0.731313 0.720779 0.361936
O O7 0.500000 0.722668 0.000000
O O8 0.688801 0.697303 0.145826
O O9 0.371705 0.162727 0.242217
O O10 0.395307 0.256427 0.115371
O O11 0.432170 0.000000 0.195622
O O12 0.161577 0.500000 0.474132
O O13 0.083302 0.697681 0.275407
O O14 0.041378 0.693664 0.387624
O O15 0.131659 0.500000 0.228533
O O16 0.000000 0.703451 0.000000
O O17 0.189152 0.000000 0.021923
O O18 0.155606 0.741237 0.948714
O O19 0.330867 0.500000 0.993480
O O20 0.164880 0.687349 0.794016
O O21 0.883711 0.500000 0.155022
#
# Coordination Sequence:
#
# PCOD8062980 Si02
#       8
#     4   4   4   4   4   4   4   4
#     4  10  20  32  49  72  98 132 172 212 250 295
#     4   9  18  31  49  75 104 133 168 208 249 300
#     4   9  18  32  50  72 101 134 167 204 251 306
#     4   9  18  32  50  72 101 138 170 203 253 304
#     4  10  21  35  51  73 100 134 172 207 252 305
#     4   9  17  31  50  72 100 135 169 202 248 303
#     4   9  18  31  51  78 101 126 165 212 253 291
#     4   9  17  31  51  75 102 127 162 211 256 296
#
# _framework density 18.458314000000001
#
# number of rings (size 3 to 8) (size 9 to 14) (size 15 to 20)
#    0.000    2.750    0.000    1.125    1.750    4.250 
#    0.000    3.125    0.000    5.625    0.000    3.500 
#    0.000    0.000    0.000    0.000    0.000    0.000 
#
# Total GULP energy -396513.721358 kJ/mol
# GULP energy per Si atom -12391.053792 kJ/mol
# Density = 1.841630 g / cm^3
# Si number density = 18.458314 Si / 1000 Ang^3
#
#
#
# Elastic Constant Matrix: (Units=GPa)
#
#
# Indices 1 2 3 4 5 6 
#
# 1 108.3623 27.9942 57.8452 0.0000 10.4801 0.0000
# 2 27.9942 33.5953 18.5423 0.0000 3.5073 0.0000
# 3 57.8452 18.5423 100.2778 0.0000 12.3756 0.0000
# 4 0.0000 0.0000 0.0000 14.6738 0.0000 3.4112
# 5 10.4801 3.5073 12.3756 0.0000 24.5310 0.0000
# 6 0.0000 0.0000 0.0000 3.4112 0.0000 21.8690
#
#
#
# Elastic Compliance Matrix: (Units=1/GPa)
#
#
# Indices 1 2 3 4 5 6 
#
# 1 0.015439 -0.008781 -0.007063 0.000000 -0.001777 0.000000
# 2 -0.008781 0.038215 -0.001908 0.000000 -0.000750 0.000000
# 3 -0.007063 -0.001908 0.014922 0.000000 -0.004238 0.000000
# 4 0.000000 0.000000 0.000000 0.070713 0.000000 -0.011030
# 5 -0.001777 -0.000750 -0.004238 0.000000 0.043769 0.000000
# 6 0.000000 0.000000 0.000000 -0.011030 0.000000 0.047447
#
#
# Mechanical properties :
#
#
# Convention : Reuss Voigt Hill
#
# Bulk Modulus (GPa) = 30.23772 50.11098 40.17435
# Shear Modulus (GPa) = 18.04834 21.40501 19.72667
#
# Velocity S-wave (km/s) = 3.13035 3.40904 3.27267
# Velocity P-wave (km/s) = 5.42980 6.53472 6.00771
#
# Compressibility (1/GPa) = 0.03307128
#
# Stress axis : x y z
#
# Youngs Moduli (GPa) = 64.77114 26.16789 67.01321
#
# Poissons Ratio (x) = 0.22979 0.47331
# Poissons Ratio (y) = 0.56877 0.12788
# Poissons Ratio (z) = 0.45747 0.04994
#
# Static dielectric constant tensor:
#      x y z
#    x 3.591140 0.000000 0.076150 
#    y 0.000000 3.181170 0.000000 
#    z 0.076150 0.000000 3.484420 
# 
# 
# High freq. dielectric constant tensor:
#      x y z
#    x 1.724410 0.000000 0.009330 
#    y 0.000000 1.685390 0.000000 
#    z 0.009330 0.000000 1.711560 
# 
# From -- ./inp_files/50764.got.cif
#   From: 2010.06.25/outbox.cif.g09.slc.cpg/sg10_26_cif.got.tgz:50764.got - 2010.06.27 22:07:45.
