data_PCOD8062559
_publ_section_title
;
Structure prediction by ZEFSAII (Michael W. Deem and Ramdas Pophale) SiO2 
 PCOD8062559
Probable space group: P 2/M
;
_chemical_formula_sum "Si O2"
_cell_formula_units_Z 32
_cell_length_a 22.850370
_cell_length_b 9.131333
_cell_length_c 28.742309
_cell_angle_alpha 90.000000
_cell_angle_beta 163.728813
_cell_angle_gamma 90.000000
_cell_volume 1680.321601
_symmetry_space_group_name_H-M "P 2/M"
_symmetry_group_IT_number 10
_symmetry_cell_setting 'monoclinic'
loop_
_space_group_symop_operation_xyz
x,y,z
-x,y,-z
-x,-y,-z
x,-y,z
loop_
_atom_site_type_symbol
_atom_site_label
_atom_site_fract_x
_atom_site_fract_y
_atom_site_fract_z
Si Si1 0.499668 0.327085 0.314576
Si Si2 0.564133 0.839269 0.101542
Si Si3 0.929407 0.169218 0.998071
Si Si4 0.126933 0.167993 0.807655
Si Si5 0.029757 0.333494 0.576745
Si Si6 0.174335 0.327826 0.358232
Si Si7 0.266361 0.829323 0.333513
Si Si8 0.197197 0.169636 0.519824
O O1 0.501579 0.500000 0.308626
O O2 0.264682 0.271489 0.138385
O O3 0.626964 0.282422 0.458343
O O4 0.602999 0.252065 0.348586
O O5 0.735718 0.715158 0.234664
O O6 0.645954 0.000000 0.180830
O O7 0.500000 0.856821 0.000000
O O8 0.367595 0.790611 0.983122
O O9 0.861948 0.000000 0.951264
O O10 0.000000 0.206125 0.000000
O O11 0.118732 0.207667 0.177187
O O12 0.038143 0.270399 0.780464
O O13 0.003771 0.195307 0.665805
O O14 0.100571 0.000000 0.803245
O O15 0.003009 0.500000 0.573083
O O16 0.000000 0.313498 0.500000
O O17 0.858089 0.235751 0.472137
O O18 0.157822 0.500000 0.340046
O O19 0.189878 0.258530 0.319604
O O20 0.500000 0.777653 0.500000
O O21 0.261397 0.000000 0.342191
O O22 0.254679 0.000000 0.569403
#
# Coordination Sequence:
#
# PCOD8062559 Si02
#       8
#     4   4   4   4   4   4   4   4
#     4  10  21  37  58  86 117 150 188 231 282 339
#     4  10  19  36  60  86 111 141 191 243 287 337
#     4  10  21  38  61  88 115 148 194 236 276 331
#     4   9  18  34  58  85 112 143 185 239 285 332
#     4  11  24  39  54  80 117 154 190 233 288 344
#     4  10  21  36  56  84 117 151 187 227 279 341
#     4  10  21  38  61  87 115 148 187 233 281 328
#     4  10  19  36  61  84 110 148 192 237 284 335
#
# _framework density 19.043973999999999
#
# number of rings (size 3 to 8) (size 9 to 14) (size 15 to 20)
#    0.000    2.000    1.250    2.250    0.000    5.750 
#    2.250    0.000    0.000    0.000    0.000    0.000 
#    0.000    0.000    0.000    0.000    0.000    0.000 
#
# Total GULP energy -396888.025161 kJ/mol
# GULP energy per Si atom -12402.750786 kJ/mol
# Density = 1.900063 g / cm^3
# Si number density = 19.043974 Si / 1000 Ang^3
#
#
#
# Elastic Constant Matrix: (Units=GPa)
#
#
# Indices 1 2 3 4 5 6 
#
# 1 126.5893 73.2476 60.5041 0.0000 15.2351 0.0000
# 2 73.2476 94.5090 46.6721 0.0000 6.2856 0.0000
# 3 60.5041 46.6721 90.4021 0.0000 12.3230 0.0000
# 4 0.0000 0.0000 0.0000 24.4029 0.0000 -1.9031
# 5 15.2351 6.2856 12.3230 0.0000 24.5395 0.0000
# 6 0.0000 0.0000 0.0000 -1.9031 0.0000 28.3590
#
#
#
# Elastic Compliance Matrix: (Units=1/GPa)
#
#
# Indices 1 2 3 4 5 6 
#
# 1 0.016988 -0.010141 -0.005421 0.000000 -0.005227 0.000000
# 2 -0.010141 0.020256 -0.004102 0.000000 0.003168 0.000000
# 3 -0.005421 -0.004102 0.017397 0.000000 -0.004320 0.000000
# 4 0.000000 0.000000 0.000000 0.041194 0.000000 0.002764
# 5 -0.005227 0.003168 -0.004320 0.000000 0.045353 0.000000
# 6 0.000000 0.000000 0.000000 0.002764 0.000000 0.035448
#
#
# Mechanical properties :
#
#
# Convention : Reuss Voigt Hill
#
# Bulk Modulus (GPa) = 65.31271 74.70534 70.00903
# Shear Modulus (GPa) = 22.61743 24.19871 23.40807
#
# Velocity S-wave (km/s) = 3.44996 3.56852 3.50974
# Velocity P-wave (km/s) = 7.08800 7.50281 7.29835
#
# Compressibility (1/GPa) = 0.01531095
#
# Stress axis : x y z
#
# Youngs Moduli (GPa) = 58.86612 49.36867 57.48199
#
# Poissons Ratio (x) = 0.50065 0.31164
# Poissons Ratio (y) = 0.59697 0.23579
# Poissons Ratio (z) = 0.31914 0.20251
#
# Static dielectric constant tensor:
#      x y z
#    x 3.548210 0.000000 0.138140 
#    y 0.000000 3.522810 0.000000 
#    z 0.138140 0.000000 3.368600 
# 
# 
# High freq. dielectric constant tensor:
#      x y z
#    x 1.746890 0.000000 0.013170 
#    y 0.000000 1.743520 0.000000 
#    z 0.013170 0.000000 1.730810 
# 
# From -- ./inp_files/93815.got.cif
#   From: 2010.06.25/outbox.cif.g09.slc.cpg/sg10_47_cif.got.tgz:93815.got - 2010.06.27 22:07:45.
