data_PCOD8062738
_publ_section_title
;
Structure prediction by ZEFSAII (Michael W. Deem and Ramdas Pophale) SiO2 
 PCOD8062738
Probable space group: P 2/M
;
_chemical_formula_sum "Si O2"
_cell_formula_units_Z 24
_cell_length_a 7.808552
_cell_length_b 7.916022
_cell_length_c 22.056270
_cell_angle_alpha 90.000000
_cell_angle_beta 122.403257
_cell_angle_gamma 90.000000
_cell_volume 1151.078796
_symmetry_space_group_name_H-M "P 2/M"
_symmetry_group_IT_number 10
_symmetry_cell_setting 'monoclinic'
loop_
_space_group_symop_operation_xyz
x,y,z
-x,y,-z
-x,-y,-z
x,-y,z
loop_
_atom_site_type_symbol
_atom_site_label
_atom_site_fract_x
_atom_site_fract_y
_atom_site_fract_z
Si Si1 0.786723 0.686826 0.325347
Si Si2 0.616959 0.700112 0.081822
Si Si3 0.673550 0.000000 0.581827
Si Si4 0.810744 0.309780 0.674518
Si Si5 0.076726 0.000000 0.582673
Si Si6 0.453362 0.190024 0.177552
Si Si7 0.927579 0.304315 0.832709
O O1 0.796952 0.500000 0.357769
O O2 0.580820 0.693373 0.247545
O O3 0.968515 0.711543 0.312614
O O4 0.793285 0.829975 0.379102
O O5 0.623351 0.500000 0.088495
O O6 0.495882 0.770121 0.116009
O O7 0.846000 0.773281 0.122704
O O8 0.500000 0.761934 0.000000
O O9 0.500000 0.000000 0.500000
O O10 0.654725 0.170959 0.618205
O O11 0.887475 0.000000 0.590461
O O12 0.726393 0.500000 0.646670
O O13 0.829326 0.272410 0.748720
O O14 0.000000 0.000000 0.500000
O O15 0.213871 0.214864 0.144242
O O16 0.520104 0.000000 0.204016
O O17 0.938454 0.500000 0.851286
#
# Coordination Sequence:
#
# PCOD8062738 Si02
#       7
#     4   4   2   4   2   4   4
#     4  10  19  38  63  87 119 162 212 262 314 373
#     4  10  22  42  66  90 124 168 212 267 325 376
#     4  10  22  36  56  84 120 161 196 251 309 373
#     4   9  19  36  61  86 114 158 208 257 308 367
#     4  10  22  38  56  88 126 159 208 251 313 385
#     4  12  24  37  61  94 126 164 213 265 316 380
#     4  10  21  38  62  92 120 159 214 263 312 377
#
# _framework density 20.850004999999999
#
# number of rings (size 3 to 8) (size 9 to 14) (size 15 to 20)
#    0.000    1.833    2.500    1.500    1.167    3.667 
#    0.000    3.333    0.000    0.000    0.000    0.000 
#    0.000    0.000    0.000    0.000    0.000    0.000 
#
# Total GULP energy -297615.032086 kJ/mol
# GULP energy per Si atom -12400.626337 kJ/mol
# Density = 2.080255 g / cm^3
# Si number density = 20.850005 Si / 1000 Ang^3
#
#
#
# Elastic Constant Matrix: (Units=GPa)
#
#
# Indices 1 2 3 4 5 6 
#
# 1 110.1641 40.3010 55.4650 0.0000 -4.9055 0.0000
# 2 40.3010 127.4529 69.8374 0.0000 -3.0477 0.0000
# 3 55.4650 69.8374 118.3840 0.0000 -3.2109 0.0000
# 4 0.0000 0.0000 0.0000 27.3214 0.0000 -0.9314
# 5 -4.9055 -3.0477 -3.2109 0.0000 24.7741 0.0000
# 6 0.0000 0.0000 0.0000 -0.9314 0.0000 14.1221
#
#
#
# Elastic Compliance Matrix: (Units=1/GPa)
#
#
# Indices 1 2 3 4 5 6 
#
# 1 0.012038 -0.001037 -0.004985 0.000000 0.001610 0.000000
# 2 -0.001037 0.011690 -0.006400 0.000000 0.000403 0.000000
# 3 -0.004985 -0.006400 0.014561 0.000000 0.000113 0.000000
# 4 0.000000 0.000000 0.000000 0.036684 0.000000 0.002419
# 5 0.001610 0.000403 0.000113 0.000000 0.040748 0.000000
# 6 0.000000 0.000000 0.000000 0.002419 0.000000 0.070970
#
#
# Mechanical properties :
#
#
# Convention : Reuss Voigt Hill
#
# Bulk Modulus (GPa) = 74.36647 76.35643 75.36145
# Shear Modulus (GPa) = 23.14645 25.93669 24.54157
#
# Velocity S-wave (km/s) = 3.33549 3.53082 3.43454
# Velocity P-wave (km/s) = 7.11188 7.30229 7.20771
#
# Compressibility (1/GPa) = 0.01344692
#
# Stress axis : x y z
#
# Youngs Moduli (GPa) = 83.07010 85.54223 68.67659
#
# Poissons Ratio (x) = 0.08866 0.34235
# Poissons Ratio (y) = 0.08610 0.43951
# Poissons Ratio (z) = 0.41410 0.54745
#
# Static dielectric constant tensor:
#      x y z
#    x 3.770050 0.000000 0.004300 
#    y 0.000000 3.993710 0.000000 
#    z 0.004300 0.000000 3.427910 
# 
# 
# High freq. dielectric constant tensor:
#      x y z
#    x 1.815850 0.000000 -0.000370 
#    y 0.000000 1.822180 0.000000 
#    z -0.000370 0.000000 1.798130 
# 
# From -- ./inp_files/82081.got.cif
#   From: 2010.06.25/outbox.cif.g09.slc.cpg/sg10_42_cif.got.tgz:82081.got - 2010.06.27 22:07:45.
