data_PCOD8062012
_publ_section_title
;
Structure prediction by ZEFSAII (Michael W. Deem and Ramdas Pophale) SiO2 
 PCOD8062012
Probable space group: P 2/M
;
_chemical_formula_sum "Si O2"
_cell_formula_units_Z 28
_cell_length_a 10.067405
_cell_length_b 9.084082
_cell_length_c 30.616275
_cell_angle_alpha 90.000000
_cell_angle_beta 147.159394
_cell_angle_gamma 90.000000
_cell_volume 1518.425807
_symmetry_space_group_name_H-M "P 2/M"
_symmetry_group_IT_number 10
_symmetry_cell_setting 'monoclinic'
loop_
_space_group_symop_operation_xyz
x,y,z
-x,y,-z
-x,-y,-z
x,-y,z
loop_
_atom_site_type_symbol
_atom_site_label
_atom_site_fract_x
_atom_site_fract_y
_atom_site_fract_z
Si Si1 0.326488 0.326249 0.342393
Si Si2 0.891433 0.325886 0.097100
Si Si3 0.193925 0.169907 0.674335
Si Si4 0.549553 0.673766 0.080911
Si Si5 0.659801 0.828473 0.746316
Si Si6 0.344699 0.827469 0.499557
Si Si7 0.804582 0.326798 0.236632
O O1 0.355126 0.500000 0.345500
O O2 0.314881 0.258130 0.291490
O O3 0.557303 0.261047 0.431827
O O4 0.081293 0.283047 0.300705
O O5 0.944971 0.500000 0.113234
O O6 0.745136 0.269820 0.099407
O O7 0.144447 0.236374 0.164999
O O8 0.727588 0.283077 0.009328
O O9 0.390661 0.199199 0.691081
O O10 0.273232 0.254905 0.739603
O O11 0.932978 0.225445 0.584424
O O12 0.175721 0.000000 0.682273
O O13 0.575599 0.500000 0.087896
O O14 0.620341 0.734996 0.148246
O O15 0.709844 0.000000 0.752344
O O16 0.500000 0.784629 0.500000
O O17 0.362879 0.000000 0.515077
O O18 0.776623 0.500000 0.233993
#
# Coordination Sequence:
#
# PCOD8062012 Si02
#       7
#     4   4   4   4   4   4   4
#     4  11  22  36  59  86 112 141 182 230 276 326
#     4   9  16  32  57  81 110 144 181 227 274 321
#     4  10  23  40  56  78 111 151 185 222 275 332
#     4   8  15  30  55  84 110 140 179 227 276 320
#     4  11  23  38  55  79 115 151 184 222 273 331
#     4  10  20  37  60  82 108 144 187 228 273 325
#     4  10  19  34  57  85 110 139 182 229 273 324
#
# _framework density 18.440149999999999
#
# number of rings (size 3 to 8) (size 9 to 14) (size 15 to 20)
#    0.000    2.143    2.857    1.714    0.000    3.143 
#    0.000    5.714    0.000    4.286    0.000    0.000 
#    0.000    0.000    0.000    0.000    0.000    0.000 
#
# Total GULP energy -347210.324803 kJ/mol
# GULP energy per Si atom -12400.368743 kJ/mol
# Density = 1.839818 g / cm^3
# Si number density = 18.440150 Si / 1000 Ang^3
#
#
#
# Elastic Constant Matrix: (Units=GPa)
#
#
# Indices 1 2 3 4 5 6 
#
# 1 44.3466 30.6548 22.3780 0.0000 2.5662 0.0000
# 2 30.6548 52.8703 39.8976 0.0000 -1.0453 0.0000
# 3 22.3780 39.8976 131.0099 0.0000 -0.5442 0.0000
# 4 0.0000 0.0000 0.0000 22.4316 0.0000 2.3350
# 5 2.5662 -1.0453 -0.5442 0.0000 31.0931 0.0000
# 6 0.0000 0.0000 0.0000 2.3350 0.0000 24.3601
#
#
#
# Elastic Compliance Matrix: (Units=1/GPa)
#
#
# Indices 1 2 3 4 5 6 
#
# 1 0.038106 -0.022393 0.000295 0.000000 -0.003893 0.000000
# 2 -0.022393 0.037733 -0.007654 0.000000 0.002983 0.000000
# 3 0.000295 -0.007654 0.009913 0.000000 -0.000108 0.000000
# 4 0.000000 0.000000 0.000000 0.045029 0.000000 -0.004316
# 5 -0.003893 0.002983 -0.000108 0.000000 0.032581 0.000000
# 6 0.000000 0.000000 0.000000 -0.004316 0.000000 0.041464
#
#
# Mechanical properties :
#
#
# Convention : Reuss Voigt Hill
#
# Bulk Modulus (GPa) = 38.10003 46.00972 42.05487
# Shear Modulus (GPa) = 18.30964 24.59672 21.45318
#
# Velocity S-wave (km/s) = 3.15449 3.65618 3.41456
# Velocity P-wave (km/s) = 5.82872 6.54435 6.19688
#
# Compressibility (1/GPa) = 0.02624670
#
# Stress axis : x y z
#
# Youngs Moduli (GPa) = 26.24278 26.50217 100.87682
#
# Poissons Ratio (x) = 0.59347 -0.02972
# Poissons Ratio (y) = 0.58766 0.77208
# Poissons Ratio (z) = -0.00773 0.20284
#
# Static dielectric constant tensor:
#      x y z
#    x 3.201930 0.000000 -0.007800 
#    y 0.000000 3.191230 0.000000 
#    z -0.007800 0.000000 3.812250 
# 
# 
# High freq. dielectric constant tensor:
#      x y z
#    x 1.694970 0.000000 -0.002550 
#    y 0.000000 1.698000 0.000000 
#    z -0.002550 0.000000 1.733940 
# 
# From -- ./inp_files/36960.got.cif
#   From: 2010.06.25/outbox.cif.g09.slc.cpg/sg10_19_cif.got.tgz:36960.got - 2010.06.27 22:07:45.
