data_PCOD8062827
_publ_section_title
;
Structure prediction by ZEFSAII (Michael W. Deem and Ramdas Pophale) SiO2 
 PCOD8062827
Probable space group: P 2/M
;
_chemical_formula_sum "Si O2"
_cell_formula_units_Z 28
_cell_length_a 9.116951
_cell_length_b 15.049777
_cell_length_c 15.285035
_cell_angle_alpha 90.000000
_cell_angle_beta 53.383019
_cell_angle_gamma 90.000000
_cell_volume 1683.322465
_symmetry_space_group_name_H-M "P 2/M"
_symmetry_group_IT_number 10
_symmetry_cell_setting 'monoclinic'
loop_
_space_group_symop_operation_xyz
x,y,z
-x,y,-z
-x,-y,-z
x,-y,z
loop_
_atom_site_type_symbol
_atom_site_label
_atom_site_fract_x
_atom_site_fract_y
_atom_site_fract_z
Si Si1 0.460951 0.268779 0.870999
Si Si2 0.202948 0.731221 0.129002
Si Si3 0.035273 0.097758 0.129459
Si Si4 0.544458 0.395894 0.284830
Si Si5 0.834176 0.605622 0.500000
Si Si6 0.705809 0.097758 0.129459
Si Si7 0.885882 0.604107 0.284831
O O1 0.664791 0.278348 0.835209
O O2 0.418224 0.347856 0.819794
O O3 0.446935 0.173762 0.826593
O O4 0.312657 0.276277 1.000000
O O5 0.100120 0.826238 0.173407
O O6 0.057812 0.652144 0.180206
O O7 0.828751 0.117887 0.171249
O O8 0.044345 0.000000 0.171418
O O9 0.166330 0.097815 0.000000
O O10 0.532852 0.500000 0.268689
O O11 0.356538 0.359344 0.393206
O O12 0.704952 0.373653 0.295048
O O13 0.832628 0.500000 0.499996
O O14 0.857050 0.640658 0.393206
O O15 0.000000 0.642612 0.500000
O O16 0.612818 0.000000 0.171417
O O17 0.929769 0.500000 0.268690
#
# Coordination Sequence:
#
# PCOD8062827 Si02
#       7
#     4   4   4   4   4   4   4
#     4  10  20  31  44  66  96 127 157 190 230 276
#     4  10  20  31  44  66  96 127 157 190 230 276
#     4   8  14  26  44  64  87 117 152 189 228 270
#     4  10  20  33  49  68  91 121 157 194 230 271
#     4   9  17  31  51  71  90 113 146 191 237 275
#     4   8  14  26  44  64  87 117 152 189 228 270
#     4  10  20  33  49  68  91 121 157 194 230 271
#
# _framework density 16.633772
#
# number of rings (size 3 to 8) (size 9 to 14) (size 15 to 20)
#    0.000    2.714    0.000    3.000    0.000    6.286 
#    0.000    5.714    0.000    0.000    0.000    1.000 
#    0.000    8.000    0.000    0.000    0.000    0.000 
#
# Total GULP energy -347136.490529 kJ/mol
# GULP energy per Si atom -12397.731805 kJ/mol
# Density = 1.659591 g / cm^3
# Si number density = 16.633772 Si / 1000 Ang^3
#
#
#
# Elastic Constant Matrix: (Units=GPa)
#
#
# Indices 1 2 3 4 5 6 
#
# 1 132.5643 63.6701 42.6685 0.0000 -0.9077 0.0000
# 2 63.6701 78.8968 35.6382 0.0000 -0.7628 0.0000
# 3 42.6685 35.6382 45.0372 0.0000 -1.4745 0.0000
# 4 0.0000 0.0000 0.0000 2.7836 0.0000 -0.6905
# 5 -0.9077 -0.7628 -1.4745 0.0000 28.2639 0.0000
# 6 0.0000 0.0000 0.0000 -0.6905 0.0000 28.1549
#
#
#
# Elastic Compliance Matrix: (Units=1/GPa)
#
#
# Indices 1 2 3 4 5 6 
#
# 1 0.013424 -0.007918 -0.006456 0.000000 -0.000119 0.000000
# 2 -0.007918 0.024398 -0.011812 0.000000 -0.000212 0.000000
# 3 -0.006456 -0.011812 0.037714 0.000000 0.001441 0.000000
# 4 0.000000 0.000000 0.000000 0.361449 0.000000 0.008865
# 5 -0.000119 -0.000212 0.001441 0.000000 0.035446 0.000000
# 6 0.000000 0.000000 0.000000 0.008865 0.000000 0.035735
#
#
# Mechanical properties :
#
#
# Convention : Reuss Voigt Hill
#
# Bulk Modulus (GPa) = 43.16957 60.05022 51.60989
# Shear Modulus (GPa) = 8.79881 19.47525 14.13703
#
# Velocity S-wave (km/s) = 2.30244 3.42545 2.91847
# Velocity P-wave (km/s) = 5.75131 7.19893 6.51545
#
# Compressibility (1/GPa) = 0.02316447
#
# Stress axis : x y z
#
# Youngs Moduli (GPa) = 74.49562 40.98707 26.51512
#
# Poissons Ratio (x) = 0.32453 0.17118
# Poissons Ratio (y) = 0.58984 0.31319
# Poissons Ratio (z) = 0.48095 0.48413
#
# Static dielectric constant tensor:
#      x y z
#    x 3.333020 0.000000 -0.013390 
#    y 0.000000 3.220880 0.000000 
#    z -0.013390 0.000000 2.840770 
# 
# 
# High freq. dielectric constant tensor:
#      x y z
#    x 1.655200 0.000000 -0.001440 
#    y 0.000000 1.630170 0.000000 
#    z -0.001440 0.000000 1.602260 
# 
# From -- ./inp_files/25437.got.cif
#   From: 2010.06.25/outbox.cif.g09.slc.cpg/sg10_13_cif.got.tgz:25437.got - 2010.06.27 22:07:45.
