data_PCOD8062462
_publ_section_title
;
Structure prediction by ZEFSAII (Michael W. Deem and Ramdas Pophale) SiO2 
 PCOD8062462
Probable space group: P 2/M
;
_chemical_formula_sum "Si O2"
_cell_formula_units_Z 32
_cell_length_a 17.541182
_cell_length_b 15.229349
_cell_length_c 12.113671
_cell_angle_alpha 90.000000
_cell_angle_beta 29.611888
_cell_angle_gamma 90.000000
_cell_volume 1599.007091
_symmetry_space_group_name_H-M "P 2/M"
_symmetry_group_IT_number 10
_symmetry_cell_setting 'monoclinic'
loop_
_space_group_symop_operation_xyz
x,y,z
-x,y,-z
-x,-y,-z
x,-y,z
loop_
_atom_site_type_symbol
_atom_site_label
_atom_site_fract_x
_atom_site_fract_y
_atom_site_fract_z
Si Si1 0.888139 0.811989 0.346286
Si Si2 0.829711 0.766497 0.665280
Si Si3 0.324105 0.401961 0.217966
Si Si4 0.685327 0.341391 0.538829
Si Si5 0.574385 0.204488 0.156787
Si Si6 0.232549 0.222112 0.870293
Si Si7 0.673079 0.403174 0.318543
Si Si8 0.304575 0.098735 0.572468
O O1 0.821154 0.811445 0.555404
O O2 0.820626 0.730921 0.360322
O O3 0.834435 0.896363 0.342569
O O4 0.071378 0.811614 0.120121
O O5 0.782866 0.663761 0.717535
O O6 0.000000 0.774060 0.500000
O O7 0.707618 0.814825 0.898938
O O8 0.306656 0.500000 0.189735
O O9 0.274130 0.402234 0.408394
O O10 0.500000 0.369437 0.000000
O O11 0.519471 0.292302 0.757878
O O12 0.683304 0.405159 0.437520
O O13 0.642095 0.213286 0.193219
O O14 0.459021 0.121834 0.309014
O O15 0.216334 0.325961 0.864264
O O16 0.284913 0.166576 0.698248
O O17 0.500000 0.381632 0.500000
O O18 0.724360 0.500000 0.210379
O O19 0.313187 0.000000 0.608462
#
# Coordination Sequence:
#
# PCOD8062462 Si02
#       8
#     4   4   4   4   4   4   4   4
#     4  10  23  38  66  90 127 160 201 251 311 369
#     4  11  22  41  63  89 120 169 209 248 317 367
#     4  10  20  33  55  86 119 161 217 267 303 351
#     4  10  19  36  55  84 121 165 204 257 307 355
#     4  11  21  39  66  90 125 160 209 252 302 367
#     4  12  21  40  62  95 130 164 203 258 307 366
#     4  11  21  34  56  88 126 171 214 253 307 363
#     4  11  25  43  69  98 122 157 200 254 318 377
#
# _framework density 20.012418
#
# number of rings (size 3 to 8) (size 9 to 14) (size 15 to 20)
#    0.000    1.250    6.250    1.125    0.000    2.250 
#    0.000    5.625    0.000    0.750    0.000    0.000 
#    0.000    0.000    0.000    0.000    0.000    0.000 
#
# Total GULP energy -396673.784965 kJ/mol
# GULP energy per Si atom -12396.055780 kJ/mol
# Density = 1.996687 g / cm^3
# Si number density = 20.012418 Si / 1000 Ang^3
#
#
#
# Elastic Constant Matrix: (Units=GPa)
#
#
# Indices 1 2 3 4 5 6 
#
# 1 81.1259 27.7371 15.9816 0.0000 6.7188 0.0000
# 2 27.7371 93.9529 28.9528 0.0000 4.8645 0.0000
# 3 15.9816 28.9528 86.0568 0.0000 -0.1683 0.0000
# 4 0.0000 0.0000 0.0000 9.8264 0.0000 -2.0663
# 5 6.7188 4.8645 -0.1683 0.0000 33.7276 0.0000
# 6 0.0000 0.0000 0.0000 -2.0663 0.0000 16.3254
#
#
#
# Elastic Compliance Matrix: (Units=1/GPa)
#
#
# Indices 1 2 3 4 5 6 
#
# 1 0.014018 -0.003589 -0.001400 0.000000 -0.002282 0.000000
# 2 -0.003589 0.012896 -0.003674 0.000000 -0.001163 0.000000
# 3 -0.001400 -0.003674 0.013118 0.000000 0.000874 0.000000
# 4 0.000000 0.000000 0.000000 0.104550 0.000000 0.013233
# 5 -0.002282 -0.001163 0.000874 0.000000 0.030276 0.000000
# 6 0.000000 0.000000 0.000000 0.013233 0.000000 0.062929
#
#
# Mechanical properties :
#
#
# Convention : Reuss Voigt Hill
#
# Bulk Modulus (GPa) = 44.04311 45.16430 44.60371
# Shear Modulus (GPa) = 19.03435 24.54013 21.78724
#
# Velocity S-wave (km/s) = 3.08738 3.50558 3.30310
# Velocity P-wave (km/s) = 5.89618 6.24520 6.07320
#
# Compressibility (1/GPa) = 0.02270503
#
# Stress axis : x y z
#
# Youngs Moduli (GPa) = 71.33465 77.54518 76.22987
#
# Poissons Ratio (x) = 0.27830 0.10675
# Poissons Ratio (y) = 0.25601 0.28010
# Poissons Ratio (z) = 0.09990 0.28493
#
# Static dielectric constant tensor:
#      x y z
#    x 3.807340 0.000000 0.009580 
#    y 0.000000 3.391770 0.000000 
#    z 0.009580 0.000000 3.556630 
# 
# 
# High freq. dielectric constant tensor:
#      x y z
#    x 1.795160 0.000000 0.001730 
#    y 0.000000 1.752860 0.000000 
#    z 0.001730 0.000000 1.772510 
# 
# From -- ./inp_files/54019.got.cif
#   From: 2010.06.25/outbox.cif.g09.slc.cpg/sg10_28_cif.got.tgz:54019.got - 2010.06.27 22:07:45.
