data_PCOD8062391
_publ_section_title
;
Structure prediction by ZEFSAII (Michael W. Deem and Ramdas Pophale) SiO2 
 PCOD8062391
Probable space group: P 2/M
;
_chemical_formula_sum "Si O2"
_cell_formula_units_Z 24
_cell_length_a 10.584723
_cell_length_b 12.094681
_cell_length_c 23.930253
_cell_angle_alpha 90.000000
_cell_angle_beta 156.579632
_cell_angle_gamma 90.000000
_cell_volume 1217.671268
_symmetry_space_group_name_H-M "P 2/M"
_symmetry_group_IT_number 10
_symmetry_cell_setting 'monoclinic'
loop_
_space_group_symop_operation_xyz
x,y,z
-x,y,-z
-x,-y,-z
x,-y,z
loop_
_atom_site_type_symbol
_atom_site_label
_atom_site_fract_x
_atom_site_fract_y
_atom_site_fract_z
Si Si1 0.983553 0.500000 0.793059
Si Si2 0.772928 0.696804 0.959516
Si Si3 0.271638 0.875307 0.750396
Si Si4 0.186020 0.127447 0.340484
Si Si5 0.764838 0.122471 0.454753
Si Si6 0.534448 0.500000 0.107117
Si Si7 0.795561 0.728449 0.758411
O O1 0.767061 0.607307 0.718232
O O2 0.120811 0.500000 0.784570
O O3 0.274703 0.500000 0.953497
O O4 0.962168 0.728701 0.091988
O O5 0.573942 0.801570 0.857681
O O6 0.515208 0.603872 0.871811
O O7 0.000000 0.658751 0.000000
O O8 0.147000 0.857088 0.762479
O O9 0.960071 0.846198 0.588732
O O10 0.384256 0.000000 0.784421
O O11 0.500000 0.175766 0.500000
O O12 0.108682 0.187046 0.251144
O O13 0.257155 0.000000 0.356657
O O14 0.530106 0.224579 0.348225
O O15 0.000000 0.115824 0.500000
O O16 0.602097 0.000000 0.395726
#
# Coordination Sequence:
#
# PCOD8062391 Si02
#       7
#     2   4   4   4   4   2   4
#     4   9  20  36  59  89 115 143 192 245 297 347
#     4  11  23  38  59  86 116 153 197 241 286 344
#     4  10  21  36  55  84 119 150 187 240 291 342
#     4  10  19  35  60  85 111 150 196 239 286 348
#     4  10  20  36  58  82 115 162 201 230 282 352
#     4   9  19  40  61  80 112 156 194 234 289 355
#     4  11  21  37  60  85 116 153 193 245 297 343
#
# _framework density 19.709752000000002
#
# number of rings (size 3 to 8) (size 9 to 14) (size 15 to 20)
#    0.000    1.833    1.667    2.750    0.000    3.667 
#    0.000    3.333    0.000    0.000    0.000    0.000 
#    0.000    0.000    0.000    0.000    0.000    0.000 
#
# Total GULP energy -297414.331375 kJ/mol
# GULP energy per Si atom -12392.263807 kJ/mol
# Density = 1.966489 g / cm^3
# Si number density = 19.709752 Si / 1000 Ang^3
#
#
#
# Elastic Constant Matrix: (Units=GPa)
#
#
# Indices 1 2 3 4 5 6 
#
# 1 83.5218 31.2607 14.6283 0.0000 4.5802 0.0000
# 2 31.2607 116.2475 52.2267 0.0000 9.1621 0.0000
# 3 14.6283 52.2267 44.4421 0.0000 11.8399 0.0000
# 4 0.0000 0.0000 0.0000 28.2170 0.0000 9.1444
# 5 4.5802 9.1621 11.8399 0.0000 27.1935 0.0000
# 6 0.0000 0.0000 0.0000 9.1444 0.0000 34.5565
#
#
#
# Elastic Compliance Matrix: (Units=1/GPa)
#
#
# Indices 1 2 3 4 5 6 
#
# 1 0.013343 -0.003514 0.000024 0.000000 -0.001074 0.000000
# 2 -0.003514 0.019467 -0.022772 0.000000 0.003948 0.000000
# 3 0.000024 -0.022772 0.053406 0.000000 -0.015584 0.000000
# 4 0.000000 0.000000 0.000000 0.038764 0.000000 -0.010258
# 5 -0.001074 0.003948 -0.015584 0.000000 0.042410 0.000000
# 6 0.000000 0.000000 0.000000 -0.010258 0.000000 0.031653
#
#
# Mechanical properties :
#
#
# Convention : Reuss Voigt Hill
#
# Bulk Modulus (GPa) = 29.68110 48.93809 39.30959
# Shear Modulus (GPa) = 19.02611 27.73311 23.37961
#
# Velocity S-wave (km/s) = 3.11032 3.75517 3.44785
# Velocity P-wave (km/s) = 5.29061 6.60946 5.98647
#
# Compressibility (1/GPa) = 0.03369148
#
# Stress axis : x y z
#
# Youngs Moduli (GPa) = 74.94607 51.36886 18.72453
#
# Poissons Ratio (x) = 0.18053 -0.00045
# Poissons Ratio (y) = 0.26338 0.42639
# Poissons Ratio (z) = -0.00180 1.16977
#
# Static dielectric constant tensor:
#      x y z
#    x 3.670440 0.000000 0.173840 
#    y 0.000000 3.805230 0.000000 
#    z 0.173840 0.000000 3.279640 
# 
# 
# High freq. dielectric constant tensor:
#      x y z
#    x 1.790380 0.000000 0.001590 
#    y 0.000000 1.765230 0.000000 
#    z 0.001590 0.000000 1.737300 
# 
# From -- ./inp_files/92850.got.cif
#   From: 2010.06.25/outbox.cif.g09.slc.cpg/sg10_47_cif.got.tgz:92850.got - 2010.06.27 22:07:45.
