data_PCOD8062987
_publ_section_title
;
Structure prediction by ZEFSAII (Michael W. Deem and Ramdas Pophale) SiO2 
 PCOD8062987
Probable space group: P 2/M
;
_chemical_formula_sum "Si O2"
_cell_formula_units_Z 28
_cell_length_a 27.597853
_cell_length_b 9.140972
_cell_length_c 9.832908
_cell_angle_alpha 90.000000
_cell_angle_beta 38.525683
_cell_angle_gamma 90.000000
_cell_volume 1545.054647
_symmetry_space_group_name_H-M "P 2/M"
_symmetry_group_IT_number 10
_symmetry_cell_setting 'monoclinic'
loop_
_space_group_symop_operation_xyz
x,y,z
-x,y,-z
-x,-y,-z
x,-y,z
loop_
_atom_site_type_symbol
_atom_site_label
_atom_site_fract_x
_atom_site_fract_y
_atom_site_fract_z
Si Si1 0.181632 0.826420 0.203832
Si Si2 0.434882 0.673655 0.243181
Si Si3 0.730339 0.327367 0.493113
Si Si4 0.850402 0.173493 0.037626
Si Si5 0.300660 0.672174 0.132306
Si Si6 0.474343 0.326267 0.699871
Si Si7 0.984109 0.828799 0.381204
O O1 0.254501 0.749254 0.112535
O O2 0.103294 0.769682 0.457098
O O3 0.190111 0.000000 0.199443
O O4 0.177801 0.783072 0.052520
O O5 0.432843 0.500000 0.230832
O O6 0.350039 0.735637 0.392867
O O7 0.459325 0.723824 0.340117
O O8 0.500000 0.739146 0.000000
O O9 0.736559 0.500000 0.457094
O O10 0.800640 0.250937 0.262026
O O11 0.734398 0.287065 0.643648
O O12 0.844344 0.000000 0.069214
O O13 0.940207 0.229027 0.867613
O O14 0.296965 0.500000 0.114707
O O15 0.389384 0.729933 0.931128
O O16 0.500000 0.257793 0.500000
O O17 0.471553 0.500000 0.698881
O O18 0.000000 0.787276 0.500000
O O19 0.981425 0.000000 0.366602
#
# Coordination Sequence:
#
# PCOD8062987 Si02
#       7
#     4   4   4   4   4   4   4
#     4   9  18  33  54  76  98 127 163 203 249 295
#     4   9  15  28  47  66  92 128 166 201 236 279
#     4  10  20  32  49  74 103 133 165 201 243 291
#     4   9  18  33  54  77  98 124 164 208 245 289
#     4  10  20  33  48  73 106 133 161 200 247 294
#     4   9  17  28  45  70  96 124 163 206 242 281
#     4   7  12  28  52  73  93 122 162 204 241 284
#
# _framework density 18.122336000000001
#
# number of rings (size 3 to 8) (size 9 to 14) (size 15 to 20)
#    0.000    3.000    1.429    1.714    2.000    1.143 
#    0.000    1.429    0.000    8.571    0.000    0.000 
#    0.000    0.000    0.000    0.000    0.000    0.000 
#
# Total GULP energy -346871.679336 kJ/mol
# GULP energy per Si atom -12388.274262 kJ/mol
# Density = 1.808109 g / cm^3
# Si number density = 18.122336 Si / 1000 Ang^3
#
#
#
# Elastic Constant Matrix: (Units=GPa)
#
#
# Indices 1 2 3 4 5 6 
#
# 1 53.9456 13.7767 15.1031 0.0000 6.1553 0.0000
# 2 13.7767 20.6938 22.4443 0.0000 2.2872 0.0000
# 3 15.1031 22.4443 122.1474 0.0000 4.3889 0.0000
# 4 0.0000 0.0000 0.0000 113.0187 0.0000 32.5368
# 5 6.1553 2.2872 4.3889 0.0000 28.7158 0.0000
# 6 0.0000 0.0000 0.0000 32.5368 0.0000 31.4462
#
#
#
# Elastic Compliance Matrix: (Units=1/GPa)
#
#
# Indices 1 2 3 4 5 6 
#
# 1 0.022717 -0.014753 0.000035 0.000000 -0.003700 0.000000
# 2 -0.014753 0.070212 -0.011051 0.000000 -0.000741 0.000000
# 3 0.000035 -0.011051 0.010238 0.000000 -0.000692 0.000000
# 4 0.000000 0.000000 0.000000 0.012602 0.000000 -0.013039
# 5 -0.003700 -0.000741 -0.000692 0.000000 0.035782 0.000000
# 6 0.000000 0.000000 0.000000 -0.013039 0.000000 0.045292
#
#
# Mechanical properties :
#
#
# Convention : Reuss Voigt Hill
#
# Bulk Modulus (GPa) = 19.36838 33.27055 26.31947
# Shear Modulus (GPa) = 18.82605 44.33364 31.57985
#
# Velocity S-wave (km/s) = 3.22659 4.95143 4.17897
# Velocity P-wave (km/s) = 4.95903 7.14756 6.15140
#
# Compressibility (1/GPa) = 0.05163054
#
# Stress axis : x y z
#
# Youngs Moduli (GPa) = 44.01959 14.24254 97.67612
#
# Poissons Ratio (x) = 0.21011 -0.00340
# Poissons Ratio (y) = 0.64940 1.07938
# Poissons Ratio (z) = -0.00153 0.15739
#
# Static dielectric constant tensor:
#      x y z
#    x 3.444240 0.000000 -0.220960 
#    y 0.000000 2.785530 0.000000 
#    z -0.220960 0.000000 3.634010 
# 
# 
# High freq. dielectric constant tensor:
#      x y z
#    x 1.700540 0.000000 -0.013060 
#    y 0.000000 1.644400 0.000000 
#    z -0.013060 0.000000 1.714550 
# 
# From -- ./inp_files/37009.got.cif
#   From: 2010.06.25/outbox.cif.g09.slc.cpg/sg10_19_cif.got.tgz:37009.got - 2010.06.27 22:07:45.
