data_PCOD8062027
_publ_section_title
;
Structure prediction by ZEFSAII (Michael W. Deem and Ramdas Pophale) SiO2 
 PCOD8062027
Probable space group: P 2/M
;
_chemical_formula_sum "Si O2"
_cell_formula_units_Z 32
_cell_length_a 14.173021
_cell_length_b 8.840351
_cell_length_c 12.512001
_cell_angle_alpha 90.000000
_cell_angle_beta 90.311847
_cell_angle_gamma 90.000000
_cell_volume 1567.661444
_symmetry_space_group_name_H-M "P 2/M"
_symmetry_group_IT_number 10
_symmetry_cell_setting 'monoclinic'
loop_
_space_group_symop_operation_xyz
x,y,z
-x,y,-z
-x,-y,-z
x,-y,z
loop_
_atom_site_type_symbol
_atom_site_label
_atom_site_fract_x
_atom_site_fract_y
_atom_site_fract_z
Si Si1 0.466796 0.174173 0.617337
Si Si2 0.236207 0.666981 0.453315
Si Si3 0.007982 0.319401 0.162060
Si Si4 0.217622 0.678474 0.101139
Si Si5 0.818317 0.821258 0.110008
Si Si6 0.660086 0.171063 0.719218
Si Si7 0.029314 0.330168 0.392201
Si Si8 0.276322 0.324777 0.686469
O O1 0.500000 0.231243 0.500000
O O2 0.547777 0.191115 0.708430
O O3 0.382686 0.276087 0.661310
O O4 0.434040 0.000000 0.608143
O O5 0.283315 0.500000 0.446779
O O6 0.303493 0.789586 0.399718
O O7 0.141576 0.666493 0.383406
O O8 0.216084 0.705486 0.577620
O O9 0.000220 0.500000 0.152645
O O10 0.112194 0.265604 0.130151
O O11 0.989502 0.259194 0.283141
O O12 0.924474 0.244919 0.093265
O O13 0.221756 0.500000 0.086460
O O14 0.294877 0.722563 0.190373
O O15 0.243908 0.758784 0.989217
O O16 0.770001 0.770816 0.219507
O O17 0.822497 0.000000 0.106475
O O18 0.688314 0.000000 0.747187
O O19 0.987281 0.500000 0.399685
O O20 0.000000 0.239500 0.500000
O O21 0.274238 0.500000 0.720219
#
# Coordination Sequence:
#
# PCOD8062027 Si02
#       8
#     4   4   4   4   4   4   4   4
#     4  10  21  39  62  91 129 167 198 240 306 372
#     4  10  19  34  57  86 119 158 201 247 299 353
#     4  10  20  37  61  88 119 160 207 252 300 355
#     4  11  23  42  66  89 120 160 210 261 302 353
#     4  12  26  42  61  87 124 163 204 254 311 369
#     4  11  22  37  61  91 125 160 197 243 301 364
#     4   9  16  29  51  80 117 157 197 241 294 352
#     4  11  23  39  64  93 123 160 208 258 303 359
#
# _framework density 20.412569999999999
#
# number of rings (size 3 to 8) (size 9 to 14) (size 15 to 20)
#    0.000    1.500    2.500    3.375    0.000    6.250 
#    0.000    0.625    0.000    5.250    0.000    0.000 
#    0.000    0.000    0.000    0.000    0.000    0.000 
#
# Total GULP energy -396710.457455 kJ/mol
# GULP energy per Si atom -12397.201795 kJ/mol
# Density = 2.036611 g / cm^3
# Si number density = 20.412570 Si / 1000 Ang^3
#
#
#
# Elastic Constant Matrix: (Units=GPa)
#
#
# Indices 1 2 3 4 5 6 
#
# 1 57.3827 23.6909 17.6108 0.0000 11.0509 0.0000
# 2 23.6909 78.1766 31.8993 0.0000 5.9968 0.0000
# 3 17.6108 31.8993 106.2006 0.0000 16.8253 0.0000
# 4 0.0000 0.0000 0.0000 29.0546 0.0000 2.6152
# 5 11.0509 5.9968 16.8253 0.0000 23.9527 0.0000
# 6 0.0000 0.0000 0.0000 2.6152 0.0000 25.5695
#
#
#
# Elastic Compliance Matrix: (Units=1/GPa)
#
#
# Indices 1 2 3 4 5 6 
#
# 1 0.021500 -0.005656 -0.000584 0.000000 -0.008093 0.000000
# 2 -0.005656 0.016075 -0.004125 0.000000 0.001483 0.000000
# 3 -0.000584 -0.004125 0.011866 0.000000 -0.007033 0.000000
# 4 0.000000 0.000000 0.000000 0.034738 0.000000 -0.003553
# 5 -0.008093 0.001483 -0.007033 0.000000 0.050052 0.000000
# 6 0.000000 0.000000 0.000000 -0.003553 0.000000 0.039472
#
#
# Mechanical properties :
#
#
# Convention : Reuss Voigt Hill
#
# Bulk Modulus (GPa) = 34.83128 43.12911 38.98019
# Shear Modulus (GPa) = 24.50919 26.95263 25.73091
#
# Velocity S-wave (km/s) = 3.46886 3.63766 3.55426
# Velocity P-wave (km/s) = 5.75714 6.23041 5.99845
#
# Compressibility (1/GPa) = 0.02870983
#
# Stress axis : x y z
#
# Youngs Moduli (GPa) = 46.51182 62.20739 84.27149
#
# Poissons Ratio (x) = 0.35186 0.04923
# Poissons Ratio (y) = 0.26308 0.34766
# Poissons Ratio (z) = 0.02717 0.25664
#
# Static dielectric constant tensor:
#      x y z
#    x 3.610220 0.000000 0.095400 
#    y 0.000000 3.482260 0.000000 
#    z 0.095400 0.000000 3.902340 
# 
# 
# High freq. dielectric constant tensor:
#      x y z
#    x 1.788100 0.000000 0.011550 
#    y 0.000000 1.776800 0.000000 
#    z 0.011550 0.000000 1.810130 
# 
# From -- ./inp_files/49915.got.cif
#   From: 2010.06.25/outbox.cif.g09.slc.cpg/sg10_25_cif.got.tgz:49915.got - 2010.06.27 22:07:45.
