data_PCOD8062702
_publ_section_title
;
Structure prediction by ZEFSAII (Michael W. Deem and Ramdas Pophale) SiO2 
 PCOD8062702
Probable space group: P 2/M
;
_chemical_formula_sum "Si O2"
_cell_formula_units_Z 28
_cell_length_a 31.461703
_cell_length_b 7.809319
_cell_length_c 10.215147
_cell_angle_alpha 90.000000
_cell_angle_beta 145.208007
_cell_angle_gamma 90.000000
_cell_volume 1432.091843
_symmetry_space_group_name_H-M "P 2/M"
_symmetry_group_IT_number 10
_symmetry_cell_setting 'monoclinic'
loop_
_space_group_symop_operation_xyz
x,y,z
-x,y,-z
-x,-y,-z
x,-y,z
loop_
_atom_site_type_symbol
_atom_site_label
_atom_site_fract_x
_atom_site_fract_y
_atom_site_fract_z
Si Si1 0.821551 0.694154 0.148446
Si Si2 0.931050 0.000000 0.728657
Si Si3 0.325983 0.194551 0.814768
Si Si4 0.931172 0.000000 0.423079
Si Si5 0.338440 0.698602 0.355620
Si Si6 0.823277 0.690089 0.452929
Si Si7 0.418560 0.194941 0.811274
Si Si8 0.586977 0.300930 0.720396
O O1 0.850942 0.500000 0.198686
O O2 0.796965 0.718042 0.236912
O O3 0.885107 0.829082 0.272429
O O4 0.749807 0.731837 0.877826
O O5 0.955738 0.000000 0.638138
O O6 0.884418 0.169606 0.645167
O O7 0.000000 0.000000 0.000000
O O8 0.249262 0.296605 0.639744
O O9 0.371780 0.282217 0.810897
O O10 0.304235 0.000000 0.726319
O O11 0.376823 0.195324 0.071466
O O12 0.000000 0.000000 0.500000
O O13 0.356577 0.500000 0.422440
O O14 0.370307 0.801308 0.558139
O O15 0.379381 0.767664 0.330121
O O16 0.857879 0.500000 0.559448
O O17 0.432769 0.000000 0.889903
O O18 0.500000 0.284594 0.000000
O O19 0.500000 0.264801 0.500000
O O20 0.606466 0.500000 0.789774
#
# Coordination Sequence:
#
# PCOD8062702 Si02
#       8
#     4   2   4   2   4   4   4   4
#     4   9  19  36  60  89 119 150 193 239 281 347
#     4  10  22  42  64  92 125 148 188 236 277 354
#     4  11  21  35  56  82 114 154 203 248 292 350
#     4  10  22  40  64  92 115 156 186 218 297 346
#     4  10  20  35  55  81 110 148 196 241 290 346
#     4  10  19  37  64  89 119 157 191 236 295 345
#     4  10  23  39  52  75 116 161 199 247 304 350
#     4  10  20  33  53  82 112 144 192 252 296 339
#
# _framework density 19.551818000000001
#
# number of rings (size 3 to 8) (size 9 to 14) (size 15 to 20)
#    0.000    2.000    2.143    1.286    1.000    2.857 
#    2.571    0.000    0.000    0.000    0.000    0.000 
#    0.000    0.000    0.000    0.000    0.000    0.000 
#
# Total GULP energy -347231.177710 kJ/mol
# GULP energy per Si atom -12401.113490 kJ/mol
# Density = 1.950732 g / cm^3
# Si number density = 19.551818 Si / 1000 Ang^3
#
#
#
# Elastic Constant Matrix: (Units=GPa)
#
#
# Indices 1 2 3 4 5 6 
#
# 1 157.3657 41.5964 59.1917 0.0000 10.5260 0.0000
# 2 41.5964 90.8753 42.4519 0.0000 14.0652 0.0000
# 3 59.1917 42.4519 127.4115 0.0000 3.1109 0.0000
# 4 0.0000 0.0000 0.0000 10.0622 0.0000 -6.5279
# 5 10.5260 14.0652 3.1109 0.0000 29.3962 0.0000
# 6 0.0000 0.0000 0.0000 -6.5279 0.0000 12.4322
#
#
#
# Elastic Compliance Matrix: (Units=1/GPa)
#
#
# Indices 1 2 3 4 5 6 
#
# 1 0.008159 -0.002052 -0.003067 0.000000 -0.001615 0.000000
# 2 -0.002052 0.014612 -0.003772 0.000000 -0.005858 0.000000
# 3 -0.003067 -0.003772 0.010487 0.000000 0.001794 0.000000
# 4 0.000000 0.000000 0.000000 0.150726 0.000000 0.079143
# 5 -0.001615 -0.005858 0.001794 0.000000 0.037209 0.000000
# 6 0.000000 0.000000 0.000000 0.079143 0.000000 0.121992
#
#
# Mechanical properties :
#
#
# Convention : Reuss Voigt Hill
#
# Bulk Modulus (GPa) = 64.62120 73.57027 69.09573
# Shear Modulus (GPa) = 13.65651 25.87229 19.76440
#
# Velocity S-wave (km/s) = 2.64574 3.64162 3.18287
# Velocity P-wave (km/s) = 6.51585 7.44257 6.99458
#
# Compressibility (1/GPa) = 0.01547480
#
# Stress axis : x y z
#
# Youngs Moduli (GPa) = 122.56850 68.43667 95.35903
#
# Poissons Ratio (x) = 0.14041 0.29249
# Poissons Ratio (y) = 0.25147 0.35973
# Poissons Ratio (z) = 0.37595 0.25817
#
# Static dielectric constant tensor:
#      x y z
#    x 3.636450 0.000000 0.071090 
#    y 0.000000 3.606100 0.000000 
#    z 0.071090 0.000000 3.363750 
# 
# 
# High freq. dielectric constant tensor:
#      x y z
#    x 1.756050 0.000000 0.001740 
#    y 0.000000 1.762700 0.000000 
#    z 0.001740 0.000000 1.747170 
# 
# From -- ./inp_files/37411.got.cif
#   From: 2010.06.25/outbox.cif.g09.slc.cpg/sg10_19_cif.got.tgz:37411.got - 2010.06.27 22:07:45.
