data_PCOD8062529
_publ_section_title
;
Structure prediction by ZEFSAII (Michael W. Deem and Ramdas Pophale) SiO2 
 PCOD8062529
Probable space group: P 2/M
;
_chemical_formula_sum "Si O2"
_cell_formula_units_Z 28
_cell_length_a 27.030284
_cell_length_b 8.451410
_cell_length_c 9.365517
_cell_angle_alpha 90.000000
_cell_angle_beta 141.481129
_cell_angle_gamma 90.000000
_cell_volume 1332.419157
_symmetry_space_group_name_H-M "P 2/M"
_symmetry_group_IT_number 10
_symmetry_cell_setting 'monoclinic'
loop_
_space_group_symop_operation_xyz
x,y,z
-x,y,-z
-x,-y,-z
x,-y,z
loop_
_atom_site_type_symbol
_atom_site_label
_atom_site_fract_x
_atom_site_fract_y
_atom_site_fract_z
Si Si1 0.707491 0.814121 0.171886
Si Si2 0.571606 0.818822 0.256901
Si Si3 0.847174 0.313952 0.320628
Si Si4 0.533003 0.818444 0.715631
Si Si5 0.868733 0.686110 0.047425
Si Si6 0.733067 0.315947 0.532786
Si Si7 0.010709 0.185199 0.187125
O O1 0.756690 0.724203 0.160055
O O2 0.742777 0.776738 0.406993
O O3 0.713446 0.000000 0.157928
O O4 0.616535 0.747502 0.960979
O O5 0.541436 0.803777 0.348511
O O6 0.647216 0.708760 0.408546
O O7 0.592650 0.000000 0.260433
O O8 0.500000 0.753667 0.000000
O O9 0.864213 0.500000 0.367727
O O10 0.863350 0.247037 0.197141
O O11 0.901501 0.223946 0.558937
O O12 0.500000 0.731112 0.500000
O O13 0.552807 0.000000 0.726541
O O14 0.859358 0.500000 0.036398
O O15 0.951782 0.728547 0.163010
O O16 0.797686 0.754558 0.789158
O O17 0.747580 0.500000 0.535578
O O18 0.993539 0.000000 0.153840
O O19 0.000000 0.247660 0.000000
#
# Coordination Sequence:
#
# PCOD8062529 Si02
#       7
#     4   4   4   4   4   4   4
#     4  11  22  39  61  88 120 156 203 252 298 353
#     4  10  19  36  59  84 115 154 201 252 301 350
#     4  11  24  42  63  89 124 160 196 241 297 355
#     4   9  19  35  56  83 116 154 197 247 304 357
#     4  10  24  43  62  88 124 162 198 240 295 356
#     4  11  23  39  60  87 121 160 202 246 298 357
#     4  11  24  42  66  96 124 153 197 245 289 346
#
# _framework density 21.014409000000001
#
# number of rings (size 3 to 8) (size 9 to 14) (size 15 to 20)
#    0.000    1.571    1.429    3.000    2.000    7.714 
#    0.000    0.000    0.000    2.143    0.000    0.000 
#    0.000    0.000    0.000    0.000    0.000    0.000 
#
# Total GULP energy -347237.642752 kJ/mol
# GULP energy per Si atom -12401.344384 kJ/mol
# Density = 2.096658 g / cm^3
# Si number density = 21.014409 Si / 1000 Ang^3
#
#
#
# Elastic Constant Matrix: (Units=GPa)
#
#
# Indices 1 2 3 4 5 6 
#
# 1 121.3725 10.4554 37.3737 0.0000 -9.4515 0.0000
# 2 10.4554 20.8857 16.0794 0.0000 -7.3552 0.0000
# 3 37.3737 16.0794 105.0049 0.0000 -18.2712 0.0000
# 4 0.0000 0.0000 0.0000 23.1481 0.0000 5.3044
# 5 -9.4515 -7.3552 -18.2712 0.0000 41.7991 0.0000
# 6 0.0000 0.0000 0.0000 5.3044 0.0000 32.9504
#
#
#
# Elastic Compliance Matrix: (Units=1/GPa)
#
#
# Indices 1 2 3 4 5 6 
#
# 1 0.009366 -0.002296 -0.002905 0.000000 0.000444 0.000000
# 2 -0.002296 0.056473 -0.006702 0.000000 0.006489 0.000000
# 3 -0.002905 -0.006702 0.012191 0.000000 0.003493 0.000000
# 4 0.000000 0.000000 0.000000 0.044855 0.000000 -0.007221
# 5 0.000444 0.006489 0.003493 0.000000 0.026693 0.000000
# 6 0.000000 0.000000 0.000000 -0.007221 0.000000 0.031511
#
#
# Mechanical properties :
#
#
# Convention : Reuss Voigt Hill
#
# Bulk Modulus (GPa) = 18.44124 41.67556 30.05840
# Shear Modulus (GPa) = 22.42464 31.80316 27.11390
#
# Velocity S-wave (km/s) = 3.27021 3.89446 3.59591
# Velocity P-wave (km/s) = 4.80141 6.33225 5.61921
#
# Compressibility (1/GPa) = 0.05422629
#
# Stress axis : x y z
#
# Youngs Moduli (GPa) = 106.77051 17.70744 82.02639
#
# Poissons Ratio (x) = 0.04065 0.23826
# Poissons Ratio (y) = 0.24513 0.54970
# Poissons Ratio (z) = 0.31013 0.11867
#
# Static dielectric constant tensor:
#      x y z
#    x 3.887940 0.000000 -0.062350 
#    y 0.000000 3.480780 0.000000 
#    z -0.062350 0.000000 4.102510 
# 
# 
# High freq. dielectric constant tensor:
#      x y z
#    x 1.837090 0.000000 -0.002360 
#    y 0.000000 1.795700 0.000000 
#    z -0.002360 0.000000 1.835060 
# 
# From -- ./inp_files/37346.got.cif
#   From: 2010.06.25/outbox.cif.g09.slc.cpg/sg10_19_cif.got.tgz:37346.got - 2010.06.27 22:07:45.
