data_PCOD8062611
_publ_section_title
;
Structure prediction by ZEFSAII (Michael W. Deem and Ramdas Pophale) SiO2 
 PCOD8062611
Probable space group: P 2/M
;
_chemical_formula_sum "Si O2"
_cell_formula_units_Z 32
_cell_length_a 21.261667
_cell_length_b 9.103890
_cell_length_c 27.227059
_cell_angle_alpha 90.000000
_cell_angle_beta 18.661808
_cell_angle_gamma 90.000000
_cell_volume 1686.358705
_symmetry_space_group_name_H-M "P 2/M"
_symmetry_group_IT_number 10
_symmetry_cell_setting 'monoclinic'
loop_
_space_group_symop_operation_xyz
x,y,z
-x,y,-z
-x,-y,-z
x,-y,z
loop_
_atom_site_type_symbol
_atom_site_label
_atom_site_fract_x
_atom_site_fract_y
_atom_site_fract_z
Si Si1 0.147974 0.172052 0.527698
Si Si2 0.897781 0.825468 0.804074
Si Si3 0.696670 0.829853 0.324280
Si Si4 0.908490 0.670763 0.620265
Si Si5 0.484297 0.168913 0.069467
Si Si6 0.400916 0.829204 0.794104
Si Si7 0.941220 0.172844 0.880605
Si Si8 0.774206 0.326430 0.169128
O O1 0.377464 0.209685 0.355167
O O2 0.062097 0.227192 0.643578
O O3 0.040624 0.253232 0.563347
O O4 0.106338 0.000000 0.551975
O O5 0.945176 0.758578 0.822844
O O6 0.895188 0.000000 0.808453
O O7 0.684217 0.769450 0.945311
O O8 0.500000 0.806951 0.500000
O O9 0.672587 0.740472 0.292175
O O10 0.878569 0.763234 0.220849
O O11 0.732867 0.000000 0.284468
O O12 0.898913 0.500000 0.639701
O O13 0.690221 0.734231 0.780349
O O14 0.000000 0.703550 0.500000
O O15 0.446284 0.000000 0.112140
O O16 0.500000 0.187143 0.000000
O O17 0.340650 0.732330 0.792712
O O18 0.378220 0.000000 0.796630
O O19 0.264698 0.787659 0.941187
O O20 0.970915 0.000000 0.854314
O O21 0.755385 0.500000 0.184719
O O22 0.000000 0.274534 0.000000
#
# Coordination Sequence:
#
# PCOD8062611 Si02
#       8
#     4   4   4   4   4   4   4   4
#     4  10  21  38  61  88 115 147 191 241 291 344
#     4   9  18  33  55  85 118 144 179 237 296 347
#     4  10  21  36  60  89 116 150 195 246 298 342
#     4  11  25  41  57  82 120 160 196 237 286 341
#     4  10  19  36  62  88 112 146 192 242 293 339
#     4  10  21  36  60  88 114 148 192 241 291 341
#     4   9  18  33  53  84 118 145 182 237 292 343
#     4  11  23  39  59  82 115 159 197 235 288 345
#
# _framework density 18.975795999999999
#
# number of rings (size 3 to 8) (size 9 to 14) (size 15 to 20)
#    0.000    2.000    2.500    0.750    3.500    2.500 
#    0.000    0.000    0.000    1.500    0.000    0.000 
#    0.000    0.000    0.000    0.000    0.000    0.000 
#
# Total GULP energy -396884.746890 kJ/mol
# GULP energy per Si atom -12402.648340 kJ/mol
# Density = 1.893261 g / cm^3
# Si number density = 18.975796 Si / 1000 Ang^3
#
#
#
# Elastic Constant Matrix: (Units=GPa)
#
#
# Indices 1 2 3 4 5 6 
#
# 1 106.8088 31.8080 45.2724 0.0000 14.0289 0.0000
# 2 31.8080 44.6471 39.2018 0.0000 11.0691 0.0000
# 3 45.2724 39.2018 136.3999 0.0000 1.5845 0.0000
# 4 0.0000 0.0000 0.0000 68.3868 0.0000 -49.3177
# 5 14.0289 11.0691 1.5845 0.0000 25.6542 0.0000
# 6 0.0000 0.0000 0.0000 -49.3177 0.0000 67.2707
#
#
#
# Elastic Compliance Matrix: (Units=1/GPa)
#
#
# Indices 1 2 3 4 5 6 
#
# 1 0.012714 -0.005792 -0.002505 0.000000 -0.004299 0.000000
# 2 -0.005792 0.037138 -0.008608 0.000000 -0.012325 0.000000
# 3 -0.002505 -0.008608 0.010585 0.000000 0.004430 0.000000
# 4 0.000000 0.000000 0.000000 0.031026 0.000000 0.022746
# 5 -0.004299 -0.012325 0.004430 0.000000 0.046375 0.000000
# 6 0.000000 0.000000 0.000000 0.022746 0.000000 0.031541
#
#
# Mechanical properties :
#
#
# Convention : Reuss Voigt Hill
#
# Bulk Modulus (GPa) = 37.55654 57.82446 47.69050
# Shear Modulus (GPa) = 23.57748 43.70057 33.63903
#
# Velocity S-wave (km/s) = 3.52874 4.80413 4.21495
# Velocity P-wave (km/s) = 6.03634 7.83018 6.99104
#
# Compressibility (1/GPa) = 0.02662652
#
# Stress axis : x y z
#
# Youngs Moduli (GPa) = 78.65340 26.92634 94.47015
#
# Poissons Ratio (x) = 0.15597 0.23666
# Poissons Ratio (y) = 0.45560 0.81319
# Poissons Ratio (z) = 0.19704 0.23178
#
# Static dielectric constant tensor:
#      x y z
#    x 3.613260 0.000000 0.011480 
#    y 0.000000 3.167390 0.000000 
#    z 0.011480 0.000000 3.687680 
# 
# 
# High freq. dielectric constant tensor:
#      x y z
#    x 1.749690 0.000000 0.000830 
#    y 0.000000 1.701320 0.000000 
#    z 0.000830 0.000000 1.752560 
# 
# From -- ./inp_files/93584.got.cif
#   From: 2010.06.25/outbox.cif.g09.slc.cpg/sg10_47_cif.got.tgz:93584.got - 2010.06.27 22:07:45.
