data_PCOD8062660
_publ_section_title
;
Structure prediction by ZEFSAII (Michael W. Deem and Ramdas Pophale) SiO2 
 PCOD8062660
Probable space group: P 2/M
;
_chemical_formula_sum "Si O2"
_cell_formula_units_Z 32
_cell_length_a 9.721587
_cell_length_b 11.013415
_cell_length_c 31.634182
_cell_angle_alpha 90.000000
_cell_angle_beta 27.949357
_cell_angle_gamma 90.000000
_cell_volume 1587.458393
_symmetry_space_group_name_H-M "P 2/M"
_symmetry_group_IT_number 10
_symmetry_cell_setting 'monoclinic'
loop_
_space_group_symop_operation_xyz
x,y,z
-x,y,-z
-x,-y,-z
x,-y,z
loop_
_atom_site_type_symbol
_atom_site_label
_atom_site_fract_x
_atom_site_fract_y
_atom_site_fract_z
Si Si1 0.171324 0.133679 0.913988
Si Si2 0.750389 0.283705 0.749758
Si Si3 0.090543 0.861671 0.523344
Si Si4 0.874453 0.637379 0.191831
Si Si5 0.235896 0.360445 0.345500
Si Si6 0.715069 0.207252 0.976226
Si Si7 0.338235 0.137322 0.585407
Si Si8 0.686205 0.633891 0.859008
O O1 0.459458 0.204406 0.822074
O O2 0.951402 0.118980 0.933524
O O3 0.271984 0.000000 0.900856
O O4 0.000000 0.196471 0.000000
O O5 0.779256 0.369011 0.701140
O O6 0.714082 0.363915 0.801192
O O7 0.040678 0.204895 0.677427
O O8 0.442584 0.856278 0.433812
O O9 0.000000 0.837427 0.500000
O O10 0.975918 0.748094 0.582019
O O11 0.984424 0.000000 0.565906
O O12 0.841029 0.500000 0.186678
O O13 0.548665 0.691236 0.276796
O O14 0.111152 0.689349 0.095416
O O15 0.992196 0.655135 0.207587
O O16 0.164300 0.500000 0.381384
O O17 0.500000 0.141584 0.000000
O O18 0.534548 0.265210 0.063872
O O19 0.500000 0.192789 0.500000
O O20 0.246768 0.000000 0.599684
O O21 0.572045 0.500000 0.903019
#
# Coordination Sequence:
#
# PCOD8062660 Si02
#       8
#     4   4   4   4   4   4   4   4
#     4  11  23  39  56  83 121 161 204 254 309 363
#     4  12  22  38  61  88 122 160 201 248 303 364
#     4  10  23  44  68  92 121 155 205 256 302 365
#     4   9  19  36  57  84 120 158 198 246 295 358
#     4  11  23  39  62  94 129 160 200 249 310 370
#     4  10  19  37  60  83 113 155 203 249 296 355
#     4  10  21  40  64  88 115 158 204 250 300 361
#     4  10  21  36  57  85 118 158 201 245 298 359
#
# _framework density 20.158007000000001
#
# number of rings (size 3 to 8) (size 9 to 14) (size 15 to 20)
#    0.000    1.625    3.750    1.125    1.750    2.500 
#    0.000    2.500    0.000    0.000    0.000    0.000 
#    0.000    0.000    0.000    0.000    0.000    0.000 
#
# Total GULP energy -396496.222524 kJ/mol
# GULP energy per Si atom -12390.506954 kJ/mol
# Density = 2.011213 g / cm^3
# Si number density = 20.158007 Si / 1000 Ang^3
#
#
#
# Elastic Constant Matrix: (Units=GPa)
#
#
# Indices 1 2 3 4 5 6 
#
# 1 126.4684 20.9173 26.8540 0.0000 -8.6145 0.0000
# 2 20.9173 76.9649 33.2881 0.0000 -1.5947 0.0000
# 3 26.8540 33.2881 73.4368 0.0000 -12.3454 0.0000
# 4 0.0000 0.0000 0.0000 13.0334 0.0000 -1.6509
# 5 -8.6145 -1.5947 -12.3454 0.0000 36.3601 0.0000
# 6 0.0000 0.0000 0.0000 -1.6509 0.0000 24.1912
#
#
#
# Elastic Compliance Matrix: (Units=1/GPa)
#
#
# Indices 1 2 3 4 5 6 
#
# 1 0.008713 -0.001309 -0.002392 0.000000 0.001195 0.000000
# 2 -0.001309 0.016481 -0.007342 0.000000 -0.002080 0.000000
# 3 -0.002392 -0.007342 0.018740 0.000000 0.005474 0.000000
# 4 0.000000 0.000000 0.000000 0.077395 0.000000 0.005282
# 5 0.001195 -0.002080 0.005474 0.000000 0.029553 0.000000
# 6 0.000000 0.000000 0.000000 0.005282 0.000000 0.041698
#
#
# Mechanical properties :
#
#
# Convention : Reuss Voigt Hill
#
# Bulk Modulus (GPa) = 45.76874 48.77652 47.27263
# Shear Modulus (GPa) = 22.52784 27.77097 25.14941
#
# Velocity S-wave (km/s) = 3.34662 3.71572 3.53599
# Velocity P-wave (km/s) = 6.13901 6.53134 6.33821
#
# Compressibility (1/GPa) = 0.02184898
#
# Stress axis : x y z
#
# Youngs Moduli (GPa) = 114.77291 60.67640 53.36165
#
# Poissons Ratio (x) = 0.07940 0.12764
# Poissons Ratio (y) = 0.15019 0.39177
# Poissons Ratio (z) = 0.27454 0.44547
#
# Static dielectric constant tensor:
#      x y z
#    x 4.009500 0.000000 -0.180020 
#    y 0.000000 3.436060 0.000000 
#    z -0.180020 0.000000 3.497450 
# 
# 
# High freq. dielectric constant tensor:
#      x y z
#    x 1.808870 0.000000 -0.013620 
#    y 0.000000 1.771930 0.000000 
#    z -0.013620 0.000000 1.769060 
# 
# From -- ./inp_files/94641.got.cif
#   From: 2010.06.25/outbox.cif.g09.slc.cpg/sg10_48_cif.got.tgz:94641.got - 2010.06.27 22:07:45.
