data_PCOD8062911
_publ_section_title
;
Structure prediction by ZEFSAII (Michael W. Deem and Ramdas Pophale) SiO2 
 PCOD8062911
Probable space group: P 2/M
;
_chemical_formula_sum "Si O2"
_cell_formula_units_Z 32
_cell_length_a 21.292893
_cell_length_b 9.103173
_cell_length_c 11.700968
_cell_angle_alpha 90.000000
_cell_angle_beta 58.381938
_cell_angle_gamma 90.000000
_cell_volume 1931.369572
_symmetry_space_group_name_H-M "P 2/M"
_symmetry_group_IT_number 10
_symmetry_cell_setting 'monoclinic'
loop_
_space_group_symop_operation_xyz
x,y,z
-x,y,-z
-x,-y,-z
x,-y,z
loop_
_atom_site_type_symbol
_atom_site_label
_atom_site_fract_x
_atom_site_fract_y
_atom_site_fract_z
Si Si1 0.861786 0.670504 0.873821
Si Si2 0.870717 0.174074 0.395221
Si Si3 0.439907 0.671936 0.689465
Si Si4 0.574853 0.828970 0.537466
Si Si5 0.278429 0.669408 0.854120
Si Si6 0.915193 0.672667 0.576364
Si Si7 0.737683 0.829956 0.367921
Si Si8 0.011432 0.173479 0.117245
O O1 0.881264 0.500000 0.868763
O O2 0.874478 0.720026 0.731589
O O3 0.913744 0.758835 0.908623
O O4 0.777815 0.706222 0.989764
O O5 0.870853 0.246408 0.519190
O O6 0.799482 0.233394 0.394227
O O7 0.943079 0.226892 0.258734
O O8 0.868105 0.000000 0.412352
O O9 0.458729 0.500000 0.671433
O O10 0.509361 0.760863 0.680820
O O11 0.429707 0.733035 0.572079
O O12 0.360796 0.704726 0.824643
O O13 0.657820 0.807147 0.505865
O O14 0.558865 0.000000 0.528992
O O15 0.274170 0.500000 0.822099
O O16 0.257305 0.757093 0.760676
O O17 0.911370 0.500000 0.557298
O O18 0.000000 0.726332 0.500000
O O19 0.753415 0.000000 0.329923
O O20 0.019492 0.000000 0.112529
O O21 0.000000 0.230971 0.000000
#
# Coordination Sequence:
#
# PCOD8062911 Si02
#       8
#     4   4   4   4   4   4   4   4
#     4  10  20  34  49  66  90 119 153 190 229 269
#     4  10  20  33  49  68  91 119 152 189 229 269
#     4   9  15  24  39  61  90 120 150 181 216 260
#     4   9  15  24  40  62  89 121 152 178 214 263
#     4   9  18  30  45  67  94 124 153 185 225 271
#     4  10  20  35  52  68  87 115 153 197 236 270
#     4   9  18  31  46  67  96 125 151 185 225 270
#     4  10  20  32  47  68  93 120 149 181 222 272
#
# _framework density 16.568553999999999
#
# number of rings (size 3 to 8) (size 9 to 14) (size 15 to 20)
#    0.000    2.500    1.250    2.250    0.000    4.000 
#    0.000    0.000    0.000    0.000    0.000    0.875 
#    0.000    7.000    0.000    0.000    0.000    0.000 
#
# Total GULP energy -396591.465596 kJ/mol
# GULP energy per Si atom -12393.483300 kJ/mol
# Density = 1.653084 g / cm^3
# Si number density = 16.568554 Si / 1000 Ang^3
#
#
#
# Elastic Constant Matrix: (Units=GPa)
#
#
# Indices 1 2 3 4 5 6 
#
# 1 68.9611 22.3210 60.7328 0.0000 -21.6540 0.0000
# 2 22.3210 33.0044 27.3133 0.0000 -4.9491 0.0000
# 3 60.7328 27.3133 107.8078 0.0000 -11.5568 0.0000
# 4 0.0000 0.0000 0.0000 17.6353 0.0000 -6.4191
# 5 -21.6540 -4.9491 -11.5568 0.0000 30.7124 0.0000
# 6 0.0000 0.0000 0.0000 -6.4191 0.0000 75.3599
#
#
#
# Elastic Compliance Matrix: (Units=1/GPa)
#
#
# Indices 1 2 3 4 5 6 
#
# 1 0.039021 -0.008867 -0.017652 0.000000 0.019441 0.000000
# 2 -0.008867 0.040556 -0.005470 0.000000 -0.001775 0.000000
# 3 -0.017652 -0.005470 0.019983 0.000000 -0.005808 0.000000
# 4 0.000000 0.000000 0.000000 0.058519 0.000000 0.004985
# 5 0.019441 -0.001775 -0.005808 0.000000 0.043796 0.000000
# 6 0.000000 0.000000 0.000000 0.004985 0.000000 0.013694
#
#
# Mechanical properties :
#
#
# Convention : Reuss Voigt Hill
#
# Bulk Modulus (GPa) = 28.10332 47.83419 37.96875
# Shear Modulus (GPa) = 17.15807 31.36860 24.26334
#
# Velocity S-wave (km/s) = 3.22153 4.35588 3.83093
# Velocity P-wave (km/s) = 5.55305 7.36420 6.52180
#
# Compressibility (1/GPa) = 0.03558299
#
# Stress axis : x y z
#
# Youngs Moduli (GPa) = 25.62721 24.65696 50.04230
#
# Poissons Ratio (x) = 0.21863 0.88333
# Poissons Ratio (y) = 0.22723 0.27374
# Poissons Ratio (z) = 0.45237 0.13488
#
# Static dielectric constant tensor:
#      x y z
#    x 3.544680 0.000000 -0.601950 
#    y 0.000000 3.092920 0.000000 
#    z -0.601950 0.000000 3.306220 
# 
# 
# High freq. dielectric constant tensor:
#      x y z
#    x 1.632060 0.000000 -0.032970 
#    y 0.000000 1.639500 0.000000 
#    z -0.032970 0.000000 1.616720 
# 
# From -- ./inp_files/54789.got.cif
#   From: 2010.06.25/outbox.cif.g09.slc.cpg/sg10_28_cif.got.tgz:54789.got - 2010.06.27 22:07:45.
