data_PCOD8062114
_publ_section_title
;
Structure prediction by ZEFSAII (Michael W. Deem and Ramdas Pophale) SiO2 
 PCOD8062114
Probable space group: P 2/M
;
_chemical_formula_sum "Si O2"
_cell_formula_units_Z 28
_cell_length_a 20.925918
_cell_length_b 8.756540
_cell_length_c 14.122090
_cell_angle_alpha 90.000000
_cell_angle_beta 146.818356
_cell_angle_gamma 90.000000
_cell_volume 1416.242441
_symmetry_space_group_name_H-M "P 2/M"
_symmetry_group_IT_number 10
_symmetry_cell_setting 'monoclinic'
loop_
_space_group_symop_operation_xyz
x,y,z
-x,y,-z
-x,-y,-z
x,-y,z
loop_
_atom_site_type_symbol
_atom_site_label
_atom_site_fract_x
_atom_site_fract_y
_atom_site_fract_z
Si Si1 0.825380 0.318877 0.345118
Si Si2 0.660019 0.680519 0.452832
Si Si3 0.868135 0.318903 0.840485
Si Si4 0.930684 0.678734 0.282732
Si Si5 0.230461 0.319765 0.083571
Si Si6 0.381774 0.821182 0.803398
Si Si7 0.471628 0.179388 0.358462
O O1 0.799484 0.500000 0.321808
O O2 0.849605 0.262456 0.268014
O O3 0.717556 0.220995 0.246025
O O4 0.936018 0.265310 0.545726
O O5 0.652805 0.500000 0.443275
O O6 0.787960 0.731892 0.651740
O O7 0.641424 0.738934 0.324447
O O8 0.558263 0.740123 0.393891
O O9 0.878541 0.500000 0.858975
O O10 0.801892 0.259313 0.852240
O O11 0.000000 0.249604 0.000000
O O12 0.934997 0.500000 0.303402
O O13 0.879064 0.725408 0.117784
O O14 0.255906 0.500000 0.113845
O O15 0.340348 0.232778 0.175604
O O16 0.385709 0.000000 0.788009
O O17 0.500000 0.763992 0.000000
O O18 0.500000 0.231633 0.500000
O O19 0.483495 0.000000 0.358755
#
# Coordination Sequence:
#
# PCOD8062114 Si02
#       7
#     4   4   4   4   4   4   4
#     4   9  18  37  61  87 116 148 196 244 292 345
#     4  11  23  40  65  90 114 152 202 250 293 345
#     4   9  19  34  57  91 124 151 189 242 294 343
#     4   8  17  33  59  91 118 146 186 248 298 336
#     4  10  19  34  59  88 118 152 196 241 287 344
#     4  11  26  44  59  82 120 159 196 242 300 358
#     4  11  23  39  58  82 121 160 193 235 288 345
#
# _framework density 19.770627000000001
#
# number of rings (size 3 to 8) (size 9 to 14) (size 15 to 20)
#    0.000    2.143    1.429    2.143    4.000    1.714 
#    0.000    2.143    0.000    2.143    0.000    0.000 
#    0.000    0.000    0.000    0.000    0.000    0.000 
#
# Total GULP energy -347140.429185 kJ/mol
# GULP energy per Si atom -12397.872471 kJ/mol
# Density = 1.972563 g / cm^3
# Si number density = 19.770627 Si / 1000 Ang^3
#
#
#
# Elastic Constant Matrix: (Units=GPa)
#
#
# Indices 1 2 3 4 5 6 
#
# 1 93.8424 20.2254 62.9166 0.0000 12.6177 0.0000
# 2 20.2254 33.6938 29.1816 0.0000 -0.9172 0.0000
# 3 62.9166 29.1816 138.5646 0.0000 5.7475 0.0000
# 4 0.0000 0.0000 0.0000 -4.6370 0.0000 -95.6464
# 5 12.6177 -0.9172 5.7475 0.0000 39.9080 0.0000
# 6 0.0000 0.0000 0.0000 -95.6464 0.0000 -381.1923
#
#
#
# Elastic Compliance Matrix: (Units=1/GPa)
#
#
# Indices 1 2 3 4 5 6 
#
# 1 0.016476 -0.004512 -0.006349 0.000000 -0.004399 0.000000
# 2 -0.004512 0.037686 -0.006019 0.000000 0.003159 0.000000
# 3 -0.006349 -0.006019 0.011358 0.000000 0.000233 0.000000
# 4 0.000000 0.000000 0.000000 0.051648 0.000000 -0.012959
# 5 -0.004399 0.003159 0.000233 0.000000 0.026487 0.000000
# 6 0.000000 0.000000 0.000000 -0.012959 0.000000 0.000628
#
#
# Mechanical properties :
#
#
# Convention : Reuss Voigt Hill
#
# Bulk Modulus (GPa) = 31.48484 54.52753 43.00618
# Shear Modulus (GPa) = 26.50696 -58.93244 -16.21274
#
# Velocity S-wave (km/s) = 3.66556 -5.46560 -2.86674
# Velocity P-wave (km/s) = 5.82020 3.49148 3.29274
#
# Compressibility (1/GPa) = 0.03176132
#
# Stress axis : x y z
#
# Youngs Moduli (GPa) = 60.69275 26.53474 88.04743
#
# Poissons Ratio (x) = 0.11971 0.55899
# Poissons Ratio (y) = 0.27382 0.52998
# Poissons Ratio (z) = 0.38532 0.15972
#
# Static dielectric constant tensor:
#      x y z
#    x 3.697550 0.000000 -0.038970 
#    y 0.000000 3.254590 0.000000 
#    z -0.038970 0.000000 4.183040 
# 
# 
# High freq. dielectric constant tensor:
#      x y z
#    x 1.777750 0.000000 0.000690 
#    y 0.000000 1.736450 0.000000 
#    z 0.000690 0.000000 1.787530 
# 
# From -- ./inp_files/70319.got.cif
#   From: 2010.06.25/outbox.cif.g09.slc.cpg/sg10_36_cif.got.tgz:70319.got - 2010.06.27 22:07:45.
