data_PCOD8062537
_publ_section_title
;
Structure prediction by ZEFSAII (Michael W. Deem and Ramdas Pophale) SiO2 
 PCOD8062537
Probable space group: P 2/M
;
_chemical_formula_sum "Si O2"
_cell_formula_units_Z 32
_cell_length_a 22.660830
_cell_length_b 8.971848
_cell_length_c 29.169154
_cell_angle_alpha 90.000000
_cell_angle_beta 16.818076
_cell_angle_gamma 90.000000
_cell_volume 1715.855571
_symmetry_space_group_name_H-M "P 2/M"
_symmetry_group_IT_number 10
_symmetry_cell_setting 'monoclinic'
loop_
_space_group_symop_operation_xyz
x,y,z
-x,y,-z
-x,-y,-z
x,-y,z
loop_
_atom_site_type_symbol
_atom_site_label
_atom_site_fract_x
_atom_site_fract_y
_atom_site_fract_z
Si Si1 0.479279 0.332420 0.961463
Si Si2 0.922170 0.677340 0.606118
Si Si3 0.942617 0.330716 0.848447
Si Si4 0.024898 0.175476 0.033846
Si Si5 0.726096 0.670968 0.322734
Si Si6 0.349401 0.325273 0.853564
Si Si7 0.077210 0.174883 0.231293
Si Si8 0.817988 0.676739 0.501240
O O1 0.432075 0.500000 0.978471
O O2 0.689490 0.269988 0.784381
O O3 0.500000 0.336197 0.000000
O O4 0.303274 0.221610 0.077554
O O5 0.934770 0.500000 0.597280
O O6 0.000000 0.742790 0.500000
O O7 0.060134 0.739190 0.545179
O O8 0.914760 0.500000 0.851401
O O9 0.958831 0.218921 0.794296
O O10 0.150243 0.313804 0.722224
O O11 0.751116 0.284389 0.022763
O O12 0.826900 0.232331 0.207949
O O13 0.038993 0.000000 0.028638
O O14 0.233540 0.243592 0.898504
O O15 0.000000 0.225657 0.000000
O O16 0.500000 0.732526 0.500000
O O17 0.721483 0.500000 0.309443
O O18 0.325453 0.500000 0.862175
O O19 0.583539 0.274046 0.680444
O O20 0.908515 0.253719 0.387959
O O21 0.052837 0.000000 0.255249
O O22 0.840818 0.500000 0.480573
#
# Coordination Sequence:
#
# PCOD8062537 Si02
#       8
#     4   4   4   4   4   4   4   4
#     4  10  19  36  60  81 105 141 183 230 280 326
#     4   9  18  32  57  87 107 131 175 229 279 327
#     4   9  19  37  59  84 111 142 183 228 278 333
#     4  10  21  36  55  82 117 154 187 220 269 338
#     4   9  19  37  61  87 112 141 185 240 285 321
#     4   9  20  37  61  86 109 141 185 239 283 322
#     4  12  25  37  53  80 115 153 188 224 271 329
#     4  10  20  38  59  83 111 141 184 231 278 329
#
# _framework density 18.649588999999999
#
# number of rings (size 3 to 8) (size 9 to 14) (size 15 to 20)
#    0.000    2.250    1.250    2.250    1.750    5.000 
#    0.000    3.750    0.000    0.750    0.000    0.000 
#    0.000    0.000    0.000    0.000    0.000    0.000 
#
# Total GULP energy -396869.198207 kJ/mol
# GULP energy per Si atom -12402.162444 kJ/mol
# Density = 1.860714 g / cm^3
# Si number density = 18.649589 Si / 1000 Ang^3
#
#
#
# Elastic Constant Matrix: (Units=GPa)
#
#
# Indices 1 2 3 4 5 6 
#
# 1 111.7104 38.6482 64.8961 0.0000 9.0104 0.0000
# 2 38.6482 46.8310 35.5163 0.0000 0.0155 0.0000
# 3 64.8961 35.5163 165.0123 0.0000 -2.2929 0.0000
# 4 0.0000 0.0000 0.0000 13.7327 0.0000 0.0464
# 5 9.0104 0.0155 -2.2929 0.0000 26.0595 0.0000
# 6 0.0000 0.0000 0.0000 0.0464 0.0000 21.8601
#
#
#
# Elastic Compliance Matrix: (Units=1/GPa)
#
#
# Indices 1 2 3 4 5 6 
#
# 1 0.014901 -0.009314 -0.003932 0.000000 -0.005493 0.000000
# 2 -0.009314 0.031347 -0.003043 0.000000 0.002934 0.000000
# 3 -0.003932 -0.003043 0.008291 0.000000 0.002091 0.000000
# 4 0.000000 0.000000 0.000000 0.072819 0.000000 -0.000154
# 5 -0.005493 0.002934 0.002091 0.000000 0.040455 0.000000
# 6 0.000000 0.000000 0.000000 -0.000154 0.000000 0.045746
#
#
# Mechanical properties :
#
#
# Convention : Reuss Voigt Hill
#
# Bulk Modulus (GPa) = 45.53610 66.85275 56.19442
# Shear Modulus (GPa) = 19.72722 24.63000 22.17861
#
# Velocity S-wave (km/s) = 3.25589 3.63805 3.45226
# Velocity P-wave (km/s) = 6.21322 7.31928 6.78881
#
# Compressibility (1/GPa) = 0.02196060
#
# Stress axis : x y z
#
# Youngs Moduli (GPa) = 67.10850 31.90134 120.61827
#
# Poissons Ratio (x) = 0.29712 0.47428
# Poissons Ratio (y) = 0.62503 0.36707
# Poissons Ratio (z) = 0.26388 0.09708
#
# Static dielectric constant tensor:
#      x y z
#    x 3.430470 0.000000 0.044440 
#    y 0.000000 3.171330 0.000000 
#    z 0.044440 0.000000 3.588690 
# 
# 
# High freq. dielectric constant tensor:
#      x y z
#    x 1.728460 0.000000 0.000160 
#    y 0.000000 1.697920 0.000000 
#    z 0.000160 0.000000 1.736460 
# 
# From -- ./inp_files/93581.got.cif
#   From: 2010.06.25/outbox.cif.g09.slc.cpg/sg10_47_cif.got.tgz:93581.got - 2010.06.27 22:07:45.
