data_PCOD8062390
_publ_section_title
;
Structure prediction by ZEFSAII (Michael W. Deem and Ramdas Pophale) SiO2 
 PCOD8062390
Probable space group: P 2/M
;
_chemical_formula_sum "Si O2"
_cell_formula_units_Z 32
_cell_length_a 20.148411
_cell_length_b 8.775671
_cell_length_c 25.918248
_cell_angle_alpha 90.000000
_cell_angle_beta 21.290004
_cell_angle_gamma 90.000000
_cell_volume 1663.946980
_symmetry_space_group_name_H-M "P 2/M"
_symmetry_group_IT_number 10
_symmetry_cell_setting 'monoclinic'
loop_
_space_group_symop_operation_xyz
x,y,z
-x,y,-z
-x,-y,-z
x,-y,z
loop_
_atom_site_type_symbol
_atom_site_label
_atom_site_fract_x
_atom_site_fract_y
_atom_site_fract_z
Si Si1 0.494507 0.319645 0.303352
Si Si2 0.521415 0.680735 0.904502
Si Si3 0.995918 0.678036 0.202690
Si Si4 0.790266 0.822384 0.160338
Si Si5 0.598849 0.680534 0.116642
Si Si6 0.794945 0.319684 0.790251
Si Si7 0.120782 0.178853 0.607121
Si Si8 0.303277 0.676205 0.665567
O O1 0.475026 0.500000 0.318391
O O2 0.675939 0.274321 0.202327
O O3 0.510375 0.255736 0.233271
O O4 0.320478 0.248683 0.456865
O O5 0.515346 0.500000 0.908862
O O6 0.512275 0.745267 0.852666
O O7 0.707175 0.732598 0.798911
O O8 0.342235 0.735717 0.065310
O O9 0.994362 0.500000 0.218732
O O10 0.959564 0.773740 0.279949
O O11 0.845207 0.718186 0.269672
O O12 0.190102 0.730343 0.039256
O O13 0.728825 0.782299 0.262357
O O14 0.755749 0.000000 0.175465
O O15 0.000000 0.776903 0.000000
O O16 0.587042 0.500000 0.125545
O O17 0.826276 0.500000 0.769293
O O18 0.989059 0.238080 0.656795
O O19 0.137510 0.000000 0.591204
O O20 0.500000 0.714370 0.500000
O O21 0.288825 0.500000 0.692893
#
# Coordination Sequence:
#
# PCOD8062390 Si02
#       8
#     4   4   4   4   4   4   4   4
#     4  11  23  39  61  84 111 150 193 238 281 329
#     4   8  14  28  56  89 113 138 182 240 288 326
#     4  10  19  35  60  85 111 142 185 240 286 334
#     4  11  24  41  60  84 117 154 187 227 281 345
#     4   9  17  32  57  87 110 136 186 244 288 325
#     4   9  16  31  58  85 112 147 185 232 284 332
#     4  12  24  37  54  82 120 157 189 227 279 342
#     4  10  21  36  57  86 114 144 188 239 285 330
#
# _framework density 19.231382
#
# number of rings (size 3 to 8) (size 9 to 14) (size 15 to 20)
#    0.000    2.000    1.250    4.125    0.000    3.750 
#    0.000    3.125    0.000    3.750    0.000    0.000 
#    0.000    0.000    0.000    0.000    0.000    0.000 
#
# Total GULP energy -396816.716576 kJ/mol
# GULP energy per Si atom -12400.522393 kJ/mol
# Density = 1.918761 g / cm^3
# Si number density = 19.231382 Si / 1000 Ang^3
#
#
#
# Elastic Constant Matrix: (Units=GPa)
#
#
# Indices 1 2 3 4 5 6 
#
# 1 122.1857 30.1470 33.6936 0.0000 -9.1116 0.0000
# 2 30.1470 63.4805 27.1040 0.0000 -3.9766 0.0000
# 3 33.6936 27.1040 64.9653 0.0000 0.2011 0.0000
# 4 0.0000 0.0000 0.0000 -70.7456 0.0000 25.0943
# 5 -9.1116 -3.9766 0.2011 0.0000 23.5758 0.0000
# 6 0.0000 0.0000 0.0000 25.0943 0.0000 3.6078
#
#
#
# Elastic Compliance Matrix: (Units=1/GPa)
#
#
# Indices 1 2 3 4 5 6 
#
# 1 0.010307 -0.002904 -0.004145 0.000000 0.003529 0.000000
# 2 -0.002904 0.020246 -0.006948 0.000000 0.002352 0.000000
# 3 -0.004145 -0.006948 0.020450 0.000000 -0.002948 0.000000
# 4 0.000000 0.000000 0.000000 -0.004077 0.000000 0.028356
# 5 0.003529 0.002352 -0.002948 0.000000 0.044202 0.000000
# 6 0.000000 0.000000 0.000000 0.028356 0.000000 0.079942
#
#
# Mechanical properties :
#
#
# Convention : Reuss Voigt Hill
#
# Bulk Modulus (GPa) = 43.46018 48.05784 45.75901
# Shear Modulus (GPa) = 24.18570 1.93341 13.05955
#
# Velocity S-wave (km/s) = 3.55014 1.00376 2.60873
# Velocity P-wave (km/s) = 6.28110 5.13682 5.73756
#
# Compressibility (1/GPa) = 0.02300957
#
# Stress axis : x y z
#
# Youngs Moduli (GPa) = 97.02224 49.39301 48.89881
#
# Poissons Ratio (x) = 0.14343 0.20268
# Poissons Ratio (y) = 0.28175 0.33974
# Poissons Ratio (z) = 0.40215 0.34318
#
# Static dielectric constant tensor:
#      x y z
#    x 3.921840 0.000000 -0.065540 
#    y 0.000000 3.188420 0.000000 
#    z -0.065540 0.000000 3.547640 
# 
# 
# High freq. dielectric constant tensor:
#      x y z
#    x 1.765790 0.000000 -0.009900 
#    y 0.000000 1.716160 0.000000 
#    z -0.009900 0.000000 1.744680 
# 
# From -- ./inp_files/93600.got.cif
#   From: 2010.06.25/outbox.cif.g09.slc.cpg/sg10_47_cif.got.tgz:93600.got - 2010.06.27 22:07:45.
