data_PCOD8062978
_publ_section_title
;
Structure prediction by ZEFSAII (Michael W. Deem and Ramdas Pophale) SiO2 
 PCOD8062978
Probable space group: P 2/M
;
_chemical_formula_sum "Si O2"
_cell_formula_units_Z 32
_cell_length_a 20.765642
_cell_length_b 9.476142
_cell_length_c 25.587164
_cell_angle_alpha 90.000000
_cell_angle_beta 159.321154
_cell_angle_gamma 90.000000
_cell_volume 1778.005131
_symmetry_space_group_name_H-M "P 2/M"
_symmetry_group_IT_number 10
_symmetry_cell_setting 'monoclinic'
loop_
_space_group_symop_operation_xyz
x,y,z
-x,y,-z
-x,-y,-z
x,-y,z
loop_
_atom_site_type_symbol
_atom_site_label
_atom_site_fract_x
_atom_site_fract_y
_atom_site_fract_z
Si Si1 0.419336 0.839701 0.885634
Si Si2 0.320280 0.332304 0.508484
Si Si3 0.976559 0.331840 0.182440
Si Si4 0.423013 0.664666 0.089764
Si Si5 0.713854 0.332170 0.781250
Si Si6 0.003210 0.667884 0.919349
Si Si7 0.997909 0.840378 0.440265
Si Si8 0.292562 0.335782 0.605969
O O1 0.478105 0.747652 0.881122
O O2 0.206037 0.835272 0.734890
O O3 0.486201 0.000000 0.926515
O O4 0.500000 0.775499 0.000000
O O5 0.315216 0.500000 0.501787
O O6 0.506645 0.274126 0.623489
O O7 0.324114 0.281434 0.571231
O O8 0.143745 0.271132 0.344048
O O9 0.982503 0.500000 0.184862
O O10 0.992979 0.269170 0.136235
O O11 0.785145 0.282558 0.062247
O O12 0.430862 0.500000 0.081736
O O13 0.527479 0.695825 0.223338
O O14 0.711698 0.500000 0.781810
O O15 0.817794 0.281595 0.807699
O O16 0.822259 0.277648 0.915041
O O17 0.008126 0.500000 0.920406
O O18 0.000000 0.776758 0.500000
O O19 0.118272 0.745192 0.494608
O O20 0.076639 0.000000 0.500484
O O21 0.243722 0.500000 0.569827
#
# Coordination Sequence:
#
# PCOD8062978 Si02
#       8
#     4   4   4   4   4   4   4   4
#     4  10  22  38  54  72  95 123 154 193 241 287
#     4   9  17  27  39  60  90 122 155 194 236 276
#     4   9  17  27  39  59  90 123 155 193 236 278
#     4  10  20  33  49  70  96 127 159 193 236 284
#     4   8  13  22  37  56  81 117 159 194 228 274
#     4   8  13  22  37  56  81 118 158 193 229 275
#     4  10  20  36  55  73  93 120 156 197 238 281
#     4  10  20  32  49  71  96 126 158 195 237 282
#
# _framework density 17.997698
#
# number of rings (size 3 to 8) (size 9 to 14) (size 15 to 20)
#    0.000    2.750    1.250    1.500    1.750    4.500 
#    0.000    2.500    0.000    0.000    0.000    0.000 
#    0.000    1.000    0.000    7.500    0.000    9.750 
#
# Total GULP energy -396676.370410 kJ/mol
# GULP energy per Si atom -12396.136575 kJ/mol
# Density = 1.795673 g / cm^3
# Si number density = 17.997698 Si / 1000 Ang^3
#
#
#
# Elastic Constant Matrix: (Units=GPa)
#
#
# Indices 1 2 3 4 5 6 
#
# 1 91.3099 25.3443 51.4930 0.0000 5.0844 0.0000
# 2 25.3443 21.4790 20.5771 0.0000 3.1803 0.0000
# 3 51.4930 20.5771 128.1206 0.0000 7.2605 0.0000
# 4 0.0000 0.0000 0.0000 10.7447 0.0000 -3.0382
# 5 5.0844 3.1803 7.2605 0.0000 34.8370 0.0000
# 6 0.0000 0.0000 0.0000 -3.0382 0.0000 -16.8297
#
#
#
# Elastic Compliance Matrix: (Units=1/GPa)
#
#
# Indices 1 2 3 4 5 6 
#
# 1 0.018325 -0.017199 -0.004594 0.000000 -0.000147 0.000000
# 2 -0.017199 0.071525 -0.004399 0.000000 -0.003103 0.000000
# 3 -0.004594 -0.004399 0.010420 0.000000 -0.001100 0.000000
# 4 0.000000 0.000000 0.000000 0.088549 0.000000 -0.015986
# 5 -0.000147 -0.003103 -0.001100 0.000000 0.029239 0.000000
# 6 0.000000 0.000000 0.000000 -0.015986 0.000000 -0.056533
#
#
# Mechanical properties :
#
#
# Convention : Reuss Voigt Hill
#
# Bulk Modulus (GPa) = 20.88324 48.41536 34.64930
# Shear Modulus (GPa) = 21.75119 15.31673 18.53396
#
# Velocity S-wave (km/s) = 3.48020 2.92042 3.21252
# Velocity P-wave (km/s) = 5.27044 6.19121 5.74929
#
# Compressibility (1/GPa) = 0.04788530
#
# Stress axis : x y z
#
# Youngs Moduli (GPa) = 54.57150 13.98106 95.96504
#
# Poissons Ratio (x) = 0.24046 0.44088
# Poissons Ratio (y) = 0.93859 0.42217
# Poissons Ratio (z) = 0.25071 0.06150
#
# Static dielectric constant tensor:
#      x y z
#    x 3.492450 0.000000 -0.031650 
#    y 0.000000 2.764220 0.000000 
#    z -0.031650 0.000000 3.623010 
# 
# 
# High freq. dielectric constant tensor:
#      x y z
#    x 1.705440 0.000000 0.000540 
#    y 0.000000 1.626820 0.000000 
#    z 0.000540 0.000000 1.711620 
# 
# From -- ./inp_files/34584.got.cif
#   From: 2010.06.25/outbox.cif.g09.slc.cpg/sg10_18_cif.got.tgz:34584.got - 2010.06.27 22:07:45.
