data_PCOD8062610
_publ_section_title
;
Structure prediction by ZEFSAII (Michael W. Deem and Ramdas Pophale) SiO2 
 PCOD8062610
Probable space group: P 2/M
;
_chemical_formula_sum "Si O2"
_cell_formula_units_Z 28
_cell_length_a 14.642784
_cell_length_b 9.311239
_cell_length_c 20.036614
_cell_angle_alpha 90.000000
_cell_angle_beta 148.228103
_cell_angle_gamma 90.000000
_cell_volume 1438.420612
_symmetry_space_group_name_H-M "P 2/M"
_symmetry_group_IT_number 10
_symmetry_cell_setting 'monoclinic'
loop_
_space_group_symop_operation_xyz
x,y,z
-x,y,-z
-x,-y,-z
x,-y,z
loop_
_atom_site_type_symbol
_atom_site_label
_atom_site_fract_x
_atom_site_fract_y
_atom_site_fract_z
Si Si1 0.855956 0.336022 0.766257
Si Si2 0.539415 0.165958 0.818583
Si Si3 0.776685 0.334983 0.059864
Si Si4 0.366940 0.831616 0.269793
Si Si5 0.173662 0.166435 0.640179
Si Si6 0.299026 0.169606 0.862467
Si Si7 0.652871 0.156342 0.542740
O O1 0.794299 0.500000 0.733328
O O2 0.786387 0.252859 0.788003
O O3 0.787181 0.272750 0.653305
O O4 0.062415 0.321624 0.891190
O O5 0.630330 0.210308 0.805909
O O6 0.332251 0.190795 0.687094
O O7 0.578797 0.000000 0.860735
O O8 0.612455 0.263926 0.922425
O O9 0.735444 0.500000 0.050475
O O10 0.814445 0.251737 0.152279
O O11 0.558943 0.790888 0.416631
O O12 0.331323 0.000000 0.258761
O O13 0.229375 0.227236 0.747581
O O14 0.000000 0.239158 0.500000
O O15 0.134041 0.000000 0.626173
O O16 0.271286 0.000000 0.852611
O O17 0.500000 0.210101 0.000000
O O18 0.500000 0.137401 0.500000
O O19 0.744106 0.000000 0.589219
#
# Coordination Sequence:
#
# PCOD8062610 Si02
#       7
#     4   4   4   4   4   4   4
#     4  10  21  35  51  76 111 149 190 231 272 330
#     4  10  20  37  58  81 110 144 186 231 280 340
#     4  11  24  38  54  80 112 150 191 230 279 332
#     4   9  19  34  55  81 110 145 183 230 286 334
#     4   9  18  34  59  90 118 141 176 231 287 337
#     4  10  19  36  62  88 110 143 188 230 279 338
#     4   8  15  30  51  76 104 135 178 228 278 329
#
# _framework density 19.465793999999999
#
# number of rings (size 3 to 8) (size 9 to 14) (size 15 to 20)
#    0.000    2.429    1.429    1.714    0.000    7.429 
#    0.000    5.714    0.000    1.714    0.000    0.000 
#    0.000    0.000    0.000    0.000    0.000    0.000 
#
# Total GULP energy -347066.632520 kJ/mol
# GULP energy per Si atom -12395.236876 kJ/mol
# Density = 1.942149 g / cm^3
# Si number density = 19.465794 Si / 1000 Ang^3
#
#
#
# Elastic Constant Matrix: (Units=GPa)
#
#
# Indices 1 2 3 4 5 6 
#
# 1 105.9006 46.1736 42.2297 0.0000 -9.1863 0.0000
# 2 46.1736 70.9258 34.6940 0.0000 -0.9283 0.0000
# 3 42.2297 34.6940 106.7460 0.0000 -8.2495 0.0000
# 4 0.0000 0.0000 0.0000 50.3309 0.0000 -35.0562
# 5 -9.1863 -0.9283 -8.2495 0.0000 28.1336 0.0000
# 6 0.0000 0.0000 0.0000 -35.0562 0.0000 66.8920
#
#
#
# Elastic Compliance Matrix: (Units=1/GPa)
#
#
# Indices 1 2 3 4 5 6 
#
# 1 0.014323 -0.007897 -0.002822 0.000000 0.003589 0.000000
# 2 -0.007897 0.021150 -0.003986 0.000000 -0.003049 0.000000
# 3 -0.002822 -0.003986 0.011970 0.000000 0.002457 0.000000
# 4 0.000000 0.000000 0.000000 0.031290 0.000000 0.016398
# 5 0.003589 -0.003049 0.002457 0.000000 0.037336 0.000000
# 6 0.000000 0.000000 0.000000 0.016398 0.000000 0.023543
#
#
# Mechanical properties :
#
#
# Convention : Reuss Voigt Hill
#
# Bulk Modulus (GPa) = 55.45393 58.86297 57.15845
# Shear Modulus (GPa) = 28.56620 39.76965 34.16792
#
# Velocity S-wave (km/s) = 3.83496 4.52492 4.19415
# Velocity P-wave (km/s) = 6.93967 7.58977 7.27199
#
# Compressibility (1/GPa) = 0.01803299
#
# Stress axis : x y z
#
# Youngs Moduli (GPa) = 69.81996 47.28182 83.54358
#
# Poissons Ratio (x) = 0.37337 0.23578
# Poissons Ratio (y) = 0.55134 0.33297
# Poissons Ratio (z) = 0.19705 0.18845
#
# Static dielectric constant tensor:
#      x y z
#    x 3.567420 0.000000 -0.287550 
#    y 0.000000 3.336520 0.000000 
#    z -0.287550 0.000000 3.869610 
# 
# 
# High freq. dielectric constant tensor:
#      x y z
#    x 1.755170 0.000000 -0.006170 
#    y 0.000000 1.731600 0.000000 
#    z -0.006170 0.000000 1.753200 
# 
# From -- ./inp_files/84979.got.cif
#   From: 2010.06.25/outbox.cif.g09.slc.cpg/sg10_43_cif.got.tgz:84979.got - 2010.06.27 22:07:45.
