data_PCOD8062149
_publ_section_title
;
Structure prediction by ZEFSAII (Michael W. Deem and Ramdas Pophale) SiO2 
 PCOD8062149
Probable space group: P 2/M
;
_chemical_formula_sum "Si O2"
_cell_formula_units_Z 32
_cell_length_a 28.975678
_cell_length_b 13.624285
_cell_length_c 10.087562
_cell_angle_alpha 90.000000
_cell_angle_beta 29.241045
_cell_angle_gamma 90.000000
_cell_volume 1945.291369
_symmetry_space_group_name_H-M "P 2/M"
_symmetry_group_IT_number 10
_symmetry_cell_setting 'monoclinic'
loop_
_space_group_symop_operation_xyz
x,y,z
-x,y,-z
-x,-y,-z
x,-y,z
loop_
_atom_site_type_symbol
_atom_site_label
_atom_site_fract_x
_atom_site_fract_y
_atom_site_fract_z
Si Si1 0.087064 0.386354 0.529306
Si Si2 0.611268 0.386245 0.069356
Si Si3 0.595489 0.612209 0.419345
Si Si4 0.884110 0.295823 0.033330
Si Si5 0.789676 0.615155 0.022674
Si Si6 0.799604 0.293052 0.529775
Si Si7 0.085429 0.111018 0.688507
Si Si8 0.033048 0.110458 0.270411
O O1 0.061189 0.500000 0.576667
O O2 0.142520 0.343420 0.262893
O O3 0.148760 0.372460 0.506662
O O4 0.992532 0.324515 0.780790
O O5 0.626095 0.500000 0.987468
O O6 0.507727 0.343072 0.287300
O O7 0.620905 0.379161 0.202190
O O8 0.687807 0.313431 0.813360
O O9 0.585406 0.500000 0.486151
O O10 0.683519 0.661463 0.277969
O O11 0.829441 0.310191 0.305239
O O12 0.833099 0.364822 0.056016
O O13 0.882721 0.182953 0.986301
O O14 0.780537 0.500000 0.020698
O O15 0.825619 0.182722 0.511570
O O16 0.054049 0.118291 0.614185
O O17 0.116642 0.000000 0.645889
O O18 0.000000 0.144196 0.000000
O O19 0.000000 0.140714 0.500000
O O20 0.074284 0.000000 0.166737
#
# Coordination Sequence:
#
# PCOD8062149 Si02
#       8
#     4   4   4   4   4   4   4   4
#     4  11  21  33  47  67 100 139 173 200 235 296
#     4   9  17  30  52  76  98 123 168 220 253 294
#     4   8  15  32  53  72  92 126 172 219 258 285
#     4  12  23  32  45  71 107 138 162 198 251 304
#     4  10  20  34  50  69  96 134 174 206 245 296
#     4  12  21  32  48  76 100 132 169 203 252 298
#     4  10  19  35  53  71 101 135 167 206 247 295
#     4  10  20  34  52  72  95 129 172 212 245 283
#
# _framework density 16.449978000000002
#
# number of rings (size 3 to 8) (size 9 to 14) (size 15 to 20)
#    0.000    1.750    3.750    3.000    0.000    3.500 
#    0.000    0.625    0.000    2.250    0.000    2.625 
#    0.000    2.000    0.000    0.000    0.000    0.000 
#
# Total GULP energy -396694.653817 kJ/mol
# GULP energy per Si atom -12396.707932 kJ/mol
# Density = 1.641254 g / cm^3
# Si number density = 16.449978 Si / 1000 Ang^3
#
#
#
# Elastic Constant Matrix: (Units=GPa)
#
#
# Indices 1 2 3 4 5 6 
#
# 1 13.5481 1.7004 54.4074 0.0000 37.4156 0.0000
# 2 1.7004 55.0190 36.7136 0.0000 1.5543 0.0000
# 3 54.4074 36.7136 122.6392 0.0000 -6.2063 0.0000
# 4 0.0000 0.0000 0.0000 14.9514 0.0000 2.2701
# 5 37.4156 1.5543 -6.2063 0.0000 19.3475 0.0000
# 6 0.0000 0.0000 0.0000 2.2701 0.0000 17.4055
#
#
#
# Elastic Compliance Matrix: (Units=1/GPa)
#
#
# Indices 1 2 3 4 5 6 
#
# 1 -0.009407 -0.004721 0.006634 0.000000 0.020700 0.000000
# 2 -0.004721 0.020663 -0.003775 0.000000 0.006259 0.000000
# 3 0.006634 -0.003775 0.005801 0.000000 -0.010666 0.000000
# 4 0.000000 0.000000 0.000000 0.068234 0.000000 -0.008900
# 5 0.020700 0.006259 -0.010666 0.000000 0.007730 0.000000
# 6 0.000000 0.000000 0.000000 -0.008900 0.000000 0.058614
#
#
# Mechanical properties :
#
#
# Convention : Reuss Voigt Hill
#
# Bulk Modulus (GPa) = 74.99541 41.87212 58.43376
# Shear Modulus (GPa) = 31.28864 16.89988 24.09426
#
# Velocity S-wave (km/s) = 4.36598 3.20871 3.83129
# Velocity P-wave (km/s) = 8.43236 6.26396 7.42771
#
# Compressibility (1/GPa) = 0.01333415
#
# Stress axis : x y z
#
# Youngs Moduli (GPa) = -106.29817 48.39482 172.38656
#
# Poissons Ratio (x) = 0.22848 -1.14369
# Poissons Ratio (y) = -0.50185 0.65069
# Poissons Ratio (z) = 0.70523 0.18267
#
# Static dielectric constant tensor:
#      x y z
#    x 3.147550 0.000000 -0.046770 
#    y 0.000000 3.035890 0.000000 
#    z -0.046770 0.000000 3.133270 
# 
# 
# High freq. dielectric constant tensor:
#      x y z
#    x 1.632650 0.000000 0.008010 
#    y 0.000000 1.611970 0.000000 
#    z 0.008010 0.000000 1.619180 
# 
# From -- ./inp_files/37722.got.cif
#   From: 2010.06.25/outbox.cif.g09.slc.cpg/sg10_19_cif.got.tgz:37722.got - 2010.06.27 22:07:45.
