data_PCOD8062492
_publ_section_title
;
Structure prediction by ZEFSAII (Michael W. Deem and Ramdas Pophale) SiO2 
 PCOD8062492
Probable space group: P 2/M
;
_chemical_formula_sum "Si O2"
_cell_formula_units_Z 28
_cell_length_a 9.798748
_cell_length_b 8.902283
_cell_length_c 27.430923
_cell_angle_alpha 90.000000
_cell_angle_beta 37.812951
_cell_angle_gamma 90.000000
_cell_volume 1467.011614
_symmetry_space_group_name_H-M "P 2/M"
_symmetry_group_IT_number 10
_symmetry_cell_setting 'monoclinic'
loop_
_space_group_symop_operation_xyz
x,y,z
-x,y,-z
-x,-y,-z
x,-y,z
loop_
_atom_site_type_symbol
_atom_site_label
_atom_site_fract_x
_atom_site_fract_y
_atom_site_fract_z
Si Si1 0.518654 0.676196 0.224156
Si Si2 0.736650 0.830078 0.072910
Si Si3 0.991355 0.675524 0.641858
Si Si4 0.375089 0.831239 0.484248
Si Si5 0.297233 0.178528 0.025923
Si Si6 0.231239 0.676499 0.673703
Si Si7 0.848241 0.178509 0.202954
O O1 0.543329 0.500000 0.225719
O O2 0.637432 0.718740 0.140441
O O3 0.262465 0.725606 0.292841
O O4 0.626978 0.761022 0.239248
O O5 0.651376 0.000000 0.106976
O O6 0.662255 0.770091 0.040972
O O7 0.000000 0.827766 0.000000
O O8 0.026889 0.500000 0.623381
O O9 0.131692 0.760232 0.560539
O O10 0.073338 0.719922 0.672865
O O11 0.500000 0.829321 0.500000
O O12 0.516638 0.733410 0.406082
O O13 0.350392 0.000000 0.470866
O O14 0.062396 0.238501 0.112655
O O15 0.293529 0.000000 0.029791
O O16 0.500000 0.246293 0.000000
O O17 0.237951 0.500000 0.681320
O O18 0.129799 0.759253 0.748866
O O19 0.838410 0.000000 0.207244
#
# Coordination Sequence:
#
# PCOD8062492 Si02
#       7
#     4   4   4   4   4   4   4
#     4  11  23  38  56  81 114 150 188 228 275 331
#     4  10  19  36  58  79 106 144 188 229 275 327
#     4   9  20  37  57  82 114 149 185 225 274 332
#     4   9  17  32  56  86 114 142 183 228 272 324
#     4   9  19  35  55  80 109 142 181 229 281 328
#     4  10  20  36  58  83 114 149 182 223 280 334
#     4  11  22  38  57  81 113 147 187 232 279 329
#
# _framework density 19.08642
#
# number of rings (size 3 to 8) (size 9 to 14) (size 15 to 20)
#    0.000    2.143    1.429    1.714    2.000    3.714 
#    0.000    0.714    0.000    6.429    0.000    0.000 
#    0.000    0.000    0.000    0.000    0.000    0.000 
#
# Total GULP energy -347255.034819 kJ/mol
# GULP energy per Si atom -12401.965529 kJ/mol
# Density = 1.904298 g / cm^3
# Si number density = 19.086420 Si / 1000 Ang^3
#
#
#
# Elastic Constant Matrix: (Units=GPa)
#
#
# Indices 1 2 3 4 5 6 
#
# 1 93.5571 26.8177 24.3741 0.0000 -10.8806 0.0000
# 2 26.8177 68.7688 32.4969 0.0000 -7.0361 0.0000
# 3 24.3741 32.4969 78.9788 0.0000 -15.2199 0.0000
# 4 0.0000 0.0000 0.0000 28.7521 0.0000 7.5540
# 5 -10.8806 -7.0361 -15.2199 0.0000 26.6801 0.0000
# 6 0.0000 0.0000 0.0000 7.5540 0.0000 25.3193
#
#
#
# Elastic Compliance Matrix: (Units=1/GPa)
#
#
# Indices 1 2 3 4 5 6 
#
# 1 0.012586 -0.003770 -0.001725 0.000000 0.003154 0.000000
# 2 -0.003770 0.019189 -0.006801 0.000000 -0.000357 0.000000
# 3 -0.001725 -0.006801 0.017427 0.000000 0.007444 0.000000
# 4 0.000000 0.000000 0.000000 0.037738 0.000000 -0.011259
# 5 0.003154 -0.000357 0.007444 0.000000 0.042920 0.000000
# 6 0.000000 0.000000 0.000000 -0.011259 0.000000 0.042855
#
#
# Mechanical properties :
#
#
# Convention : Reuss Voigt Hill
#
# Bulk Modulus (GPa) = 40.63440 45.40910 43.02175
# Shear Modulus (GPa) = 24.32980 26.65804 25.49392
#
# Velocity S-wave (km/s) = 3.57419 3.74130 3.65870
# Velocity P-wave (km/s) = 6.19428 6.51967 6.35905
#
# Compressibility (1/GPa) = 0.02460969
#
# Stress axis : x y z
#
# Youngs Moduli (GPa) = 79.45593 52.11339 57.38289
#
# Poissons Ratio (x) = 0.19647 0.09898
# Poissons Ratio (y) = 0.29956 0.39025
# Poissons Ratio (z) = 0.13706 0.35441
#
# Static dielectric constant tensor:
#      x y z
#    x 3.574000 0.000000 -0.013830 
#    y 0.000000 3.397370 0.000000 
#    z -0.013830 0.000000 3.636310 
# 
# 
# High freq. dielectric constant tensor:
#      x y z
#    x 1.734110 0.000000 -0.000930 
#    y 0.000000 1.732340 0.000000 
#    z -0.000930 0.000000 1.747950 
# 
# From -- ./inp_files/37347.got.cif
#   From: 2010.06.25/outbox.cif.g09.slc.cpg/sg10_19_cif.got.tgz:37347.got - 2010.06.27 22:07:45.
