data_PCOD8062405
_publ_section_title
;
Structure prediction by ZEFSAII (Michael W. Deem and Ramdas Pophale) SiO2 
 PCOD8062405
Probable space group: P 2/M
;
_chemical_formula_sum "Si O2"
_cell_formula_units_Z 20
_cell_length_a 10.109295
_cell_length_b 13.793241
_cell_length_c 12.057467
_cell_angle_alpha 90.000000
_cell_angle_beta 144.850612
_cell_angle_gamma 90.000000
_cell_volume 967.937360
_symmetry_space_group_name_H-M "P 2/M"
_symmetry_group_IT_number 10
_symmetry_cell_setting 'monoclinic'
loop_
_space_group_symop_operation_xyz
x,y,z
-x,y,-z
-x,-y,-z
x,-y,z
loop_
_atom_site_type_symbol
_atom_site_label
_atom_site_fract_x
_atom_site_fract_y
_atom_site_fract_z
Si Si1 0.901942 0.112322 0.555863
Si Si2 0.723220 0.235703 0.089530
Si Si3 0.059403 0.390112 0.369543
Si Si4 0.784435 0.609427 0.774468
Si Si5 0.462366 0.730671 0.692488
O O1 0.657014 0.164942 0.408317
O O2 0.000000 0.132357 0.500000
O O3 0.084872 0.151438 0.771877
O O4 0.858667 0.000000 0.548030
O O5 0.821062 0.331714 0.217914
O O6 0.500000 0.197635 0.000000
O O7 0.657827 0.260801 0.919241
O O8 0.014265 0.500000 0.373713
O O9 0.141826 0.375508 0.300535
O O10 0.255157 0.343805 0.583269
O O11 0.686120 0.500000 0.724613
O O12 0.587219 0.687279 0.669155
O O13 0.000000 0.626783 0.000000
#
# Coordination Sequence:
#
# PCOD8062405 Si02
#       5
#     4   4   4   4   4
#     4  10  22  40  62  86 110 144 192 240 290 349
#     4  11  22  37  57  86 120 150 189 236 289 339
#     4  10  22  37  57  86 118 158 200 232 272 330
#     4  10  19  35  60  88 115 152 200 236 271 327
#     4  11  21  36  60  85 117 149 189 241 287 332
#
# _framework density 20.662493999999999
#
# number of rings (size 3 to 8) (size 9 to 14) (size 15 to 20)
#    0.000    1.600    4.000    1.200    0.000    4.000 
#    0.000    1.000    0.000   10.200    0.000    0.000 
#    0.000    0.000    0.000    0.000    0.000    0.000 
#
# Total GULP energy -247939.221643 kJ/mol
# GULP energy per Si atom -12396.961082 kJ/mol
# Density = 2.061547 g / cm^3
# Si number density = 20.662494 Si / 1000 Ang^3
#
#
#
# Elastic Constant Matrix: (Units=GPa)
#
#
# Indices 1 2 3 4 5 6 
#
# 1 46.2759 19.0532 10.2408 0.0000 2.6151 0.0000
# 2 19.0532 160.1778 47.5118 0.0000 13.3415 0.0000
# 3 10.2408 47.5118 129.6435 0.0000 -1.0923 0.0000
# 4 0.0000 0.0000 0.0000 21.4434 0.0000 7.7083
# 5 2.6151 13.3415 -1.0923 0.0000 29.1134 0.0000
# 6 0.0000 0.0000 0.0000 7.7083 0.0000 29.4560
#
#
#
# Elastic Compliance Matrix: (Units=1/GPa)
#
#
# Indices 1 2 3 4 5 6 
#
# 1 0.022845 -0.002351 -0.000951 0.000000 -0.001010 0.000000
# 2 -0.002351 0.007580 -0.002620 0.000000 -0.003361 0.000000
# 3 -0.000951 -0.002620 0.008763 0.000000 0.001615 0.000000
# 4 0.000000 0.000000 0.000000 0.051477 0.000000 -0.013471
# 5 -0.001010 -0.003361 0.001615 0.000000 0.036040 0.000000
# 6 0.000000 0.000000 0.000000 -0.013471 0.000000 0.037474
#
#
# Mechanical properties :
#
#
# Convention : Reuss Voigt Hill
#
# Bulk Modulus (GPa) = 36.57430 54.41210 45.49320
# Shear Modulus (GPa) = 27.00680 33.28863 30.14772
#
# Velocity S-wave (km/s) = 3.61923 4.01816 3.82390
# Velocity P-wave (km/s) = 5.93332 6.92231 6.44681
#
# Compressibility (1/GPa) = 0.02734160
#
# Stress axis : x y z
#
# Youngs Moduli (GPa) = 43.77293 131.92727 114.12146
#
# Poissons Ratio (x) = 0.31017 0.10858
# Poissons Ratio (y) = 0.10291 0.29906
# Poissons Ratio (z) = 0.04165 0.34572
#
# Static dielectric constant tensor:
#      x y z
#    x 3.476960 0.000000 -0.040200 
#    y 0.000000 3.691460 0.000000 
#    z -0.040200 0.000000 4.075760 
# 
# 
# High freq. dielectric constant tensor:
#      x y z
#    x 1.784110 0.000000 0.001490 
#    y 0.000000 1.793280 0.000000 
#    z 0.001490 0.000000 1.835000 
# 
# From -- ./inp_files/50943.got.cif
#   From: 2010.06.25/outbox.cif.g09.slc.cpg/sg10_26_cif.got.tgz:50943.got - 2010.06.27 22:07:45.
