data_PCOD8062360
_publ_section_title
;
Structure prediction by ZEFSAII (Michael W. Deem and Ramdas Pophale) SiO2 
 PCOD8062360
Probable space group: P 2/M
;
_chemical_formula_sum "Si O2"
_cell_formula_units_Z 24
_cell_length_a 11.610824
_cell_length_b 8.854804
_cell_length_c 12.288296
_cell_angle_alpha 90.000000
_cell_angle_beta 110.229581
_cell_angle_gamma 90.000000
_cell_volume 1185.447006
_symmetry_space_group_name_H-M "P 2/M"
_symmetry_group_IT_number 10
_symmetry_cell_setting 'monoclinic'
loop_
_space_group_symop_operation_xyz
x,y,z
-x,y,-z
-x,-y,-z
x,-y,z
loop_
_atom_site_type_symbol
_atom_site_label
_atom_site_fract_x
_atom_site_fract_y
_atom_site_fract_z
Si Si1 0.792939 0.820881 0.181557
Si Si2 0.604832 0.322272 0.282262
Si Si3 0.862837 0.178595 0.967784
Si Si4 0.977716 0.178002 0.611069
Si Si5 0.359116 0.823613 0.249296
Si Si6 0.703081 0.824812 0.531515
O O1 0.679434 0.746601 0.206331
O O2 0.920347 0.758725 0.273687
O O3 0.779798 0.000000 0.189280
O O4 0.796792 0.768681 0.057504
O O5 0.612358 0.500000 0.277057
O O6 0.464709 0.269103 0.223130
O O7 0.655675 0.271979 0.415853
O O8 0.773902 0.228743 0.839719
O O9 0.878482 0.000000 0.974403
O O10 0.000000 0.249871 0.000000
O O11 0.842296 0.220823 0.606652
O O12 0.000000 0.250690 0.500000
O O13 0.994186 0.000000 0.609980
O O14 0.372082 0.792325 0.382837
O O15 0.378463 0.000000 0.231071
O O16 0.693725 0.000000 0.493910
#
# Coordination Sequence:
#
# PCOD8062360 Si02
#       6
#     4   4   4   4   4   4
#     4  10  19  35  60  86 116 149 183 226 279 337
#     4  12  25  38  53  78 115 153 194 237 276 323
#     4   9  18  35  62  94 117 136 176 235 286 331
#     4   9  15  27  53  85 111 137 175 221 272 330
#     4  10  21  37  59  85 113 146 186 229 279 338
#     4  10  19  35  59  85 113 146 185 230 282 339
#
# _framework density 20.245528
#
# number of rings (size 3 to 8) (size 9 to 14) (size 15 to 20)
#    0.000    2.000    1.667    3.000    0.000    7.333 
#    0.000    5.833    0.000    4.000    0.000    0.000 
#    0.000    0.000    0.000    0.000    0.000    0.000 
#
# Total GULP energy -297550.248394 kJ/mol
# GULP energy per Si atom -12397.927016 kJ/mol
# Density = 2.019945 g / cm^3
# Si number density = 20.245528 Si / 1000 Ang^3
#
#
#
# Elastic Constant Matrix: (Units=GPa)
#
#
# Indices 1 2 3 4 5 6 
#
# 1 137.5453 40.6543 41.4883 0.0000 -8.1669 0.0000
# 2 40.6543 57.7154 28.7724 0.0000 -6.4268 0.0000
# 3 41.4883 28.7724 106.6800 0.0000 -9.0129 0.0000
# 4 0.0000 0.0000 0.0000 3.9199 0.0000 -2.9265
# 5 -8.1669 -6.4268 -9.0129 0.0000 28.8056 0.0000
# 6 0.0000 0.0000 0.0000 -2.9265 0.0000 -0.4534
#
#
#
# Elastic Compliance Matrix: (Units=1/GPa)
#
#
# Indices 1 2 3 4 5 6 
#
# 1 0.009630 -0.005616 -0.002163 0.000000 0.000801 0.000000
# 2 -0.005616 0.023524 -0.003956 0.000000 0.002418 0.000000
# 3 -0.002163 -0.003956 0.011459 0.000000 0.002089 0.000000
# 4 0.000000 0.000000 0.000000 0.043845 0.000000 -0.282976
# 5 0.000801 0.002418 0.002089 0.000000 0.036136 0.000000
# 6 0.000000 0.000000 0.000000 -0.282976 0.000000 -0.379031
#
#
# Mechanical properties :
#
#
# Convention : Reuss Voigt Hill
#
# Bulk Modulus (GPa) = 47.29839 58.19674 52.74756
# Shear Modulus (GPa) = -22.32944 19.18945 -1.57000
#
# Velocity S-wave (km/s) = -3.32465 3.08204 -0.88157
# Velocity P-wave (km/s) = 2.94541 6.43996 5.00742
#
# Compressibility (1/GPa) = 0.02114237
#
# Stress axis : x y z
#
# Youngs Moduli (GPa) = 103.83991 42.51011 87.27139
#
# Poissons Ratio (x) = 0.23874 0.18876
# Poissons Ratio (y) = 0.58317 0.34526
# Poissons Ratio (z) = 0.22459 0.16818
#
# Static dielectric constant tensor:
#      x y z
#    x 3.890280 0.000000 0.040330 
#    y 0.000000 3.118760 0.000000 
#    z 0.040330 0.000000 3.792800 
# 
# 
# High freq. dielectric constant tensor:
#      x y z
#    x 1.809050 0.000000 0.000120 
#    y 0.000000 1.727900 0.000000 
#    z 0.000120 0.000000 1.796510 
# 
# From -- ./inp_files/45269.got.cif
#   From: 2010.06.25/outbox.cif.g09.slc.cpg/sg10_23_cif.got.tgz:45269.got - 2010.06.27 22:07:45.
