data_PCOD8062195
_publ_section_title
;
Structure prediction by ZEFSAII (Michael W. Deem and Ramdas Pophale) SiO2 
 PCOD8062195
Probable space group: P 2/M
;
_chemical_formula_sum "Si O2"
_cell_formula_units_Z 32
_cell_length_a 29.419183
_cell_length_b 9.101172
_cell_length_c 12.268314
_cell_angle_alpha 90.000000
_cell_angle_beta 148.744998
_cell_angle_gamma 90.000000
_cell_volume 1704.326782
_symmetry_space_group_name_H-M "P 2/M"
_symmetry_group_IT_number 10
_symmetry_cell_setting 'monoclinic'
loop_
_space_group_symop_operation_xyz
x,y,z
-x,y,-z
-x,-y,-z
x,-y,z
loop_
_atom_site_type_symbol
_atom_site_label
_atom_site_fract_x
_atom_site_fract_y
_atom_site_fract_z
Si Si1 0.594797 0.329659 0.235535
Si Si2 0.644903 0.326642 0.995638
Si Si3 0.733179 0.173036 0.371396
Si Si4 0.067474 0.173484 0.227535
Si Si5 0.312292 0.327087 0.162755
Si Si6 0.970473 0.826227 0.610696
Si Si7 0.549922 0.670528 0.384675
Si Si8 0.135193 0.826533 0.811797
O O1 0.607735 0.500000 0.230236
O O2 0.671654 0.236508 0.339369
O O3 0.600864 0.302163 0.376653
O O4 0.500000 0.275656 0.000000
O O5 0.650769 0.500000 0.030732
O O6 0.670697 0.284977 0.926551
O O7 0.547583 0.261986 0.818614
O O8 0.711767 0.243843 0.211186
O O9 0.833700 0.212318 0.605901
O O10 0.718809 0.000000 0.333861
O O11 0.047093 0.242105 0.305566
O O12 0.053815 0.000000 0.206479
O O13 0.000000 0.240235 0.000000
O O14 0.303464 0.500000 0.162301
O O15 0.392234 0.262580 0.398952
O O16 0.224509 0.252699 0.025609
O O17 0.899335 0.768950 0.376711
O O18 0.066912 0.782326 0.766620
O O19 0.961718 0.000000 0.597233
O O20 0.535854 0.500000 0.379740
O O21 0.149985 0.000000 0.839344
#
# Coordination Sequence:
#
# PCOD8062195 Si02
#       8
#     4   4   4   4   4   4   4   4
#     4  10  19  36  59  77 101 142 184 214 253 320
#     4  10  19  35  56  75 101 141 183 212 252 320
#     4  11  22  34  55  85 110 134 173 229 274 303
#     4   9  18  32  49  72 104 138 171 209 259 318
#     4  10  20  32  51  79 107 133 170 220 264 306
#     4   8  15  30  51  70  92 132 178 207 241 308
#     4   9  18  34  54  75 100 137 180 215 250 305
#     4   9  17  31  52  74  98 131 170 211 254 309
#
# _framework density 18.775742999999999
#
# number of rings (size 3 to 8) (size 9 to 14) (size 15 to 20)
#    0.000    2.500    1.250    2.250    0.000    4.250 
#    0.000    3.750    0.000    4.500    0.000    0.000 
#    0.000    0.000    0.000    0.000    0.000    0.000 
#
# Total GULP energy -396756.425747 kJ/mol
# GULP energy per Si atom -12398.638305 kJ/mol
# Density = 1.873301 g / cm^3
# Si number density = 18.775743 Si / 1000 Ang^3
#
#
#
# Elastic Constant Matrix: (Units=GPa)
#
#
# Indices 1 2 3 4 5 6 
#
# 1 104.1775 29.3492 51.3285 0.0000 10.9118 0.0000
# 2 29.3492 33.4210 31.9896 0.0000 5.0288 0.0000
# 3 51.3285 31.9896 131.8422 0.0000 10.4274 0.0000
# 4 0.0000 0.0000 0.0000 22.4042 0.0000 3.0936
# 5 10.9118 5.0288 10.4274 0.0000 25.5625 0.0000
# 6 0.0000 0.0000 0.0000 3.0936 0.0000 15.6163
#
#
#
# Elastic Compliance Matrix: (Units=1/GPa)
#
#
# Indices 1 2 3 4 5 6 
#
# 1 0.013896 -0.008862 -0.003026 0.000000 -0.002954 0.000000
# 2 -0.008862 0.045011 -0.007306 0.000000 -0.002092 0.000000
# 3 -0.003026 -0.007306 0.010664 0.000000 -0.001621 0.000000
# 4 0.000000 0.000000 0.000000 0.045890 0.000000 -0.009091
# 5 -0.002954 -0.002092 -0.001621 0.000000 0.041453 0.000000
# 6 0.000000 0.000000 0.000000 -0.009091 0.000000 0.065836
#
#
# Mechanical properties :
#
#
# Convention : Reuss Voigt Hill
#
# Bulk Modulus (GPa) = 32.06846 54.97505 43.52175
# Shear Modulus (GPa) = 18.41397 23.16816 20.79106
#
# Velocity S-wave (km/s) = 3.13506 3.51656 3.33128
# Velocity P-wave (km/s) = 5.49742 6.76991 6.16657
#
# Compressibility (1/GPa) = 0.03118329
#
# Stress axis : x y z
#
# Youngs Moduli (GPa) = 71.96301 22.21663 93.77540
#
# Poissons Ratio (x) = 0.19689 0.28377
# Poissons Ratio (y) = 0.63774 0.68510
# Poissons Ratio (z) = 0.21777 0.16231
#
# Static dielectric constant tensor:
#      x y z
#    x 3.615030 0.000000 -0.096560 
#    y 0.000000 2.983240 0.000000 
#    z -0.096560 0.000000 3.642950 
# 
# 
# High freq. dielectric constant tensor:
#      x y z
#    x 1.742170 0.000000 0.000880 
#    y 0.000000 1.680000 0.000000 
#    z 0.000880 0.000000 1.736490 
# 
# From -- ./inp_files/58245.got.cif
#   From: 2010.06.25/outbox.cif.g09.slc.cpg/sg10_30_cif.got.tgz:58245.got - 2010.06.27 22:07:45.
