data_PCOD8062429
_publ_section_title
;
Structure prediction by ZEFSAII (Michael W. Deem and Ramdas Pophale) SiO2 
 PCOD8062429
Probable space group: P 2/M
;
_chemical_formula_sum "Si O2"
_cell_formula_units_Z 22
_cell_length_a 9.022651
_cell_length_b 9.764465
_cell_length_c 12.601802
_cell_angle_alpha 90.000000
_cell_angle_beta 75.658222
_cell_angle_gamma 90.000000
_cell_volume 1075.635804
_symmetry_space_group_name_H-M "P 2/M"
_symmetry_group_IT_number 10
_symmetry_cell_setting 'monoclinic'
loop_
_space_group_symop_operation_xyz
x,y,z
-x,y,-z
-x,-y,-z
x,-y,z
loop_
_atom_site_type_symbol
_atom_site_label
_atom_site_fract_x
_atom_site_fract_y
_atom_site_fract_z
Si Si1 0.648576 0.344452 0.162756
Si Si2 0.136492 0.656412 0.057642
Si Si3 0.344146 0.347813 0.321496
Si Si4 0.108293 0.840799 0.268278
Si Si5 0.765961 0.848578 0.317351
Si Si6 0.500000 0.744214 0.500000
O O1 0.682594 0.500000 0.190908
O O2 0.468007 0.312970 0.207091
O O3 0.749490 0.255222 0.224163
O O4 0.703034 0.319251 0.032711
O O5 0.127852 0.500000 0.102774
O O6 0.131405 0.764732 0.152664
O O7 0.000000 0.684536 0.000000
O O8 0.275544 0.500000 0.316477
O O9 0.212346 0.233733 0.338425
O O10 0.429925 0.348259 0.419255
O O11 0.933600 0.826454 0.338740
O O12 0.156821 0.000000 0.249100
O O13 0.637265 0.836119 0.430354
O O14 0.754775 0.000000 0.270094
#
# Coordination Sequence:
#
# PCOD8062429 Si02
#       6
#     4   4   4   4   4   2
#     4   9  19  36  60  87 116 152 197 240 281 337
#     4  10  19  35  61  89 117 156 196 235 285 338
#     4  10  22  41  62  86 116 151 193 243 291 341
#     4  11  24  38  56  88 125 155 190 236 286 344
#     4  10  21  37  59  86 116 152 191 237 289 346
#     4  10  22  42  66  86 106 146 198 246 296 348
#
# _framework density 20.453022000000001
#
# number of rings (size 3 to 8) (size 9 to 14) (size 15 to 20)
#    0.000    2.000    1.818    1.091    0.000    7.636 
#    0.000    6.364    0.000    0.000    0.000    0.000 
#    0.000    0.000    0.000    0.000    0.000    0.000 
#
# Total GULP energy -272752.335984 kJ/mol
# GULP energy per Si atom -12397.833454 kJ/mol
# Density = 2.040647 g / cm^3
# Si number density = 20.453022 Si / 1000 Ang^3
#
#
#
# Elastic Constant Matrix: (Units=GPa)
#
#
# Indices 1 2 3 4 5 6 
#
# 1 110.0235 70.0498 45.2037 0.0000 -8.9177 0.0000
# 2 70.0498 131.3882 35.3692 0.0000 -0.3115 0.0000
# 3 45.2037 35.3692 83.1227 0.0000 -6.7060 0.0000
# 4 0.0000 0.0000 0.0000 40.2757 0.0000 2.6319
# 5 -8.9177 -0.3115 -6.7060 0.0000 30.0786 0.0000
# 6 0.0000 0.0000 0.0000 2.6319 0.0000 31.4609
#
#
#
# Elastic Compliance Matrix: (Units=1/GPa)
#
#
# Indices 1 2 3 4 5 6 
#
# 1 0.016164 -0.007137 -0.005471 0.000000 0.003499 0.000000
# 2 -0.007137 0.011763 -0.001308 0.000000 -0.002286 0.000000
# 3 -0.005471 -0.001308 0.015713 0.000000 0.001868 0.000000
# 4 0.000000 0.000000 0.000000 0.024965 0.000000 -0.002089
# 5 0.003499 -0.002286 0.001868 0.000000 0.034676 0.000000
# 6 0.000000 0.000000 0.000000 -0.002089 0.000000 0.031960
#
#
# Mechanical properties :
#
#
# Convention : Reuss Voigt Hill
#
# Bulk Modulus (GPa) = 63.26288 69.53108 66.39698
# Shear Modulus (GPa) = 29.70092 31.95716 30.82904
#
# Velocity S-wave (km/s) = 3.81485 3.95709 3.88662
# Velocity P-wave (km/s) = 7.09944 7.41265 7.25774
#
# Compressibility (1/GPa) = 0.01580706
#
# Stress axis : x y z
#
# Youngs Moduli (GPa) = 61.86420 85.01325 63.64035
#
# Poissons Ratio (x) = 0.60673 0.34821
# Poissons Ratio (y) = 0.44152 0.08327
# Poissons Ratio (z) = 0.33849 0.11123
#
# Static dielectric constant tensor:
#      x y z
#    x 3.869180 0.000000 -0.324760 
#    y 0.000000 3.670330 0.000000 
#    z -0.324760 0.000000 3.664340 
# 
# 
# High freq. dielectric constant tensor:
#      x y z
#    x 1.803570 0.000000 -0.015580 
#    y 0.000000 1.800060 0.000000 
#    z -0.015580 0.000000 1.787900 
# 
# From -- ./inp_files/60212.got.cif
#   From: 2010.06.25/outbox.cif.g09.slc.cpg/sg10_31_cif.got.tgz:60212.got - 2010.06.27 22:07:45.
