data_PCOD8062840
_publ_section_title
;
Structure prediction by ZEFSAII (Michael W. Deem and Ramdas Pophale) SiO2 
 PCOD8062840
Probable space group: P 2/M
;
_chemical_formula_sum "Si O2"
_cell_formula_units_Z 8
_cell_length_a 15.054455
_cell_length_b 7.124558
_cell_length_c 8.362519
_cell_angle_alpha 90.000000
_cell_angle_beta 29.787406
_cell_angle_gamma 90.000000
_cell_volume 445.581334
_symmetry_space_group_name_H-M "P 2/M"
_symmetry_group_IT_number 10
_symmetry_cell_setting 'monoclinic'
loop_
_space_group_symop_operation_xyz
x,y,z
-x,y,-z
-x,-y,-z
x,-y,z
loop_
_atom_site_type_symbol
_atom_site_label
_atom_site_fract_x
_atom_site_fract_y
_atom_site_fract_z
Si Si1 0.044389 0.500000 0.244394
Si Si2 0.661695 0.500000 0.868331
Si Si3 0.320025 0.213944 0.880711
O O1 0.000000 0.500000 0.500000
O O2 0.847213 0.500000 0.471627
O O3 0.162515 0.314423 0.023495
O O4 0.500000 0.500000 0.000000
O O5 0.651797 0.314353 0.993101
O O6 0.500000 0.229663 0.500000
O O7 0.264203 0.000000 0.999241
#
# Coordination Sequence:
#
# PCOD8062840 Si02
#       3
#     2   2   4
#     4   8  16  29  48  69  90 121 155 188 222 268
#     4  10  20  31  46  71  98 121 148 190 236 270
#     4   9  17  32  52  69  89 121 158 190 222 270
#
# _framework density 17.954073999999999
#
# number of rings (size 3 to 8) (size 9 to 14) (size 15 to 20)
#    0.000    3.500    0.000    3.000    0.000   10.000 
#    0.000    5.000    0.000    6.000    0.000    0.000 
#    0.000    0.000    0.000    0.000    0.000    0.000 
#
# Total GULP energy -99108.791509 kJ/mol
# GULP energy per Si atom -12388.598939 kJ/mol
# Density = 1.791321 g / cm^3
# Si number density = 17.954074 Si / 1000 Ang^3
#
#
#
# Elastic Constant Matrix: (Units=GPa)
#
#
# Indices 1 2 3 4 5 6 
#
# 1 91.9677 46.6415 41.1341 0.0000 -39.2399 0.0000
# 2 46.6415 187.2626 63.4694 0.0000 -20.3424 0.0000
# 3 41.1341 63.4694 105.2877 0.0000 -34.6416 0.0000
# 4 0.0000 0.0000 0.0000 27.4416 0.0000 7.0043
# 5 -39.2399 -20.3424 -34.6416 0.0000 33.5155 0.0000
# 6 0.0000 0.0000 0.0000 7.0043 0.0000 5.5719
#
#
#
# Elastic Compliance Matrix: (Units=1/GPa)
#
#
# Indices 1 2 3 4 5 6 
#
# 1 0.023457 -0.003538 0.001967 0.000000 0.027349 0.000000
# 2 -0.003538 0.007246 -0.004397 0.000000 -0.004289 0.000000
# 3 0.001967 -0.004397 0.017062 0.000000 0.017269 0.000000
# 4 0.000000 0.000000 0.000000 0.053657 0.000000 -0.067451
# 5 0.027349 -0.004289 0.017269 0.000000 0.077103 0.000000
# 6 0.000000 0.000000 0.000000 -0.067451 0.000000 0.264262
#
#
# Mechanical properties :
#
#
# Convention : Reuss Voigt Hill
#
# Bulk Modulus (GPa) = 27.91081 76.33423 52.12252
# Shear Modulus (GPa) = 10.71432 28.85733 19.78582
#
# Velocity S-wave (km/s) = 2.44552 4.01345 3.32328
# Velocity P-wave (km/s) = 4.85320 8.00535 6.61964
#
# Compressibility (1/GPa) = 0.03582841
#
# Stress axis : x y z
#
# Youngs Moduli (GPa) = 42.63116 138.01482 58.61095
#
# Poissons Ratio (x) = 0.48832 -0.11528
# Poissons Ratio (y) = 0.15084 0.25769
# Poissons Ratio (z) = -0.08385 0.60681
#
# Static dielectric constant tensor:
#      x y z
#    x 3.228560 0.000000 -0.803390 
#    y 0.000000 3.576520 0.000000 
#    z -0.803390 0.000000 4.239950 
# 
# 
# High freq. dielectric constant tensor:
#      x y z
#    x 1.641790 0.000000 -0.028860 
#    y 0.000000 1.701480 0.000000 
#    z -0.028860 0.000000 1.719870 
# 
# From -- ./inp_files/2446.got.cif
#   From: 2010.06.25/outbox.cif.g09.slc.cpg/sg10_2_cif.got.tgz:2446.got - 2010.06.27 22:07:45.
