data_PCOD8062985
_publ_section_title
;
Structure prediction by ZEFSAII (Michael W. Deem and Ramdas Pophale) SiO2 
 PCOD8062985
Probable space group: P 2/M
;
_chemical_formula_sum "Si O2"
_cell_formula_units_Z 32
_cell_length_a 10.948774
_cell_length_b 9.215277
_cell_length_c 17.499643
_cell_angle_alpha 90.000000
_cell_angle_beta 110.086404
_cell_angle_gamma 90.000000
_cell_volume 1658.249809
_symmetry_space_group_name_H-M "P 2/M"
_symmetry_group_IT_number 10
_symmetry_cell_setting 'monoclinic'
loop_
_space_group_symop_operation_xyz
x,y,z
-x,y,-z
-x,-y,-z
x,-y,z
loop_
_atom_site_type_symbol
_atom_site_label
_atom_site_fract_x
_atom_site_fract_y
_atom_site_fract_z
Si Si1 0.203063 0.326912 0.886048
Si Si2 0.452674 0.669698 0.858232
Si Si3 0.530151 0.331097 0.309333
Si Si4 0.260432 0.326922 0.061468
Si Si5 0.078352 0.170206 0.440035
Si Si6 0.988253 0.327262 0.722995
Si Si7 0.241110 0.327866 0.223070
Si Si8 0.378323 0.828910 0.527125
O O1 0.198431 0.500000 0.881655
O O2 0.342596 0.264814 0.889474
O O3 0.097124 0.266652 0.804358
O O4 0.181093 0.273201 0.969263
O O5 0.463162 0.500000 0.874925
O O6 0.410046 0.697889 0.761368
O O7 0.592581 0.737164 0.909093
O O8 0.536415 0.500000 0.333045
O O9 0.382728 0.271507 0.276813
O O10 0.610743 0.240439 0.387347
O O11 0.265741 0.500000 0.061525
O O12 0.197831 0.273287 0.128446
O O13 0.000918 0.253474 0.356862
O O14 0.231915 0.215979 0.469376
O O15 0.000000 0.214319 0.500000
O O16 0.065940 0.000000 0.423258
O O17 0.995536 0.500000 0.714278
O O18 0.855183 0.272385 0.732923
O O19 0.243134 0.500000 0.219913
O O20 0.500000 0.773046 0.500000
O O21 0.388349 0.000000 0.537597
#
# Coordination Sequence:
#
# PCOD8062985 Si02
#       8
#     4   4   4   4   4   4   4   4
#     4   9  16  24  39  67  99 129 163 200 236 280
#     4   8  14  24  39  63  95 127 160 197 235 279
#     4   9  17  29  49  72  96 126 160 199 244 294
#     4   8  13  23  40  63  97 137 163 189 237 287
#     4  10  23  41  56  71  98 134 167 200 248 311
#     4  10  20  32  49  74 102 127 160 208 250 286
#     4   8  15  28  44  69 104 135 161 194 242 294
#     4  10  21  36  54  75  96 121 162 211 248 289
#
# _framework density 19.297456
#
# number of rings (size 3 to 8) (size 9 to 14) (size 15 to 20)
#    0.000    3.000    0.000    2.625    1.750    3.000 
#    0.000    2.500    0.000    0.000    0.000    5.250 
#    0.000    5.000    0.000    0.000    0.000    0.000 
#
# Total GULP energy -396434.007040 kJ/mol
# GULP energy per Si atom -12388.562720 kJ/mol
# Density = 1.925353 g / cm^3
# Si number density = 19.297456 Si / 1000 Ang^3
#
#
#
# Elastic Constant Matrix: (Units=GPa)
#
#
# Indices 1 2 3 4 5 6 
#
# 1 58.0150 11.2563 30.0082 0.0000 -4.7878 0.0000
# 2 11.2563 10.4508 26.8932 0.0000 0.6120 0.0000
# 3 30.0082 26.8932 146.9436 0.0000 3.6136 0.0000
# 4 0.0000 0.0000 0.0000 -1.5092 0.0000 -0.5285
# 5 -4.7878 0.6120 3.6136 0.0000 28.3761 0.0000
# 6 0.0000 0.0000 0.0000 -0.5285 0.0000 10.3304
#
#
#
# Elastic Compliance Matrix: (Units=1/GPa)
#
#
# Indices 1 2 3 4 5 6 
#
# 1 0.022313 -0.023224 -0.000412 0.000000 0.004318 0.000000
# 2 -0.023224 0.205044 -0.032681 0.000000 -0.004179 0.000000
# 3 -0.000412 -0.032681 0.012895 0.000000 -0.001007 0.000000
# 4 0.000000 0.000000 0.000000 -0.650925 0.000000 -0.033299
# 5 0.004318 -0.004179 -0.001007 0.000000 0.036188 0.000000
# 6 0.000000 0.000000 0.000000 -0.033299 0.000000 0.095098
#
#
# Mechanical properties :
#
#
# Convention : Reuss Voigt Hill
#
# Bulk Modulus (GPa) = 7.83597 39.08054 23.45825
# Shear Modulus (GPa) = -40.25343 17.25622 -11.49861
#
# Velocity S-wave (km/s) = -4.57217 2.99360 -2.44367
# Velocity P-wave (km/s) = 4.87889 5.67842 2.05438
#
# Compressibility (1/GPa) = 0.12761663
#
# Stress axis : x y z
#
# Youngs Moduli (GPa) = 44.81759 4.87701 77.54664
#
# Poissons Ratio (x) = 0.11327 0.03198
# Poissons Ratio (y) = 1.04086 2.53429
# Poissons Ratio (z) = 0.01848 0.15939
#
# Static dielectric constant tensor:
#      x y z
#    x 4.011470 0.000000 -0.101150 
#    y 0.000000 2.814630 0.000000 
#    z -0.101150 0.000000 3.717670 
# 
# 
# High freq. dielectric constant tensor:
#      x y z
#    x 1.754210 0.000000 -0.005890 
#    y 0.000000 1.673330 0.000000 
#    z -0.005890 0.000000 1.768630 
# 
# From -- ./inp_files/64406.got.cif
#   From: 2010.06.25/outbox.cif.g09.slc.cpg/sg10_33_cif.got.tgz:64406.got - 2010.06.27 22:07:45.
