data_PCOD8062917
_publ_section_title
;
Structure prediction by ZEFSAII (Michael W. Deem and Ramdas Pophale) SiO2 
 PCOD8062917
Probable space group: P 2/M
;
_chemical_formula_sum "Si O2"
_cell_formula_units_Z 24
_cell_length_a 23.800511
_cell_length_b 9.273925
_cell_length_c 18.323070
_cell_angle_alpha 90.000000
_cell_angle_beta 19.799127
_cell_angle_gamma 90.000000
_cell_volume 1369.914738
_symmetry_space_group_name_H-M "P 2/M"
_symmetry_group_IT_number 10
_symmetry_cell_setting 'monoclinic'
loop_
_space_group_symop_operation_xyz
x,y,z
-x,y,-z
-x,-y,-z
x,-y,z
loop_
_atom_site_type_symbol
_atom_site_label
_atom_site_fract_x
_atom_site_fract_y
_atom_site_fract_z
Si Si1 0.824258 0.340866 0.254245
Si Si2 0.314727 0.832379 0.700177
Si Si3 0.329349 0.332313 0.172516
Si Si4 0.996299 0.332591 0.340273
Si Si5 0.966764 0.330400 0.871298
Si Si6 0.832501 0.162712 0.750598
O O1 0.741276 0.500000 0.355062
O O2 0.703939 0.230523 0.359262
O O3 0.867304 0.291236 0.284526
O O4 0.000000 0.347053 0.000000
O O5 0.500000 0.803906 0.500000
O O6 0.269853 0.000000 0.752527
O O7 0.193266 0.755081 0.905332
O O8 0.331967 0.500000 0.148472
O O9 0.184240 0.296799 0.407065
O O10 0.308741 0.244326 0.122685
O O11 0.500000 0.281707 0.000000
O O12 0.039595 0.500000 0.297066
O O13 0.996301 0.284697 0.256382
O O14 0.138410 0.242913 0.208240
O O15 0.928119 0.500000 0.926420
O O16 0.000000 0.167524 0.500000
O O17 0.774322 0.000000 0.837320
#
# Coordination Sequence:
#
# PCOD8062917 Si02
#       6
#     4   4   4   4   4   4
#     4   8  15  29  48  68  90 118 154 191 227 272
#     4  10  20  32  47  69  96 124 154 188 228 277
#     4   9  17  30  49  71  95 124 157 193 233 276
#     4   9  17  31  50  70  93 121 155 194 233 274
#     4   9  18  32  50  71  92 118 155 196 234 273
#     4   9  17  29  46  68  94 125 159 191 227 275
#
# _framework density 17.519338000000001
#
# number of rings (size 3 to 8) (size 9 to 14) (size 15 to 20)
#    0.000    3.000    0.000    2.000    0.000    7.333 
#    0.000    1.667    0.000    4.000    0.000    0.000 
#    0.000    0.000    0.000    0.000    0.000    0.000 
#
# Total GULP energy -297537.445150 kJ/mol
# GULP energy per Si atom -12397.393548 kJ/mol
# Density = 1.747946 g / cm^3
# Si number density = 17.519338 Si / 1000 Ang^3
#
#
#
# Elastic Constant Matrix: (Units=GPa)
#
#
# Indices 1 2 3 4 5 6 
#
# 1 192.1023 83.9261 54.5245 0.0000 -5.5150 0.0000
# 2 83.9261 95.7387 41.0565 0.0000 -10.0973 0.0000
# 3 54.5245 41.0565 47.6265 0.0000 -9.2105 0.0000
# 4 0.0000 0.0000 0.0000 18.0777 0.0000 -7.1064
# 5 -5.5150 -10.0973 -9.2105 0.0000 28.2690 0.0000
# 6 0.0000 0.0000 0.0000 -7.1064 0.0000 18.9014
#
#
#
# Elastic Compliance Matrix: (Units=1/GPa)
#
#
# Indices 1 2 3 4 5 6 
#
# 1 0.009473 -0.005878 -0.006219 0.000000 -0.002277 0.000000
# 2 -0.005878 0.020266 -0.010207 0.000000 0.002767 0.000000
# 3 -0.006219 -0.010207 0.038394 0.000000 0.007651 0.000000
# 4 0.000000 0.000000 0.000000 0.064910 0.000000 0.024405
# 5 -0.002277 0.002767 0.007651 0.000000 0.038411 0.000000
# 6 0.000000 0.000000 0.000000 0.024405 0.000000 0.062082
#
#
# Mechanical properties :
#
#
# Convention : Reuss Voigt Hill
#
# Bulk Modulus (GPa) = 42.50305 77.16462 59.83384
# Shear Modulus (GPa) = 17.48341 23.44698 20.46520
#
# Velocity S-wave (km/s) = 3.16246 3.66231 3.42153
# Velocity P-wave (km/s) = 6.13581 7.87556 7.05948
#
# Compressibility (1/GPa) = 0.02352772
#
# Stress axis : x y z
#
# Youngs Moduli (GPa) = 105.56248 49.34297 26.04547
#
# Poissons Ratio (x) = 0.29002 0.16197
# Poissons Ratio (y) = 0.62045 0.26584
# Poissons Ratio (z) = 0.65647 0.50363
#
# Static dielectric constant tensor:
#      x y z
#    x 3.768550 0.000000 -0.019450 
#    y 0.000000 3.303980 0.000000 
#    z -0.019450 0.000000 2.850870 
# 
# 
# High freq. dielectric constant tensor:
#      x y z
#    x 1.694730 0.000000 -0.007420 
#    y 0.000000 1.676230 0.000000 
#    z -0.007420 0.000000 1.631790 
# 
# From -- ./inp_files/31184.got.cif
#   From: 2010.06.25/outbox.cif.g09.slc.cpg/sg10_16_cif.got.tgz:31184.got - 2010.06.27 22:07:45.
