data_PCOD8062764
_publ_section_title
;
Structure prediction by ZEFSAII (Michael W. Deem and Ramdas Pophale) SiO2 
 PCOD8062764
Probable space group: P 2/M
;
_chemical_formula_sum "Si O2"
_cell_formula_units_Z 24
_cell_length_a 14.735548
_cell_length_b 8.384694
_cell_length_c 15.015008
_cell_angle_alpha 90.000000
_cell_angle_beta 139.869530
_cell_angle_gamma 90.000000
_cell_volume 1195.700560
_symmetry_space_group_name_H-M "P 2/M"
_symmetry_group_IT_number 10
_symmetry_cell_setting 'monoclinic'
loop_
_space_group_symop_operation_xyz
x,y,z
-x,y,-z
-x,-y,-z
x,-y,z
loop_
_atom_site_type_symbol
_atom_site_label
_atom_site_fract_x
_atom_site_fract_y
_atom_site_fract_z
Si Si1 0.159132 0.314527 0.833838
Si Si2 0.664243 0.314335 0.379129
Si Si3 0.846174 0.312987 0.848033
Si Si4 0.344969 0.689132 0.135421
Si Si5 0.869324 0.817189 0.675568
Si Si6 0.842447 0.184847 0.358846
O O1 0.184831 0.500000 0.832925
O O2 0.189689 0.214376 0.768366
O O3 0.999942 0.294411 0.748188
O O4 0.265074 0.246143 0.987980
O O5 0.668131 0.500000 0.406894
O O6 0.504690 0.250057 0.254757
O O7 0.741339 0.214851 0.513009
O O8 0.735176 0.287839 0.336683
O O9 0.829433 0.500000 0.816638
O O10 0.732881 0.248802 0.834299
O O11 0.816925 0.218923 0.735476
O O12 0.000000 0.272274 0.000000
O O13 0.334815 0.500000 0.125749
O O14 0.916447 0.000000 0.701602
O O15 0.000000 0.241995 0.500000
O O16 0.822753 0.000000 0.367712
#
# Coordination Sequence:
#
# PCOD8062764 Si02
#       6
#     4   4   4   4   4   4
#     4  11  21  39  66  92 117 156 206 250 297 355
#     4  11  23  41  64  89 120 160 203 248 300 355
#     4  10  19  38  66  91 118 157 205 251 295 350
#     4   9  21  40  63  93 122 151 200 259 299 343
#     4  12  24  38  58  91 127 159 200 248 299 359
#     4  11  23  39  60  90 126 158 196 248 301 359
#
# _framework density 20.071914
#
# number of rings (size 3 to 8) (size 9 to 14) (size 15 to 20)
#    0.000    1.333    3.333    3.000    0.000    2.333 
#    0.000   11.667    0.000    0.000    0.000    0.000 
#    0.000    0.000    0.000    0.000    0.000    0.000 
#
# Total GULP energy -297751.855356 kJ/mol
# GULP energy per Si atom -12406.327307 kJ/mol
# Density = 2.002623 g / cm^3
# Si number density = 20.071914 Si / 1000 Ang^3
#
#
#
# Elastic Constant Matrix: (Units=GPa)
#
#
# Indices 1 2 3 4 5 6 
#
# 1 144.1796 14.6731 69.9552 0.0000 -2.8162 0.0000
# 2 14.6731 44.8985 16.4437 0.0000 0.8309 0.0000
# 3 69.9552 16.4437 138.9054 0.0000 -4.0192 0.0000
# 4 0.0000 0.0000 0.0000 11.6764 0.0000 -0.6413
# 5 -2.8162 0.8309 -4.0192 0.0000 45.0706 0.0000
# 6 0.0000 0.0000 0.0000 -0.6413 0.0000 9.9641
#
#
#
# Elastic Compliance Matrix: (Units=1/GPa)
#
#
# Indices 1 2 3 4 5 6 
#
# 1 0.009261 -0.001384 -0.004494 0.000000 0.000203 0.000000
# 2 -0.001384 0.023509 -0.002106 0.000000 -0.000708 0.000000
# 3 -0.004494 -0.002106 0.009730 0.000000 0.000626 0.000000
# 4 0.000000 0.000000 0.000000 0.085947 0.000000 0.005532
# 5 0.000203 -0.000708 0.000626 0.000000 0.022269 0.000000
# 6 0.000000 0.000000 0.000000 0.005532 0.000000 0.100716
#
#
# Mechanical properties :
#
#
# Convention : Reuss Voigt Hill
#
# Bulk Modulus (GPa) = 37.69238 58.90306 48.29772
# Shear Modulus (GPa) = 18.09976 28.46963 23.28469
#
# Velocity S-wave (km/s) = 3.00617 3.77023 3.40967
# Velocity P-wave (km/s) = 5.55597 6.95432 6.29410
#
# Compressibility (1/GPa) = 0.02653056
#
# Stress axis : x y z
#
# Youngs Moduli (GPa) = 107.97604 42.53612 102.77437
#
# Poissons Ratio (x) = 0.05889 0.46191
# Poissons Ratio (y) = 0.14948 0.21648
# Poissons Ratio (z) = 0.48529 0.08960
#
# Static dielectric constant tensor:
#      x y z
#    x 3.756840 0.000000 -0.055730 
#    y 0.000000 3.374200 0.000000 
#    z -0.055730 0.000000 3.764230 
# 
# 
# High freq. dielectric constant tensor:
#      x y z
#    x 1.790910 0.000000 -0.010710 
#    y 0.000000 1.768440 0.000000 
#    z -0.010710 0.000000 1.787750 
# 
# From -- ./inp_files/60359.got.cif
#   From: 2010.06.25/outbox.cif.g09.slc.cpg/sg10_31_cif.got.tgz:60359.got - 2010.06.27 22:07:45.
