data_PCOD8062142
_publ_section_title
;
Structure prediction by ZEFSAII (Michael W. Deem and Ramdas Pophale) SiO2 
 PCOD8062142
Probable space group: P 2/M
;
_chemical_formula_sum "Si O2"
_cell_formula_units_Z 20
_cell_length_a 11.038248
_cell_length_b 13.686057
_cell_length_c 8.776423
_cell_angle_alpha 90.000000
_cell_angle_beta 43.902922
_cell_angle_gamma 90.000000
_cell_volume 919.399018
_symmetry_space_group_name_H-M "P 2/M"
_symmetry_group_IT_number 10
_symmetry_cell_setting 'monoclinic'
loop_
_space_group_symop_operation_xyz
x,y,z
-x,y,-z
-x,-y,-z
x,-y,z
loop_
_atom_site_type_symbol
_atom_site_label
_atom_site_fract_x
_atom_site_fract_y
_atom_site_fract_z
Si Si1 0.521610 0.110664 0.805085
Si Si2 0.928092 0.104693 0.395899
Si Si3 0.713457 0.611257 0.417537
Si Si4 0.036339 0.309705 0.288085
Si Si5 0.626233 0.699591 0.182428
O O1 0.722098 0.122107 0.579386
O O2 0.406255 0.184424 0.808878
O O3 0.453743 0.000000 0.838665
O O4 0.500000 0.140639 0.000000
O O5 0.014484 0.199336 0.239697
O O6 0.000000 0.097952 0.500000
O O7 0.972280 0.000000 0.274689
O O8 0.687778 0.500000 0.387545
O O9 0.899525 0.619353 0.330477
O O10 0.703949 0.681823 0.279993
O O11 0.556368 0.641573 0.674735
O O12 0.000000 0.314197 0.500000
O O13 0.233819 0.341116 0.068124
#
# Coordination Sequence:
#
# PCOD8062142 Si02
#       5
#     4   4   4   4   4
#     4  10  19  34  62  98 135 172 211 260 319 383
#     4   9  17  32  55  89 131 167 202 247 310 381
#     4  11  26  48  67  89 124 173 226 271 329 388
#     4  11  23  40  68  99 129 165 212 273 330 385
#     4  11  23  41  68  93 130 175 214 259 324 389
#
# _framework density 21.753340000000001
#
# number of rings (size 3 to 8) (size 9 to 14) (size 15 to 20)
#    0.000    1.600    2.000    4.200    0.000    5.200 
#    0.000    4.000    0.000    2.400    0.000    0.000 
#    0.000    0.000    0.000    0.000    0.000    0.000 
#
# Total GULP energy -247903.579216 kJ/mol
# GULP energy per Si atom -12395.178961 kJ/mol
# Density = 2.170383 g / cm^3
# Si number density = 21.753340 Si / 1000 Ang^3
#
#
#
# Elastic Constant Matrix: (Units=GPa)
#
#
# Indices 1 2 3 4 5 6 
#
# 1 100.4300 53.1296 40.1537 0.0000 -11.0119 0.0000
# 2 53.1296 130.4563 39.1958 0.0000 10.3546 0.0000
# 3 40.1537 39.1958 123.7520 0.0000 -17.5152 0.0000
# 4 0.0000 0.0000 0.0000 16.5544 0.0000 0.7412
# 5 -11.0119 10.3546 -17.5152 0.0000 30.6625 0.0000
# 6 0.0000 0.0000 0.0000 0.7412 0.0000 30.5520
#
#
#
# Elastic Compliance Matrix: (Units=1/GPa)
#
#
# Indices 1 2 3 4 5 6 
#
# 1 0.014470 -0.005760 -0.002023 0.000000 0.005986 0.000000
# 2 -0.005760 0.011461 -0.002831 0.000000 -0.007556 0.000000
# 3 -0.002023 -0.002831 0.010516 0.000000 0.006236 0.000000
# 4 0.000000 0.000000 0.000000 0.060473 0.000000 -0.001467
# 5 0.005986 -0.007556 0.006236 0.000000 0.040877 0.000000
# 6 0.000000 0.000000 0.000000 -0.001467 0.000000 0.032767
#
#
# Mechanical properties :
#
#
# Convention : Reuss Voigt Hill
#
# Bulk Modulus (GPa) = 65.70580 68.84405 67.27493
# Shear Modulus (GPa) = 25.39807 30.36439 27.88123
#
# Velocity S-wave (km/s) = 3.42065 3.74016 3.58397
# Velocity P-wave (km/s) = 6.77286 7.09704 6.93684
#
# Compressibility (1/GPa) = 0.01521936
#
# Stress axis : x y z
#
# Youngs Moduli (GPa) = 69.10976 87.24878 95.08943
#
# Poissons Ratio (x) = 0.50256 0.19240
# Poissons Ratio (y) = 0.39808 0.26916
# Poissons Ratio (z) = 0.13983 0.24697
#
# Static dielectric constant tensor:
#      x y z
#    x 3.757770 0.000000 -0.347000 
#    y 0.000000 4.312340 0.000000 
#    z -0.347000 0.000000 3.880090 
# 
# 
# High freq. dielectric constant tensor:
#      x y z
#    x 1.844370 0.000000 -0.031080 
#    y 0.000000 1.860720 0.000000 
#    z -0.031080 0.000000 1.838250 
# 
# From -- ./inp_files/24523.got.cif
#   From: 2010.06.25/outbox.cif.g09.slc.cpg/sg10_13_cif.got.tgz:24523.got - 2010.06.27 22:07:45.
