data_PCOD8062659
_publ_section_title
;
Structure prediction by ZEFSAII (Michael W. Deem and Ramdas Pophale) SiO2 
 PCOD8062659
Probable space group: P 2/M
;
_chemical_formula_sum "Si O2"
_cell_formula_units_Z 32
_cell_length_a 25.869244
_cell_length_b 9.012540
_cell_length_c 15.421849
_cell_angle_alpha 90.000000
_cell_angle_beta 27.355212
_cell_angle_gamma 90.000000
_cell_volume 1652.183330
_symmetry_space_group_name_H-M "P 2/M"
_symmetry_group_IT_number 10
_symmetry_cell_setting 'monoclinic'
loop_
_space_group_symop_operation_xyz
x,y,z
-x,y,-z
-x,-y,-z
x,-y,z
loop_
_atom_site_type_symbol
_atom_site_label
_atom_site_fract_x
_atom_site_fract_y
_atom_site_fract_z
Si Si1 0.233353 0.174492 0.817519
Si Si2 0.774360 0.672547 0.997999
Si Si3 0.019168 0.327946 0.570982
Si Si4 0.611988 0.824486 0.574807
Si Si5 0.755429 0.826028 0.714604
Si Si6 0.239740 0.173846 0.487487
Si Si7 0.624947 0.324139 0.059827
Si Si8 0.997985 0.823132 0.100664
O O1 0.276716 0.246091 0.842141
O O2 0.314008 0.219342 0.618484
O O3 0.232597 0.000000 0.831360
O O4 0.108340 0.237446 0.985067
O O5 0.752895 0.500000 0.042522
O O6 0.709628 0.728461 0.009017
O O7 0.906143 0.709131 0.791820
O O8 0.054257 0.500000 0.527033
O O9 0.116949 0.226532 0.463457
O O10 0.000000 0.286332 0.500000
O O11 0.673892 0.764069 0.569393
O O12 0.496282 0.738758 0.737278
O O13 0.589671 0.000000 0.613049
O O14 0.716838 0.790463 0.673628
O O15 0.749278 0.000000 0.743535
O O16 0.668435 0.740783 0.904627
O O17 0.114339 0.241098 0.686549
O O18 0.229002 0.000000 0.520234
O O19 0.620514 0.500000 0.058232
O O20 0.001327 0.000000 0.096187
O O21 0.000000 0.763154 0.000000
#
# Coordination Sequence:
#
# PCOD8062659 Si02
#       8
#     4   4   4   4   4   4   4   4
#     4  10  20  34  59  90 117 144 184 236 283 330
#     4  10  22  39  59  80 111 154 191 227 280 340
#     4  10  19  37  60  82 115 157 191 224 278 345
#     4  10  21  39  60  84 113 149 189 237 288 333
#     4  11  22  36  59  91 118 144 185 239 286 334
#     4   9  18  33  55  85 120 150 180 223 286 346
#     4  11  24  43  60  77 108 155 199 235 281 341
#     4   9  14  27  54  86 117 149 177 212 272 344
#
# _framework density 19.368310000000001
#
# number of rings (size 3 to 8) (size 9 to 14) (size 15 to 20)
#    0.000    2.000    2.500    1.500    0.000    4.250 
#    0.000    6.250    0.000    1.125    0.000    0.000 
#    0.000    0.000    0.000    0.000    0.000    0.000 
#
# Total GULP energy -396837.547157 kJ/mol
# GULP energy per Si atom -12401.173349 kJ/mol
# Density = 1.932423 g / cm^3
# Si number density = 19.368310 Si / 1000 Ang^3
#
#
#
# Elastic Constant Matrix: (Units=GPa)
#
#
# Indices 1 2 3 4 5 6 
#
# 1 87.0154 36.1802 49.2746 0.0000 27.9702 0.0000
# 2 36.1802 45.3452 39.4678 0.0000 6.9046 0.0000
# 3 49.2746 39.4678 97.3988 0.0000 6.1476 0.0000
# 4 0.0000 0.0000 0.0000 28.6475 0.0000 -3.6121
# 5 27.9702 6.9046 6.1476 0.0000 30.2668 0.0000
# 6 0.0000 0.0000 0.0000 -3.6121 0.0000 -0.7968
#
#
#
# Elastic Compliance Matrix: (Units=1/GPa)
#
#
# Indices 1 2 3 4 5 6 
#
# 1 0.027838 -0.012164 -0.007806 0.000000 -0.021365 0.000000
# 2 -0.012164 0.040158 -0.010383 0.000000 0.004189 0.000000
# 3 -0.007806 -0.010383 0.018050 0.000000 0.005916 0.000000
# 4 0.000000 0.000000 0.000000 0.022211 0.000000 -0.100693
# 5 -0.021365 0.004189 0.005916 0.000000 0.050626 0.000000
# 6 0.000000 0.000000 0.000000 -0.100693 0.000000 -0.798589
#
#
# Mechanical properties :
#
#
# Convention : Reuss Voigt Hill
#
# Bulk Modulus (GPa) = 39.46357 53.28940 46.37649
# Shear Modulus (GPa) = -8.76343 18.61263 4.92460
#
# Velocity S-wave (km/s) = -2.12942 3.10334 1.59628
# Velocity P-wave (km/s) = 3.79126 6.35723 5.23393
#
# Compressibility (1/GPa) = 0.02533983
#
# Stress axis : x y z
#
# Youngs Moduli (GPa) = 35.92258 24.90137 55.40134
#
# Poissons Ratio (x) = 0.30291 0.43244
# Poissons Ratio (y) = 0.43697 0.57525
# Poissons Ratio (z) = 0.28040 0.25856
#
# Static dielectric constant tensor:
#      x y z
#    x 3.715680 0.000000 0.021100 
#    y 0.000000 3.176380 0.000000 
#    z 0.021100 0.000000 3.576440 
# 
# 
# High freq. dielectric constant tensor:
#      x y z
#    x 1.765210 0.000000 0.007060 
#    y 0.000000 1.720870 0.000000 
#    z 0.007060 0.000000 1.760170 
# 
# From -- ./inp_files/71408.got.cif
#   From: 2010.06.25/outbox.cif.g09.slc.cpg/sg10_36_cif.got.tgz:71408.got - 2010.06.27 22:07:45.
