data_PCOD8062726
_publ_section_title
;
Structure prediction by ZEFSAII (Michael W. Deem and Ramdas Pophale) SiO2 
 PCOD8062726
Probable space group: P 2/M
;
_chemical_formula_sum "Si O2"
_cell_formula_units_Z 26
_cell_length_a 9.207032
_cell_length_b 14.386773
_cell_length_c 10.747033
_cell_angle_alpha 90.000000
_cell_angle_beta 66.340278
_cell_angle_gamma 90.000000
_cell_volume 1303.890104
_symmetry_space_group_name_H-M "P 2/M"
_symmetry_group_IT_number 10
_symmetry_cell_setting 'monoclinic'
loop_
_space_group_symop_operation_xyz
x,y,z
-x,y,-z
-x,-y,-z
x,-y,z
loop_
_atom_site_type_symbol
_atom_site_label
_atom_site_fract_x
_atom_site_fract_y
_atom_site_fract_z
Si Si1 0.072248 0.101140 0.107075
Si Si2 0.369755 0.218104 0.939987
Si Si3 0.923657 0.723219 0.268598
Si Si4 0.565765 0.743216 0.348253
Si Si5 0.000000 0.657202 0.500000
Si Si6 0.670260 0.600885 0.685996
Si Si7 0.211909 0.389708 0.086009
O O1 0.955682 0.171447 0.216857
O O2 0.083963 0.000000 0.171689
O O3 0.244623 0.144521 0.032434
O O4 0.000000 0.082135 0.000000
O O5 0.428774 0.192000 0.778794
O O6 0.500000 0.212997 0.000000
O O7 0.296501 0.323853 0.954106
O O8 0.739372 0.700004 0.311740
O O9 0.971277 0.725339 0.395398
O O10 0.029239 0.644976 0.160941
O O11 0.500000 0.791661 0.500000
O O12 0.439297 0.664050 0.360821
O O13 0.846968 0.592622 0.569525
O O14 0.591208 0.500000 0.710251
O O15 0.688074 0.633397 0.823091
O O16 0.215542 0.500000 0.051404
#
# Coordination Sequence:
#
# PCOD8062726 Si02
#       7
#     4   4   4   4   2   4   4
#     4  10  21  40  67  91 111 143 193 247 300 349
#     4  11  22  39  64  87 119 156 197 241 293 349
#     4  10  21  38  62  85 118 152 199 241 299 344
#     4  12  23  37  54  87 121 157 192 241 296 344
#     4  10  19  38  57  78 116 170 192 238 284 354
#     4  10  20  34  53  82 116 161 209 242 283 335
#     4   9  20  37  59  83 112 157 205 248 290 337
#
# _framework density 19.940332000000001
#
# number of rings (size 3 to 8) (size 9 to 14) (size 15 to 20)
#    0.000    1.692    4.615    0.231    0.000    2.769 
#    0.000    1.154    0.000    1.846    0.000    0.000 
#    0.000    0.000    0.000    0.000    0.000    0.000 
#
# Total GULP energy -322103.168170 kJ/mol
# GULP energy per Si atom -12388.583391 kJ/mol
# Density = 1.989495 g / cm^3
# Si number density = 19.940332 Si / 1000 Ang^3
#
#
#
# Elastic Constant Matrix: (Units=GPa)
#
#
# Indices 1 2 3 4 5 6 
#
# 1 112.7544 19.1378 21.8989 0.0000 -15.1006 0.0000
# 2 19.1378 102.9540 8.1021 0.0000 -5.0435 0.0000
# 3 21.8989 8.1021 81.1081 0.0000 1.4379 0.0000
# 4 0.0000 0.0000 0.0000 12.4543 0.0000 4.1292
# 5 -15.1006 -5.0435 1.4379 0.0000 22.4940 0.0000
# 6 0.0000 0.0000 0.0000 4.1292 0.0000 9.8639
#
#
#
# Elastic Compliance Matrix: (Units=1/GPa)
#
#
# Indices 1 2 3 4 5 6 
#
# 1 0.010594 -0.001404 -0.002844 0.000000 0.006979 0.000000
# 2 -0.001404 0.010092 -0.000653 0.000000 0.001362 0.000000
# 3 -0.002844 -0.000653 0.013214 0.000000 -0.002900 0.000000
# 4 0.000000 0.000000 0.000000 0.093233 0.000000 -0.039029
# 5 0.006979 0.001362 -0.002900 0.000000 0.049632 0.000000
# 6 0.000000 0.000000 0.000000 -0.039029 0.000000 0.117717
#
#
# Mechanical properties :
#
#
# Convention : Reuss Voigt Hill
#
# Bulk Modulus (GPa) = 41.49661 43.89934 42.69797
# Shear Modulus (GPa) = 16.00935 25.47429 20.74182
#
# Velocity S-wave (km/s) = 2.83656 3.57813 3.22870
# Velocity P-wave (km/s) = 5.61993 6.25570 5.94632
#
# Compressibility (1/GPa) = 0.02409835
#
# Stress axis : x y z
#
# Youngs Moduli (GPa) = 94.39239 99.08704 75.67882
#
# Poissons Ratio (x) = 0.13908 0.21522
# Poissons Ratio (y) = 0.13249 0.04944
# Poissons Ratio (z) = 0.26844 0.06474
#
# Static dielectric constant tensor:
#      x y z
#    x 3.701950 0.000000 0.029830 
#    y 0.000000 3.518310 0.000000 
#    z 0.029830 0.000000 3.872050 
# 
# 
# High freq. dielectric constant tensor:
#      x y z
#    x 1.794460 0.000000 -0.004810 
#    y 0.000000 1.736600 0.000000 
#    z -0.004810 0.000000 1.781740 
# 
# From -- ./inp_files/42592.got.cif
#   From: 2010.06.25/outbox.cif.g09.slc.cpg/sg10_22_cif.got.tgz:42592.got - 2010.06.27 22:07:45.
