data_PCOD8062034
_publ_section_title
;
Structure prediction by ZEFSAII (Michael W. Deem and Ramdas Pophale) SiO2 
 PCOD8062034
Probable space group: P 2/M
;
_chemical_formula_sum "Si O2"
_cell_formula_units_Z 32
_cell_length_a 9.388424
_cell_length_b 13.333763
_cell_length_c 28.352549
_cell_angle_alpha 90.000000
_cell_angle_beta 151.442420
_cell_angle_gamma 90.000000
_cell_volume 1696.693181
_symmetry_space_group_name_H-M "P 2/M"
_symmetry_group_IT_number 10
_symmetry_cell_setting 'monoclinic'
loop_
_space_group_symop_operation_xyz
x,y,z
-x,y,-z
-x,-y,-z
x,-y,z
loop_
_atom_site_type_symbol
_atom_site_label
_atom_site_fract_x
_atom_site_fract_y
_atom_site_fract_z
Si Si1 0.343989 0.616573 0.698824
Si Si2 0.767810 0.239029 0.044574
Si Si3 0.103606 0.385119 0.079924
Si Si4 0.215310 0.253179 0.445980
Si Si5 0.692836 0.115076 0.438092
Si Si6 0.689280 0.117635 0.931484
Si Si7 0.735360 0.116418 0.274402
Si Si8 0.383737 0.802956 0.261482
O O1 0.344138 0.500000 0.682708
O O2 0.544909 0.631001 0.805124
O O3 0.497955 0.686951 0.703588
O O4 0.004237 0.652512 0.608160
O O5 0.899999 0.339643 0.061275
O O6 0.032350 0.185056 0.150298
O O7 0.500000 0.270927 0.000000
O O8 0.635543 0.166074 0.966454
O O9 0.017722 0.500000 0.054008
O O10 0.000000 0.336100 0.000000
O O11 0.500000 0.293931 0.500000
O O12 0.314748 0.194994 0.521985
O O13 0.048102 0.173388 0.364192
O O14 0.433781 0.144749 0.326228
O O15 0.000000 0.125929 0.500000
O O16 0.647377 0.000000 0.442665
O O17 0.443576 0.154695 0.823001
O O18 0.678406 0.000000 0.935761
O O19 0.000000 0.152704 0.000000
O O20 0.560020 0.139382 0.271507
O O21 0.803039 0.000000 0.291449
#
# Coordination Sequence:
#
# PCOD8062034 Si02
#       8
#     4   4   4   4   4   4   4   4
#     4   9  19  37  61  85 111 145 187 232 277 335
#     4  11  23  35  53  84 121 152 175 227 290 339
#     4   9  19  37  64  89 107 141 192 231 270 334
#     4  11  24  38  55  85 117 148 184 240 288 335
#     4  11  21  37  61  84 109 146 196 237 277 332
#     4  10  20  34  56  81 108 149 197 231 267 335
#     4  10  19  34  58  81 105 146 194 236 279 327
#     4  10  20  36  57  84 110 148 191 234 275 333
#
# _framework density 18.860216999999999
#
# number of rings (size 3 to 8) (size 9 to 14) (size 15 to 20)
#    0.000    1.875    3.750    1.125    3.500    3.250 
#    0.000    2.500    0.000    0.000    0.000    0.000 
#    0.000    0.000    0.000    0.000    0.000    0.000 
#
# Total GULP energy -396691.681676 kJ/mol
# GULP energy per Si atom -12396.615052 kJ/mol
# Density = 1.881729 g / cm^3
# Si number density = 18.860217 Si / 1000 Ang^3
#
#
#
# Elastic Constant Matrix: (Units=GPa)
#
#
# Indices 1 2 3 4 5 6 
#
# 1 82.4815 18.3532 43.3866 0.0000 0.7247 0.0000
# 2 18.3532 66.4589 24.2907 0.0000 -13.0537 0.0000
# 3 43.3866 24.2907 113.4976 0.0000 -13.1470 0.0000
# 4 0.0000 0.0000 0.0000 26.5046 0.0000 -4.4474
# 5 0.7247 -13.0537 -13.1470 0.0000 29.3859 0.0000
# 6 0.0000 0.0000 0.0000 -4.4474 0.0000 13.8715
#
#
#
# Elastic Compliance Matrix: (Units=1/GPa)
#
#
# Indices 1 2 3 4 5 6 
#
# 1 0.015991 -0.003110 -0.005962 0.000000 -0.004443 0.000000
# 2 -0.003110 0.017997 -0.001822 0.000000 0.007256 0.000000
# 3 -0.005962 -0.001822 0.012026 0.000000 0.004718 0.000000
# 4 0.000000 0.000000 0.000000 0.039874 0.000000 0.012784
# 5 -0.004443 0.007256 0.004718 0.000000 0.039473 0.000000
# 6 0.000000 0.000000 0.000000 0.012784 0.000000 0.076189
#
#
# Mechanical properties :
#
#
# Convention : Reuss Voigt Hill
#
# Bulk Modulus (GPa) = 41.27783 48.27766 44.77774
# Shear Modulus (GPa) = 21.60623 25.71293 23.65958
#
# Velocity S-wave (km/s) = 3.38834 3.69635 3.54569
# Velocity P-wave (km/s) = 6.10258 6.62348 6.36836
#
# Compressibility (1/GPa) = 0.02422608
#
# Stress axis : x y z
#
# Youngs Moduli (GPa) = 62.53515 55.56498 83.15040
#
# Poissons Ratio (x) = 0.17279 0.49574
# Poissons Ratio (y) = 0.19446 0.15154
# Poissons Ratio (z) = 0.37283 0.10127
#
# Static dielectric constant tensor:
#      x y z
#    x 3.189410 0.000000 -0.275570 
#    y 0.000000 3.508270 0.000000 
#    z -0.275570 0.000000 3.998230 
# 
# 
# High freq. dielectric constant tensor:
#      x y z
#    x 1.695260 0.000000 -0.011310 
#    y 0.000000 1.736100 0.000000 
#    z -0.011310 0.000000 1.748530 
# 
# From -- ./inp_files/92396.got.cif
#   From: 2010.06.25/outbox.cif.g09.slc.cpg/sg10_47_cif.got.tgz:92396.got - 2010.06.27 22:07:45.
