data_PCOD8062225
_publ_section_title
;
Structure prediction by ZEFSAII (Michael W. Deem and Ramdas Pophale) SiO2 
 PCOD8062225
Probable space group: P 2/M
;
_chemical_formula_sum "Si O2"
_cell_formula_units_Z 28
_cell_length_a 11.726906
_cell_length_b 8.626819
_cell_length_c 15.462714
_cell_angle_alpha 90.000000
_cell_angle_beta 63.339539
_cell_angle_gamma 90.000000
_cell_volume 1397.984952
_symmetry_space_group_name_H-M "P 2/M"
_symmetry_group_IT_number 10
_symmetry_cell_setting 'monoclinic'
loop_
_space_group_symop_operation_xyz
x,y,z
-x,y,-z
-x,-y,-z
x,-y,z
loop_
_atom_site_type_symbol
_atom_site_label
_atom_site_fract_x
_atom_site_fract_y
_atom_site_fract_z
Si Si1 0.565513 0.322303 0.287279
Si Si2 0.512927 0.819012 0.124165
Si Si3 0.308195 0.318351 0.072920
Si Si4 0.779179 0.819244 0.323150
Si Si5 0.131623 0.177485 0.405904
Si Si6 0.316352 0.323298 0.471876
Si Si7 0.929313 0.182562 0.766624
O O1 0.567971 0.500000 0.255667
O O2 0.528416 0.215710 0.219547
O O3 0.703239 0.275703 0.276748
O O4 0.464859 0.296977 0.399215
O O5 0.389384 0.730629 0.129398
O O6 0.489649 0.000000 0.118538
O O7 0.639408 0.767083 0.030043
O O8 0.320439 0.500000 0.053879
O O9 0.160926 0.270756 0.134866
O O10 0.726177 0.789163 0.437111
O O11 0.925622 0.765527 0.266382
O O12 0.764426 0.000000 0.308833
O O13 0.237247 0.286840 0.412291
O O14 0.111697 0.233797 0.315172
O O15 0.000000 0.197445 0.500000
O O16 0.178946 0.000000 0.393807
O O17 0.291838 0.500000 0.508983
O O18 0.913787 0.000000 0.784149
#
# Coordination Sequence:
#
# PCOD8062225 Si02
#       7
#     4   4   4   4   4   4   4
#     4  11  24  41  59  85 119 154 196 246 296 346
#     4  11  22  40  65  91 118 152 194 239 289 346
#     4  11  22  38  63  93 123 152 186 237 297 350
#     4  11  23  40  60  83 115 158 203 245 287 343
#     4  10  19  35  56  81 114 152 191 239 288 338
#     4  11  23  37  56  84 118 156 196 243 295 349
#     4  10  21  38  59  85 119 156 197 241 290 349
#
# _framework density 20.028828000000001
#
# number of rings (size 3 to 8) (size 9 to 14) (size 15 to 20)
#    0.000    1.286    1.429    6.000    0.000    8.286 
#    0.000    0.714    0.000    4.286    0.000    0.000 
#    0.000    0.000    0.000    0.000    0.000    0.000 
#
# Total GULP energy -347379.913598 kJ/mol
# GULP energy per Si atom -12406.425486 kJ/mol
# Density = 1.998324 g / cm^3
# Si number density = 20.028828 Si / 1000 Ang^3
#
#
#
# Elastic Constant Matrix: (Units=GPa)
#
#
# Indices 1 2 3 4 5 6 
#
# 1 82.1543 18.9042 26.5771 0.0000 -10.3117 0.0000
# 2 18.9042 59.6233 19.0704 0.0000 -7.9462 0.0000
# 3 26.5771 19.0704 75.1851 0.0000 -16.7356 0.0000
# 4 0.0000 0.0000 0.0000 29.4957 0.0000 -1.3722
# 5 -10.3117 -7.9462 -16.7356 0.0000 27.5900 0.0000
# 6 0.0000 0.0000 0.0000 -1.3722 0.0000 28.9047
#
#
#
# Elastic Compliance Matrix: (Units=1/GPa)
#
#
# Indices 1 2 3 4 5 6 
#
# 1 0.014385 -0.003046 -0.003828 0.000000 0.002177 0.000000
# 2 -0.003046 0.019091 -0.003231 0.000000 0.002400 0.000000
# 3 -0.003828 -0.003231 0.017281 0.000000 0.008121 0.000000
# 4 0.000000 0.000000 0.000000 0.033978 0.000000 0.001613
# 5 0.002177 0.002400 0.008121 0.000000 0.042676 0.000000
# 6 0.000000 0.000000 0.000000 0.001613 0.000000 0.034673
#
#
# Mechanical properties :
#
#
# Convention : Reuss Voigt Hill
#
# Bulk Modulus (GPa) = 32.73739 38.45179 35.59459
# Shear Modulus (GPa) = 25.97718 27.35882 26.66800
#
# Velocity S-wave (km/s) = 3.60528 3.69992 3.65290
# Velocity P-wave (km/s) = 5.80615 6.12310 5.96673
#
# Compressibility (1/GPa) = 0.03054611
#
# Stress axis : x y z
#
# Youngs Moduli (GPa) = 69.51834 52.38003 57.86770
#
# Poissons Ratio (x) = 0.15957 0.22149
# Poissons Ratio (y) = 0.21178 0.18699
# Poissons Ratio (z) = 0.26608 0.16926
#
# Static dielectric constant tensor:
#      x y z
#    x 3.688130 0.000000 -0.112880 
#    y 0.000000 3.604690 0.000000 
#    z -0.112880 0.000000 3.615920 
# 
# 
# High freq. dielectric constant tensor:
#      x y z
#    x 1.780320 0.000000 -0.009710 
#    y 0.000000 1.785570 0.000000 
#    z -0.009710 0.000000 1.779050 
# 
# From -- ./inp_files/63510.got.cif
#   From: 2010.06.25/outbox.cif.g09.slc.cpg/sg10_32_cif.got.tgz:63510.got - 2010.06.27 22:07:45.
