data_PCOD8062900
_publ_section_title
;
Structure prediction by ZEFSAII (Michael W. Deem and Ramdas Pophale) SiO2 
 PCOD8062900
Probable space group: P 2/M
;
_chemical_formula_sum "Si O2"
_cell_formula_units_Z 32
_cell_length_a 20.613024
_cell_length_b 9.719713
_cell_length_c 11.191545
_cell_angle_alpha 90.000000
_cell_angle_beta 123.561305
_cell_angle_gamma 90.000000
_cell_volume 1868.460239
_symmetry_space_group_name_H-M "P 2/M"
_symmetry_group_IT_number 10
_symmetry_cell_setting 'monoclinic'
loop_
_space_group_symop_operation_xyz
x,y,z
-x,y,-z
-x,-y,-z
x,-y,z
loop_
_atom_site_type_symbol
_atom_site_label
_atom_site_fract_x
_atom_site_fract_y
_atom_site_fract_z
Si Si1 0.193865 0.160294 0.825591
Si Si2 0.786192 0.157483 0.425773
Si Si3 0.920417 0.657585 0.144935
Si Si4 0.291022 0.347532 0.472850
Si Si5 0.932646 0.846035 0.734380
Si Si6 0.411285 0.339167 0.399052
Si Si7 0.170877 0.253288 0.169466
Si Si8 0.303906 0.152272 0.147045
O O1 0.213601 0.203553 0.711160
O O2 0.123820 0.256781 0.798145
O O3 0.168005 0.000000 0.808065
O O4 0.271308 0.187692 0.982269
O O5 0.721365 0.244766 0.429877
O O6 0.871823 0.182026 0.566155
O O7 0.760761 0.000000 0.414368
O O8 0.932592 0.500000 0.199208
O O9 0.002965 0.729027 0.208326
O O10 0.873036 0.654458 0.972850
O O11 0.301331 0.500000 0.536243
O O12 0.368357 0.302371 0.479511
O O13 0.217478 0.350944 0.308020
O O14 0.890566 0.838505 0.820144
O O15 0.968322 0.000000 0.758808
O O16 0.500000 0.290666 0.500000
O O17 0.404297 0.500000 0.362645
O O18 0.370996 0.260246 0.248051
O O19 0.231785 0.153158 0.165977
O O20 0.340520 0.000000 0.187047
#
# Coordination Sequence:
#
# PCOD8062900 Si02
#       8
#     4   4   4   4   4   4   4   4
#     4   9  19  36  53  67  89 123 161 199 239 282
#     4   9  19  35  52  68  89 122 161 199 239 282
#     4  11  22  32  45  67  94 123 157 200 247 289
#     4   9  17  30  50  73  95 121 155 193 228 269
#     4  10  20  32  47  66  90 123 160 197 242 293
#     4   9  18  32  50  75 108 137 153 174 220 279
#     4   9  18  31  48  67  93 124 155 192 240 293
#     4   9  17  30  51  76  96 118 156 200 233 269
#
# _framework density 17.126401000000001
#
# number of rings (size 3 to 8) (size 9 to 14) (size 15 to 20)
#    0.000    2.625    0.000    1.500    0.000   12.250 
#    0.000    2.500    0.000    0.750    0.000    5.250 
#    0.000    0.000    0.000    0.000    0.000    0.000 
#
# Total GULP energy -396773.802269 kJ/mol
# GULP energy per Si atom -12399.181321 kJ/mol
# Density = 1.708742 g / cm^3
# Si number density = 17.126401 Si / 1000 Ang^3
#
#
#
# Elastic Constant Matrix: (Units=GPa)
#
#
# Indices 1 2 3 4 5 6 
#
# 1 103.6844 54.2971 61.4397 0.0000 -0.9230 0.0000
# 2 54.2971 89.8131 42.8064 0.0000 0.2993 0.0000
# 3 61.4397 42.8064 86.0449 0.0000 -14.6482 0.0000
# 4 0.0000 0.0000 0.0000 20.9572 0.0000 -1.1212
# 5 -0.9230 0.2993 -14.6482 0.0000 27.8249 0.0000
# 6 0.0000 0.0000 0.0000 -1.1212 0.0000 24.5682
#
#
#
# Elastic Compliance Matrix: (Units=1/GPa)
#
#
# Indices 1 2 3 4 5 6 
#
# 1 0.020143 -0.006347 -0.012192 0.000000 -0.005682 0.000000
# 2 -0.006347 0.017096 -0.004437 0.000000 -0.002730 0.000000
# 3 -0.012192 -0.004437 0.024687 0.000000 0.012640 0.000000
# 4 0.000000 0.000000 0.000000 0.047833 0.000000 0.002183
# 5 -0.005682 -0.002730 0.012640 0.000000 0.042434 0.000000
# 6 0.000000 0.000000 0.000000 0.002183 0.000000 0.040803
#
#
# Mechanical properties :
#
#
# Convention : Reuss Voigt Hill
#
# Bulk Modulus (GPa) = 62.61317 66.29209 64.45263
# Shear Modulus (GPa) = 20.46887 22.73667 21.60277
#
# Velocity S-wave (km/s) = 3.46087 3.64755 3.55543
# Velocity P-wave (km/s) = 7.25320 7.51871 7.38715
#
# Compressibility (1/GPa) = 0.01597108
#
# Stress axis : x y z
#
# Youngs Moduli (GPa) = 49.64537 58.49441 40.50706
#
# Poissons Ratio (x) = 0.37129 0.49388
# Poissons Ratio (y) = 0.31512 0.17975
# Poissons Ratio (z) = 0.60530 0.25956
#
# Static dielectric constant tensor:
#      x y z
#    x 3.096410 0.000000 -0.064680 
#    y 0.000000 3.135930 0.000000 
#    z -0.064680 0.000000 3.178310 
# 
# 
# High freq. dielectric constant tensor:
#      x y z
#    x 1.643070 0.000000 -0.006540 
#    y 0.000000 1.663170 0.000000 
#    z -0.006540 0.000000 1.647880 
# 
# From -- ./inp_files/54804.got.cif
#   From: 2010.06.25/outbox.cif.g09.slc.cpg/sg10_28_cif.got.tgz:54804.got - 2010.06.27 22:07:45.
