data_PCOD8062041
_publ_section_title
;
Structure prediction by ZEFSAII (Michael W. Deem and Ramdas Pophale) SiO2 
 PCOD8062041
Probable space group: P 2/M
;
_chemical_formula_sum "Si O2"
_cell_formula_units_Z 32
_cell_length_a 19.972195
_cell_length_b 9.221512
_cell_length_c 25.803505
_cell_angle_alpha 90.000000
_cell_angle_beta 158.678704
_cell_angle_gamma 90.000000
_cell_volume 1727.935493
_symmetry_space_group_name_H-M "P 2/M"
_symmetry_group_IT_number 10
_symmetry_cell_setting 'monoclinic'
loop_
_space_group_symop_operation_xyz
x,y,z
-x,y,-z
-x,-y,-z
x,-y,z
loop_
_atom_site_type_symbol
_atom_site_label
_atom_site_fract_x
_atom_site_fract_y
_atom_site_fract_z
Si Si1 0.705095 0.166687 0.660139
Si Si2 0.146445 0.668182 0.717495
Si Si3 0.812976 0.670987 0.839238
Si Si4 0.579555 0.668501 0.178699
Si Si5 0.737582 0.328478 0.400718
Si Si6 0.851358 0.165598 0.654698
Si Si7 0.559335 0.329518 0.376771
Si Si8 0.760699 0.828609 0.113405
O O1 0.500000 0.224833 0.500000
O O2 0.794578 0.258373 0.770088
O O3 0.837249 0.187244 0.706095
O O4 0.693033 0.000000 0.669207
O O5 0.141674 0.500000 0.731061
O O6 0.262061 0.690420 0.749121
O O7 0.242335 0.759295 0.831862
O O8 0.942433 0.731172 0.559825
O O9 0.817317 0.500000 0.833939
O O10 0.646861 0.718196 0.757341
O O11 0.000000 0.727928 0.000000
O O12 0.521776 0.500000 0.141147
O O13 0.658134 0.731027 0.289484
O O14 0.403155 0.763315 0.038311
O O15 0.751505 0.500000 0.406489
O O16 0.603005 0.276851 0.349922
O O17 0.698916 0.262004 0.517871
O O18 0.052328 0.214585 0.781222
O O19 0.812305 0.000000 0.610951
O O20 0.586195 0.500000 0.400387
O O21 0.734966 0.000000 0.099937
#
# Coordination Sequence:
#
# PCOD8062041 Si02
#       8
#     4   4   4   4   4   4   4   4
#     4  10  20  36  59  82 106 142 187 228 265 315
#     4  10  19  35  59  83 107 141 186 230 270 321
#     4  10  22  37  54  84 121 147 174 219 275 329
#     4  10  21  36  56  82 112 144 181 227 274 322
#     4   9  18  34  57  83 108 139 184 229 270 317
#     4  10  21  37  56  80 109 141 184 232 271 314
#     4  10  19  34  58  82 108 144 182 221 269 326
#     4  11  23  37  54  79 113 147 180 225 278 326
#
# _framework density 18.519209
#
# number of rings (size 3 to 8) (size 9 to 14) (size 15 to 20)
#    0.000    2.000    2.500    1.125    0.000    6.000 
#    0.000    2.500    0.000    1.500    0.000    0.000 
#    0.000    0.000    0.000    0.000    0.000    0.000 
#
# Total GULP energy -396903.597838 kJ/mol
# GULP energy per Si atom -12403.237432 kJ/mol
# Density = 1.847706 g / cm^3
# Si number density = 18.519209 Si / 1000 Ang^3
#
#
#
# Elastic Constant Matrix: (Units=GPa)
#
#
# Indices 1 2 3 4 5 6 
#
# 1 110.8433 32.6775 57.0899 0.0000 2.6711 0.0000
# 2 32.6775 40.2228 40.1158 0.0000 1.3710 0.0000
# 3 57.0899 40.1158 137.9453 0.0000 -5.4146 0.0000
# 4 0.0000 0.0000 0.0000 -93.9796 0.0000 43.2319
# 5 2.6711 1.3710 -5.4146 0.0000 32.6715 0.0000
# 6 0.0000 0.0000 0.0000 43.2319 0.0000 7.3862
#
#
#
# Elastic Compliance Matrix: (Units=1/GPa)
#
#
# Indices 1 2 3 4 5 6 
#
# 1 0.012847 -0.007098 -0.003304 0.000000 -0.001300 0.000000
# 2 -0.007098 0.039270 -0.008580 0.000000 -0.002490 0.000000
# 3 -0.003304 -0.008580 0.011209 0.000000 0.002488 0.000000
# 4 0.000000 0.000000 0.000000 -0.002882 0.000000 0.016867
# 5 -0.001300 -0.002490 0.002488 0.000000 0.031231 0.000000
# 6 0.000000 0.000000 0.000000 0.016867 0.000000 0.036666
#
#
# Mechanical properties :
#
#
# Convention : Reuss Voigt Hill
#
# Bulk Modulus (GPa) = 39.42779 60.97531 50.20155
# Shear Modulus (GPa) = 28.61065 -0.17582 14.21741
#
# Velocity S-wave (km/s) = 3.93481 -0.30846 2.77377
# Velocity P-wave (km/s) = 6.47920 5.73324 6.11760
#
# Compressibility (1/GPa) = 0.02536282
#
# Stress axis : x y z
#
# Youngs Moduli (GPa) = 77.83781 25.46457 89.21026
#
# Poissons Ratio (x) = 0.18074 0.29474
# Poissons Ratio (y) = 0.55248 0.76546
# Poissons Ratio (z) = 0.25716 0.21849
#
# Static dielectric constant tensor:
#      x y z
#    x 3.610060 0.000000 0.099620 
#    y 0.000000 3.233870 0.000000 
#    z 0.099620 0.000000 3.546730 
# 
# 
# High freq. dielectric constant tensor:
#      x y z
#    x 1.733480 0.000000 0.004910 
#    y 0.000000 1.698010 0.000000 
#    z 0.004910 0.000000 1.722310 
# 
# From -- ./inp_files/86850.got.cif
#   From: 2010.06.25/outbox.cif.g09.slc.cpg/sg10_44_cif.got.tgz:86850.got - 2010.06.27 22:07:45.
