data_PCOD8062511
_publ_section_title
;
Structure prediction by ZEFSAII (Michael W. Deem and Ramdas Pophale) SiO2 
 PCOD8062511
Probable space group: P 2/M
;
_chemical_formula_sum "Si O2"
_cell_formula_units_Z 24
_cell_length_a 12.112299
_cell_length_b 9.198963
_cell_length_c 11.426765
_cell_angle_alpha 90.000000
_cell_angle_beta 109.399773
_cell_angle_gamma 90.000000
_cell_volume 1200.890977
_symmetry_space_group_name_H-M "P 2/M"
_symmetry_group_IT_number 10
_symmetry_cell_setting 'monoclinic'
loop_
_space_group_symop_operation_xyz
x,y,z
-x,y,-z
-x,-y,-z
x,-y,z
loop_
_atom_site_type_symbol
_atom_site_label
_atom_site_fract_x
_atom_site_fract_y
_atom_site_fract_z
Si Si1 0.324648 0.830230 0.698978
Si Si2 0.887782 0.835592 0.541343
Si Si3 0.254567 0.334740 0.139770
Si Si4 0.966267 0.667455 0.786885
Si Si5 0.477794 0.330446 0.361623
Si Si6 0.209316 0.828165 0.900022
O O1 0.223907 0.788351 0.572477
O O2 0.440856 0.745338 0.705542
O O3 0.284359 0.781352 0.813801
O O4 0.352428 0.000000 0.706276
O O5 0.897561 0.722576 0.649304
O O6 0.000000 0.824416 0.500000
O O7 0.875197 0.000000 0.585539
O O8 0.274341 0.500000 0.104696
O O9 0.121595 0.313885 0.135480
O O10 0.344427 0.297550 0.276366
O O11 0.277311 0.229288 0.038078
O O12 0.001671 0.500000 0.781713
O O13 0.080893 0.760543 0.849622
O O14 0.500000 0.266713 0.500000
O O15 0.507509 0.500000 0.371257
O O16 0.194092 0.000000 0.900650
#
# Coordination Sequence:
#
# PCOD8062511 Si02
#       6
#     4   4   4   4   4   4
#     4  10  22  39  60  87 120 155 195 244 291 345
#     4  10  19  36  58  83 120 156 190 238 293 345
#     4  10  23  41  59  85 120 156 197 246 295 346
#     4  11  22  37  60  89 121 155 198 247 294 350
#     4  10  22  42  65  87 117 154 194 242 294 350
#     4  11  23  40  60  86 121 158 197 242 296 353
#
# _framework density 19.985161999999999
#
# number of rings (size 3 to 8) (size 9 to 14) (size 15 to 20)
#    0.000    1.667    1.667    2.500    0.000    8.667 
#    0.000    3.333    0.000    0.000    0.000    0.000 
#    0.000    0.000    0.000    0.000    0.000    0.000 
#
# Total GULP energy -297699.943040 kJ/mol
# GULP energy per Si atom -12404.164293 kJ/mol
# Density = 1.993967 g / cm^3
# Si number density = 19.985162 Si / 1000 Ang^3
#
#
#
# Elastic Constant Matrix: (Units=GPa)
#
#
# Indices 1 2 3 4 5 6 
#
# 1 104.3869 43.9518 39.6569 0.0000 -2.6585 0.0000
# 2 43.9518 74.2990 53.0133 0.0000 -6.1056 0.0000
# 3 39.6569 53.0133 126.2179 0.0000 -11.2587 0.0000
# 4 0.0000 0.0000 0.0000 38.8992 0.0000 -1.5590
# 5 -2.6585 -6.1056 -11.2587 0.0000 24.0202 0.0000
# 6 0.0000 0.0000 0.0000 -1.5590 0.0000 31.7185
#
#
#
# Elastic Compliance Matrix: (Units=1/GPa)
#
#
# Indices 1 2 3 4 5 6 
#
# 1 0.012904 -0.006793 -0.001281 0.000000 -0.000899 0.000000
# 2 -0.006793 0.022825 -0.007308 0.000000 0.001625 0.000000
# 3 -0.001281 -0.007308 0.011706 0.000000 0.003487 0.000000
# 4 0.000000 0.000000 0.000000 0.025758 0.000000 0.001266
# 5 -0.000899 0.001625 0.003487 0.000000 0.043580 0.000000
# 6 0.000000 0.000000 0.000000 0.001266 0.000000 0.031590
#
#
# Mechanical properties :
#
#
# Convention : Reuss Voigt Hill
#
# Bulk Modulus (GPa) = 59.98492 64.23865 62.11178
# Shear Modulus (GPa) = 27.07343 30.14637 28.60990
#
# Velocity S-wave (km/s) = 3.68459 3.88807 3.78770
# Velocity P-wave (km/s) = 6.94129 7.23665 7.09051
#
# Compressibility (1/GPa) = 0.01667086
#
# Stress axis : x y z
#
# Youngs Moduli (GPa) = 77.49667 43.81140 85.42764
#
# Poissons Ratio (x) = 0.29761 0.10947
# Poissons Ratio (y) = 0.52643 0.62428
# Poissons Ratio (z) = 0.09930 0.32016
#
# Static dielectric constant tensor:
#      x y z
#    x 3.572280 0.000000 -0.052960 
#    y 0.000000 3.613400 0.000000 
#    z -0.052960 0.000000 3.673790 
# 
# 
# High freq. dielectric constant tensor:
#      x y z
#    x 1.780230 0.000000 0.001350 
#    y 0.000000 1.776240 0.000000 
#    z 0.001350 0.000000 1.790130 
# 
# From -- ./inp_files/45312.got.cif
#   From: 2010.06.25/outbox.cif.g09.slc.cpg/sg10_23_cif.got.tgz:45312.got - 2010.06.27 22:07:45.
