data_PCOD8062368
_publ_section_title
;
Structure prediction by ZEFSAII (Michael W. Deem and Ramdas Pophale) SiO2 
 PCOD8062368
Probable space group: P 2/M
;
_chemical_formula_sum "Si O2"
_cell_formula_units_Z 28
_cell_length_a 9.194988
_cell_length_b 13.481541
_cell_length_c 13.574569
_cell_angle_alpha 90.000000
_cell_angle_beta 60.618471
_cell_angle_gamma 90.000000
_cell_volume 1466.291663
_symmetry_space_group_name_H-M "P 2/M"
_symmetry_group_IT_number 10
_symmetry_cell_setting 'monoclinic'
loop_
_space_group_symop_operation_xyz
x,y,z
-x,y,-z
-x,-y,-z
x,-y,z
loop_
_atom_site_type_symbol
_atom_site_label
_atom_site_fract_x
_atom_site_fract_y
_atom_site_fract_z
Si Si1 0.808014 0.391073 0.582470
Si Si2 0.905598 0.261654 0.934697
Si Si3 0.673584 0.780890 0.491674
Si Si4 0.464555 0.774283 0.911277
Si Si5 0.151123 0.115897 0.742037
Si Si6 0.487967 0.109333 0.288065
Si Si7 0.731002 0.383769 0.829198
O O1 0.723123 0.500000 0.596525
O O2 0.731771 0.316352 0.529140
O O3 0.790598 0.355430 0.700307
O O4 0.000000 0.400893 0.500000
O O5 0.867458 0.343368 0.863252
O O6 0.004245 0.169241 0.852524
O O7 0.732269 0.226741 0.040135
O O8 0.000000 0.305602 0.000000
O O9 0.500000 0.749058 0.500000
O O10 0.814284 0.823428 0.370843
O O11 0.634652 0.868793 0.580867
O O12 0.557183 0.820446 0.787501
O O13 0.549997 0.666771 0.901893
O O14 0.500000 0.836795 0.000000
O O15 0.319541 0.121609 0.748129
O O16 0.103534 0.000000 0.737497
O O17 0.449266 0.000000 0.264304
O O18 0.711738 0.500000 0.852863
#
# Coordination Sequence:
#
# PCOD8062368 Si02
#       7
#     4   4   4   4   4   4   4
#     4  10  20  36  61  87 118 157 190 233 301 358
#     4  11  22  37  61  87 117 151 201 248 287 340
#     4  10  20  36  61  86 118 150 198 246 286 344
#     4  10  21  37  59  83 117 156 194 239 291 347
#     4  10  21  37  59  87 119 158 195 240 302 349
#     4  10  19  35  59  86 115 153 197 241 292 349
#     4  10  22  41  62  85 118 159 195 235 298 361
#
# _framework density 19.095793
#
# number of rings (size 3 to 8) (size 9 to 14) (size 15 to 20)
#    0.000    1.857    2.857    1.286    0.000    6.000 
#    0.000    2.143    0.000    2.571    0.000    0.000 
#    0.000    0.000    0.000    0.000    0.000    0.000 
#
# Total GULP energy -346936.847313 kJ/mol
# GULP energy per Si atom -12390.601690 kJ/mol
# Density = 1.905233 g / cm^3
# Si number density = 19.095793 Si / 1000 Ang^3
#
#
#
# Elastic Constant Matrix: (Units=GPa)
#
#
# Indices 1 2 3 4 5 6 
#
# 1 86.6734 53.8002 46.3682 0.0000 11.2552 0.0000
# 2 53.8002 126.8554 54.8367 0.0000 15.7737 0.0000
# 3 46.3682 54.8367 122.8830 0.0000 13.4168 0.0000
# 4 0.0000 0.0000 0.0000 19.9260 0.0000 -1.3848
# 5 11.2552 15.7737 13.4168 0.0000 37.8372 0.0000
# 6 0.0000 0.0000 0.0000 -1.3848 0.0000 23.1821
#
#
#
# Elastic Compliance Matrix: (Units=1/GPa)
#
#
# Indices 1 2 3 4 5 6 
#
# 1 0.017179 -0.005415 -0.003905 0.000000 -0.001468 0.000000
# 2 -0.005415 0.011732 -0.002948 0.000000 -0.002235 0.000000
# 3 -0.003905 -0.002948 0.011096 0.000000 -0.001544 0.000000
# 4 0.000000 0.000000 0.000000 0.050395 0.000000 0.003010
# 5 -0.001468 -0.002235 -0.001544 0.000000 0.028345 0.000000
# 6 0.000000 0.000000 0.000000 0.003010 0.000000 0.043317
#
#
# Mechanical properties :
#
#
# Convention : Reuss Voigt Hill
#
# Bulk Modulus (GPa) = 64.64465 71.82467 68.23466
# Shear Modulus (GPa) = 26.07490 28.28283 27.17887
#
# Velocity S-wave (km/s) = 3.69925 3.85269 3.77675
# Velocity P-wave (km/s) = 7.22303 7.58191 7.40465
#
# Compressibility (1/GPa) = 0.01546918
#
# Stress axis : x y z
#
# Youngs Moduli (GPa) = 58.21194 85.23905 90.12550
#
# Poissons Ratio (x) = 0.46155 0.35198
# Poissons Ratio (y) = 0.31521 0.26570
# Poissons Ratio (z) = 0.22735 0.25129
#
# Static dielectric constant tensor:
#      x y z
#    x 3.339590 0.000000 0.057040 
#    y 0.000000 3.486250 0.000000 
#    z 0.057040 0.000000 3.733890 
# 
# 
# High freq. dielectric constant tensor:
#      x y z
#    x 1.731510 0.000000 0.009010 
#    y 0.000000 1.730960 0.000000 
#    z 0.009010 0.000000 1.769540 
# 
# From -- ./inp_files/32851.got.cif
#   From: 2010.06.25/outbox.cif.g09.slc.cpg/sg10_17_cif.got.tgz:32851.got - 2010.06.27 22:07:45.
