data_PCOD8062513
_publ_section_title
;
Structure prediction by ZEFSAII (Michael W. Deem and Ramdas Pophale) SiO2 
 PCOD8062513
Probable space group: P 2/M
;
_chemical_formula_sum "Si O2"
_cell_formula_units_Z 28
_cell_length_a 9.936841
_cell_length_b 14.148539
_cell_length_c 12.427795
_cell_angle_alpha 90.000000
_cell_angle_beta 64.237196
_cell_angle_gamma 90.000000
_cell_volume 1573.571588
_symmetry_space_group_name_H-M "P 2/M"
_symmetry_group_IT_number 10
_symmetry_cell_setting 'monoclinic'
loop_
_space_group_symop_operation_xyz
x,y,z
-x,y,-z
-x,-y,-z
x,-y,z
loop_
_atom_site_type_symbol
_atom_site_label
_atom_site_fract_x
_atom_site_fract_y
_atom_site_fract_z
Si Si1 0.330874 0.891341 0.034581
Si Si2 0.145391 0.793187 0.275959
Si Si3 0.155581 0.605913 0.386544
Si Si4 0.676836 0.888915 0.601106
Si Si5 0.654969 0.891643 0.217708
Si Si6 0.196828 0.209122 0.645502
Si Si7 0.328532 0.393735 0.537204
O O1 0.225088 0.822728 0.138473
O O2 0.301975 0.000000 0.079184
O O3 0.500000 0.863280 0.000000
O O4 0.296778 0.875054 0.921583
O O5 0.177616 0.681845 0.284174
O O6 0.198927 0.854189 0.358637
O O7 0.971649 0.815097 0.324859
O O8 0.152883 0.500000 0.338216
O O9 0.292261 0.616616 0.422933
O O10 0.000000 0.628475 0.500000
O O11 0.516283 0.861095 0.705290
O O12 0.694315 0.837567 0.480762
O O13 0.694257 0.000000 0.577198
O O14 0.766584 0.830221 0.249946
O O15 0.674989 0.000000 0.244479
O O16 0.224196 0.321873 0.639494
O O17 0.500000 0.368763 0.500000
O O18 0.290437 0.500000 0.589555
#
# Coordination Sequence:
#
# PCOD8062513 Si02
#       7
#     4   4   4   4   4   4   4
#     4  10  21  40  61  79 105 153 209 243 272 331
#     4  12  22  35  57  86 112 149 191 238 283 337
#     4  10  19  36  58  85 120 150 183 229 288 354
#     4  11  21  35  55  81 114 149 185 232 292 348
#     4  10  22  39  57  77 108 155 197 231 279 340
#     4  12  23  34  53  87 122 143 177 239 302 346
#     4  10  20  34  55  83 116 152 186 223 276 346
#
# _framework density 17.793914999999998
#
# number of rings (size 3 to 8) (size 9 to 14) (size 15 to 20)
#    0.000    1.286    4.286    2.571    0.000    4.571 
#    0.000    1.429    0.000    1.286    0.000    2.000 
#    0.000    0.000    0.000    0.000    0.000    0.000 
#
# Total GULP energy -347307.115433 kJ/mol
# GULP energy per Si atom -12403.825551 kJ/mol
# Density = 1.775342 g / cm^3
# Si number density = 17.793915 Si / 1000 Ang^3
#
#
#
# Elastic Constant Matrix: (Units=GPa)
#
#
# Indices 1 2 3 4 5 6 
#
# 1 102.4788 39.1123 21.9219 0.0000 3.5572 0.0000
# 2 39.1123 105.1537 51.6912 0.0000 1.0820 0.0000
# 3 21.9219 51.6912 82.2900 0.0000 0.2027 0.0000
# 4 0.0000 0.0000 0.0000 26.7804 0.0000 0.9032
# 5 3.5572 1.0820 0.2027 0.0000 20.9035 0.0000
# 6 0.0000 0.0000 0.0000 0.9032 0.0000 28.1635
#
#
#
# Elastic Compliance Matrix: (Units=1/GPa)
#
#
# Indices 1 2 3 4 5 6 
#
# 1 0.011452 -0.003970 -0.000553 0.000000 -0.001738 0.000000
# 2 -0.003970 0.015143 -0.008454 0.000000 -0.000026 0.000000
# 3 -0.000553 -0.008454 0.017609 0.000000 0.000361 0.000000
# 4 0.000000 0.000000 0.000000 0.037381 0.000000 -0.001199
# 5 -0.001738 -0.000026 0.000361 0.000000 0.048133 0.000000
# 6 0.000000 0.000000 0.000000 -0.001199 0.000000 0.035545
#
#
# Mechanical properties :
#
#
# Convention : Reuss Voigt Hill
#
# Bulk Modulus (GPa) = 54.79550 57.26372 56.02961
# Shear Modulus (GPa) = 25.34204 26.98260 26.16232
#
# Velocity S-wave (km/s) = 3.77795 3.89832 3.83860
# Velocity P-wave (km/s) = 7.06342 7.24665 7.15562
#
# Compressibility (1/GPa) = 0.01824967
#
# Stress axis : x y z
#
# Youngs Moduli (GPa) = 87.32194 66.03787 56.78838
#
# Poissons Ratio (x) = 0.26217 0.03139
# Poissons Ratio (y) = 0.34667 0.48011
# Poissons Ratio (z) = 0.04826 0.55831
#
# Static dielectric constant tensor:
#      x y z
#    x 3.440450 0.000000 0.049270 
#    y 0.000000 3.460410 0.000000 
#    z 0.049270 0.000000 3.162010 
# 
# 
# High freq. dielectric constant tensor:
#      x y z
#    x 1.706600 0.000000 0.004300 
#    y 0.000000 1.693110 0.000000 
#    z 0.004300 0.000000 1.655120 
# 
# From -- ./inp_files/25017.got.cif
#   From: 2010.06.25/outbox.cif.g09.slc.cpg/sg10_13_cif.got.tgz:25017.got - 2010.06.27 22:07:45.
