data_PCOD8062629
_publ_section_title
;
Structure prediction by ZEFSAII (Michael W. Deem and Ramdas Pophale) SiO2 
 PCOD8062629
Probable space group: P 2/M
;
_chemical_formula_sum "Si O2"
_cell_formula_units_Z 24
_cell_length_a 14.838525
_cell_length_b 8.679081
_cell_length_c 9.979556
_cell_angle_alpha 90.000000
_cell_angle_beta 70.181458
_cell_angle_gamma 90.000000
_cell_volume 1209.092871
_symmetry_space_group_name_H-M "P 2/M"
_symmetry_group_IT_number 10
_symmetry_cell_setting 'monoclinic'
loop_
_space_group_symop_operation_xyz
x,y,z
-x,y,-z
-x,-y,-z
x,-y,z
loop_
_atom_site_type_symbol
_atom_site_label
_atom_site_fract_x
_atom_site_fract_y
_atom_site_fract_z
Si Si1 0.783697 0.180107 0.875226
Si Si2 0.890697 0.675804 0.592557
Si Si3 0.211896 0.682587 0.615556
Si Si4 0.412568 0.317044 0.138025
Si Si5 0.109560 0.316570 0.931332
Si Si6 0.419894 0.316985 0.440654
O O1 0.869388 0.217845 0.729869
O O2 0.685101 0.253450 0.874392
O O3 0.768845 0.000000 0.898259
O O4 0.817059 0.249928 0.998262
O O5 0.859851 0.500000 0.641221
O O6 0.831993 0.746681 0.499159
O O7 0.000000 0.683980 0.500000
O O8 0.202750 0.500000 0.621062
O O9 0.151587 0.747252 0.770399
O O10 0.321767 0.736315 0.561100
O O11 0.405132 0.500000 0.142646
O O12 0.428220 0.255170 0.282937
O O13 0.500000 0.260821 0.000000
O O14 0.111615 0.500000 0.940881
O O15 0.000000 0.256645 0.000000
O O16 0.500000 0.247551 0.500000
O O17 0.427762 0.500000 0.431006
#
# Coordination Sequence:
#
# PCOD8062629 Si02
#       6
#     4   4   4   4   4   4
#     4  12  25  39  57  85 127 167 195 237 298 367
#     4  10  19  36  63  89 113 147 197 251 295 344
#     4   9  17  31  55  84 113 142 182 247 303 339
#     4  10  21  38  63  89 113 150 202 255 301 351
#     4  10  21  38  61  88 116 152 203 252 293 344
#     4   9  17  30  53  87 115 135 176 241 304 349
#
# _framework density 19.849592000000001
#
# number of rings (size 3 to 8) (size 9 to 14) (size 15 to 20)
#    0.000    2.000    1.667    2.500    2.333    3.667 
#    0.000    0.833    0.000    0.500    0.000    0.000 
#    0.000    0.000    0.000    0.000    0.000    0.000 
#
# Total GULP energy -297540.576710 kJ/mol
# GULP energy per Si atom -12397.524030 kJ/mol
# Density = 1.980441 g / cm^3
# Si number density = 19.849592 Si / 1000 Ang^3
#
#
#
# Elastic Constant Matrix: (Units=GPa)
#
#
# Indices 1 2 3 4 5 6 
#
# 1 106.3717 14.3889 27.2827 0.0000 2.7823 0.0000
# 2 14.3889 23.1527 13.3906 0.0000 -0.5195 0.0000
# 3 27.2827 13.3906 103.7568 0.0000 -14.1022 0.0000
# 4 0.0000 0.0000 0.0000 37.5990 0.0000 -1.1667
# 5 2.7823 -0.5195 -14.1022 0.0000 39.7545 0.0000
# 6 0.0000 0.0000 0.0000 -1.1667 0.0000 8.4223
#
#
#
# Elastic Compliance Matrix: (Units=1/GPa)
#
#
# Indices 1 2 3 4 5 6 
#
# 1 0.010778 -0.005366 -0.002368 0.000000 -0.001664 0.000000
# 2 -0.005366 0.049445 -0.005076 0.000000 -0.000779 0.000000
# 3 -0.002368 -0.005076 0.011483 0.000000 0.004173 0.000000
# 4 0.000000 0.000000 0.000000 0.026711 0.000000 0.003700
# 5 -0.001664 -0.000779 0.004173 0.000000 0.026741 0.000000
# 6 0.000000 0.000000 0.000000 0.003700 0.000000 0.119244
#
#
# Mechanical properties :
#
#
# Convention : Reuss Voigt Hill
#
# Bulk Modulus (GPa) = 21.69877 38.15617 29.92747
# Shear Modulus (GPa) = 17.52030 29.03644 23.27837
#
# Velocity S-wave (km/s) = 2.97417 3.82884 3.42824
# Velocity P-wave (km/s) = 4.76965 6.22985 5.54800
#
# Compressibility (1/GPa) = 0.04608555
#
# Stress axis : x y z
#
# Youngs Moduli (GPa) = 92.78450 20.22456 87.08724
#
# Poissons Ratio (x) = 0.10853 0.20619
# Poissons Ratio (y) = 0.49789 0.44206
# Poissons Ratio (z) = 0.21968 0.10266
#
# Static dielectric constant tensor:
#      x y z
#    x 3.683820 0.000000 -0.059440 
#    y 0.000000 3.139460 0.000000 
#    z -0.059440 0.000000 3.945630 
# 
# 
# High freq. dielectric constant tensor:
#      x y z
#    x 1.790900 0.000000 0.000830 
#    y 0.000000 1.717640 0.000000 
#    z 0.000830 0.000000 1.791660 
# 
# From -- ./inp_files/27022.got.cif
#   From: 2010.06.25/outbox.cif.g09.slc.cpg/sg10_14_cif.got.tgz:27022.got - 2010.06.27 22:07:45.
