data_PCOD8062910
_publ_section_title
;
Structure prediction by ZEFSAII (Michael W. Deem and Ramdas Pophale) SiO2 
 PCOD8062910
Probable space group: P 2/M
;
_chemical_formula_sum "Si O2"
_cell_formula_units_Z 32
_cell_length_a 12.294214
_cell_length_b 8.782816
_cell_length_c 20.275316
_cell_angle_alpha 90.000000
_cell_angle_beta 123.654077
_cell_angle_gamma 90.000000
_cell_volume 1822.357205
_symmetry_space_group_name_H-M "P 2/M"
_symmetry_group_IT_number 10
_symmetry_cell_setting 'monoclinic'
loop_
_space_group_symop_operation_xyz
x,y,z
-x,y,-z
-x,-y,-z
x,-y,z
loop_
_atom_site_type_symbol
_atom_site_label
_atom_site_fract_x
_atom_site_fract_y
_atom_site_fract_z
Si Si1 0.150749 0.681166 0.952181
Si Si2 0.222228 0.673202 0.836184
Si Si3 0.393753 0.318042 0.777095
Si Si4 0.077006 0.325888 0.289561
Si Si5 0.087088 0.680787 0.436293
Si Si6 0.879923 0.178824 0.831184
Si Si7 0.188124 0.319040 0.604793
Si Si8 0.310359 0.319438 0.133550
O O1 0.136148 0.500000 0.942899
O O2 0.221134 0.746239 0.909427
O O3 0.005170 0.746780 0.908516
O O4 0.233998 0.734054 0.042567
O O5 0.265855 0.500000 0.859362
O O6 0.326041 0.750131 0.820904
O O7 0.079057 0.686010 0.756804
O O8 0.388030 0.500000 0.777234
O O9 0.314717 0.256502 0.686392
O O10 0.541625 0.259947 0.822862
O O11 0.118809 0.500000 0.289159
O O12 0.132608 0.264395 0.378643
O O13 0.132219 0.221952 0.249768
O O14 0.076081 0.500000 0.430001
O O15 0.189922 0.731879 0.527928
O O16 0.943696 0.746014 0.405991
O O17 0.750825 0.239676 0.823529
O O18 0.890334 0.000000 0.842144
O O19 0.186199 0.500000 0.608056
O O20 0.303389 0.500000 0.140008
#
# Coordination Sequence:
#
# PCOD8062910 Si02
#       8
#     4   4   4   4   4   4   4   4
#     4   9  18  32  50  70  93 117 149 193 236 276
#     4   8  13  23  41  67  96 121 143 177 225 270
#     4   9  15  24  41  67 101 129 151 180 219 273
#     4   9  15  27  48  72  97 122 149 187 231 273
#     4   8  12  19  38  69 103 128 145 174 225 274
#     4  11  22  34  49  67  87 116 157 203 240 272
#     4   8  12  19  35  68 106 129 144 174 221 273
#     4  10  20  32  47  68  92 124 158 190 228 271
#
# _framework density 17.559674999999999
#
# number of rings (size 3 to 8) (size 9 to 14) (size 15 to 20)
#    0.000    3.000    1.250    3.000    0.000    2.500 
#    0.000    2.500    0.000    3.750    0.000   12.250 
#    0.000    0.000    0.000    0.000    0.000    0.000 
#
# Total GULP energy -396526.383929 kJ/mol
# GULP energy per Si atom -12391.449498 kJ/mol
# Density = 1.751971 g / cm^3
# Si number density = 17.559675 Si / 1000 Ang^3
#
#
#
# Elastic Constant Matrix: (Units=GPa)
#
#
# Indices 1 2 3 4 5 6 
#
# 1 117.1532 18.4057 54.7854 0.0000 -10.5577 0.0000
# 2 18.4057 22.2420 12.5277 0.0000 -3.5745 0.0000
# 3 54.7854 12.5277 97.0454 0.0000 -21.0233 0.0000
# 4 0.0000 0.0000 0.0000 4.8329 0.0000 -0.7928
# 5 -10.5577 -3.5745 -21.0233 0.0000 21.4544 0.0000
# 6 0.0000 0.0000 0.0000 -0.7928 0.0000 -1.1791
#
#
#
# Elastic Compliance Matrix: (Units=1/GPa)
#
#
# Indices 1 2 3 4 5 6 
#
# 1 0.012530 -0.006941 -0.006465 0.000000 -0.001325 0.000000
# 2 -0.006941 0.052433 -0.002155 0.000000 0.003208 0.000000
# 3 -0.006465 -0.002155 0.017094 0.000000 0.013210 0.000000
# 4 0.000000 0.000000 0.000000 0.186363 0.000000 -0.125299
# 5 -0.001325 0.003208 0.013210 0.000000 0.059438 0.000000
# 6 0.000000 0.000000 0.000000 -0.125299 0.000000 -0.763844
#
#
# Mechanical properties :
#
#
# Convention : Reuss Voigt Hill
#
# Bulk Modulus (GPa) = 19.63264 45.31982 32.47623
# Shear Modulus (GPa) = -12.89035 15.06974 1.08970
#
# Velocity S-wave (km/s) = -2.71235 2.93269 0.78862
# Velocity P-wave (km/s) = 1.18140 6.11004 4.40047
#
# Compressibility (1/GPa) = 0.05093558
#
# Stress axis : x y z
#
# Youngs Moduli (GPa) = 79.80854 19.07196 58.50007
#
# Poissons Ratio (x) = 0.13237 0.37819
# Poissons Ratio (y) = 0.55392 0.12609
# Poissons Ratio (z) = 0.51594 0.04111
#
# Static dielectric constant tensor:
#      x y z
#    x 3.254090 0.000000 -0.223270 
#    y 0.000000 2.667380 0.000000 
#    z -0.223270 0.000000 3.616240 
# 
# 
# High freq. dielectric constant tensor:
#      x y z
#    x 1.662010 0.000000 -0.023250 
#    y 0.000000 1.616230 0.000000 
#    z -0.023250 0.000000 1.686050 
# 
# From -- ./inp_files/83379.got.cif
#   From: 2010.06.25/outbox.cif.g09.slc.cpg/sg10_42_cif.got.tgz:83379.got - 2010.06.27 22:07:45.
