data_PCOD8062188
_publ_section_title
;
Structure prediction by ZEFSAII (Michael W. Deem and Ramdas Pophale) SiO2 
 PCOD8062188
Probable space group: P 2/M
;
_chemical_formula_sum "Si O2"
_cell_formula_units_Z 30
_cell_length_a 17.569793
_cell_length_b 13.133150
_cell_length_c 10.384680
_cell_angle_alpha 90.000000
_cell_angle_beta 39.817353
_cell_angle_gamma 90.000000
_cell_volume 1534.408157
_symmetry_space_group_name_H-M "P 2/M"
_symmetry_group_IT_number 10
_symmetry_cell_setting 'monoclinic'
loop_
_space_group_symop_operation_xyz
x,y,z
-x,y,-z
-x,-y,-z
x,-y,z
loop_
_atom_site_type_symbol
_atom_site_label
_atom_site_fract_x
_atom_site_fract_y
_atom_site_fract_z
Si Si1 0.500000 0.747884 0.000000
Si Si2 0.056035 0.118804 0.562275
Si Si3 0.071353 0.807287 0.027867
Si Si4 0.693707 0.113586 0.862225
Si Si5 0.409589 0.617519 0.329870
Si Si6 0.593569 0.678160 0.279381
Si Si7 0.213870 0.384057 0.797136
Si Si8 0.300696 0.113080 0.853722
O O1 0.419663 0.815131 0.009621
O O2 0.404544 0.681236 0.204687
O O3 0.197593 0.137955 0.374696
O O4 0.000000 0.154327 0.500000
O O5 0.008017 0.188686 0.740487
O O6 0.025414 0.000000 0.628556
O O7 0.100969 0.690499 0.948709
O O8 0.192788 0.869107 0.894576
O O9 0.000000 0.856302 0.000000
O O10 0.646936 0.000000 0.898200
O O11 0.746470 0.122916 0.938440
O O12 0.397400 0.500000 0.311291
O O13 0.543343 0.642922 0.207360
O O14 0.304861 0.650258 0.564666
O O15 0.500000 0.630825 0.500000
O O16 0.720374 0.627755 0.149271
O O17 0.598791 0.800782 0.291957
O O18 0.170395 0.500000 0.834757
O O19 0.353870 0.000000 0.758867
#
# Coordination Sequence:
#
# PCOD8062188 Si02
#       8
#     2   4   4   4   4   4   4   4
#     4  12  22  34  60  84 122 150 194 248 282 340
#     4  10  20  38  62  84 113 157 199 235 288 355
#     4  11  23  36  60  87 113 146 197 250 296 341
#     4  10  21  37  58  81 112 158 197 230 285 353
#     4  10  20  35  56  85 114 148 190 236 291 344
#     4   9  17  33  55  79 106 145 189 228 273 341
#     4   9  20  38  59  81 111 148 189 236 295 357
#     4  10  19  35  55  80 113 149 188 234 288 345
#
# _framework density 19.551514000000001
#
# number of rings (size 3 to 8) (size 9 to 14) (size 15 to 20)
#    0.000    2.000    2.667    1.200    1.867    3.200 
#    0.000    0.000    0.000    0.400    0.000    0.000 
#    0.000    0.000    0.000    0.000    0.000    0.000 
#
# Total GULP energy -371829.634973 kJ/mol
# GULP energy per Si atom -12394.321166 kJ/mol
# Density = 1.950701 g / cm^3
# Si number density = 19.551514 Si / 1000 Ang^3
#
#
#
# Elastic Constant Matrix: (Units=GPa)
#
#
# Indices 1 2 3 4 5 6 
#
# 1 87.9748 30.4793 26.7879 0.0000 7.6612 0.0000
# 2 30.4793 100.7001 41.0931 0.0000 4.4696 0.0000
# 3 26.7879 41.0931 80.8009 0.0000 11.3530 0.0000
# 4 0.0000 0.0000 0.0000 35.0013 0.0000 1.6518
# 5 7.6612 4.4696 11.3530 0.0000 22.9560 0.0000
# 6 0.0000 0.0000 0.0000 1.6518 0.0000 17.8200
#
#
#
# Elastic Compliance Matrix: (Units=1/GPa)
#
#
# Indices 1 2 3 4 5 6 
#
# 1 0.013384 -0.002870 -0.002610 0.000000 -0.002617 0.000000
# 2 -0.002870 0.013159 -0.005927 0.000000 0.001327 0.000000
# 3 -0.002610 -0.005927 0.017164 0.000000 -0.006463 0.000000
# 4 0.000000 0.000000 0.000000 0.028696 0.000000 -0.002660
# 5 -0.002617 0.001327 -0.006463 0.000000 0.047373 0.000000
# 6 0.000000 0.000000 0.000000 -0.002660 0.000000 0.056363
#
#
# Mechanical properties :
#
#
# Convention : Reuss Voigt Hill
#
# Bulk Modulus (GPa) = 47.86353 51.79960 49.83156
# Shear Modulus (GPa) = 24.28162 26.56317 25.42239
#
# Velocity S-wave (km/s) = 3.52793 3.68995 3.60985
# Velocity P-wave (km/s) = 6.41318 6.68624 6.55113
#
# Compressibility (1/GPa) = 0.02089274
#
# Stress axis : x y z
#
# Youngs Moduli (GPa) = 74.71760 75.99391 58.26139
#
# Poissons Ratio (x) = 0.21808 0.15206
# Poissons Ratio (y) = 0.21442 0.34534
# Poissons Ratio (z) = 0.19501 0.45044
#
# Static dielectric constant tensor:
#      x y z
#    x 3.542080 0.000000 0.049620 
#    y 0.000000 3.490710 0.000000 
#    z 0.049620 0.000000 3.369550 
# 
# 
# High freq. dielectric constant tensor:
#      x y z
#    x 1.757000 0.000000 0.001050 
#    y 0.000000 1.753930 0.000000 
#    z 0.001050 0.000000 1.741590 
# 
# From -- ./inp_files/53669.got.cif
#   From: 2010.06.25/outbox.cif.g09.slc.cpg/sg10_27_cif.got.tgz:53669.got - 2010.06.27 22:07:45.
