data_PCOD8062408
_publ_section_title
;
Structure prediction by ZEFSAII (Michael W. Deem and Ramdas Pophale) SiO2 
 PCOD8062408
Probable space group: P 2/M
;
_chemical_formula_sum "Si O2"
_cell_formula_units_Z 32
_cell_length_a 15.040419
_cell_length_b 9.208104
_cell_length_c 23.825768
_cell_angle_alpha 90.000000
_cell_angle_beta 151.237858
_cell_angle_gamma 90.000000
_cell_volume 1587.741185
_symmetry_space_group_name_H-M "P 2/M"
_symmetry_group_IT_number 10
_symmetry_cell_setting 'monoclinic'
loop_
_space_group_symop_operation_xyz
x,y,z
-x,y,-z
-x,-y,-z
x,-y,z
loop_
_atom_site_type_symbol
_atom_site_label
_atom_site_fract_x
_atom_site_fract_y
_atom_site_fract_z
Si Si1 0.337474 0.156108 0.368395
Si Si2 0.393438 0.340680 0.300921
Si Si3 0.981947 0.668309 0.748681
Si Si4 0.290608 0.328342 0.005631
Si Si5 0.010564 0.668812 0.634655
Si Si6 0.024416 0.662283 0.954130
Si Si7 0.328454 0.666711 0.635756
Si Si8 0.340608 0.826574 0.758894
O O1 0.500000 0.127326 0.500000
O O2 0.450275 0.227761 0.379466
O O3 0.175359 0.250520 0.304468
O O4 0.253086 0.000000 0.303279
O O5 0.475097 0.500000 0.361007
O O6 0.474108 0.298776 0.284400
O O7 0.173710 0.342878 0.183755
O O8 0.936555 0.500000 0.730945
O O9 0.181974 0.703102 0.887365
O O10 0.978380 0.713177 0.681526
O O11 0.331123 0.500000 0.034180
O O12 0.168243 0.267435 0.990269
O O13 0.479379 0.239218 0.111339
O O14 0.070691 0.500000 0.663249
O O15 0.168264 0.774092 0.699631
O O16 0.828239 0.699165 0.497134
O O17 0.098454 0.500000 0.008426
O O18 0.000000 0.747949 0.000000
O O19 0.316529 0.500000 0.650267
O O20 0.311843 0.771176 0.679560
O O21 0.351906 0.000000 0.764947
#
# Coordination Sequence:
#
# PCOD8062408 Si02
#       8
#     4   4   4   4   4   4   4   4
#     4  11  23  36  53  83 126 168 197 232 289 354
#     4  10  19  35  60  89 116 150 197 242 289 345
#     4  10  21  40  66  92 117 154 206 258 304 354
#     4  10  20  38  62  88 121 158 201 253 302 353
#     4  10  22  41  65  92 118 151 202 261 315 361
#     4   9  16  29  54  86 116 147 186 234 288 342
#     4  10  21  39  65  93 121 154 198 257 312 359
#     4  12  26  41  60  87 121 163 204 248 307 371
#
# _framework density 20.154418
#
# number of rings (size 3 to 8) (size 9 to 14) (size 15 to 20)
#    0.000    1.750    1.250    3.375    0.000    8.000 
#    0.000    2.500    0.000    1.500    0.000    0.000 
#    0.000    0.000    0.000    0.000    0.000    0.000 
#
# Total GULP energy -396647.847619 kJ/mol
# GULP energy per Si atom -12395.245238 kJ/mol
# Density = 2.010855 g / cm^3
# Si number density = 20.154418 Si / 1000 Ang^3
#
#
#
# Elastic Constant Matrix: (Units=GPa)
#
#
# Indices 1 2 3 4 5 6 
#
# 1 101.8393 55.1303 25.2737 0.0000 -3.3441 0.0000
# 2 55.1303 97.4902 37.7829 0.0000 -1.7258 0.0000
# 3 25.2737 37.7829 80.1694 0.0000 -5.4418 0.0000
# 4 0.0000 0.0000 0.0000 21.7216 0.0000 42.3005
# 5 -3.3441 -1.7258 -5.4418 0.0000 38.1219 0.0000
# 6 0.0000 0.0000 0.0000 42.3005 0.0000 509.1848
#
#
#
# Elastic Compliance Matrix: (Units=1/GPa)
#
#
# Indices 1 2 3 4 5 6 
#
# 1 0.014222 -0.007722 -0.000791 0.000000 0.000785 0.000000
# 2 -0.007722 0.016745 -0.005505 0.000000 -0.000705 0.000000
# 3 -0.000791 -0.005505 0.015446 0.000000 0.001886 0.000000
# 4 0.000000 0.000000 0.000000 0.054923 0.000000 -0.004563
# 5 0.000785 -0.000705 0.001886 0.000000 0.026538 0.000000
# 6 0.000000 0.000000 0.000000 -0.004563 0.000000 0.002343
#
#
# Mechanical properties :
#
#
# Convention : Reuss Voigt Hill
#
# Bulk Modulus (GPa) = 54.41818 57.31917 55.86867
# Shear Modulus (GPa) = 30.41776 124.55979 77.48877
#
# Velocity S-wave (km/s) = 3.88910 7.87000 6.20733
# Velocity P-wave (km/s) = 6.87212 10.53965 8.89692
#
# Compressibility (1/GPa) = 0.01837621
#
# Stress axis : x y z
#
# Youngs Moduli (GPa) = 70.31531 59.71829 64.74342
#
# Poissons Ratio (x) = 0.46114 0.05121
# Poissons Ratio (y) = 0.54297 0.35644
# Poissons Ratio (z) = 0.05561 0.32877
#
# Static dielectric constant tensor:
#      x y z
#    x 4.014390 0.000000 -0.016360 
#    y 0.000000 3.714960 0.000000 
#    z -0.016360 0.000000 3.773250 
# 
# 
# High freq. dielectric constant tensor:
#      x y z
#    x 1.797480 0.000000 -0.003450 
#    y 0.000000 1.757030 0.000000 
#    z -0.003450 0.000000 1.793930 
# 
# From -- ./inp_files/89482.got.cif
#   From: 2010.06.25/outbox.cif.g09.slc.cpg/sg10_45_cif.got.tgz:89482.got - 2010.06.27 22:07:45.
