data_PCOD8062248
_publ_section_title
;
Structure prediction by ZEFSAII (Michael W. Deem and Ramdas Pophale) SiO2 
 PCOD8062248
Probable space group: P 2/M
;
_chemical_formula_sum "Si O2"
_cell_formula_units_Z 24
_cell_length_a 9.052925
_cell_length_b 20.592946
_cell_length_c 9.265029
_cell_angle_alpha 90.000000
_cell_angle_beta 132.928332
_cell_angle_gamma 90.000000
_cell_volume 1264.700206
_symmetry_space_group_name_H-M "P 2/M"
_symmetry_group_IT_number 10
_symmetry_cell_setting 'monoclinic'
loop_
_space_group_symop_operation_xyz
x,y,z
-x,y,-z
-x,-y,-z
x,-y,z
loop_
_atom_site_type_symbol
_atom_site_label
_atom_site_fract_x
_atom_site_fract_y
_atom_site_fract_z
Si Si1 0.397110 0.100753 0.086427
Si Si2 0.932147 0.346301 0.111100
Si Si3 0.428250 0.246549 0.115867
Si Si4 0.691929 0.000000 0.381547
Si Si5 0.185116 0.310624 0.530796
Si Si6 0.102350 0.000000 0.791890
Si Si7 0.275804 0.573776 0.797808
O O1 0.359805 0.174087 0.113712
O O2 0.548407 0.063518 0.296946
O O3 0.500000 0.101526 0.000000
O O4 0.182211 0.063628 0.930866
O O5 0.863003 0.408026 0.158410
O O6 0.122175 0.315377 0.321753
O O7 0.757264 0.293421 0.976963
O O8 0.000000 0.371125 0.000000
O O9 0.620471 0.264898 0.340884
O O10 0.500000 0.254075 0.000000
O O11 0.806723 0.000000 0.306776
O O12 0.857793 0.000000 0.620895
O O13 0.232555 0.381324 0.630966
O O14 0.000000 0.279166 0.500000
O O15 0.234019 0.500000 0.723065
O O16 0.500000 0.585403 0.000000
#
# Coordination Sequence:
#
# PCOD8062248 Si02
#       7
#     4   4   4   2   4   2   4
#     4   8  16  24  42  65  99 137 171 217 268 307
#     4  11  23  36  54  81 113 145 178 223 276 320
#     4  11  18  35  52  78 109 140 187 230 260 324
#     4   8  13  25  36  63  97 135 172 210 266 320
#     4  10  19  35  57  80 102 142 184 219 269 319
#     4   8  13  25  38  63 101 134 165 217 269 314
#     4  10  19  38  63  82 107 143 181 222 266 319
#
# _framework density 18.97683
#
# number of rings (size 3 to 8) (size 9 to 14) (size 15 to 20)
#    0.000    2.333    5.000    1.000    0.000    5.333 
#    3.000    0.000    0.000    2.000    0.000    2.333 
#    0.000    6.667    0.000    0.000    0.000    0.000 
#
# Total GULP energy -297495.989915 kJ/mol
# GULP energy per Si atom -12395.666246 kJ/mol
# Density = 1.893364 g / cm^3
# Si number density = 18.976830 Si / 1000 Ang^3
#
#
#
# Elastic Constant Matrix: (Units=GPa)
#
#
# Indices 1 2 3 4 5 6 
#
# 1 33.6897 16.3724 32.4985 0.0000 2.3914 0.0000
# 2 16.3724 92.8570 31.3634 0.0000 18.7836 0.0000
# 3 32.4985 31.3634 133.1633 0.0000 27.2113 0.0000
# 4 0.0000 0.0000 0.0000 22.3809 0.0000 7.9495
# 5 2.3914 18.7836 27.2113 0.0000 33.2873 0.0000
# 6 0.0000 0.0000 0.0000 7.9495 0.0000 15.7666
#
#
#
# Elastic Compliance Matrix: (Units=1/GPa)
#
#
# Indices 1 2 3 4 5 6 
#
# 1 0.042198 -0.005603 -0.010811 0.000000 0.008968 0.000000
# 2 -0.005603 0.013252 -0.000370 0.000000 -0.006773 0.000000
# 3 -0.010811 -0.000370 0.012046 0.000000 -0.008862 0.000000
# 4 0.000000 0.000000 0.000000 0.054428 0.000000 -0.027443
# 5 0.008968 -0.006773 -0.008862 0.000000 0.040464 0.000000
# 6 0.000000 0.000000 0.000000 -0.027443 0.000000 0.077262
#
#
# Mechanical properties :
#
#
# Convention : Reuss Voigt Hill
#
# Bulk Modulus (GPa) = 29.47386 46.68652 38.08019
# Shear Modulus (GPa) = 17.57300 26.25201 21.91251
#
# Velocity S-wave (km/s) = 3.04637 3.72341 3.40177
# Velocity P-wave (km/s) = 5.28574 6.56812 5.96151
#
# Compressibility (1/GPa) = 0.03392836
#
# Stress axis : x y z
#
# Youngs Moduli (GPa) = 23.69778 75.45958 83.01440
#
# Poissons Ratio (x) = 0.42278 0.89750
# Poissons Ratio (y) = 0.13277 0.03070
# Poissons Ratio (z) = 0.25621 0.02791
#
# Static dielectric constant tensor:
#      x y z
#    x 3.208140 0.000000 0.370650 
#    y 0.000000 3.609370 0.000000 
#    z 0.370650 0.000000 3.713770 
# 
# 
# High freq. dielectric constant tensor:
#      x y z
#    x 1.691120 0.000000 0.029530 
#    y 0.000000 1.730800 0.000000 
#    z 0.029530 0.000000 1.748610 
# 
# From -- ./inp_files/20285.got.cif
#   From: 2010.06.25/outbox.cif.g09.slc.cpg/sg10_11_cif.got.tgz:20285.got - 2010.06.27 22:07:45.
