data_PCOD8062598
_publ_section_title
;
Structure prediction by ZEFSAII (Michael W. Deem and Ramdas Pophale) SiO2 
 PCOD8062598
Probable space group: P 2/M
;
_chemical_formula_sum "Si O2"
_cell_formula_units_Z 28
_cell_length_a 11.876732
_cell_length_b 13.974634
_cell_length_c 9.635084
_cell_angle_alpha 90.000000
_cell_angle_beta 121.330526
_cell_angle_gamma 90.000000
_cell_volume 1365.976661
_symmetry_space_group_name_H-M "P 2/M"
_symmetry_group_IT_number 10
_symmetry_cell_setting 'monoclinic'
loop_
_space_group_symop_operation_xyz
x,y,z
-x,y,-z
-x,-y,-z
x,-y,z
loop_
_atom_site_type_symbol
_atom_site_label
_atom_site_fract_x
_atom_site_fract_y
_atom_site_fract_z
Si Si1 0.937422 0.108752 0.807531
Si Si2 0.689658 0.714840 0.861871
Si Si3 0.459397 0.387492 0.827341
Si Si4 0.085424 0.715073 0.794813
Si Si5 0.871339 0.610142 0.766887
Si Si6 0.827786 0.387675 0.415760
Si Si7 0.366650 0.107238 0.326713
O O1 0.777908 0.121529 0.693346
O O2 0.008051 0.183075 0.746910
O O3 0.974186 0.000000 0.787886
O O4 0.000000 0.130278 0.000000
O O5 0.569401 0.640936 0.786865
O O6 0.777398 0.680721 0.789235
O O7 0.630153 0.819776 0.798569
O O8 0.764686 0.722024 0.056768
O O9 0.451172 0.500000 0.829277
O O10 0.318671 0.346942 0.695497
O O11 0.500000 0.342388 0.000000
O O12 0.080481 0.669011 0.636736
O O13 0.023610 0.643700 0.875796
O O14 0.848393 0.500000 0.793727
O O15 0.856282 0.632842 0.593652
O O16 0.843515 0.500000 0.389836
O O17 0.500000 0.127538 0.500000
O O18 0.373854 0.000000 0.271896
#
# Coordination Sequence:
#
# PCOD8062598 Si02
#       7
#     4   4   4   4   4   4   4
#     4  10  19  36  61  92 126 157 201 258 314 373
#     4  12  23  36  63  93 119 156 212 263 305 360
#     4  10  21  38  58  84 122 168 208 250 310 371
#     4  12  21  37  61  90 120 162 207 252 308 371
#     4  11  24  38  55  88 125 160 205 258 309 360
#     4  10  23  41  59  82 123 173 211 249 309 374
#     4  10  22  40  62  92 128 162 200 253 319 377
#
# _framework density 20.498156000000002
#
# number of rings (size 3 to 8) (size 9 to 14) (size 15 to 20)
#    0.000    1.286    4.286    1.714    2.000    3.429 
#    0.000    2.143    0.000    3.857    0.000    0.000 
#    0.000    0.000    0.000    0.000    0.000    0.000 
#
# Total GULP energy -346918.488773 kJ/mol
# GULP energy per Si atom -12389.946028 kJ/mol
# Density = 2.045150 g / cm^3
# Si number density = 20.498156 Si / 1000 Ang^3
#
#
#
# Elastic Constant Matrix: (Units=GPa)
#
#
# Indices 1 2 3 4 5 6 
#
# 1 99.2580 13.5474 28.0349 0.0000 9.9743 0.0000
# 2 13.5474 82.2336 28.2609 0.0000 -6.1217 0.0000
# 3 28.0349 28.2609 54.4114 0.0000 3.5005 0.0000
# 4 0.0000 0.0000 0.0000 16.6745 0.0000 7.2479
# 5 9.9743 -6.1217 3.5005 0.0000 28.7541 0.0000
# 6 0.0000 0.0000 0.0000 7.2479 0.0000 28.9887
#
#
#
# Elastic Compliance Matrix: (Units=1/GPa)
#
#
# Indices 1 2 3 4 5 6 
#
# 1 0.012129 -0.000234 -0.005900 0.000000 -0.003539 0.000000
# 2 -0.000234 0.015308 -0.008109 0.000000 0.004327 0.000000
# 3 -0.005900 -0.008109 0.025812 0.000000 -0.002822 0.000000
# 4 0.000000 0.000000 0.000000 0.067284 0.000000 -0.016823
# 5 -0.003539 0.004327 -0.002822 0.000000 0.037270 0.000000
# 6 0.000000 0.000000 0.000000 -0.016823 0.000000 0.038702
#
#
# Mechanical properties :
#
#
# Convention : Reuss Voigt Hill
#
# Bulk Modulus (GPa) = 40.38298 41.73215 41.05757
# Shear Modulus (GPa) = 21.43676 25.95411 23.69544
#
# Velocity S-wave (km/s) = 3.23738 3.56219 3.40366
# Velocity P-wave (km/s) = 5.80669 6.10918 5.95986
#
# Compressibility (1/GPa) = 0.02476291
#
# Stress axis : x y z
#
# Youngs Moduli (GPa) = 82.44893 65.32613 38.74228
#
# Poissons Ratio (x) = 0.01528 0.22858
# Poissons Ratio (y) = 0.01928 0.31415
# Poissons Ratio (z) = 0.48645 0.52971
#
# Static dielectric constant tensor:
#      x y z
#    x 3.810470 0.000000 0.399330 
#    y 0.000000 3.786800 0.000000 
#    z 0.399330 0.000000 3.837930 
# 
# 
# High freq. dielectric constant tensor:
#      x y z
#    x 1.803730 0.000000 0.028210 
#    y 0.000000 1.797880 0.000000 
#    z 0.028210 0.000000 1.801620 
# 
# From -- ./inp_files/25398.got.cif
#   From: 2010.06.25/outbox.cif.g09.slc.cpg/sg10_13_cif.got.tgz:25398.got - 2010.06.27 22:07:45.
