data_PCOD8062509
_publ_section_title
;
Structure prediction by ZEFSAII (Michael W. Deem and Ramdas Pophale) SiO2 
 PCOD8062509
Probable space group: P 2/M
;
_chemical_formula_sum "Si O2"
_cell_formula_units_Z 28
_cell_length_a 21.585243
_cell_length_b 8.560074
_cell_length_c 14.653488
_cell_angle_alpha 90.000000
_cell_angle_beta 149.018056
_cell_angle_gamma 90.000000
_cell_volume 1393.756649
_symmetry_space_group_name_H-M "P 2/M"
_symmetry_group_IT_number 10
_symmetry_cell_setting 'monoclinic'
loop_
_space_group_symop_operation_xyz
x,y,z
-x,y,-z
-x,-y,-z
x,-y,z
loop_
_atom_site_type_symbol
_atom_site_label
_atom_site_fract_x
_atom_site_fract_y
_atom_site_fract_z
Si Si1 0.627577 0.182108 0.830658
Si Si2 0.803452 0.819397 0.535346
Si Si3 0.378633 0.682662 0.554859
Si Si4 0.710775 0.680672 0.754906
Si Si5 0.987088 0.320102 0.088056
Si Si6 0.116362 0.681645 0.543465
Si Si7 0.862206 0.817085 0.236776
O O1 0.519101 0.278118 0.738592
O O2 0.636839 0.220408 0.735174
O O3 0.602751 0.000000 0.812983
O O4 0.748231 0.237266 0.033896
O O5 0.688743 0.771973 0.449738
O O6 0.800427 0.723117 0.437390
O O7 0.927329 0.788065 0.744570
O O8 0.795777 0.000000 0.500996
O O9 0.355462 0.500000 0.538080
O O10 0.325244 0.740977 0.390802
O O11 0.674724 0.500000 0.720456
O O12 0.851657 0.707167 0.949934
O O13 0.027552 0.500000 0.151038
O O14 0.000000 0.268953 0.000000
O O15 0.126501 0.500000 0.579096
O O16 0.162403 0.778673 0.688568
O O17 0.977864 0.723845 0.345849
O O18 0.887401 0.000000 0.257119
#
# Coordination Sequence:
#
# PCOD8062509 Si02
#       7
#     4   4   4   4   4   4   4
#     4  11  24  39  58  86 118 153 194 242 293 346
#     4  12  24  38  58  87 122 157 194 239 298 352
#     4  11  23  41  60  81 114 158 203 244 288 342
#     4  10  21  37  59  84 114 156 200 242 288 340
#     4  10  19  36  58  83 117 153 194 239 285 341
#     4  11  22  38  64  93 119 151 194 239 289 350
#     4  10  21  40  63  90 123 152 187 240 299 349
#
# _framework density 20.089592
#
# number of rings (size 3 to 8) (size 9 to 14) (size 15 to 20)
#    0.000    1.286    1.429    6.000    0.000    8.286 
#    0.000    0.714    0.000    4.286    0.000    0.000 
#    0.000    0.000    0.000    0.000    0.000    0.000 
#
# Total GULP energy -347398.085995 kJ/mol
# GULP energy per Si atom -12407.074500 kJ/mol
# Density = 2.004387 g / cm^3
# Si number density = 20.089592 Si / 1000 Ang^3
#
#
#
# Elastic Constant Matrix: (Units=GPa)
#
#
# Indices 1 2 3 4 5 6 
#
# 1 118.1729 13.3760 29.1751 0.0000 2.1002 0.0000
# 2 13.3760 56.8390 16.0297 0.0000 3.0292 0.0000
# 3 29.1751 16.0297 61.3185 0.0000 4.1517 0.0000
# 4 0.0000 0.0000 0.0000 30.5968 0.0000 1.8497
# 5 2.1002 3.0292 4.1517 0.0000 21.6149 0.0000
# 6 0.0000 0.0000 0.0000 1.8497 0.0000 33.8635
#
#
#
# Elastic Compliance Matrix: (Units=1/GPa)
#
#
# Indices 1 2 3 4 5 6 
#
# 1 0.009647 -0.001055 -0.004317 0.000000 0.000040 0.000000
# 2 -0.001055 0.019173 -0.004392 0.000000 -0.001741 0.000000
# 3 -0.004317 -0.004392 0.019697 0.000000 -0.002748 0.000000
# 4 0.000000 0.000000 0.000000 0.032791 0.000000 -0.001791
# 5 0.000040 -0.001741 -0.002748 0.000000 0.047032 0.000000
# 6 0.000000 0.000000 0.000000 -0.001791 0.000000 0.029628
#
#
# Mechanical properties :
#
#
# Convention : Reuss Voigt Hill
#
# Bulk Modulus (GPa) = 34.49666 39.27691 36.88678
# Shear Modulus (GPa) = 26.71522 29.06504 27.89013
#
# Velocity S-wave (km/s) = 3.65060 3.80777 3.73002
# Velocity P-wave (km/s) = 5.91421 6.23903 6.07879
#
# Compressibility (1/GPa) = 0.02898831
#
# Stress axis : x y z
#
# Youngs Moduli (GPa) = 103.66334 52.15583 50.77044
#
# Poissons Ratio (x) = 0.05502 0.21916
# Poissons Ratio (y) = 0.10935 0.22301
# Poissons Ratio (z) = 0.44749 0.22909
#
# Static dielectric constant tensor:
#      x y z
#    x 3.728620 0.000000 -0.020060 
#    y 0.000000 3.580980 0.000000 
#    z -0.020060 0.000000 3.607120 
# 
# 
# High freq. dielectric constant tensor:
#      x y z
#    x 1.793640 0.000000 0.001110 
#    y 0.000000 1.784790 0.000000 
#    z 0.001110 0.000000 1.773390 
# 
# From -- ./inp_files/70272.got.cif
#   From: 2010.06.25/outbox.cif.g09.slc.cpg/sg10_36_cif.got.tgz:70272.got - 2010.06.27 22:07:45.
