data_PCOD8062428
_publ_section_title
;
Structure prediction by ZEFSAII (Michael W. Deem and Ramdas Pophale) SiO2 
 PCOD8062428
Probable space group: P 2/M
;
_chemical_formula_sum "Si O2"
_cell_formula_units_Z 32
_cell_length_a 15.280172
_cell_length_b 9.176302
_cell_length_c 11.805072
_cell_angle_alpha 90.000000
_cell_angle_beta 90.000782
_cell_angle_gamma 90.000000
_cell_volume 1655.253753
_symmetry_space_group_name_H-M "P 2/M"
_symmetry_group_IT_number 10
_symmetry_cell_setting 'monoclinic'
loop_
_space_group_symop_operation_xyz
x,y,z
-x,y,-z
-x,-y,-z
x,-y,z
loop_
_atom_site_type_symbol
_atom_site_label
_atom_site_fract_x
_atom_site_fract_y
_atom_site_fract_z
Si Si1 0.750001 0.170598 0.358861
Si Si2 0.909214 0.329244 0.753673
Si Si3 0.149013 0.331043 0.994842
Si Si4 0.749996 0.671625 0.596249
Si Si5 0.350981 0.331047 0.994845
Si Si6 0.918561 0.171957 0.215158
Si Si7 0.581447 0.171959 0.215148
Si Si8 0.590779 0.329248 0.753668
O O1 0.750003 0.252554 0.476381
O O2 0.834986 0.218454 0.288640
O O3 0.665021 0.218468 0.288631
O O4 0.749994 0.000000 0.383301
O O5 0.929258 0.500000 0.743690
O O6 0.835822 0.279469 0.664839
O O7 0.996469 0.239598 0.724551
O O8 0.875227 0.288036 0.877988
O O9 0.129192 0.500000 0.971526
O O10 0.249997 0.293550 0.973764
O O11 0.089784 0.236761 0.910820
O O12 0.749998 0.500000 0.578405
O O13 0.664160 0.720527 0.664821
O O14 0.370803 0.500000 0.971515
O O15 0.410212 0.236757 0.910832
O O16 0.375215 0.288058 0.122022
O O17 0.928654 0.000000 0.206003
O O18 0.496474 0.239590 0.275437
O O19 0.571362 0.000000 0.205997
O O20 0.570725 0.500000 0.743683
#
# Coordination Sequence:
#
# PCOD8062428 Si02
#       8
#     4   4   4   4   4   4   4   4
#     4  10  24  43  58  78 116 157 195 238 287 338
#     4  10  21  39  61  89 119 148 187 239 292 344
#     4  10  19  35  61  88 117 152 187 232 291 346
#     4  10  22  41  64  86 112 147 195 246 289 338
#     4  10  19  35  61  88 117 152 187 232 291 346
#     4  11  23  39  58  85 120 157 193 234 282 341
#     4  11  23  39  58  85 120 157 193 234 282 341
#     4  10  21  39  61  89 119 148 187 239 292 344
#
# _framework density 19.332383
#
# number of rings (size 3 to 8) (size 9 to 14) (size 15 to 20)
#    0.000    1.750    2.500    1.500    0.000    8.000 
#    0.000    5.000    0.000    0.000    0.000    0.000 
#    0.000    0.000    0.000    0.000    0.000    0.000 
#
# Total GULP energy -396975.880692 kJ/mol
# GULP energy per Si atom -12405.496272 kJ/mol
# Density = 1.928838 g / cm^3
# Si number density = 19.332383 Si / 1000 Ang^3
#
#
#
# Elastic Constant Matrix: (Units=GPa)
#
#
# Indices 1 2 3 4 5 6 
#
# 1 122.2883 52.9874 47.6416 0.0000 -0.0044 0.0000
# 2 52.9874 58.8310 49.6594 0.0000 -0.0018 0.0000
# 3 47.6416 49.6594 116.3914 0.0000 -0.0043 0.0000
# 4 0.0000 0.0000 0.0000 -7.3481 0.0000 0.0001
# 5 -0.0044 -0.0018 -0.0043 0.0000 12.4169 0.0000
# 6 0.0000 0.0000 0.0000 0.0001 0.0000 33.6299
#
#
#
# Elastic Compliance Matrix: (Units=1/GPa)
#
#
# Indices 1 2 3 4 5 6 
#
# 1 0.013432 -0.011654 -0.000526 0.000000 0.000003 0.000000
# 2 -0.011654 0.036676 -0.010878 0.000000 -0.000002 0.000000
# 3 -0.000526 -0.010878 0.013448 0.000000 0.000003 0.000000
# 4 0.000000 0.000000 0.000000 -0.136090 0.000000 0.000000
# 5 0.000003 -0.000002 0.000003 0.000000 0.080535 0.000000
# 6 0.000000 0.000000 0.000000 0.000000 0.000000 0.029735
#
#
# Mechanical properties :
#
#
# Convention : Reuss Voigt Hill
#
# Bulk Modulus (GPa) = 57.33639 66.45417 61.89528
# Shear Modulus (GPa) = 55.76251 17.55458 36.65855
#
# Velocity S-wave (km/s) = 5.37650 3.01664 4.35929
# Velocity P-wave (km/s) = 8.26226 6.82515 7.57785
#
# Compressibility (1/GPa) = 0.01744093
#
# Stress axis : x y z
#
# Youngs Moduli (GPa) = 74.44993 27.26543 74.35984
#
# Poissons Ratio (x) = 0.31775 0.03909
# Poissons Ratio (y) = 0.86763 0.80889
# Poissons Ratio (z) = 0.03914 0.29660
#
# Static dielectric constant tensor:
#      x y z
#    x 3.796060 0.000000 -0.000010 
#    y 0.000000 3.406900 0.000000 
#    z -0.000010 0.000000 3.420720 
# 
# 
# High freq. dielectric constant tensor:
#      x y z
#    x 1.771320 0.000000 0.000000 
#    y 0.000000 1.742390 0.000000 
#    z 0.000000 0.000000 1.749370 
# 
# From -- ./inp_files/49839.got.cif
#   From: 2010.06.25/outbox.cif.g09.slc.cpg/sg10_25_cif.got.tgz:49839.got - 2010.06.27 22:07:45.
