data_PCOD8062329
_publ_section_title
;
Structure prediction by ZEFSAII (Michael W. Deem and Ramdas Pophale) SiO2 
 PCOD8062329
Probable space group: P 2/M
;
_chemical_formula_sum "Si O2"
_cell_formula_units_Z 24
_cell_length_a 16.663505
_cell_length_b 7.615787
_cell_length_c 16.168919
_cell_angle_alpha 90.000000
_cell_angle_beta 144.006620
_cell_angle_gamma 90.000000
_cell_volume 1205.901242
_symmetry_space_group_name_H-M "P 2/M"
_symmetry_group_IT_number 10
_symmetry_cell_setting 'monoclinic'
loop_
_space_group_symop_operation_xyz
x,y,z
-x,y,-z
-x,-y,-z
x,-y,z
loop_
_atom_site_type_symbol
_atom_site_label
_atom_site_fract_x
_atom_site_fract_y
_atom_site_fract_z
Si Si1 0.293399 0.000000 0.883112
Si Si2 0.404565 0.000000 0.796579
Si Si3 0.614014 0.300700 0.346844
Si Si4 0.865120 0.801511 0.661480
Si Si5 0.163613 0.300029 0.871616
Si Si6 0.677070 0.293461 0.836006
Si Si7 0.856825 0.706295 0.839012
O O1 0.208076 0.824854 0.833464
O O2 0.313009 0.000000 0.801660
O O3 0.436038 0.000000 0.050211
O O4 0.364623 0.174899 0.713359
O O5 0.593362 0.500000 0.297139
O O6 0.740591 0.296588 0.514062
O O7 0.480392 0.237458 0.286410
O O8 0.841768 0.804268 0.739994
O O9 0.001923 0.700375 0.750517
O O10 0.873179 0.000000 0.635640
O O11 0.209618 0.500000 0.890350
O O12 0.236615 0.221906 0.014228
O O13 0.698246 0.500000 0.852031
O O14 0.738044 0.220427 0.800833
O O15 0.844579 0.500000 0.811749
O O16 0.000000 0.753991 0.000000
#
# Coordination Sequence:
#
# PCOD8062329 Si02
#       7
#     2   2   4   4   4   4   4
#     4  11  24  41  69 102 128 155 200 265 312 376
#     4  11  24  43  67 100 131 156 200 261 319 373
#     4  11  23  43  65  89 128 173 209 252 316 379
#     4  12  24  39  60  92 129 168 213 263 311 367
#     4  11  21  40  65  93 126 167 209 251 311 374
#     4   9  19  36  62  88 122 169 211 254 302 362
#     4  10  19  35  58  89 126 164 213 263 304 356
#
# _framework density 19.902128000000001
#
# number of rings (size 3 to 8) (size 9 to 14) (size 15 to 20)
#    0.000    1.333    5.000    1.500    0.000    1.667 
#    3.000    6.667    0.000    2.000    0.000    0.000 
#    0.000    0.000    0.000    0.000    0.000    0.000 
#
# Total GULP energy -297675.046938 kJ/mol
# GULP energy per Si atom -12403.126956 kJ/mol
# Density = 1.985683 g / cm^3
# Si number density = 19.902128 Si / 1000 Ang^3
#
#
#
# Elastic Constant Matrix: (Units=GPa)
#
#
# Indices 1 2 3 4 5 6 
#
# 1 156.9083 47.1877 60.6331 0.0000 0.1078 0.0000
# 2 47.1877 99.9486 22.2941 0.0000 -6.6972 0.0000
# 3 60.6331 22.2941 119.0499 0.0000 13.1888 0.0000
# 4 0.0000 0.0000 0.0000 181.5691 0.0000 -46.0430
# 5 0.1078 -6.6972 13.1888 0.0000 30.1115 0.0000
# 6 0.0000 0.0000 0.0000 -46.0430 0.0000 39.3776
#
#
#
# Elastic Compliance Matrix: (Units=1/GPa)
#
#
# Indices 1 2 3 4 5 6 
#
# 1 0.008908 -0.003235 -0.004044 0.000000 0.001020 0.000000
# 2 -0.003235 0.011946 -0.000930 0.000000 0.003076 0.000000
# 3 -0.004044 -0.000930 0.011198 0.000000 -0.005097 0.000000
# 4 0.000000 0.000000 0.000000 0.007829 0.000000 0.009154
# 5 0.001020 0.003076 -0.005097 0.000000 0.036123 0.000000
# 6 0.000000 0.000000 0.000000 0.009154 0.000000 0.036099
#
#
# Mechanical properties :
#
#
# Convention : Reuss Voigt Hill
#
# Bulk Modulus (GPa) = 63.96455 70.68184 67.32320
# Shear Modulus (GPa) = 37.38777 66.59777 51.99277
#
# Velocity S-wave (km/s) = 4.33896 5.79097 5.11673
# Velocity P-wave (km/s) = 7.57043 8.96134 8.29509
#
# Compressibility (1/GPa) = 0.01563366
#
# Stress axis : x y z
#
# Youngs Moduli (GPa) = 112.25651 83.70880 89.29830
#
# Poissons Ratio (x) = 0.27083 0.36113
# Poissons Ratio (y) = 0.36319 0.08306
# Poissons Ratio (z) = 0.45398 0.07786
#
# Static dielectric constant tensor:
#      x y z
#    x 3.656320 0.000000 0.108290 
#    y 0.000000 3.555760 0.000000 
#    z 0.108290 0.000000 3.502270 
# 
# 
# High freq. dielectric constant tensor:
#      x y z
#    x 1.771470 0.000000 0.011730 
#    y 0.000000 1.779460 0.000000 
#    z 0.011730 0.000000 1.767390 
# 
# From -- ./inp_files/66715.got.cif
#   From: 2010.06.25/outbox.cif.g09.slc.cpg/sg10_34_cif.got.tgz:66715.got - 2010.06.27 22:07:45.
