data_PCOD8062152
_publ_section_title
;
Structure prediction by ZEFSAII (Michael W. Deem and Ramdas Pophale) SiO2 
 PCOD8062152
Probable space group: P 2/M
;
_chemical_formula_sum "Si O2"
_cell_formula_units_Z 28
_cell_length_a 8.777061
_cell_length_b 14.764717
_cell_length_c 12.281275
_cell_angle_alpha 90.000000
_cell_angle_beta 63.466636
_cell_angle_gamma 90.000000
_cell_volume 1423.910533
_symmetry_space_group_name_H-M "P 2/M"
_symmetry_group_IT_number 10
_symmetry_cell_setting 'monoclinic'
loop_
_space_group_symop_operation_xyz
x,y,z
-x,y,-z
-x,-y,-z
x,-y,z
loop_
_atom_site_type_symbol
_atom_site_label
_atom_site_fract_x
_atom_site_fract_y
_atom_site_fract_z
Si Si1 0.963899 0.101724 0.819935
Si Si2 0.530741 0.400072 0.362299
Si Si3 0.369578 0.106494 0.953836
Si Si4 0.746514 0.761924 0.333892
Si Si5 0.524891 0.099770 0.314798
Si Si6 0.155137 0.130638 0.376905
Si Si7 0.818459 0.317731 0.547159
O O1 0.864301 0.093568 0.737992
O O2 0.105217 0.181039 0.774057
O O3 0.038185 0.000000 0.821776
O O4 0.826045 0.129707 0.955089
O O5 0.500000 0.399314 0.500000
O O6 0.587995 0.500000 0.303652
O O7 0.680342 0.327497 0.287864
O O8 0.345123 0.377972 0.369947
O O9 0.409483 0.143147 0.820475
O O10 0.401684 0.000000 0.942228
O O11 0.500000 0.150846 0.000000
O O12 0.586364 0.831218 0.389483
O O13 0.803017 0.732373 0.435400
O O14 0.322575 0.090583 0.379064
O O15 0.601683 0.000000 0.313170
O O16 0.166841 0.239453 0.367487
O O17 0.000000 0.095990 0.500000
O O18 0.000000 0.372561 0.500000
#
# Coordination Sequence:
#
# PCOD8062152 Si02
#       7
#     4   4   4   4   4   4   4
#     4  11  21  34  53  78 110 149 187 225 266 312
#     4   9  19  35  56  78 107 144 176 217 277 332
#     4   9  18  34  54  74 100 140 192 237 265 302
#     4  11  21  35  52  77 113 141 176 224 270 320
#     4  11  22  35  52  76 107 147 188 227 269 313
#     4  11  20  34  50  76 108 147 182 223 261 314
#     4  10  19  35  53  75 109 143 178 223 264 319
#
# _framework density 19.664155999999998
#
# number of rings (size 3 to 8) (size 9 to 14) (size 15 to 20)
#    0.000    1.714    5.714    0.857    0.000    2.000 
#    0.000    2.857    0.000    0.000    0.000    2.000 
#    0.000    2.286    0.000    0.000    0.000    0.000 
#
# Total GULP energy -346928.090419 kJ/mol
# GULP energy per Si atom -12390.288944 kJ/mol
# Density = 1.961940 g / cm^3
# Si number density = 19.664156 Si / 1000 Ang^3
#
#
#
# Elastic Constant Matrix: (Units=GPa)
#
#
# Indices 1 2 3 4 5 6 
#
# 1 126.5262 47.0113 24.3168 0.0000 -18.7659 0.0000
# 2 47.0113 115.7592 13.6472 0.0000 -15.2443 0.0000
# 3 24.3168 13.6472 61.6930 0.0000 -17.7609 0.0000
# 4 0.0000 0.0000 0.0000 20.0328 0.0000 -4.6989
# 5 -18.7659 -15.2443 -17.7609 0.0000 26.9135 0.0000
# 6 0.0000 0.0000 0.0000 -4.6989 0.0000 23.8197
#
#
#
# Elastic Compliance Matrix: (Units=1/GPa)
#
#
# Indices 1 2 3 4 5 6 
#
# 1 0.010123 -0.003365 -0.002176 0.000000 0.003717 0.000000
# 2 -0.003365 0.010476 0.000052 0.000000 0.003621 0.000000
# 3 -0.002176 0.000052 0.020527 0.000000 0.012058 0.000000
# 4 0.000000 0.000000 0.000000 0.052340 0.000000 0.010325
# 5 0.003717 0.003621 0.012058 0.000000 0.049756 0.000000
# 6 0.000000 0.000000 0.000000 0.010325 0.000000 0.044019
#
#
# Mechanical properties :
#
#
# Convention : Reuss Voigt Hill
#
# Bulk Modulus (GPa) = 33.17016 52.65876 42.91446
# Shear Modulus (GPa) = 24.00733 28.75341 26.38037
#
# Velocity S-wave (km/s) = 3.49788 3.82805 3.66669
# Velocity P-wave (km/s) = 5.76355 6.80998 6.30850
#
# Compressibility (1/GPa) = 0.03014758
#
# Stress axis : x y z
#
# Youngs Moduli (GPa) = 98.78240 95.45517 48.71633
#
# Poissons Ratio (x) = 0.32123 0.10599
# Poissons Ratio (y) = 0.33243 -0.00251
# Poissons Ratio (z) = 0.21493 -0.00493
#
# Static dielectric constant tensor:
#      x y z
#    x 3.971460 0.000000 -0.093460 
#    y 0.000000 3.594100 0.000000 
#    z -0.093460 0.000000 3.380240 
# 
# 
# High freq. dielectric constant tensor:
#      x y z
#    x 1.792750 0.000000 -0.010020 
#    y 0.000000 1.728960 0.000000 
#    z -0.010020 0.000000 1.727110 
# 
# From -- ./inp_files/42889.got.cif
#   From: 2010.06.25/outbox.cif.g09.slc.cpg/sg10_22_cif.got.tgz:42889.got - 2010.06.27 22:07:45.
