data_PCOD8062395
_publ_section_title
;
Structure prediction by ZEFSAII (Michael W. Deem and Ramdas Pophale) SiO2 
 PCOD8062395
Probable space group: P 2/M
;
_chemical_formula_sum "Si O2"
_cell_formula_units_Z 32
_cell_length_a 14.339954
_cell_length_b 8.706466
_cell_length_c 24.580878
_cell_angle_alpha 90.000000
_cell_angle_beta 149.550106
_cell_angle_gamma 90.000000
_cell_volume 1555.286921
_symmetry_space_group_name_H-M "P 2/M"
_symmetry_group_IT_number 10
_symmetry_cell_setting 'monoclinic'
loop_
_space_group_symop_operation_xyz
x,y,z
-x,y,-z
-x,-y,-z
x,-y,z
loop_
_atom_site_type_symbol
_atom_site_label
_atom_site_fract_x
_atom_site_fract_y
_atom_site_fract_z
Si Si1 0.198402 0.673410 0.612636
Si Si2 0.709380 0.679382 0.620948
Si Si3 0.014605 0.181456 0.325912
Si Si4 0.598499 0.182796 0.103140
Si Si5 0.715902 0.672763 0.464631
Si Si6 0.348270 0.820345 0.298439
Si Si7 0.206907 0.183126 0.110714
Si Si8 0.506636 0.819275 0.833171
O O1 0.174522 0.500000 0.623374
O O2 0.310728 0.673154 0.613150
O O3 0.305790 0.775175 0.709940
O O4 0.000000 0.747132 0.500000
O O5 0.500000 0.722384 0.500000
O O6 0.747271 0.500000 0.633290
O O7 0.849880 0.772388 0.654337
O O8 0.756275 0.731106 0.706123
O O9 0.085026 0.263333 0.416785
O O10 0.808646 0.241729 0.210441
O O11 0.015711 0.000000 0.334917
O O12 0.485538 0.238544 0.100223
O O13 0.596833 0.000000 0.099958
O O14 0.500000 0.251961 0.000000
O O15 0.688368 0.500000 0.473930
O O16 0.563804 0.784250 0.413686
O O17 0.278919 0.758009 0.205230
O O18 0.311194 0.000000 0.286183
O O19 0.331638 0.251127 0.123729
O O20 0.214021 0.000000 0.112555
O O21 0.000000 0.244809 0.000000
O O22 0.523767 0.000000 0.839981
#
# Coordination Sequence:
#
# PCOD8062395 Si02
#       8
#     4   4   4   4   4   4   4   4
#     4  10  21  35  53  80 115 155 194 231 284 347
#     4  11  23  38  57  82 117 161 195 235 297 357
#     4  11  22  36  59  89 116 150 198 248 290 345
#     4   9  20  38  60  88 119 152 193 244 298 344
#     4  11  21  34  54  80 117 157 187 233 297 351
#     4  11  21  35  58  86 114 149 195 243 286 342
#     4   9  19  35  57  88 120 151 190 237 290 342
#     4  10  19  35  60  86 114 150 191 238 287 337
#
# _framework density 20.574981999999999
#
# number of rings (size 3 to 8) (size 9 to 14) (size 15 to 20)
#    0.000    1.750    2.500    2.250    0.000    2.250 
#    0.000    4.375    0.000    8.250    0.000    0.000 
#    0.000    0.000    0.000    0.000    0.000    0.000 
#
# Total GULP energy -396749.738307 kJ/mol
# GULP energy per Si atom -12398.429322 kJ/mol
# Density = 2.052815 g / cm^3
# Si number density = 20.574982 Si / 1000 Ang^3
#
#
#
# Elastic Constant Matrix: (Units=GPa)
#
#
# Indices 1 2 3 4 5 6 
#
# 1 108.5067 14.3711 54.3239 0.0000 -16.7643 0.0000
# 2 14.3711 30.6313 14.5771 0.0000 -6.8821 0.0000
# 3 54.3239 14.5771 130.7979 0.0000 -11.2100 0.0000
# 4 0.0000 0.0000 0.0000 11.5427 0.0000 -0.9070
# 5 -16.7643 -6.8821 -11.2100 0.0000 38.2306 0.0000
# 6 0.0000 0.0000 0.0000 -0.9070 0.0000 18.4203
#
#
#
# Elastic Compliance Matrix: (Units=1/GPa)
#
#
# Indices 1 2 3 4 5 6 
#
# 1 0.012420 -0.002861 -0.004531 0.000000 0.003603 0.000000
# 2 -0.002861 0.036176 -0.002454 0.000000 0.004538 0.000000
# 3 -0.004531 -0.002454 0.009840 0.000000 0.000457 0.000000
# 4 0.000000 0.000000 0.000000 0.086972 0.000000 0.004282
# 5 0.003603 0.004538 0.000457 0.000000 0.028688 0.000000
# 6 0.000000 0.000000 0.000000 0.004282 0.000000 0.054499
#
#
# Mechanical properties :
#
#
# Convention : Reuss Voigt Hill
#
# Bulk Modulus (GPa) = 25.81112 48.49780 37.15446
# Shear Modulus (GPa) = 19.14232 26.08297 22.61265
#
# Velocity S-wave (km/s) = 3.05350 3.56434 3.31877
# Velocity P-wave (km/s) = 5.00040 6.36882 5.72564
#
# Compressibility (1/GPa) = 0.03874299
#
# Stress axis : x y z
#
# Youngs Moduli (GPa) = 80.51613 27.64233 101.62843
#
# Poissons Ratio (x) = 0.07910 0.46044
# Poissons Ratio (y) = 0.23039 0.24944
# Poissons Ratio (z) = 0.36479 0.06785
#
# Static dielectric constant tensor:
#      x y z
#    x 4.021840 0.000000 -0.132640 
#    y 0.000000 3.378300 0.000000 
#    z -0.132640 0.000000 3.811210 
# 
# 
# High freq. dielectric constant tensor:
#      x y z
#    x 1.821800 0.000000 -0.008240 
#    y 0.000000 1.772400 0.000000 
#    z -0.008240 0.000000 1.796590 
# 
# From -- ./inp_files/89587.got.cif
#   From: 2010.06.25/outbox.cif.g09.slc.cpg/sg10_45_cif.got.tgz:89587.got - 2010.06.27 22:07:45.
