data_PCOD8062219
_publ_section_title
;
Structure prediction by ZEFSAII (Michael W. Deem and Ramdas Pophale) SiO2 
 PCOD8062219
Probable space group: P 2/M
;
_chemical_formula_sum "Si O2"
_cell_formula_units_Z 28
_cell_length_a 11.746513
_cell_length_b 9.190568
_cell_length_c 15.722163
_cell_angle_alpha 90.000000
_cell_angle_beta 123.722697
_cell_angle_gamma 90.000000
_cell_volume 1411.718815
_symmetry_space_group_name_H-M "P 2/M"
_symmetry_group_IT_number 10
_symmetry_cell_setting 'monoclinic'
loop_
_space_group_symop_operation_xyz
x,y,z
-x,y,-z
-x,-y,-z
x,-y,z
loop_
_atom_site_type_symbol
_atom_site_label
_atom_site_fract_x
_atom_site_fract_y
_atom_site_fract_z
Si Si1 0.867822 0.830970 0.138939
Si Si2 0.349093 0.331736 0.272332
Si Si3 0.403837 0.826863 0.696536
Si Si4 0.406739 0.169637 0.887182
Si Si5 0.153113 0.667733 0.036318
Si Si6 0.854020 0.331116 0.480597
Si Si7 0.870774 0.330902 0.683217
O O1 0.753640 0.801381 0.163081
O O2 0.007840 0.755778 0.222658
O O3 0.896833 0.000000 0.138025
O O4 0.806790 0.767284 0.026429
O O5 0.392409 0.500000 0.287181
O O6 0.485601 0.235467 0.323896
O O7 0.250512 0.289844 0.154102
O O8 0.271590 0.295409 0.328195
O O9 0.441400 0.770091 0.807443
O O10 0.254797 0.767840 0.612244
O O11 0.400848 0.000000 0.689778
O O12 0.439866 0.000000 0.901316
O O13 0.500000 0.244138 0.000000
O O14 0.168612 0.500000 0.016387
O O15 0.000000 0.704199 0.000000
O O16 0.813951 0.500000 0.453949
O O17 0.856127 0.284388 0.579827
O O18 0.000000 0.297767 0.500000
O O19 0.907877 0.500000 0.708799
#
# Coordination Sequence:
#
# PCOD8062219 Si02
#       7
#     4   4   4   4   4   4   4
#     4  11  21  33  56  87 116 148 192 242 287 341
#     4  10  21  38  59  82 114 155 196 235 281 345
#     4  11  23  39  61  86 118 154 188 238 296 345
#     4   9  19  36  55  79 115 154 187 225 283 347
#     4  10  19  35  56  80 116 158 195 232 281 339
#     4  10  22  41  65  89 113 147 195 244 287 344
#     4  10  21  39  60  82 113 153 191 235 291 344
#
# _framework density 19.833977999999998
#
# number of rings (size 3 to 8) (size 9 to 14) (size 15 to 20)
#    0.000    1.857    1.429    2.571    0.000    4.000 
#    0.000    5.000    0.000    5.143    0.000    0.000 
#    0.000    0.000    0.000    0.000    0.000    0.000 
#
# Total GULP energy -347280.727295 kJ/mol
# GULP energy per Si atom -12402.883118 kJ/mol
# Density = 1.978884 g / cm^3
# Si number density = 19.833978 Si / 1000 Ang^3
#
#
#
# Elastic Constant Matrix: (Units=GPa)
#
#
# Indices 1 2 3 4 5 6 
#
# 1 113.8183 45.3697 62.0022 0.0000 -11.8808 0.0000
# 2 45.3697 63.4675 42.2464 0.0000 -1.5445 0.0000
# 3 62.0022 42.2464 109.1179 0.0000 -12.1314 0.0000
# 4 0.0000 0.0000 0.0000 28.7710 0.0000 5.4309
# 5 -11.8808 -1.5445 -12.1314 0.0000 36.8906 0.0000
# 6 0.0000 0.0000 0.0000 5.4309 0.0000 25.6388
#
#
#
# Elastic Compliance Matrix: (Units=1/GPa)
#
#
# Indices 1 2 3 4 5 6 
#
# 1 0.014764 -0.006875 -0.005429 0.000000 0.002682 0.000000
# 2 -0.006875 0.024554 -0.005950 0.000000 -0.003143 0.000000
# 3 -0.005429 -0.005950 0.014875 0.000000 0.002894 0.000000
# 4 0.000000 0.000000 0.000000 0.036205 0.000000 -0.007669
# 5 0.002682 -0.003143 0.002894 0.000000 0.028791 0.000000
# 6 0.000000 0.000000 0.000000 -0.007669 0.000000 0.040628
#
#
# Mechanical properties :
#
#
# Convention : Reuss Voigt Hill
#
# Bulk Modulus (GPa) = 56.54328 65.07115 60.80722
# Shear Modulus (GPa) = 24.72578 27.37912 26.05245
#
# Velocity S-wave (km/s) = 3.53461 3.71942 3.62819
# Velocity P-wave (km/s) = 6.72518 7.16412 6.94812
#
# Compressibility (1/GPa) = 0.01768557
#
# Stress axis : x y z
#
# Youngs Moduli (GPa) = 67.73354 40.72614 67.22902
#
# Poissons Ratio (x) = 0.27998 0.36500
# Poissons Ratio (y) = 0.46565 0.39998
# Poissons Ratio (z) = 0.36774 0.24230
#
# Static dielectric constant tensor:
#      x y z
#    x 3.733120 0.000000 -0.182800 
#    y 0.000000 3.398410 0.000000 
#    z -0.182800 0.000000 3.716310 
# 
# 
# High freq. dielectric constant tensor:
#      x y z
#    x 1.787150 0.000000 -0.004890 
#    y 0.000000 1.754330 0.000000 
#    z -0.004890 0.000000 1.776390 
# 
# From -- ./inp_files/63917.got.cif
#   From: 2010.06.25/outbox.cif.g09.slc.cpg/sg10_32_cif.got.tgz:63917.got - 2010.06.27 22:07:45.
