data_PCOD8062061
_publ_section_title
;
Structure prediction by ZEFSAII (Michael W. Deem and Ramdas Pophale) SiO2 
 PCOD8062061
Probable space group: P 2/M
;
_chemical_formula_sum "Si O2"
_cell_formula_units_Z 32
_cell_length_a 10.858511
_cell_length_b 9.061467
_cell_length_c 20.996208
_cell_angle_alpha 90.000000
_cell_angle_beta 129.171913
_cell_angle_gamma 90.000000
_cell_volume 1601.599026
_symmetry_space_group_name_H-M "P 2/M"
_symmetry_group_IT_number 10
_symmetry_cell_setting 'monoclinic'
loop_
_space_group_symop_operation_xyz
x,y,z
-x,y,-z
-x,-y,-z
x,-y,z
loop_
_atom_site_type_symbol
_atom_site_label
_atom_site_fract_x
_atom_site_fract_y
_atom_site_fract_z
Si Si1 0.318463 0.169880 0.950055
Si Si2 0.145430 0.174845 0.501743
Si Si3 0.011382 0.670824 0.340534
Si Si4 0.017057 0.670061 0.811969
Si Si5 0.661101 0.336901 0.232913
Si Si6 0.747404 0.824934 0.795716
Si Si7 0.444773 0.334059 0.657641
Si Si8 0.368230 0.832168 0.106136
O O1 0.198438 0.270332 0.869963
O O2 0.300416 0.000000 0.922550
O O3 0.500000 0.222297 0.000000
O O4 0.269451 0.188385 0.008843
O O5 0.310062 0.245793 0.576658
O O6 0.000000 0.226246 0.500000
O O7 0.120325 0.230335 0.421499
O O8 0.163027 0.000000 0.508546
O O9 0.019150 0.500000 0.365508
O O10 0.062645 0.687316 0.283760
O O11 0.833910 0.736654 0.288904
O O12 0.018213 0.500000 0.833552
O O13 0.917451 0.765279 0.829482
O O14 0.675072 0.500000 0.207467
O O15 0.599607 0.342794 0.283924
O O16 0.537124 0.246740 0.150306
O O17 0.611596 0.752384 0.706878
O O18 0.728183 0.775154 0.863550
O O19 0.741666 0.000000 0.785459
O O20 0.462664 0.500000 0.635248
O O21 0.414041 0.000000 0.133588
#
# Coordination Sequence:
#
# PCOD8062061 Si02
#       8
#     4   4   4   4   4   4   4   4
#     4  10  21  38  60  87 119 151 186 230 288 348
#     4  11  22  34  54  88 122 150 186 231 280 339
#     4  10  21  37  55  79 113 151 189 232 287 344
#     4  11  24  40  59  83 113 151 196 240 285 339
#     4   9  17  30  52  81 111 145 182 225 281 339
#     4  10  21  39  60  81 113 152 196 242 284 334
#     4  10  19  34  58  84 115 150 187 232 282 339
#     4   9  19  34  55  83 112 148 190 233 281 335
#
# _framework density 19.980032999999999
#
# number of rings (size 3 to 8) (size 9 to 14) (size 15 to 20)
#    0.000    2.000    1.250    2.250    0.000    4.250 
#    0.000    3.125    0.000    3.750    0.000    0.000 
#    0.000    0.000    0.000    0.000    0.000    0.000 
#
# Total GULP energy -396786.541958 kJ/mol
# GULP energy per Si atom -12399.579436 kJ/mol
# Density = 1.993456 g / cm^3
# Si number density = 19.980033 Si / 1000 Ang^3
#
#
#
# Elastic Constant Matrix: (Units=GPa)
#
#
# Indices 1 2 3 4 5 6 
#
# 1 70.4924 28.5526 17.7157 0.0000 8.4950 0.0000
# 2 28.5526 91.2288 41.3901 0.0000 3.3122 0.0000
# 3 17.7157 41.3901 89.9839 0.0000 2.7559 0.0000
# 4 0.0000 0.0000 0.0000 33.4622 0.0000 5.5696
# 5 8.4950 3.3122 2.7559 0.0000 23.5897 0.0000
# 6 0.0000 0.0000 0.0000 5.5696 0.0000 27.5730
#
#
#
# Elastic Compliance Matrix: (Units=1/GPa)
#
#
# Indices 1 2 3 4 5 6 
#
# 1 0.016973 -0.004646 -0.001041 0.000000 -0.005338 0.000000
# 2 -0.004646 0.015158 -0.006065 0.000000 0.000253 0.000000
# 3 -0.001041 -0.006065 0.014121 0.000000 -0.000423 0.000000
# 4 0.000000 0.000000 0.000000 0.030924 0.000000 -0.006247
# 5 -0.005338 0.000253 -0.000423 0.000000 0.044328 0.000000
# 6 0.000000 0.000000 0.000000 -0.006247 0.000000 0.037529
#
#
# Mechanical properties :
#
#
# Convention : Reuss Voigt Hill
#
# Bulk Modulus (GPa) = 43.96187 47.44689 45.70438
# Shear Modulus (GPa) = 26.29919 27.86141 27.08030
#
# Velocity S-wave (km/s) = 3.63198 3.73830 3.68553
# Velocity P-wave (km/s) = 6.29596 6.51398 6.40590
#
# Compressibility (1/GPa) = 0.02274699
#
# Stress axis : x y z
#
# Youngs Moduli (GPa) = 58.91823 65.97096 70.81686
#
# Poissons Ratio (x) = 0.30650 0.07372
# Poissons Ratio (y) = 0.27373 0.42953
# Poissons Ratio (z) = 0.06134 0.40014
#
# Static dielectric constant tensor:
#      x y z
#    x 3.530220 0.000000 -0.051950 
#    y 0.000000 3.698980 0.000000 
#    z -0.051950 0.000000 3.611190 
# 
# 
# High freq. dielectric constant tensor:
#      x y z
#    x 1.768200 0.000000 -0.001700 
#    y 0.000000 1.779030 0.000000 
#    z -0.001700 0.000000 1.776930 
# 
# From -- ./inp_files/83605.got.cif
#   From: 2010.06.25/outbox.cif.g09.slc.cpg/sg10_42_cif.got.tgz:83605.got - 2010.06.27 22:07:45.
