data_PCOD8062755
_publ_section_title
;
Structure prediction by ZEFSAII (Michael W. Deem and Ramdas Pophale) SiO2 
 PCOD8062755
Probable space group: P 2/M
;
_chemical_formula_sum "Si O2"
_cell_formula_units_Z 28
_cell_length_a 23.358944
_cell_length_b 8.904816
_cell_length_c 19.899583
_cell_angle_alpha 90.000000
_cell_angle_beta 160.630292
_cell_angle_gamma 90.000000
_cell_volume 1372.835121
_symmetry_space_group_name_H-M "P 2/M"
_symmetry_group_IT_number 10
_symmetry_cell_setting 'monoclinic'
loop_
_space_group_symop_operation_xyz
x,y,z
-x,y,-z
-x,-y,-z
x,-y,z
loop_
_atom_site_type_symbol
_atom_site_label
_atom_site_fract_x
_atom_site_fract_y
_atom_site_fract_z
Si Si1 0.765980 0.673443 0.409829
Si Si2 0.101827 0.171289 0.951868
Si Si3 0.675928 0.828455 0.669441
Si Si4 0.154305 0.321901 0.876048
Si Si5 0.585356 0.821858 0.941954
Si Si6 0.197094 0.673152 0.705300
Si Si7 0.886327 0.326770 0.808198
O O1 0.746060 0.500000 0.408056
O O2 0.747733 0.695531 0.310126
O O3 0.958093 0.731789 0.642137
O O4 0.613480 0.763618 0.279046
O O5 0.192007 0.267492 0.993475
O O6 0.919927 0.242365 0.774329
O O7 0.083426 0.000000 0.907674
O O8 0.199988 0.191095 0.130145
O O9 0.500000 0.762249 0.500000
O O10 0.703581 0.730159 0.632812
O O11 0.666710 0.000000 0.635396
O O12 0.170602 0.500000 0.886893
O O13 0.298610 0.248106 0.988762
O O14 0.673864 0.776512 0.109894
O O15 0.582655 0.000000 0.930848
O O16 0.218670 0.500000 0.752126
O O17 0.000000 0.724054 0.500000
O O18 0.894004 0.500000 0.799690
O O19 0.000000 0.282591 0.000000
#
# Coordination Sequence:
#
# PCOD8062755 Si02
#       7
#     4   4   4   4   4   4   4
#     4  10  22  41  65  88 115 157 207 252 297 358
#     4  10  20  36  58  84 114 150 190 236 296 352
#     4   9  18  34  56  83 115 149 186 234 290 346
#     4  11  23  43  65  85 117 162 209 250 297 358
#     4  12  25  39  60  92 127 158 196 250 310 363
#     4  10  19  38  65  90 117 158 207 251 300 355
#     4   9  17  31  53  79 106 140 184 229 273 330
#
# _framework density 20.395748999999999
#
# number of rings (size 3 to 8) (size 9 to 14) (size 15 to 20)
#    0.000    1.857    1.429    3.000    0.000    6.286 
#    2.571    0.000    0.000    0.000    0.000    0.000 
#    0.000    0.000    0.000    0.000    0.000    0.000 
#
# Total GULP energy -346960.646017 kJ/mol
# GULP energy per Si atom -12391.451643 kJ/mol
# Density = 2.034933 g / cm^3
# Si number density = 20.395749 Si / 1000 Ang^3
#
#
#
# Elastic Constant Matrix: (Units=GPa)
#
#
# Indices 1 2 3 4 5 6 
#
# 1 49.9410 129.6190 -36.2169 0.0000 133.3458 0.0000
# 2 129.6190 22.6973 101.0776 0.0000 -80.3302 0.0000
# 3 -36.2169 101.0776 -8.3761 0.0000 127.3995 0.0000
# 4 0.0000 0.0000 0.0000 -8.7531 0.0000 23.7619
# 5 133.3458 -80.3302 127.3995 0.0000 -99.0713 0.0000
# 6 0.0000 0.0000 0.0000 23.7619 0.0000 26.3733
#
#
#
# Elastic Compliance Matrix: (Units=1/GPa)
#
#
# Indices 1 2 3 4 5 6 
#
# 1 0.009481 -0.002530 -0.008285 0.000000 0.004158 0.000000
# 2 -0.002530 0.012065 0.002374 0.000000 -0.010135 0.000000
# 3 -0.008285 0.002374 0.013676 0.000000 0.004510 0.000000
# 4 0.000000 0.000000 0.000000 -0.033154 0.000000 0.029871
# 5 0.004158 -0.010135 0.004510 0.000000 0.009520 0.000000
# 6 0.000000 0.000000 0.000000 0.029871 0.000000 0.011004
#
#
# Mechanical properties :
#
#
# Convention : Reuss Voigt Hill
#
# Bulk Modulus (GPa) = 54.53085 50.35794 52.44440
# Shear Modulus (GPa) = 109.68399 -24.97139 42.35630
#
# Velocity S-wave (km/s) = 7.34130 -3.50286 4.56205
# Velocity P-wave (km/s) = 9.93247 2.89551 7.31567
#
# Compressibility (1/GPa) = 0.01833824
#
# Stress axis : x y z
#
# Youngs Moduli (GPa) = 105.47903 82.88610 73.12279
#
# Poissons Ratio (x) = 0.20971 0.60583
# Poissons Ratio (y) = 0.26687 -0.17358
# Poissons Ratio (z) = 0.87391 -0.19676
#
# Static dielectric constant tensor:
#      x y z
#    x 3.889010 0.000000 0.277800 
#    y 0.000000 3.607410 0.000000 
#    z 0.277800 0.000000 3.672470 
# 
# 
# High freq. dielectric constant tensor:
#      x y z
#    x 1.813300 0.000000 0.020010 
#    y 0.000000 1.791750 0.000000 
#    z 0.020010 0.000000 1.778950 
# 
# From -- ./inp_files/86535.got.cif
#   From: 2010.06.25/outbox.cif.g09.slc.cpg/sg10_44_cif.got.tgz:86535.got - 2010.06.27 22:07:45.
