data_PCOD8062590
_publ_section_title
;
Structure prediction by ZEFSAII (Michael W. Deem and Ramdas Pophale) SiO2 
 PCOD8062590
Probable space group: P 2/M
;
_chemical_formula_sum "Si O2"
_cell_formula_units_Z 32
_cell_length_a 10.507696
_cell_length_b 8.295315
_cell_length_c 20.959781
_cell_angle_alpha 90.000000
_cell_angle_beta 123.491203
_cell_angle_gamma 90.000000
_cell_volume 1523.624121
_symmetry_space_group_name_H-M "P 2/M"
_symmetry_group_IT_number 10
_symmetry_cell_setting 'monoclinic'
loop_
_space_group_symop_operation_xyz
x,y,z
-x,y,-z
-x,-y,-z
x,-y,z
loop_
_atom_site_type_symbol
_atom_site_label
_atom_site_fract_x
_atom_site_fract_y
_atom_site_fract_z
Si Si1 0.471969 0.812787 0.922568
Si Si2 0.779214 0.314095 0.970763
Si Si3 0.749383 0.192326 0.245186
Si Si4 0.938623 0.811920 0.893524
Si Si5 0.410043 0.811868 0.671596
Si Si6 0.156740 0.312203 0.512116
Si Si7 0.095866 0.192012 0.357641
Si Si8 0.736182 0.810039 0.720628
O O1 0.329894 0.742039 0.842049
O O2 0.441383 0.000000 0.924410
O O3 0.500000 0.729838 0.000000
O O4 0.622054 0.782564 0.922466
O O5 0.750280 0.500000 0.978647
O O6 0.882275 0.233735 0.055358
O O7 0.857863 0.296196 0.924295
O O8 0.658417 0.262767 0.281779
O O9 0.923808 0.251996 0.295428
O O10 0.742403 0.000000 0.244835
O O11 0.869857 0.763736 0.806667
O O12 0.914969 0.000000 0.902595
O O13 0.295578 0.783372 0.581765
O O14 0.574544 0.733428 0.698512
O O15 0.433625 0.000000 0.688700
O O16 0.179113 0.500000 0.531802
O O17 0.157631 0.276714 0.437687
O O18 0.000000 0.248451 0.500000
O O19 0.208448 0.253603 0.332826
O O20 0.099000 0.000000 0.366644
O O21 0.717024 0.000000 0.710905
#
# Coordination Sequence:
#
# PCOD8062590 Si02
#       8
#     4   4   4   4   4   4   4   4
#     4  10  21  36  58  85 114 150 196 247 294 339
#     4  11  22  36  53  80 116 153 193 238 291 350
#     4   9  18  33  58  86 112 145 194 241 282 340
#     4  10  19  36  62  83 108 147 194 241 287 339
#     4  10  19  36  61  87 114 148 187 232 285 341
#     4  11  23  39  58  84 117 150 192 235 278 337
#     4  10  20  37  61  88 115 147 187 236 289 341
#     4   9  20  35  59  91 118 141 183 243 290 335
#
# _framework density 21.002555000000001
#
# number of rings (size 3 to 8) (size 9 to 14) (size 15 to 20)
#    0.000    2.000    1.250    3.375    1.750    3.250 
#    0.000    8.125    0.000    0.000    0.000    0.000 
#    0.000    0.000    0.000    0.000    0.000    0.000 
#
# Total GULP energy -396757.351821 kJ/mol
# GULP energy per Si atom -12398.667244 kJ/mol
# Density = 2.095475 g / cm^3
# Si number density = 21.002555 Si / 1000 Ang^3
#
#
#
# Elastic Constant Matrix: (Units=GPa)
#
#
# Indices 1 2 3 4 5 6 
#
# 1 102.1960 8.4178 38.3582 0.0000 -5.3300 0.0000
# 2 8.4178 20.7524 8.6152 0.0000 -2.7354 0.0000
# 3 38.3582 8.6152 140.4442 0.0000 -8.2384 0.0000
# 4 0.0000 0.0000 0.0000 2.1983 0.0000 1.6502
# 5 -5.3300 -2.7354 -8.2384 0.0000 34.2263 0.0000
# 6 0.0000 0.0000 0.0000 1.6502 0.0000 12.2151
#
#
#
# Elastic Compliance Matrix: (Units=1/GPa)
#
#
# Indices 1 2 3 4 5 6 
#
# 1 0.011145 -0.003254 -0.002797 0.000000 0.000802 0.000000
# 2 -0.003254 0.050759 -0.002046 0.000000 0.003058 0.000000
# 3 -0.002797 -0.002046 0.008089 0.000000 0.001348 0.000000
# 4 0.000000 0.000000 0.000000 0.506223 0.000000 -0.068386
# 5 0.000802 0.003058 0.001348 0.000000 0.029911 0.000000
# 6 0.000000 0.000000 0.000000 -0.068386 0.000000 0.091104
#
#
# Mechanical properties :
#
#
# Convention : Reuss Voigt Hill
#
# Bulk Modulus (GPa) = 18.58749 41.57501 30.08125
# Shear Modulus (GPa) = 6.83660 23.59471 15.21565
#
# Velocity S-wave (km/s) = 1.80615 3.35538 2.69451
# Velocity P-wave (km/s) = 3.63578 5.90336 4.90248
#
# Compressibility (1/GPa) = 0.05379961
#
# Stress axis : x y z
#
# Youngs Moduli (GPa) = 89.72731 19.70087 123.62761
#
# Poissons Ratio (x) = 0.06410 0.34582
# Poissons Ratio (y) = 0.29195 0.25290
# Poissons Ratio (z) = 0.25099 0.04030
#
# Static dielectric constant tensor:
#      x y z
#    x 3.976560 0.000000 0.076220 
#    y 0.000000 3.302010 0.000000 
#    z 0.076220 0.000000 4.013320 
# 
# 
# High freq. dielectric constant tensor:
#      x y z
#    x 1.824600 0.000000 0.003610 
#    y 0.000000 1.780230 0.000000 
#    z 0.003610 0.000000 1.836040 
# 
# From -- ./inp_files/83639.got.cif
#   From: 2010.06.25/outbox.cif.g09.slc.cpg/sg10_42_cif.got.tgz:83639.got - 2010.06.27 22:07:45.
