data_PCOD8062006
_publ_section_title
;
Structure prediction by ZEFSAII (Michael W. Deem and Ramdas Pophale) SiO2 
 PCOD8062006
Probable space group: P 2/M
;
_chemical_formula_sum "Si O2"
_cell_formula_units_Z 32
_cell_length_a 24.224366
_cell_length_b 9.137188
_cell_length_c 15.633723
_cell_angle_alpha 90.000000
_cell_angle_beta 151.936541
_cell_angle_gamma 90.000000
_cell_volume 1627.946495
_symmetry_space_group_name_H-M "P 2/M"
_symmetry_group_IT_number 10
_symmetry_cell_setting 'monoclinic'
loop_
_space_group_symop_operation_xyz
x,y,z
-x,y,-z
-x,-y,-z
x,-y,z
loop_
_atom_site_type_symbol
_atom_site_label
_atom_site_fract_x
_atom_site_fract_y
_atom_site_fract_z
Si Si1 0.366795 0.664004 0.293238
Si Si2 0.409513 0.673650 0.804967
Si Si3 0.142935 0.325873 0.450551
Si Si4 0.261770 0.167166 0.997360
Si Si5 0.026915 0.673808 0.632052
Si Si6 0.906029 0.673438 0.804496
Si Si7 0.670876 0.333681 0.571797
Si Si8 0.497453 0.167516 0.232326
O O1 0.500000 0.696709 0.500000
O O2 0.354803 0.500000 0.237339
O O3 0.291460 0.675473 0.277519
O O4 0.318626 0.785613 0.164230
O O5 0.409893 0.500000 0.799797
O O6 0.277289 0.731000 0.642843
O O7 0.456863 0.734212 0.781494
O O8 0.500000 0.731165 0.000000
O O9 0.143343 0.500000 0.451509
O O10 0.083042 0.270798 0.279222
O O11 0.068488 0.265975 0.429719
O O12 0.154165 0.271066 0.830725
O O13 0.219554 0.000000 0.947531
O O14 0.357641 0.183776 0.053041
O O15 0.028144 0.500000 0.635485
O O16 0.000000 0.732748 0.500000
O O17 0.919593 0.500000 0.825328
O O18 0.777964 0.721526 0.660492
O O19 0.000000 0.742806 0.000000
O O20 0.635667 0.500000 0.499903
O O21 0.559935 0.228762 0.403112
O O22 0.532827 0.000000 0.265289
#
# Coordination Sequence:
#
# PCOD8062006 Si02
#       8
#     4   4   4   4   4   4   4   4
#     4  10  20  34  57  88 116 149 197 249 294 346
#     4  10  21  37  63  91 115 146 187 243 302 356
#     4   9  18  35  57  87 120 147 187 240 299 354
#     4  11  25  41  58  83 121 167 205 241 295 361
#     4  10  23  41  64  90 117 153 202 259 301 345
#     4   9  17  29  52  83 114 147 181 228 289 350
#     4  10  19  34  57  84 115 151 193 242 297 348
#     4  11  23  38  57  84 120 158 196 240 293 353
#
# _framework density 19.656665
#
# number of rings (size 3 to 8) (size 9 to 14) (size 15 to 20)
#    0.000    2.000    2.500    0.750    3.500    2.750 
#    0.000    0.625    0.000    0.375    0.000    0.000 
#    0.000    0.000    0.000    0.000    0.000    0.000 
#
# Total GULP energy -396724.850926 kJ/mol
# GULP energy per Si atom -12397.651591 kJ/mol
# Density = 1.961193 g / cm^3
# Si number density = 19.656665 Si / 1000 Ang^3
#
#
#
# Elastic Constant Matrix: (Units=GPa)
#
#
# Indices 1 2 3 4 5 6 
#
# 1 134.6597 14.3335 51.6653 0.0000 -1.6344 0.0000
# 2 14.3335 10.1202 14.9643 0.0000 2.3139 0.0000
# 3 51.6653 14.9643 113.5706 0.0000 -5.0470 0.0000
# 4 0.0000 0.0000 0.0000 9.3442 0.0000 5.0202
# 5 -1.6344 2.3139 -5.0470 0.0000 25.9174 0.0000
# 6 0.0000 0.0000 0.0000 5.0202 0.0000 15.2158
#
#
#
# Elastic Compliance Matrix: (Units=1/GPa)
#
#
# Indices 1 2 3 4 5 6 
#
# 1 0.009613 -0.009177 -0.003128 0.000000 0.000816 0.000000
# 2 -0.009177 0.136915 -0.014560 0.000000 -0.015638 0.000000
# 3 -0.003128 -0.014560 0.012302 0.000000 0.003498 0.000000
# 4 0.000000 0.000000 0.000000 0.130074 0.000000 -0.042916
# 5 0.000816 -0.015638 0.003498 0.000000 0.040713 0.000000
# 6 0.000000 0.000000 0.000000 -0.042916 0.000000 0.079880
#
#
# Mechanical properties :
#
#
# Convention : Reuss Voigt Hill
#
# Bulk Modulus (GPa) = 9.51475 46.69742 28.10609
# Shear Modulus (GPa) = 10.03491 21.92132 15.97811
#
# Velocity S-wave (km/s) = 2.26190 3.34310 2.85416
# Velocity P-wave (km/s) = 3.41651 6.22172 5.01908
#
# Compressibility (1/GPa) = 0.10509998
#
# Stress axis : x y z
#
# Youngs Moduli (GPa) = 104.02770 7.30379 81.28842
#
# Poissons Ratio (x) = 0.06703 0.25424
# Poissons Ratio (y) = 0.95465 1.18360
# Poissons Ratio (z) = 0.32536 0.10635
#
# Static dielectric constant tensor:
#      x y z
#    x 3.940590 0.000000 -0.116030 
#    y 0.000000 3.189030 0.000000 
#    z -0.116030 0.000000 3.799120 
# 
# 
# High freq. dielectric constant tensor:
#      x y z
#    x 1.781030 0.000000 -0.000610 
#    y 0.000000 1.723650 0.000000 
#    z -0.000610 0.000000 1.766730 
# 
# From -- ./inp_files/71697.got.cif
#   From: 2010.06.25/outbox.cif.g09.slc.cpg/sg10_36_cif.got.tgz:71697.got - 2010.06.27 22:07:45.
