data_PCOD8062927
_publ_section_title
;
Structure prediction by ZEFSAII (Michael W. Deem and Ramdas Pophale) SiO2 
 PCOD8062927
Probable space group: P 2/M
;
_chemical_formula_sum "Si O2"
_cell_formula_units_Z 24
_cell_length_a 19.215513
_cell_length_b 9.266417
_cell_length_c 24.969709
_cell_angle_alpha 90.000000
_cell_angle_beta 161.965208
_cell_angle_gamma 90.000000
_cell_volume 1376.481802
_symmetry_space_group_name_H-M "P 2/M"
_symmetry_group_IT_number 10
_symmetry_cell_setting 'monoclinic'
loop_
_space_group_symop_operation_xyz
x,y,z
-x,y,-z
-x,-y,-z
x,-y,z
loop_
_atom_site_type_symbol
_atom_site_label
_atom_site_fract_x
_atom_site_fract_y
_atom_site_fract_z
Si Si1 0.442881 0.158807 0.020390
Si Si2 0.057119 0.841192 0.979610
Si Si3 0.140319 0.666631 0.655964
Si Si4 0.640319 0.333369 0.655964
Si Si5 0.018971 0.169976 0.357478
Si Si6 0.481030 0.169976 0.642523
O O1 0.181103 0.207463 0.831334
O O2 0.474932 0.000000 0.069973
O O3 0.500000 0.151147 0.000000
O O4 0.608896 0.270564 0.170933
O O5 0.891105 0.729435 0.829067
O O6 0.025069 0.000000 0.930029
O O7 0.318898 0.792536 0.168666
O O8 0.000000 0.848851 0.000000
O O9 0.164424 0.500000 0.689035
O O10 0.000000 0.690894 0.500000
O O11 0.011825 0.747138 0.609477
O O12 0.500000 0.309103 0.500000
O O13 0.664420 0.500000 0.689030
O O14 0.511828 0.252862 0.609479
O O15 0.250000 0.221972 0.499999
O O16 0.019093 0.000000 0.370567
O O17 0.480908 0.000000 0.629434
#
# Coordination Sequence:
#
# PCOD8062927 Si02
#       6
#     4   4   4   4   4   4
#     4   8  15  29  49  70  91 120 158 194 230 276
#     4   8  15  29  49  70  91 120 158 194 230 276
#     4  10  20  32  47  70  98 127 159 192 229 277
#     4  10  20  32  47  70  98 127 159 192 229 277
#     4   9  18  33  52  73  95 120 155 197 237 279
#     4   9  18  33  52  73  95 120 155 197 237 279
#
# _framework density 17.435756999999999
#
# number of rings (size 3 to 8) (size 9 to 14) (size 15 to 20)
#    0.000    3.000    0.000    3.000    0.000    9.333 
#    0.000    1.667    0.000   10.000    0.000    0.000 
#    0.000    0.000    0.000    0.000    0.000    0.000 
#
# Total GULP energy -297475.806834 kJ/mol
# GULP energy per Si atom -12394.825285 kJ/mol
# Density = 1.739607 g / cm^3
# Si number density = 17.435757 Si / 1000 Ang^3
#
#
#
# Elastic Constant Matrix: (Units=GPa)
#
#
# Indices 1 2 3 4 5 6 
#
# 1 52.9161 45.9219 54.2551 0.0000 8.1269 0.0000
# 2 45.9219 98.4385 70.7260 0.0000 -3.0293 0.0000
# 3 54.2551 70.7260 162.0347 0.0000 19.3358 0.0000
# 4 0.0000 0.0000 0.0000 25.1200 0.0000 -11.1454
# 5 8.1269 -3.0293 19.3358 0.0000 28.3882 0.0000
# 6 0.0000 0.0000 0.0000 -11.1454 0.0000 9.1094
#
#
#
# Elastic Compliance Matrix: (Units=1/GPa)
#
#
# Indices 1 2 3 4 5 6 
#
# 1 0.038156 -0.014016 -0.005634 0.000000 -0.008581 0.000000
# 2 -0.014016 0.021142 -0.005751 0.000000 0.010185 0.000000
# 3 -0.005634 -0.005751 0.011373 0.000000 -0.006747 0.000000
# 4 0.000000 0.000000 0.000000 0.087082 0.000000 0.106546
# 5 -0.008581 0.010185 -0.006747 0.000000 0.043365 0.000000
# 6 0.000000 0.000000 0.000000 0.106546 0.000000 0.240137
#
#
# Mechanical properties :
#
#
# Convention : Reuss Voigt Hill
#
# Bulk Modulus (GPa) = 50.32757 72.79947 61.56352
# Shear Modulus (GPa) = 10.02647 22.02259 16.02453
#
# Velocity S-wave (km/s) = 2.40063 3.55783 3.03489
# Velocity P-wave (km/s) = 6.05072 7.66297 6.90407
#
# Compressibility (1/GPa) = 0.01986983
#
# Stress axis : x y z
#
# Youngs Moduli (GPa) = 26.20838 47.29863 87.92468
#
# Poissons Ratio (x) = 0.66293 0.49539
# Poissons Ratio (y) = 0.36733 0.50563
# Poissons Ratio (z) = 0.14766 0.27200
#
# Static dielectric constant tensor:
#      x y z
#    x 2.833880 0.000000 0.286260 
#    y 0.000000 3.300350 0.000000 
#    z 0.286260 0.000000 4.043000 
# 
# 
# High freq. dielectric constant tensor:
#      x y z
#    x 1.626610 0.000000 0.006590 
#    y 0.000000 1.673390 0.000000 
#    z 0.006590 0.000000 1.694570 
# 
# From -- ./inp_files/29679.got.cif
#   From: 2010.06.25/outbox.cif.g09.slc.cpg/sg10_15_cif.got.tgz:29679.got - 2010.06.27 22:07:45.
