data_PCOD8062577
_publ_section_title
;
Structure prediction by ZEFSAII (Michael W. Deem and Ramdas Pophale) SiO2 
 PCOD8062577
Probable space group: P 2/M
;
_chemical_formula_sum "Si O2"
_cell_formula_units_Z 32
_cell_length_a 28.160551
_cell_length_b 9.019696
_cell_length_c 21.614335
_cell_angle_alpha 90.000000
_cell_angle_beta 18.529788
_cell_angle_gamma 90.000000
_cell_volume 1744.719449
_symmetry_space_group_name_H-M "P 2/M"
_symmetry_group_IT_number 10
_symmetry_cell_setting 'monoclinic'
loop_
_space_group_symop_operation_xyz
x,y,z
-x,y,-z
-x,-y,-z
x,-y,z
loop_
_atom_site_type_symbol
_atom_site_label
_atom_site_fract_x
_atom_site_fract_y
_atom_site_fract_z
Si Si1 0.669385 0.174214 0.278552
Si Si2 0.165795 0.325164 0.176510
Si Si3 0.936714 0.324729 0.012433
Si Si4 0.330899 0.825010 0.320811
Si Si5 0.111452 0.668194 0.676667
Si Si6 0.798279 0.668777 0.004966
Si Si7 0.831711 0.328500 0.590448
Si Si8 0.643078 0.328406 0.946086
O O1 0.500000 0.223519 0.500000
O O2 0.776949 0.250372 0.196221
O O3 0.708564 0.223207 0.160690
O O4 0.690940 0.000000 0.258019
O O5 0.154392 0.500000 0.198567
O O6 0.273903 0.262868 0.095986
O O7 0.998462 0.262111 0.390678
O O8 0.234786 0.282558 0.024520
O O9 0.910431 0.500000 0.043366
O O10 0.000000 0.270172 0.000000
O O11 0.055965 0.277501 0.812671
O O12 0.246461 0.770251 0.486999
O O13 0.255138 0.764157 0.353041
O O14 0.327131 0.000000 0.324263
O O15 0.499484 0.770617 0.113074
O O16 0.170126 0.500000 0.608012
O O17 0.975893 0.681448 0.795634
O O18 0.746746 0.500000 0.081699
O O19 0.832585 0.500000 0.567948
O O20 0.753573 0.309123 0.752508
O O21 0.595893 0.500000 0.012619
#
# Coordination Sequence:
#
# PCOD8062577 Si02
#       8
#     4   4   4   4   4   4   4   4
#     4  10  21  36  54  80 116 152 182 215 259 319
#     4   9  17  34  59  86 108 131 175 229 277 321
#     4   9  19  37  61  87 110 136 178 231 277 317
#     4  12  24  36  52  77 112 150 185 221 263 318
#     4   9  17  34  59  82 107 138 179 227 268 317
#     4   9  17  33  59  84 107 137 179 230 269 312
#     4  10  19  36  61  83 104 136 181 229 274 326
#     4  10  21  36  57  82 109 141 176 224 282 327
#
# _framework density 18.341058
#
# number of rings (size 3 to 8) (size 9 to 14) (size 15 to 20)
#    0.000    2.250    1.250    3.000    0.000    6.750 
#    2.250    1.250    0.000    1.500    0.000    0.000 
#    0.000    0.000    0.000    0.000    0.000    0.000 
#
# Total GULP energy -396841.951374 kJ/mol
# GULP energy per Si atom -12401.310980 kJ/mol
# Density = 1.829931 g / cm^3
# Si number density = 18.341058 Si / 1000 Ang^3
#
#
#
# Elastic Constant Matrix: (Units=GPa)
#
#
# Indices 1 2 3 4 5 6 
#
# 1 111.1878 31.7609 28.2213 0.0000 -2.2380 0.0000
# 2 31.7609 64.1151 30.9107 0.0000 -4.4963 0.0000
# 3 28.2213 30.9107 69.0467 0.0000 -6.6624 0.0000
# 4 0.0000 0.0000 0.0000 10.8447 0.0000 4.3316
# 5 -2.2380 -4.4963 -6.6624 0.0000 22.6979 0.0000
# 6 0.0000 0.0000 0.0000 4.3316 0.0000 -4.4898
#
#
#
# Elastic Compliance Matrix: (Units=1/GPa)
#
#
# Indices 1 2 3 4 5 6 
#
# 1 0.010831 -0.004136 -0.002626 0.000000 -0.000522 0.000000
# 2 -0.004136 0.021511 -0.007788 0.000000 0.001567 0.000000
# 3 -0.002626 -0.007788 0.019419 0.000000 0.003898 0.000000
# 4 0.000000 0.000000 0.000000 0.066561 0.000000 0.064216
# 5 -0.000522 0.001567 0.003898 0.000000 0.045460 0.000000
# 6 0.000000 0.000000 0.000000 0.064216 0.000000 -0.160775
#
#
# Mechanical properties :
#
#
# Convention : Reuss Voigt Hill
#
# Bulk Modulus (GPa) = 44.12917 47.34838 45.73878
# Shear Modulus (GPa) = 126.06969 16.04102 71.05535
#
# Velocity S-wave (km/s) = 8.29973 2.96057 6.23099
# Velocity P-wave (km/s) = 10.76847 6.12847 8.76122
#
# Compressibility (1/GPa) = 0.02266075
#
# Stress axis : x y z
#
# Youngs Moduli (GPa) = 92.32539 46.48888 51.49656
#
# Poissons Ratio (x) = 0.19229 0.13522
# Poissons Ratio (y) = 0.38188 0.40105
# Poissons Ratio (z) = 0.24242 0.36205
#
# Static dielectric constant tensor:
#      x y z
#    x 3.555170 0.000000 0.028750 
#    y 0.000000 3.139620 0.000000 
#    z 0.028750 0.000000 3.400660 
# 
# 
# High freq. dielectric constant tensor:
#      x y z
#    x 1.717320 0.000000 0.007800 
#    y 0.000000 1.686230 0.000000 
#    z 0.007800 0.000000 1.712220 
# 
# From -- ./inp_files/86746.got.cif
#   From: 2010.06.25/outbox.cif.g09.slc.cpg/sg10_44_cif.got.tgz:86746.got - 2010.06.27 22:07:45.
