data_PCOD8062505
_publ_section_title
;
Structure prediction by ZEFSAII (Michael W. Deem and Ramdas Pophale) SiO2 
 PCOD8062505
Probable space group: P 2/M
;
_chemical_formula_sum "Si O2"
_cell_formula_units_Z 28
_cell_length_a 11.657497
_cell_length_b 8.879361
_cell_length_c 15.291852
_cell_angle_alpha 90.000000
_cell_angle_beta 63.906031
_cell_angle_gamma 90.000000
_cell_volume 1421.540301
_symmetry_space_group_name_H-M "P 2/M"
_symmetry_group_IT_number 10
_symmetry_cell_setting 'monoclinic'
loop_
_space_group_symop_operation_xyz
x,y,z
-x,y,-z
-x,-y,-z
x,-y,z
loop_
_atom_site_type_symbol
_atom_site_label
_atom_site_fract_x
_atom_site_fract_y
_atom_site_fract_z
Si Si1 0.206276 0.673256 0.419351
Si Si2 0.387462 0.673052 0.100695
Si Si3 0.165843 0.327421 0.041695
Si Si4 0.933129 0.823534 0.200359
Si Si5 0.981027 0.673468 0.364383
Si Si6 0.707685 0.677939 0.180987
Si Si7 0.562929 0.823592 0.736437
O O1 0.246690 0.500000 0.394082
O O2 0.144527 0.699967 0.534848
O O3 0.331062 0.777092 0.370435
O O4 0.105684 0.717150 0.377837
O O5 0.413242 0.500000 0.119507
O O6 0.252508 0.691336 0.098349
O O7 0.384947 0.775443 0.186561
O O8 0.500000 0.729790 0.000000
O O9 0.123101 0.500000 0.043808
O O10 0.039308 0.228347 0.094716
O O11 0.243657 0.271315 0.931110
O O12 0.976467 0.780964 0.282887
O O13 0.800016 0.742431 0.224339
O O14 0.914030 0.000000 0.198798
O O15 0.988754 0.500000 0.330968
O O16 0.701464 0.500000 0.191367
O O17 0.568024 0.742668 0.243995
O O18 0.540113 0.000000 0.741506
#
# Coordination Sequence:
#
# PCOD8062505 Si02
#       7
#     4   4   4   4   4   4   4
#     4   9  19  38  65  91 115 148 194 239 280 335
#     4  10  19  36  58  82 112 151 198 238 274 327
#     4  10  21  38  61  84 109 151 203 244 280 332
#     4  12  25  38  56  86 121 152 186 237 298 349
#     4   9  19  39  65  90 114 148 195 241 279 331
#     4  11  23  42  62  79 108 156 207 244 277 332
#     4  12  24  36  55  88 125 155 185 232 300 354
#
# _framework density 19.696943000000001
#
# number of rings (size 3 to 8) (size 9 to 14) (size 15 to 20)
#    0.000    1.571    1.429    5.143    0.000    8.286 
#    0.000    2.143    0.000    4.286    0.000    0.000 
#    0.000    0.000    0.000    0.000    0.000    0.000 
#
# Total GULP energy -347364.045054 kJ/mol
# GULP energy per Si atom -12405.858752 kJ/mol
# Density = 1.965211 g / cm^3
# Si number density = 19.696943 Si / 1000 Ang^3
#
#
#
# Elastic Constant Matrix: (Units=GPa)
#
#
# Indices 1 2 3 4 5 6 
#
# 1 88.9303 40.9100 28.9368 0.0000 -18.7461 0.0000
# 2 40.9100 102.0216 36.8812 0.0000 -11.4393 0.0000
# 3 28.9368 36.8812 73.2678 0.0000 -20.9475 0.0000
# 4 0.0000 0.0000 0.0000 5.8427 0.0000 -1.1553
# 5 -18.7461 -11.4393 -20.9475 0.0000 30.4541 0.0000
# 6 0.0000 0.0000 0.0000 -1.1553 0.0000 17.4415
#
#
#
# Elastic Compliance Matrix: (Units=1/GPa)
#
#
# Indices 1 2 3 4 5 6 
#
# 1 0.015399 -0.004792 -0.001835 0.000000 0.006417 0.000000
# 2 -0.004792 0.013478 -0.005338 0.000000 -0.001558 0.000000
# 3 -0.001835 -0.005338 0.020121 0.000000 0.010705 0.000000
# 4 0.000000 0.000000 0.000000 0.173426 0.000000 0.011488
# 5 0.006417 -0.001558 0.010705 0.000000 0.043564 0.000000
# 6 0.000000 0.000000 0.000000 0.011488 0.000000 0.058095
#
#
# Mechanical properties :
#
#
# Convention : Reuss Voigt Hill
#
# Bulk Modulus (GPa) = 39.89033 53.07507 46.48270
# Shear Modulus (GPa) = 14.03040 21.24711 17.63876
#
# Velocity S-wave (km/s) = 2.67182 3.28792 2.99575
# Velocity P-wave (km/s) = 5.46023 6.43570 5.96793
#
# Compressibility (1/GPa) = 0.02506873
#
# Stress axis : x y z
#
# Youngs Moduli (GPa) = 64.93981 74.19366 49.69983
#
# Poissons Ratio (x) = 0.35554 0.09120
# Poissons Ratio (y) = 0.31119 0.26528
# Poissons Ratio (z) = 0.11916 0.39601
#
# Static dielectric constant tensor:
#      x y z
#    x 3.595040 0.000000 -0.109130 
#    y 0.000000 3.424850 0.000000 
#    z -0.109130 0.000000 3.592690 
# 
# 
# High freq. dielectric constant tensor:
#      x y z
#    x 1.770470 0.000000 -0.010850 
#    y 0.000000 1.755140 0.000000 
#    z -0.010850 0.000000 1.767080 
# 
# From -- ./inp_files/49353.got.cif
#   From: 2010.06.25/outbox.cif.g09.slc.cpg/sg10_25_cif.got.tgz:49353.got - 2010.06.27 22:07:45.
