data_PCOD8062658
_publ_section_title
;
Structure prediction by ZEFSAII (Michael W. Deem and Ramdas Pophale) SiO2 
 PCOD8062658
Probable space group: P 2/M
;
_chemical_formula_sum "Si O2"
_cell_formula_units_Z 32
_cell_length_a 12.383233
_cell_length_b 8.965257
_cell_length_c 18.987635
_cell_angle_alpha 90.000000
_cell_angle_beta 52.020717
_cell_angle_gamma 90.000000
_cell_volume 1661.584561
_symmetry_space_group_name_H-M "P 2/M"
_symmetry_group_IT_number 10
_symmetry_cell_setting 'monoclinic'
loop_
_space_group_symop_operation_xyz
x,y,z
-x,y,-z
-x,-y,-z
x,-y,z
loop_
_atom_site_type_symbol
_atom_site_label
_atom_site_fract_x
_atom_site_fract_y
_atom_site_fract_z
Si Si1 0.311815 0.324346 0.664020
Si Si2 0.424985 0.824812 0.386659
Si Si3 0.816291 0.323411 0.006831
Si Si4 0.054743 0.176401 0.400910
Si Si5 0.808269 0.324389 0.438358
Si Si6 0.879474 0.676708 0.136467
Si Si7 0.362540 0.175100 0.257840
Si Si8 0.450261 0.177079 0.943160
O O1 0.332804 0.500000 0.664176
O O2 0.458368 0.248053 0.612709
O O3 0.250823 0.281218 0.613691
O O4 0.210010 0.258013 0.763937
O O5 0.279478 0.757599 0.466807
O O6 0.446591 0.786930 0.295382
O O7 0.421540 0.000000 0.401636
O O8 0.796040 0.500000 0.007980
O O9 0.811788 0.271069 0.090195
O O10 0.700097 0.241846 0.009105
O O11 0.963541 0.270244 0.917620
O O12 0.208288 0.238303 0.326261
O O13 0.000000 0.220520 0.500000
O O14 0.962088 0.261719 0.380839
O O15 0.044898 0.000000 0.392975
O O16 0.805661 0.500000 0.452463
O O17 0.880623 0.500000 0.137302
O O18 0.444338 0.242023 0.158028
O O19 0.350001 0.000000 0.253157
O O20 0.441283 0.000000 0.941896
O O21 0.500000 0.229703 0.000000
#
# Coordination Sequence:
#
# PCOD8062658 Si02
#       8
#     4   4   4   4   4   4   4   4
#     4  10  21  36  52  76 112 145 172 213 272 322
#     4  11  21  36  57  78 103 139 184 224 260 311
#     4   9  17  33  58  81 102 136 181 220 256 308
#     4  10  19  37  60  77 100 139 183 223 264 310
#     4  11  23  36  52  78 111 142 173 218 272 321
#     4   8  16  33  56  79 105 139 175 215 265 315
#     4   9  19  36  57  79 104 138 178 219 266 315
#     4  10  21  36  53  77 111 144 171 211 269 321
#
# _framework density 19.258724999999998
#
# number of rings (size 3 to 8) (size 9 to 14) (size 15 to 20)
#    0.000    2.250    1.250    2.625    0.000    4.000 
#    0.000    3.125    0.000    0.000    0.000    0.000 
#    0.000    0.000    0.000    0.000    0.000    0.000 
#
# Total GULP energy -396800.835246 kJ/mol
# GULP energy per Si atom -12400.026101 kJ/mol
# Density = 1.921489 g / cm^3
# Si number density = 19.258725 Si / 1000 Ang^3
#
#
#
# Elastic Constant Matrix: (Units=GPa)
#
#
# Indices 1 2 3 4 5 6 
#
# 1 145.9984 38.8589 32.4585 0.0000 -7.4411 0.0000
# 2 38.8589 31.5839 15.6066 0.0000 3.6993 0.0000
# 3 32.4585 15.6066 66.2257 0.0000 0.6678 0.0000
# 4 0.0000 0.0000 0.0000 20.0115 0.0000 -5.1523
# 5 -7.4411 3.6993 0.6678 0.0000 29.3675 0.0000
# 6 0.0000 0.0000 0.0000 -5.1523 0.0000 27.9110
#
#
#
# Elastic Compliance Matrix: (Units=1/GPa)
#
#
# Indices 1 2 3 4 5 6 
#
# 1 0.011059 -0.012937 -0.002417 0.000000 0.004487 0.000000
# 2 -0.012937 0.051527 -0.005705 0.000000 -0.009639 0.000000
# 3 -0.002417 -0.005705 0.017632 0.000000 -0.000295 0.000000
# 4 0.000000 0.000000 0.000000 0.052465 0.000000 0.009685
# 5 0.004487 -0.009639 -0.000295 0.000000 0.036409 0.000000
# 6 0.000000 0.000000 0.000000 0.009685 0.000000 0.037616
#
#
# Mechanical properties :
#
#
# Convention : Reuss Voigt Hill
#
# Bulk Modulus (GPa) = 26.24667 46.40623 36.32645
# Shear Modulus (GPa) = 19.11868 25.91693 22.51780
#
# Velocity S-wave (km/s) = 3.15418 3.67239 3.42310
# Velocity P-wave (km/s) = 5.18875 6.49080 5.87595
#
# Compressibility (1/GPa) = 0.03810007
#
# Stress axis : x y z
#
# Youngs Moduli (GPa) = 90.42631 19.40733 56.71635
#
# Poissons Ratio (x) = 0.25108 0.13706
# Poissons Ratio (y) = 1.16988 0.32355
# Poissons Ratio (z) = 0.21852 0.11071
#
# Static dielectric constant tensor:
#      x y z
#    x 3.545550 0.000000 -0.022530 
#    y 0.000000 3.151050 0.000000 
#    z -0.022530 0.000000 3.932610 
# 
# 
# High freq. dielectric constant tensor:
#      x y z
#    x 1.759750 0.000000 -0.004990 
#    y 0.000000 1.718330 0.000000 
#    z -0.004990 0.000000 1.754510 
# 
# From -- ./inp_files/63816.got.cif
#   From: 2010.06.25/outbox.cif.g09.slc.cpg/sg10_32_cif.got.tgz:63816.got - 2010.06.27 22:07:45.
