data_PCOD8062882
_publ_section_title
;
Structure prediction by ZEFSAII (Michael W. Deem and Ramdas Pophale) SiO2 
 PCOD8062882
Probable space group: P 2/M
;
_chemical_formula_sum "Si O2"
_cell_formula_units_Z 32
_cell_length_a 18.576896
_cell_length_b 9.179937
_cell_length_c 27.059819
_cell_angle_alpha 90.000000
_cell_angle_beta 155.674880
_cell_angle_gamma 90.000000
_cell_volume 1900.833984
_symmetry_space_group_name_H-M "P 2/M"
_symmetry_group_IT_number 10
_symmetry_cell_setting 'monoclinic'
loop_
_space_group_symop_operation_xyz
x,y,z
-x,y,-z
-x,-y,-z
x,-y,z
loop_
_atom_site_type_symbol
_atom_site_label
_atom_site_fract_x
_atom_site_fract_y
_atom_site_fract_z
Si Si1 0.326576 0.670705 0.816951
Si Si2 0.208052 0.170082 0.489468
Si Si3 0.896110 0.342215 0.884866
Si Si4 0.225609 0.674500 0.040003
Si Si5 0.073365 0.670961 0.745922
Si Si6 0.296931 0.327506 0.975513
Si Si7 0.430262 0.325402 0.264308
Si Si8 0.054121 0.168370 0.587244
O O1 0.321325 0.500000 0.804932
O O2 0.235853 0.712435 0.811903
O O3 0.225199 0.743131 0.708418
O O4 0.525076 0.729591 0.938854
O O5 0.391360 0.249267 0.609537
O O6 0.099395 0.238626 0.375952
O O7 0.104361 0.199684 0.474891
O O8 0.236433 0.000000 0.496816
O O9 0.849668 0.500000 0.832839
O O10 0.712189 0.265809 0.784271
O O11 0.031070 0.260707 0.931899
O O12 0.000000 0.367308 0.000000
O O13 0.212870 0.500000 0.032068
O O14 0.276599 0.737666 0.018066
O O15 0.369362 0.722192 0.170872
O O16 0.029784 0.500000 0.714638
O O17 0.133157 0.717008 0.838478
O O18 0.305726 0.500000 0.984636
O O19 0.449075 0.500000 0.278943
O O20 0.000000 0.226040 0.500000
O O21 0.105548 0.000000 0.618586
#
# Coordination Sequence:
#
# PCOD8062882 Si02
#       8
#     4   4   4   4   4   4   4   4
#     4   9  17  28  44  67  89 113 147 184 222 259
#     4  10  20  32  46  64  87 117 154 188 217 255
#     4   7  11  22  40  64  93 119 139 168 215 266
#     4   8  14  24  42  71  98 115 138 177 223 266
#     4   9  17  31  47  63  88 120 152 184 221 260
#     4   9  16  26  44  69  93 115 143 186 228 260
#     4   9  16  27  47  71  93 116 144 177 217 269
#     4   9  19  33  44  57  86 124 151 177 217 260
#
# _framework density 16.834714999999999
#
# number of rings (size 3 to 8) (size 9 to 14) (size 15 to 20)
#    0.000    3.250    0.000    2.250    1.750    2.250 
#    0.000    0.625    0.000    7.875    0.000    5.250 
#    0.000    0.000    0.000    0.000    0.000    0.000 
#
# Total GULP energy -396462.299892 kJ/mol
# GULP energy per Si atom -12389.446872 kJ/mol
# Density = 1.679640 g / cm^3
# Si number density = 16.834715 Si / 1000 Ang^3
#
#
#
# Elastic Constant Matrix: (Units=GPa)
#
#
# Indices 1 2 3 4 5 6 
#
# 1 76.4767 20.7429 66.2243 0.0000 0.7216 0.0000
# 2 20.7429 27.3149 36.3328 0.0000 2.7504 0.0000
# 3 66.2243 36.3328 139.9896 0.0000 3.0757 0.0000
# 4 0.0000 0.0000 0.0000 -1.7219 0.0000 -2.0491
# 5 0.7216 2.7504 3.0757 0.0000 20.0633 0.0000
# 6 0.0000 0.0000 0.0000 -2.0491 0.0000 10.2765
#
#
#
# Elastic Compliance Matrix: (Units=1/GPa)
#
#
# Indices 1 2 3 4 5 6 
#
# 1 0.022534 -0.004618 -0.009489 0.000000 0.001277 0.000000
# 2 -0.004618 0.057461 -0.012602 0.000000 -0.005779 0.000000
# 3 -0.009489 -0.012602 0.014908 0.000000 -0.000217 0.000000
# 4 0.000000 0.000000 0.000000 -0.469379 0.000000 -0.093591
# 5 0.001277 -0.005779 -0.000217 0.000000 0.050622 0.000000
# 6 0.000000 0.000000 0.000000 -0.093591 0.000000 0.078648
#
#
# Mechanical properties :
#
#
# Convention : Reuss Voigt Hill
#
# Bulk Modulus (GPa) = 24.10574 54.48682 39.29628
# Shear Modulus (GPa) = -28.09629 13.75565 -7.17032
#
# Velocity S-wave (km/s) = -4.08971 2.86160 -2.06603
# Velocity P-wave (km/s) = 2.81972 6.58440 4.20735
#
# Compressibility (1/GPa) = 0.04148389
#
# Stress axis : x y z
#
# Youngs Moduli (GPa) = 44.37806 17.40304 67.07883
#
# Poissons Ratio (x) = 0.08038 0.63653
# Poissons Ratio (y) = 0.20496 0.84530
# Poissons Ratio (z) = 0.42112 0.21931
#
# Static dielectric constant tensor:
#      x y z
#    x 3.445680 0.000000 0.109740 
#    y 0.000000 2.760710 0.000000 
#    z 0.109740 0.000000 3.232520 
# 
# 
# High freq. dielectric constant tensor:
#      x y z
#    x 1.640490 0.000000 0.006650 
#    y 0.000000 1.604190 0.000000 
#    z 0.006650 0.000000 1.647470 
# 
# From -- ./inp_files/54818.got.cif
#   From: 2010.06.25/outbox.cif.g09.slc.cpg/sg10_28_cif.got.tgz:54818.got - 2010.06.27 22:07:45.
