data_PCOD8062481
_publ_section_title
;
Structure prediction by ZEFSAII (Michael W. Deem and Ramdas Pophale) SiO2 
 PCOD8062481
Probable space group: P 2/M
;
_chemical_formula_sum "Si O2"
_cell_formula_units_Z 28
_cell_length_a 9.426358
_cell_length_b 8.922647
_cell_length_c 27.234425
_cell_angle_alpha 90.000000
_cell_angle_beta 40.673059
_cell_angle_gamma 90.000000
_cell_volume 1492.902553
_symmetry_space_group_name_H-M "P 2/M"
_symmetry_group_IT_number 10
_symmetry_cell_setting 'monoclinic'
loop_
_space_group_symop_operation_xyz
x,y,z
-x,y,-z
-x,-y,-z
x,-y,z
loop_
_atom_site_type_symbol
_atom_site_label
_atom_site_fract_x
_atom_site_fract_y
_atom_site_fract_z
Si Si1 0.534255 0.674983 0.433961
Si Si2 0.967603 0.321161 0.262231
Si Si3 0.834695 0.320565 0.085463
Si Si4 0.638165 0.336356 0.693147
Si Si5 0.870839 0.662862 0.180752
Si Si6 0.253645 0.835744 0.430678
Si Si7 0.631806 0.177248 0.791614
O O1 0.500000 0.713463 0.500000
O O2 0.498106 0.500000 0.433136
O O3 0.771585 0.724280 0.350730
O O4 0.347472 0.767783 0.456006
O O5 0.993214 0.500000 0.255293
O O6 0.920521 0.254991 0.219359
O O7 0.191838 0.243233 0.217503
O O8 0.803939 0.500000 0.095474
O O9 0.938411 0.261076 0.110680
O O10 0.602756 0.246563 0.134360
O O11 0.000000 0.269807 0.000000
O O12 0.747163 0.500000 0.673957
O O13 0.383398 0.356510 0.759640
O O14 0.703971 0.278790 0.623416
O O15 0.711719 0.221915 0.716116
O O16 0.983885 0.500000 0.154540
O O17 0.000000 0.856433 0.500000
O O18 0.359972 0.000000 0.393331
O O19 0.620626 0.000000 0.799535
#
# Coordination Sequence:
#
# PCOD8062481 Si02
#       7
#     4   4   4   4   4   4   4
#     4  10  22  39  58  82 108 147 200 245 287 333
#     4  10  19  36  57  80 111 148 192 239 280 333
#     4   9  18  36  62  89 114 145 188 235 280 332
#     4  10  19  37  60  80 103 142 193 239 278 327
#     4   8  15  31  57  83 105 134 180 231 277 323
#     4  11  24  38  53  80 115 147 184 233 294 351
#     4  11  23  36  54  85 119 150 185 226 285 345
#
# _framework density 18.755409
#
# number of rings (size 3 to 8) (size 9 to 14) (size 15 to 20)
#    0.000    2.143    1.429    3.000    2.000    2.286 
#    0.000    1.429    0.000    4.286    0.000    0.000 
#    0.000    0.000    0.000    0.000    0.000    0.000 
#
# Total GULP energy -346948.683138 kJ/mol
# GULP energy per Si atom -12391.024398 kJ/mol
# Density = 1.871272 g / cm^3
# Si number density = 18.755409 Si / 1000 Ang^3
#
#
#
# Elastic Constant Matrix: (Units=GPa)
#
#
# Indices 1 2 3 4 5 6 
#
# 1 135.4750 43.5060 62.2611 0.0000 13.2394 0.0000
# 2 43.5060 74.2654 38.8730 0.0000 -0.6153 0.0000
# 3 62.2611 38.8730 109.9688 0.0000 29.4436 0.0000
# 4 0.0000 0.0000 0.0000 18.5215 0.0000 -3.5610
# 5 13.2394 -0.6153 29.4436 0.0000 27.2475 0.0000
# 6 0.0000 0.0000 0.0000 -3.5610 0.0000 12.2328
#
#
#
# Elastic Compliance Matrix: (Units=1/GPa)
#
#
# Indices 1 2 3 4 5 6 
#
# 1 0.010802 -0.003892 -0.004659 0.000000 -0.000302 0.000000
# 2 -0.003892 0.019836 -0.007647 0.000000 0.010602 0.000000
# 3 -0.004659 -0.007647 0.019523 0.000000 -0.019006 0.000000
# 4 0.000000 0.000000 0.000000 0.057192 0.000000 0.016649
# 5 -0.000302 0.010602 -0.019006 0.000000 0.057624 0.000000
# 6 0.000000 0.000000 0.000000 0.016649 0.000000 0.086594
#
#
# Mechanical properties :
#
#
# Convention : Reuss Voigt Hill
#
# Bulk Modulus (GPa) = 56.29131 67.66550 61.97841
# Shear Modulus (GPa) = 17.24798 23.27162 20.25980
#
# Velocity S-wave (km/s) = 3.03583 3.52631 3.29022
# Velocity P-wave (km/s) = 6.50898 7.26196 6.89576
#
# Compressibility (1/GPa) = 0.01776473
#
# Stress axis : x y z
#
# Youngs Moduli (GPa) = 92.57551 50.41431 51.22077
#
# Poissons Ratio (x) = 0.19619 0.23866
# Poissons Ratio (y) = 0.36027 0.39169
# Poissons Ratio (z) = 0.43134 0.38552
#
# Static dielectric constant tensor:
#      x y z
#    x 3.623710 0.000000 0.247790 
#    y 0.000000 4.446800 0.000000 
#    z 0.247790 0.000000 3.256440 
# 
# 
# High freq. dielectric constant tensor:
#      x y z
#    x 1.734320 0.000000 0.016250 
#    y 0.000000 1.711700 0.000000 
#    z 0.016250 0.000000 1.718410 
# 
# From -- ./inp_files/37943.got.cif
#   From: 2010.06.25/outbox.cif.g09.slc.cpg/sg10_19_cif.got.tgz:37943.got - 2010.06.27 22:07:45.
