data_PCOD8062438
_publ_section_title
;
Structure prediction by ZEFSAII (Michael W. Deem and Ramdas Pophale) SiO2 
 PCOD8062438
Probable space group: P 2/M
;
_chemical_formula_sum "Si O2"
_cell_formula_units_Z 32
_cell_length_a 8.694239
_cell_length_b 14.286251
_cell_length_c 24.821446
_cell_angle_alpha 90.000000
_cell_angle_beta 150.382791
_cell_angle_gamma 90.000000
_cell_volume 1523.639793
_symmetry_space_group_name_H-M "P 2/M"
_symmetry_group_IT_number 10
_symmetry_cell_setting 'monoclinic'
loop_
_space_group_symop_operation_xyz
x,y,z
-x,y,-z
-x,-y,-z
x,-y,z
loop_
_atom_site_type_symbol
_atom_site_label
_atom_site_fract_x
_atom_site_fract_y
_atom_site_fract_z
Si Si1 0.459945 0.108576 0.924645
Si Si2 0.299110 0.100882 0.621042
Si Si3 0.685859 0.390187 0.107693
Si Si4 0.396852 0.388943 0.309458
Si Si5 0.599372 0.720252 0.474775
Si Si6 0.223441 0.102593 0.325737
Si Si7 0.344678 0.268693 0.088387
Si Si8 0.327928 0.734512 0.699204
O O1 0.681539 0.173005 0.954664
O O2 0.116598 0.133103 0.798296
O O3 0.547471 0.000000 0.942425
O O4 0.500000 0.134888 0.000000
O O5 0.580417 0.085889 0.667289
O O6 0.437788 0.167106 0.708570
O O7 0.000000 0.147395 0.500000
O O8 0.196415 0.000000 0.614165
O O9 0.662557 0.500000 0.107396
O O10 0.524771 0.348028 0.110659
O O11 0.039578 0.358435 0.206425
O O12 0.500000 0.352512 0.000000
O O13 0.444805 0.500000 0.323923
O O14 0.563584 0.345019 0.411943
O O15 0.541271 0.350250 0.297697
O O16 0.500000 0.667422 0.500000
O O17 0.388031 0.815147 0.409946
O O18 0.959576 0.741072 0.588582
O O19 0.208789 0.000000 0.351623
O O20 0.546934 0.263573 0.203185
O O21 0.000000 0.301299 0.000000
#
# Coordination Sequence:
#
# PCOD8062438 Si02
#       8
#     4   4   4   4   4   4   4   4
#     4  10  23  43  65  89 124 172 218 257 303 366
#     4  10  19  35  61  91 120 158 207 253 302 359
#     4  10  22  44  71  94 120 158 207 263 316 369
#     4  11  24  43  67  92 123 165 210 256 311 379
#     4  12  24  40  62  91 130 166 206 259 311 371
#     4  10  20  37  63  91 120 160 209 258 306 359
#     4  12  27  41  64  96 129 164 203 257 317 378
#     4  12  24  40  62  93 126 167 204 256 316 368
#
# _framework density 21.00234
#
# number of rings (size 3 to 8) (size 9 to 14) (size 15 to 20)
#    0.000    1.125    2.500    3.750    1.750    3.000 
#    0.000    0.000    0.000    0.000    0.000    0.000 
#    0.000    0.000    0.000    0.000    0.000    0.000 
#
# Total GULP energy -396629.129889 kJ/mol
# GULP energy per Si atom -12394.660309 kJ/mol
# Density = 2.095454 g / cm^3
# Si number density = 21.002340 Si / 1000 Ang^3
#
#
#
# Elastic Constant Matrix: (Units=GPa)
#
#
# Indices 1 2 3 4 5 6 
#
# 1 95.7994 32.8342 28.9446 0.0000 -16.1182 0.0000
# 2 32.8342 80.0544 26.2904 0.0000 -10.5121 0.0000
# 3 28.9446 26.2904 111.3990 0.0000 -10.2186 0.0000
# 4 0.0000 0.0000 0.0000 17.7598 0.0000 10.4558
# 5 -16.1182 -10.5121 -10.2186 0.0000 45.2226 0.0000
# 6 0.0000 0.0000 0.0000 10.4558 0.0000 46.4796
#
#
#
# Elastic Compliance Matrix: (Units=1/GPa)
#
#
# Indices 1 2 3 4 5 6 
#
# 1 0.013067 -0.004251 -0.002099 0.000000 0.003195 0.000000
# 2 -0.004251 0.015201 -0.002347 0.000000 0.001488 0.000000
# 3 -0.002099 -0.002347 0.010168 0.000000 0.001004 0.000000
# 4 0.000000 0.000000 0.000000 0.064903 0.000000 -0.014600
# 5 0.003195 0.001488 0.001004 0.000000 0.023824 0.000000
# 6 0.000000 0.000000 0.000000 -0.014600 0.000000 0.024799
#
#
# Mechanical properties :
#
#
# Convention : Reuss Voigt Hill
#
# Bulk Modulus (GPa) = 47.51983 51.48792 49.50387
# Shear Modulus (GPa) = 28.34965 35.17130 31.76047
#
# Velocity S-wave (km/s) = 3.67799 4.09667 3.89297
# Velocity P-wave (km/s) = 6.38059 6.85168 6.62033
#
# Compressibility (1/GPa) = 0.02104384
#
# Stress axis : x y z
#
# Youngs Moduli (GPa) = 76.52842 65.78555 98.34789
#
# Poissons Ratio (x) = 0.27963 0.20643
# Poissons Ratio (y) = 0.32529 0.23077
# Poissons Ratio (z) = 0.16063 0.15437
#
# Static dielectric constant tensor:
#      x y z
#    x 4.064070 0.000000 -0.000950 
#    y 0.000000 4.036620 0.000000 
#    z -0.000950 0.000000 4.036060 
# 
# 
# High freq. dielectric constant tensor:
#      x y z
#    x 1.826130 0.000000 0.005550 
#    y 0.000000 1.826230 0.000000 
#    z 0.005550 0.000000 1.831940 
# 
# From -- ./inp_files/88270.got.cif
#   From: 2010.06.25/outbox.cif.g09.slc.cpg/sg10_45_cif.got.tgz:88270.got - 2010.06.27 22:07:45.
