data_PCOD8062184
_publ_section_title
;
Structure prediction by ZEFSAII (Michael W. Deem and Ramdas Pophale) SiO2 
 PCOD8062184
Probable space group: P 2/M
;
_chemical_formula_sum "Si O2"
_cell_formula_units_Z 28
_cell_length_a 16.199507
_cell_length_b 10.796100
_cell_length_c 9.752778
_cell_angle_alpha 90.000000
_cell_angle_beta 124.766383
_cell_angle_gamma 90.000000
_cell_volume 1401.187010
_symmetry_space_group_name_H-M "P 2/M"
_symmetry_group_IT_number 10
_symmetry_cell_setting 'monoclinic'
loop_
_space_group_symop_operation_xyz
x,y,z
-x,y,-z
-x,-y,-z
x,-y,z
loop_
_atom_site_type_symbol
_atom_site_label
_atom_site_fract_x
_atom_site_fract_y
_atom_site_fract_z
Si Si1 0.975344 0.289129 0.123881
Si Si2 0.606767 0.144702 0.906026
Si Si3 0.905284 0.364127 0.331750
Si Si4 0.832919 0.862083 0.632155
Si Si5 0.781162 0.141617 0.876883
Si Si6 0.539203 0.363230 0.188579
Si Si7 0.279839 0.773260 0.728961
O O1 0.930083 0.381700 0.193518
O O2 0.074767 0.232026 0.286312
O O3 0.892482 0.184803 0.020326
O O4 0.000000 0.354305 0.000000
O O5 0.690918 0.198291 0.881211
O O6 0.516921 0.244386 0.795818
O O7 0.573974 0.000000 0.846474
O O8 0.647009 0.149339 0.101123
O O9 0.885083 0.500000 0.374763
O O10 0.807099 0.282405 0.258183
O O11 0.000000 0.302409 0.500000
O O12 0.762374 0.831973 0.697443
O O13 0.767996 0.859306 0.432577
O O14 0.876915 0.000000 0.691220
O O15 0.779173 0.000000 0.915270
O O16 0.525155 0.500000 0.248853
O O17 0.657917 0.333035 0.291988
O O18 0.500000 0.379744 0.000000
#
# Coordination Sequence:
#
# PCOD8062184 Si02
#       7
#     4   4   4   4   4   4   4
#     4  10  19  35  55  78 109 146 186 224 269 329
#     4  10  20  35  59  86 112 140 184 239 285 330
#     4  11  22  36  53  77 110 146 186 231 278 328
#     4  10  20  33  53  81 115 149 181 221 277 337
#     4   9  18  34  54  80 113 148 181 222 276 333
#     4   9  20  37  58  81 109 146 187 228 281 342
#     4  11  20  35  56  82 111 144 185 228 282 328
#
# _framework density 19.983058
#
# number of rings (size 3 to 8) (size 9 to 14) (size 15 to 20)
#    0.000    2.000    2.857    1.286    0.000    5.714 
#    0.000    1.429    0.000    5.143    0.000    0.000 
#    0.000    0.000    0.000    0.000    0.000    0.000 
#
# Total GULP energy -346889.768307 kJ/mol
# GULP energy per Si atom -12388.920297 kJ/mol
# Density = 1.993758 g / cm^3
# Si number density = 19.983058 Si / 1000 Ang^3
#
#
#
# Elastic Constant Matrix: (Units=GPa)
#
#
# Indices 1 2 3 4 5 6 
#
# 1 108.2909 38.3952 29.9108 0.0000 -3.5568 0.0000
# 2 38.3952 86.1895 10.8675 0.0000 3.3069 0.0000
# 3 29.9108 10.8675 60.3715 0.0000 -12.1720 0.0000
# 4 0.0000 0.0000 0.0000 137.1868 0.0000 -52.1174
# 5 -3.5568 3.3069 -12.1720 0.0000 27.7414 0.0000
# 6 0.0000 0.0000 0.0000 -52.1174 0.0000 42.6730
#
#
#
# Elastic Compliance Matrix: (Units=1/GPa)
#
#
# Indices 1 2 3 4 5 6 
#
# 1 0.012418 -0.004856 -0.005310 0.000000 -0.000159 0.000000
# 2 -0.004856 0.013942 -0.000619 0.000000 -0.002556 0.000000
# 3 -0.005310 -0.000619 0.021046 0.000000 0.008627 0.000000
# 4 0.000000 0.000000 0.000000 0.013599 0.000000 0.016609
# 5 -0.000159 -0.002556 0.008627 0.000000 0.040117 0.000000
# 6 0.000000 0.000000 0.000000 0.016609 0.000000 0.043719
#
#
# Mechanical properties :
#
#
# Convention : Reuss Voigt Hill
#
# Bulk Modulus (GPa) = 38.70790 45.91100 42.30945
# Shear Modulus (GPa) = 28.56784 53.23213 40.89999
#
# Velocity S-wave (km/s) = 3.78511 5.16686 4.52899
# Velocity P-wave (km/s) = 6.20606 7.65638 6.96905
#
# Compressibility (1/GPa) = 0.02583452
#
# Stress axis : x y z
#
# Youngs Moduli (GPa) = 80.53068 71.72708 47.51525
#
# Poissons Ratio (x) = 0.34831 0.25231
# Poissons Ratio (y) = 0.39106 0.02942
# Poissons Ratio (z) = 0.42763 0.04441
#
# Static dielectric constant tensor:
#      x y z
#    x 3.857310 0.000000 -0.086180 
#    y 0.000000 3.504460 0.000000 
#    z -0.086180 0.000000 3.504200 
# 
# 
# High freq. dielectric constant tensor:
#      x y z
#    x 1.787460 0.000000 -0.003630 
#    y 0.000000 1.763070 0.000000 
#    z -0.003630 0.000000 1.759020 
# 
# From -- ./inp_files/28663.got.cif
#   From: 2010.06.25/outbox.cif.g09.slc.cpg/sg10_15_cif.got.tgz:28663.got - 2010.06.27 22:07:45.
