data_PCOD8062670
_publ_section_title
;
Structure prediction by ZEFSAII (Michael W. Deem and Ramdas Pophale) SiO2 
 PCOD8062670
Probable space group: P 2/M
;
_chemical_formula_sum "Si O2"
_cell_formula_units_Z 32
_cell_length_a 28.894464
_cell_length_b 9.168931
_cell_length_c 12.061112
_cell_angle_alpha 90.000000
_cell_angle_beta 148.046751
_cell_angle_gamma 90.000000
_cell_volume 1691.074673
_symmetry_space_group_name_H-M "P 2/M"
_symmetry_group_IT_number 10
_symmetry_cell_setting 'monoclinic'
loop_
_space_group_symop_operation_xyz
x,y,z
-x,y,-z
-x,-y,-z
x,-y,z
loop_
_atom_site_type_symbol
_atom_site_label
_atom_site_fract_x
_atom_site_fract_y
_atom_site_fract_z
Si Si1 0.841508 0.328131 0.916158
Si Si2 0.351104 0.326870 0.421014
Si Si3 0.992487 0.827526 0.356777
Si Si4 0.351105 0.169699 0.970092
Si Si5 0.488013 0.672623 0.103604
Si Si6 0.098198 0.329478 0.203481
Si Si7 0.399287 0.660021 0.280107
Si Si8 0.847951 0.169024 0.473274
O O1 0.851206 0.500000 0.957697
O O2 0.743486 0.269899 0.734394
O O3 0.859181 0.286827 0.825668
O O4 0.907610 0.247707 0.132522
O O5 0.355595 0.500000 0.434833
O O6 0.427986 0.266832 0.657373
O O7 0.361979 0.271614 0.317575
O O8 0.079596 0.775275 0.467925
O O9 0.000000 0.778268 0.500000
O O10 0.980076 0.000000 0.322785
O O11 0.248195 0.202414 0.767109
O O12 0.371183 0.000000 0.995830
O O13 0.399242 0.253984 0.968069
O O14 0.386684 0.223218 0.159221
O O15 0.477256 0.500000 0.096436
O O16 0.500000 0.715982 0.000000
O O17 0.102123 0.500000 0.236029
O O18 0.148279 0.250706 0.403061
O O19 0.000000 0.271197 0.000000
O O20 0.500000 0.631497 0.500000
O O21 0.356604 0.500000 0.166249
O O22 0.863126 0.000000 0.527404
#
# Coordination Sequence:
#
# PCOD8062670 Si02
#       8
#     4   4   4   4   4   4   4   4
#     4  10  21  37  58  86 116 143 181 236 290 334
#     4   9  19  36  57  85 115 144 183 234 284 334
#     4  10  22  40  59  79 111 154 194 231 276 338
#     4  11  24  39  57  85 120 152 190 240 288 335
#     4  10  21  39  63  86 113 154 196 232 280 343
#     4  10  20  36  59  86 113 142 185 240 285 330
#     4  10  19  37  62  83 110 147 192 238 282 341
#     4  10  23  40  57  81 115 155 193 231 280 341
#
# _framework density 18.922878000000001
#
# number of rings (size 3 to 8) (size 9 to 14) (size 15 to 20)
#    0.000    2.000    2.500    0.375    3.500    2.500 
#    0.000    0.625    0.000    0.000    0.000    0.000 
#    0.000    0.000    0.000    0.000    0.000    0.000 
#
# Total GULP energy -396795.253355 kJ/mol
# GULP energy per Si atom -12399.851667 kJ/mol
# Density = 1.887981 g / cm^3
# Si number density = 18.922878 Si / 1000 Ang^3
#
#
#
# Elastic Constant Matrix: (Units=GPa)
#
#
# Indices 1 2 3 4 5 6 
#
# 1 152.7326 33.3029 53.8438 0.0000 0.0134 0.0000
# 2 33.3029 35.3069 34.5235 0.0000 -5.5184 0.0000
# 3 53.8438 34.5235 89.2635 0.0000 -4.8432 0.0000
# 4 0.0000 0.0000 0.0000 134.6003 0.0000 74.5294
# 5 0.0134 -5.5184 -4.8432 0.0000 35.6960 0.0000
# 6 0.0000 0.0000 0.0000 74.5294 0.0000 64.2800
#
#
#
# Elastic Compliance Matrix: (Units=1/GPa)
#
#
# Indices 1 2 3 4 5 6 
#
# 1 0.008893 -0.005267 -0.003397 0.000000 -0.001278 0.000000
# 2 -0.005267 0.049459 -0.015652 0.000000 0.005524 0.000000
# 3 -0.003397 -0.015652 0.019316 0.000000 0.000202 0.000000
# 4 0.000000 0.000000 0.000000 0.020752 0.000000 -0.024061
# 5 -0.001278 0.005524 0.000202 0.000000 0.028896 0.000000
# 6 0.000000 0.000000 0.000000 -0.024061 0.000000 0.043455
#
#
# Mechanical properties :
#
#
# Convention : Reuss Voigt Hill
#
# Bulk Modulus (GPa) = 34.43848 57.84926 46.14387
# Shear Modulus (GPa) = 21.82609 57.29077 39.55843
#
# Velocity S-wave (km/s) = 3.39989 5.50833 4.57717
# Velocity P-wave (km/s) = 5.80097 8.43167 7.23686
#
# Compressibility (1/GPa) = 0.02903729
#
# Stress axis : x y z
#
# Youngs Moduli (GPa) = 112.44206 20.21862 51.76966
#
# Poissons Ratio (x) = 0.10649 0.17585
# Poissons Ratio (y) = 0.59224 0.81030
# Poissons Ratio (z) = 0.38195 0.31646
#
# Static dielectric constant tensor:
#      x y z
#    x 3.732160 0.000000 0.104230 
#    y 0.000000 3.256830 0.000000 
#    z 0.104230 0.000000 3.451590 
# 
# 
# High freq. dielectric constant tensor:
#      x y z
#    x 1.753600 0.000000 0.001570 
#    y 0.000000 1.712250 0.000000 
#    z 0.001570 0.000000 1.739330 
# 
# From -- ./inp_files/58379.got.cif
#   From: 2010.06.25/outbox.cif.g09.slc.cpg/sg10_30_cif.got.tgz:58379.got - 2010.06.27 22:07:45.
