data_PCOD8062367
_publ_section_title
;
Structure prediction by ZEFSAII (Michael W. Deem and Ramdas Pophale) SiO2 
 PCOD8062367
Probable space group: P 2/M
;
_chemical_formula_sum "Si O2"
_cell_formula_units_Z 24
_cell_length_a 12.430505
_cell_length_b 8.814078
_cell_length_c 23.879393
_cell_angle_alpha 90.000000
_cell_angle_beta 150.395605
_cell_angle_gamma 90.000000
_cell_volume 1292.478778
_symmetry_space_group_name_H-M "P 2/M"
_symmetry_group_IT_number 10
_symmetry_cell_setting 'monoclinic'
loop_
_space_group_symop_operation_xyz
x,y,z
-x,y,-z
-x,-y,-z
x,-y,z
loop_
_atom_site_type_symbol
_atom_site_label
_atom_site_fract_x
_atom_site_fract_y
_atom_site_fract_z
Si Si1 0.258221 0.177425 0.388204
Si Si2 0.133213 0.822962 0.005620
Si Si3 0.011204 0.180017 0.384300
Si Si4 0.581370 0.678343 0.229824
Si Si5 0.785646 0.824269 0.756407
Si Si6 0.629772 0.321586 0.379594
O O1 0.500000 0.250427 0.500000
O O2 0.108838 0.245144 0.370025
O O3 0.150644 0.210465 0.279081
O O4 0.280254 0.000000 0.409698
O O5 0.992332 0.781282 0.887401
O O6 0.192147 0.000000 0.035190
O O7 0.351756 0.726737 0.099881
O O8 0.000000 0.772186 0.000000
O O9 0.153977 0.240235 0.500512
O O10 0.767308 0.240651 0.278249
O O11 0.007990 0.000000 0.384541
O O12 0.610899 0.500000 0.237725
O O13 0.592426 0.731974 0.299158
O O14 0.578226 0.724560 0.678265
O O15 0.720080 0.000000 0.735124
O O16 0.666250 0.500000 0.400242
#
# Coordination Sequence:
#
# PCOD8062367 Si02
#       6
#     4   4   4   4   4   4
#     4   9  17  33  58  85 111 142 182 228 279 327
#     4  10  20  35  59  87 111 141 189 236 271 322
#     4  11  22  37  59  83 111 148 189 231 275 329
#     4  11  24  39  55  79 117 154 184 225 281 339
#     4  10  19  35  59  86 114 142 182 233 276 323
#     4  11  22  35  54  83 117 148 180 224 282 338
#
# _framework density 18.56897
#
# number of rings (size 3 to 8) (size 9 to 14) (size 15 to 20)
#    0.000    1.667    3.333    2.000    0.000    5.000 
#    0.000    3.333    0.000    5.000    0.000    0.000 
#    0.000    0.000    0.000    0.000    0.000    0.000 
#
# Total GULP energy -297691.261196 kJ/mol
# GULP energy per Si atom -12403.802550 kJ/mol
# Density = 1.852671 g / cm^3
# Si number density = 18.568970 Si / 1000 Ang^3
#
#
#
# Elastic Constant Matrix: (Units=GPa)
#
#
# Indices 1 2 3 4 5 6 
#
# 1 93.3318 26.6677 55.3689 0.0000 4.2308 0.0000
# 2 26.6677 50.6476 32.1850 0.0000 4.8291 0.0000
# 3 55.3689 32.1850 130.8550 0.0000 -0.0431 0.0000
# 4 0.0000 0.0000 0.0000 24.5143 0.0000 1.2513
# 5 4.2308 4.8291 -0.0431 0.0000 35.2390 0.0000
# 6 0.0000 0.0000 0.0000 1.2513 0.0000 12.3088
#
#
#
# Elastic Compliance Matrix: (Units=1/GPa)
#
#
# Indices 1 2 3 4 5 6 
#
# 1 0.015221 -0.004511 -0.005332 0.000000 -0.001216 0.000000
# 2 -0.004511 0.025108 -0.004268 0.000000 -0.002904 0.000000
# 3 -0.005332 -0.004268 0.010948 0.000000 0.001238 0.000000
# 4 0.000000 0.000000 0.000000 0.041005 0.000000 -0.004168
# 5 -0.001216 -0.002904 0.001238 0.000000 0.028923 0.000000
# 6 0.000000 0.000000 0.000000 -0.004168 0.000000 0.081666
#
#
# Mechanical properties :
#
#
# Convention : Reuss Voigt Hill
#
# Bulk Modulus (GPa) = 43.36983 55.91974 49.64479
# Shear Modulus (GPa) = 20.93987 25.11993 23.02990
#
# Velocity S-wave (km/s) = 3.36174 3.68202 3.52552
# Velocity P-wave (km/s) = 6.20283 6.94668 6.58527
#
# Compressibility (1/GPa) = 0.02305751
#
# Stress axis : x y z
#
# Youngs Moduli (GPa) = 65.69714 39.82734 91.33912
#
# Poissons Ratio (x) = 0.17964 0.48699
# Poissons Ratio (y) = 0.29633 0.38984
# Poissons Ratio (z) = 0.35027 0.16999
#
# Static dielectric constant tensor:
#      x y z
#    x 3.565640 0.000000 -0.078800 
#    y 0.000000 3.220980 0.000000 
#    z -0.078800 0.000000 3.430410 
# 
# 
# High freq. dielectric constant tensor:
#      x y z
#    x 1.722060 0.000000 -0.003200 
#    y 0.000000 1.705270 0.000000 
#    z -0.003200 0.000000 1.722430 
# 
# From -- ./inp_files/44987.got.cif
#   From: 2010.06.25/outbox.cif.g09.slc.cpg/sg10_23_cif.got.tgz:44987.got - 2010.06.27 22:07:45.
