data_PCOD8062607
_publ_section_title
;
Structure prediction by ZEFSAII (Michael W. Deem and Ramdas Pophale) SiO2 
 PCOD8062607
Probable space group: P 2/M
;
_chemical_formula_sum "Si O2"
_cell_formula_units_Z 32
_cell_length_a 21.178237
_cell_length_b 8.390328
_cell_length_c 12.891544
_cell_angle_alpha 90.000000
_cell_angle_beta 136.463661
_cell_angle_gamma 90.000000
_cell_volume 1577.887210
_symmetry_space_group_name_H-M "P 2/M"
_symmetry_group_IT_number 10
_symmetry_cell_setting 'monoclinic'
loop_
_space_group_symop_operation_xyz
x,y,z
-x,y,-z
-x,-y,-z
x,-y,z
loop_
_atom_site_type_symbol
_atom_site_label
_atom_site_fract_x
_atom_site_fract_y
_atom_site_fract_z
Si Si1 0.598047 0.683472 0.639977
Si Si2 0.829064 0.684047 0.191288
Si Si3 0.785259 0.312896 0.777941
Si Si4 0.135128 0.184954 0.335974
Si Si5 0.406117 0.312803 0.944110
Si Si6 0.213078 0.188527 0.648206
Si Si7 0.641860 0.181772 0.904131
Si Si8 0.062381 0.685646 0.879239
O O1 0.500000 0.768286 0.500000
O O2 0.590898 0.500000 0.598928
O O3 0.684123 0.761935 0.680228
O O4 0.616342 0.698437 0.782992
O O5 0.798218 0.500000 0.148193
O O6 0.849370 0.730471 0.335321
O O7 0.913337 0.714420 0.213299
O O8 0.747749 0.798275 0.058685
O O9 0.778934 0.500000 0.787852
O O10 0.813867 0.275923 0.695356
O O11 0.857860 0.247965 0.949647
O O12 0.173809 0.248880 0.491504
O O13 0.027206 0.214731 0.200516
O O14 0.155919 0.000000 0.346922
O O15 0.389489 0.500000 0.936060
O O16 0.319234 0.239710 0.780408
O O17 0.500000 0.270926 0.000000
O O18 0.419167 0.231103 0.070768
O O19 0.204240 0.000000 0.648633
O O20 0.622319 0.000000 0.848766
O O21 0.042984 0.500000 0.877974
#
# Coordination Sequence:
#
# PCOD8062607 Si02
#       8
#     4   4   4   4   4   4   4   4
#     4  10  21  39  62  87 116 152 195 244 293 342
#     4  10  19  36  62  87 113 147 195 243 284 343
#     4  10  21  40  62  85 116 153 197 246 292 344
#     4  11  25  40  56  84 122 159 195 241 293 355
#     4  10  21  37  60  86 111 147 198 244 285 344
#     4  10  22  39  56  82 121 157 191 237 297 350
#     4  11  21  34  56  84 117 152 185 233 293 349
#     4  10  21  38  62  88 114 150 197 247 295 346
#
# _framework density 20.280284999999999
#
# number of rings (size 3 to 8) (size 9 to 14) (size 15 to 20)
#    0.000    1.750    1.250    4.500    0.000    8.250 
#    0.000    6.250    0.000    0.000    0.000    0.000 
#    0.000    0.000    0.000    0.000    0.000    0.000 
#
# Total GULP energy -396772.578217 kJ/mol
# GULP energy per Si atom -12399.143069 kJ/mol
# Density = 2.023413 g / cm^3
# Si number density = 20.280285 Si / 1000 Ang^3
#
#
#
# Elastic Constant Matrix: (Units=GPa)
#
#
# Indices 1 2 3 4 5 6 
#
# 1 152.4225 20.5993 74.3748 0.0000 1.9023 0.0000
# 2 20.5993 36.8341 5.6546 0.0000 -3.5830 0.0000
# 3 74.3748 5.6546 114.6229 0.0000 -10.0337 0.0000
# 4 0.0000 0.0000 0.0000 26.9502 0.0000 -5.8441
# 5 1.9023 -3.5830 -10.0337 0.0000 29.5424 0.0000
# 6 0.0000 0.0000 0.0000 -5.8441 0.0000 5.0950
#
#
#
# Elastic Compliance Matrix: (Units=1/GPa)
#
#
# Indices 1 2 3 4 5 6 
#
# 1 0.010763 -0.005300 -0.007049 0.000000 -0.003730 0.000000
# 2 -0.005300 0.030217 0.002369 0.000000 0.004811 0.000000
# 3 -0.007049 0.002369 0.013652 0.000000 0.005378 0.000000
# 4 0.000000 0.000000 0.000000 0.049390 0.000000 0.056652
# 5 -0.003730 0.004811 0.005378 0.000000 0.036500 0.000000
# 6 0.000000 0.000000 0.000000 0.056652 0.000000 0.261250
#
#
# Mechanical properties :
#
#
# Convention : Reuss Voigt Hill
#
# Bulk Modulus (GPa) = 28.84078 56.12633 42.48355
# Shear Modulus (GPa) = 11.53967 25.86759 18.70363
#
# Velocity S-wave (km/s) = 2.38798 3.57530 3.04016
# Velocity P-wave (km/s) = 4.67496 6.69171 5.77210
#
# Compressibility (1/GPa) = 0.03467313
#
# Stress axis : x y z
#
# Youngs Moduli (GPa) = 92.91114 33.09410 73.25026
#
# Poissons Ratio (x) = 0.17539 0.51632
# Poissons Ratio (y) = 0.49242 -0.17356
# Poissons Ratio (z) = 0.65491 -0.07841
#
# Static dielectric constant tensor:
#      x y z
#    x 3.863820 0.000000 -0.100220 
#    y 0.000000 3.502000 0.000000 
#    z -0.100220 0.000000 3.819630 
# 
# 
# High freq. dielectric constant tensor:
#      x y z
#    x 1.803470 0.000000 -0.007740 
#    y 0.000000 1.782320 0.000000 
#    z -0.007740 0.000000 1.785720 
# 
# From -- ./inp_files/55315.got.cif
#   From: 2010.06.25/outbox.cif.g09.slc.cpg/sg10_28_cif.got.tgz:55315.got - 2010.06.27 22:07:45.
