data_PCOD8062936
_publ_section_title
;
Structure prediction by ZEFSAII (Michael W. Deem and Ramdas Pophale) SiO2 
 PCOD8062936
Probable space group: P 2/M
;
_chemical_formula_sum "Si O2"
_cell_formula_units_Z 28
_cell_length_a 8.931218
_cell_length_b 9.347927
_cell_length_c 28.864280
_cell_angle_alpha 90.000000
_cell_angle_beta 39.325965
_cell_angle_gamma 90.000000
_cell_volume 1527.186303
_symmetry_space_group_name_H-M "P 2/M"
_symmetry_group_IT_number 10
_symmetry_cell_setting 'monoclinic'
loop_
_space_group_symop_operation_xyz
x,y,z
-x,y,-z
-x,-y,-z
x,-y,z
loop_
_atom_site_type_symbol
_atom_site_label
_atom_site_fract_x
_atom_site_fract_y
_atom_site_fract_z
Si Si1 0.114566 0.336428 0.424549
Si Si2 0.929946 0.660433 0.156495
Si Si3 0.063966 0.833050 0.704481
Si Si4 0.237310 0.336428 0.575451
Si Si5 0.663944 0.669837 0.000000
Si Si6 0.712420 0.660433 0.843505
Si Si7 0.586370 0.833050 0.295519
O O1 0.204213 0.500000 0.406555
O O2 0.331224 0.234943 0.361356
O O3 0.000000 0.286221 0.500000
O O4 0.918616 0.317643 0.432554
O O5 0.827023 0.500000 0.175173
O O6 0.715534 0.766087 0.219724
O O7 0.123241 0.661543 0.150704
O O8 0.062548 0.712461 0.076936
O O9 0.138003 0.765057 0.638644
O O10 0.266249 0.799476 0.693500
O O11 0.814156 0.766087 0.780276
O O12 0.024406 0.000000 0.706837
O O13 0.500000 0.286222 0.500000
O O14 0.236989 0.500000 0.593445
O O15 0.646119 0.500000 0.000001
O O16 0.552772 0.712462 0.076936
O O17 0.500000 0.742217 0.000000
O O18 0.702885 0.500000 0.824828
O O19 0.558589 0.000000 0.293163
#
# Coordination Sequence:
#
# PCOD8062936 Si02
#       7
#     4   4   4   4   4   4   4
#     4  10  21  37  57  78  97 121 157 200 245 292
#     4   8  13  23  41  64  92 127 165 204 243 282
#     4  10  20  32  47  71 103 136 167 198 237 287
#     4  10  21  37  57  78  97 121 157 200 245 292
#     4   7  10  18  35  61  90 121 160 203 244 282
#     4   8  13  23  41  64  92 127 165 204 243 282
#     4  10  20  32  47  71 103 136 167 198 237 287
#
# _framework density 18.334371999999998
#
# number of rings (size 3 to 8) (size 9 to 14) (size 15 to 20)
#    0.000    3.000    0.000    3.429    0.000    4.000 
#    0.000    0.714    0.000    4.286    0.000    1.000 
#    0.000    8.000    0.000    0.000    0.000    0.000 
#
# Total GULP energy -346974.155865 kJ/mol
# GULP energy per Si atom -12391.934138 kJ/mol
# Density = 1.829264 g / cm^3
# Si number density = 18.334372 Si / 1000 Ang^3
#
#
#
# Elastic Constant Matrix: (Units=GPa)
#
#
# Indices 1 2 3 4 5 6 
#
# 1 36.8419 31.2656 43.5563 0.0000 0.5333 0.0000
# 2 31.2656 86.0028 80.6782 0.0000 0.6307 0.0000
# 3 43.5563 80.6782 195.2062 0.0000 1.4882 0.0000
# 4 0.0000 0.0000 0.0000 -0.7682 0.0000 -0.2510
# 5 0.5333 0.6307 1.4882 0.0000 17.5435 0.0000
# 6 0.0000 0.0000 0.0000 -0.2510 0.0000 18.9027
#
#
#
# Elastic Compliance Matrix: (Units=1/GPa)
#
#
# Indices 1 2 3 4 5 6 
#
# 1 0.042052 -0.010592 -0.005002 0.000000 -0.000473 0.000000
# 2 -0.010592 0.021658 -0.006589 0.000000 0.000102 0.000000
# 3 -0.005002 -0.006589 0.008965 0.000000 -0.000372 0.000000
# 4 0.000000 0.000000 0.000000 -1.296101 0.000000 -0.017212
# 5 -0.000473 0.000102 -0.000372 0.000000 0.057044 0.000000
# 6 0.000000 0.000000 0.000000 -0.017212 0.000000 0.052674
#
#
# Mechanical properties :
#
#
# Convention : Reuss Voigt Hill
#
# Bulk Modulus (GPa) = 35.32322 69.89457 52.60890
# Shear Modulus (GPa) = -4.71740 17.97230 6.62745
#
# Velocity S-wave (km/s) = -1.60579 3.13429 1.90332
# Velocity P-wave (km/s) = 3.98370 7.16263 5.79539
#
# Compressibility (1/GPa) = 0.02830999
#
# Stress axis : x y z
#
# Youngs Moduli (GPa) = 23.77999 46.17189 111.54818
#
# Poissons Ratio (x) = 0.48906 0.55794
# Poissons Ratio (y) = 0.25188 0.73495
# Poissons Ratio (z) = 0.11894 0.30421
#
# Static dielectric constant tensor:
#      x y z
#    x 2.910280 0.000000 0.013440 
#    y 0.000000 3.230300 0.000000 
#    z 0.013440 0.000000 3.962760 
# 
# 
# High freq. dielectric constant tensor:
#      x y z
#    x 1.657650 0.000000 0.001030 
#    y 0.000000 1.689660 0.000000 
#    z 0.001030 0.000000 1.738120 
# 
# From -- ./inp_files/37929.got.cif
#   From: 2010.06.25/outbox.cif.g09.slc.cpg/sg10_19_cif.got.tgz:37929.got - 2010.06.27 22:07:45.
