data_PCOD8062961
_publ_section_title
;
Structure prediction by ZEFSAII (Michael W. Deem and Ramdas Pophale) SiO2 
 PCOD8062961
Probable space group: P 2/M
;
_chemical_formula_sum "Si O2"
_cell_formula_units_Z 32
_cell_length_a 22.952271
_cell_length_b 9.107808
_cell_length_c 12.455054
_cell_angle_alpha 90.000000
_cell_angle_beta 134.378334
_cell_angle_gamma 90.000000
_cell_volume 1860.936405
_symmetry_space_group_name_H-M "P 2/M"
_symmetry_group_IT_number 10
_symmetry_cell_setting 'monoclinic'
loop_
_space_group_symop_operation_xyz
x,y,z
-x,y,-z
-x,-y,-z
x,-y,z
loop_
_atom_site_type_symbol
_atom_site_label
_atom_site_fract_x
_atom_site_fract_y
_atom_site_fract_z
Si Si1 0.340922 0.675283 0.951802
Si Si2 0.819568 0.671544 0.661889
Si Si3 0.220647 0.832733 0.949498
Si Si4 0.312904 0.675475 0.677231
Si Si5 0.484878 0.659524 0.855467
Si Si6 0.157987 0.173047 0.099707
Si Si7 0.960994 0.168487 0.337951
Si Si8 0.000568 0.328493 0.821349
O O1 0.342927 0.500000 0.956543
O O2 0.287809 0.730790 0.982216
O O3 0.304169 0.730243 0.789606
O O4 0.433879 0.738795 0.087221
O O5 0.804598 0.500000 0.662306
O O6 0.763883 0.729503 0.491657
O O7 0.794988 0.759207 0.737806
O O8 0.912901 0.706859 0.757031
O O9 0.135633 0.807710 0.778653
O O10 0.249723 0.000000 0.976426
O O11 0.210034 0.788602 0.060571
O O12 0.319224 0.500000 0.686044
O O13 0.396742 0.740495 0.730541
O O14 0.477997 0.500000 0.790601
O O15 0.500000 0.636792 0.000000
O O16 0.147241 0.000000 0.098707
O O17 0.068135 0.243053 0.976718
O O18 0.000000 0.213891 0.500000
O O19 0.000801 0.275548 0.302804
O O20 0.980269 0.000000 0.331060
O O21 0.021073 0.500000 0.852859
#
# Coordination Sequence:
#
# PCOD8062961 Si02
#       8
#     4   4   4   4   4   4   4   4
#     4   9  16  27  50  77  97 122 158 190 224 285
#     4  10  20  32  49  73  99 123 153 201 249 284
#     4   9  19  33  47  66  92 123 158 198 238 273
#     4   8  15  28  46  72 104 127 146 185 240 285
#     4   7  11  23  44  70  97 125 153 182 222 278
#     4  10  21  37  52  65  89 128 171 203 234 281
#     4   9  19  34  48  64  94 134 167 194 230 280
#     4  10  20  32  48  72  97 122 157 201 247 286
#
# _framework density 17.195644000000001
#
# number of rings (size 3 to 8) (size 9 to 14) (size 15 to 20)
#    0.000    3.000    0.000    3.375    1.750    5.250 
#    0.000    0.625    0.000    4.875    0.000    5.250 
#    0.000    0.000    0.000    0.000    0.000    0.000 
#
# Total GULP energy -396547.879903 kJ/mol
# GULP energy per Si atom -12392.121247 kJ/mol
# Density = 1.715651 g / cm^3
# Si number density = 17.195644 Si / 1000 Ang^3
#
#
#
# Elastic Constant Matrix: (Units=GPa)
#
#
# Indices 1 2 3 4 5 6 
#
# 1 111.1469 40.8255 48.1265 0.0000 0.2622 0.0000
# 2 40.8255 39.2845 29.7464 0.0000 2.7608 0.0000
# 3 48.1265 29.7464 71.3004 0.0000 -4.9198 0.0000
# 4 0.0000 0.0000 0.0000 18.5414 0.0000 -6.3658
# 5 0.2622 2.7608 -4.9198 0.0000 12.0698 0.0000
# 6 0.0000 0.0000 0.0000 -6.3658 0.0000 9.2429
#
#
#
# Elastic Compliance Matrix: (Units=1/GPa)
#
#
# Indices 1 2 3 4 5 6 
#
# 1 0.015963 -0.012359 -0.005605 0.000000 0.000195 0.000000
# 2 -0.012359 0.049730 -0.013553 0.000000 -0.016631 0.000000
# 3 -0.005605 -0.013553 0.024371 0.000000 0.013156 0.000000
# 4 0.000000 0.000000 0.000000 0.070636 0.000000 0.048649
# 5 0.000195 -0.016631 0.013156 0.000000 0.092014 0.000000
# 6 0.000000 0.000000 0.000000 0.048649 0.000000 0.141697
#
#
# Mechanical properties :
#
#
# Convention : Reuss Voigt Hill
#
# Bulk Modulus (GPa) = 36.99604 51.01428 44.00516
# Shear Modulus (GPa) = 10.71914 14.83970 12.77942
#
# Velocity S-wave (km/s) = 2.49943 2.94086 2.72909
# Velocity P-wave (km/s) = 5.46727 6.42362 5.96464
#
# Compressibility (1/GPa) = 0.02702992
#
# Stress axis : x y z
#
# Youngs Moduli (GPa) = 62.64371 20.10856 41.03295
#
# Poissons Ratio (x) = 0.24852 0.23001
# Poissons Ratio (y) = 0.77420 0.55611
# Poissons Ratio (z) = 0.35114 0.27253
#
# Static dielectric constant tensor:
#      x y z
#    x 3.287150 0.000000 0.125660 
#    y 0.000000 2.931570 0.000000 
#    z 0.125660 0.000000 3.335990 
# 
# 
# High freq. dielectric constant tensor:
#      x y z
#    x 1.661470 0.000000 0.003510 
#    y 0.000000 1.636040 0.000000 
#    z 0.003510 0.000000 1.652550 
# 
# From -- ./inp_files/56445.got.cif
#   From: 2010.06.25/outbox.cif.g09.slc.cpg/sg10_29_cif.got.tgz:56445.got - 2010.06.27 22:07:45.
