data_PCOD8063574
_publ_section_title
;
Structure prediction by ZEFSAII (Michael W. Deem and Ramdas Pophale) SiO2 
 PCOD8063574
Probable space group: P 2/M
;
_chemical_formula_sum "Si O2"
_cell_formula_units_Z 28
_cell_length_a 10.848536
_cell_length_b 11.245386
_cell_length_c 22.961982
_cell_angle_alpha 90.000000
_cell_angle_beta 31.653054
_cell_angle_gamma 90.000000
_cell_volume 1470.034324
_symmetry_space_group_name_H-M "P 2/M"
_symmetry_group_IT_number 10
_symmetry_cell_setting 'monoclinic'
loop_
_space_group_symop_operation_xyz
x,y,z
-x,y,-z
-x,-y,-z
x,-y,z
loop_
_atom_site_type_symbol
_atom_site_label
_atom_site_fract_x
_atom_site_fract_y
_atom_site_fract_z
Si Si1 0.765285 0.500000 0.056263
Si Si2 0.279923 0.752626 0.890317
Si Si3 0.923834 0.859401 0.444979
Si Si4 0.764451 0.140783 0.386105
Si Si5 0.439395 0.862429 0.941377
Si Si6 0.620084 0.140534 0.670935
Si Si7 0.142413 0.243601 0.157723
Si Si8 0.236498 0.500000 0.082448
O O1 0.630278 0.620348 0.128677
O O2 0.796008 0.500000 0.974214
O O3 0.000000 0.500000 0.000000
O O4 0.381260 0.843777 0.897270
O O5 0.385264 0.790231 0.785255
O O6 0.000000 0.760843 0.000000
O O7 0.901073 0.814189 0.388479
O O8 0.701860 0.816829 0.573765
O O9 0.173206 0.817029 0.368711
O O10 0.916090 0.000000 0.451329
O O11 0.500000 0.186252 0.500000
O O12 0.887686 0.198522 0.280597
O O13 0.773055 0.000000 0.375041
O O14 0.660845 0.783189 0.872332
O O15 0.502630 0.000000 0.926503
O O16 0.212387 0.824371 0.070282
O O17 0.572887 0.000000 0.692489
O O18 0.113272 0.383474 0.157947
O O19 0.500000 0.500000 0.000000
#
# Coordination Sequence:
#
# PCOD8063574 Si02
#       8
#     2   4   4   4   4   4   4   2
#     4  10  22  42  56  75 114 159 198 228 287 347
#     4  11  22  35  54  79 113 148 190 229 282 349
#     4   8  16  32  52  73 103 143 184 217 267 337
#     4  10  20  34  52  78 114 152 184 227 289 351
#     4  11  21  34  55  86 119 145 177 235 301 353
#     4   9  17  31  53  79 104 137 179 229 278 329
#     4  11  21  36  58  83 111 147 194 237 284 338
#     4  12  20  40  65  86 110 153 208 251 281 340
#
# _framework density 19.047173999999998
#
# number of rings (size 3 to 8) (size 9 to 14) (size 15 to 20)
#    0.000    1.857    2.857    3.857    0.000    3.429 
#    0.000    1.786    0.000    2.571    0.000    0.000 
#    0.000    0.000    0.000    0.000    0.000    0.000 
#
# Total GULP energy -347095.532293 kJ/mol
# GULP energy per Si atom -12396.269010 kJ/mol
# Density = 1.900382 g / cm^3
# Si number density = 19.047174 Si / 1000 Ang^3
#
#
#
# Elastic Constant Matrix: (Units=GPa)
#
#
# Indices 1 2 3 4 5 6 
#
# 1 43.7142 13.4367 3.8485 0.0000 5.0110 0.0000
# 2 13.4367 99.3729 37.8470 0.0000 3.5903 0.0000
# 3 3.8485 37.8470 132.8132 0.0000 2.2747 0.0000
# 4 0.0000 0.0000 0.0000 17.6222 0.0000 -0.2397
# 5 5.0110 3.5903 2.2747 0.0000 20.3380 0.0000
# 6 0.0000 0.0000 0.0000 -0.2397 0.0000 19.5593
#
#
#
# Elastic Compliance Matrix: (Units=1/GPa)
#
#
# Indices 1 2 3 4 5 6 
#
# 1 0.024470 -0.003226 0.000304 0.000000 -0.005494 0.000000
# 2 -0.003226 0.011768 -0.003244 0.000000 -0.000920 0.000000
# 3 0.000304 -0.003244 0.008453 0.000000 -0.000448 0.000000
# 4 0.000000 0.000000 0.000000 0.056756 0.000000 0.000696
# 5 -0.005494 -0.000920 -0.000448 0.000000 0.050735 0.000000
# 6 0.000000 0.000000 0.000000 0.000696 0.000000 0.051135
#
#
# Mechanical properties :
#
#
# Convention : Reuss Voigt Hill
#
# Bulk Modulus (GPa) = 30.90316 42.90719 36.90518
# Shear Modulus (GPa) = 22.08127 26.22177 24.15152
#
# Velocity S-wave (km/s) = 3.40853 3.71438 3.56474
# Velocity P-wave (km/s) = 5.63476 6.40088 6.03000
#
# Compressibility (1/GPa) = 0.03235915
#
# Stress axis : x y z
#
# Youngs Moduli (GPa) = 40.86553 84.97493 118.30508
#
# Poissons Ratio (x) = 0.27415 -0.03601
# Poissons Ratio (y) = 0.13184 0.38381
# Poissons Ratio (z) = -0.01244 0.27568
#
# Static dielectric constant tensor:
#      x y z
#    x 3.736080 0.000000 0.191420 
#    y 0.000000 3.523650 0.000000 
#    z 0.191420 0.000000 3.516150 
# 
# 
# High freq. dielectric constant tensor:
#      x y z
#    x 1.739430 0.000000 0.012970 
#    y 0.000000 1.712500 0.000000 
#    z 0.012970 0.000000 1.738620 
# 
# From -- ./inp_files/88848.got.cif
#   From: 2010.06.25/outbox.cif.g09.slc.cpg/sg10_45_cif.got.tgz:88848.got - 2010.06.27 22:07:45.
