data_PCOD8063325
_publ_section_title
;
Structure prediction by ZEFSAII (Michael W. Deem and Ramdas Pophale) SiO2 
 PCOD8063325
Probable space group: P 2/M
;
_chemical_formula_sum "Si O2"
_cell_formula_units_Z 24
_cell_length_a 17.505461
_cell_length_b 11.272161
_cell_length_c 9.241114
_cell_angle_alpha 90.000000
_cell_angle_beta 135.220882
_cell_angle_gamma 90.000000
_cell_volume 1284.426738
_symmetry_space_group_name_H-M "P 2/M"
_symmetry_group_IT_number 10
_symmetry_cell_setting 'monoclinic'
loop_
_space_group_symop_operation_xyz
x,y,z
-x,y,-z
-x,-y,-z
x,-y,z
loop_
_atom_site_type_symbol
_atom_site_label
_atom_site_fract_x
_atom_site_fract_y
_atom_site_fract_z
Si Si1 0.106316 0.359496 0.059296
Si Si2 0.469652 0.780906 0.114331
Si Si3 0.905378 0.361967 0.277253
Si Si4 0.333340 0.000000 0.406707
Si Si5 0.706048 0.756670 0.516439
Si Si6 0.285179 0.635634 0.766330
Si Si7 0.410332 0.000000 0.199997
O O1 0.102791 0.500000 0.052868
O O2 0.222354 0.325024 0.283019
O O3 0.100614 0.304847 0.890193
O O4 0.000000 0.309566 0.000000
O O5 0.574920 0.738569 0.348982
O O6 0.392080 0.877303 0.088652
O O7 0.500000 0.839616 0.000000
O O8 0.403169 0.661173 0.991701
O O9 0.932413 0.500000 0.294024
O O10 0.794163 0.339799 0.208876
O O11 0.000000 0.301640 0.500000
O O12 0.272973 0.109075 0.403624
O O13 0.326101 0.000000 0.221530
O O14 0.461475 0.000000 0.599921
O O15 0.743027 0.725746 0.402585
O O16 0.278726 0.500000 0.701469
#
# Coordination Sequence:
#
# PCOD8063325 Si02
#       7
#     4   4   4   2   4   4   2
#     4  10  20  34  56  83 107 140 183 222 271 331
#     4   9  19  32  53  81 109 145 182 221 269 323
#     4   9  18  33  52  75 105 137 177 221 261 314
#     4   9  20  34  53  78 103 143 189 227 275 310
#     4  10  20  35  54  77 110 143 183 224 268 318
#     4  10  20  33  52  81 113 146 178 219 273 327
#     4   9  17  34  54  74 107 140 187 237 261 313
#
# _framework density 18.685379000000001
#
# number of rings (size 3 to 8) (size 9 to 14) (size 15 to 20)
#    0.000    2.500    0.000    1.750    2.333    8.333 
#    0.000    0.417    0.000    3.000    0.000    2.917 
#    0.000    0.000    0.000    0.000    0.000    0.000 
#
# Total GULP energy -297332.280859 kJ/mol
# GULP energy per Si atom -12388.845036 kJ/mol
# Density = 1.864285 g / cm^3
# Si number density = 18.685379 Si / 1000 Ang^3
#
#
#
# Elastic Constant Matrix: (Units=GPa)
#
#
# Indices 1 2 3 4 5 6 
#
# 1 104.0102 58.2806 58.5602 0.0000 -25.9289 0.0000
# 2 58.2806 58.5850 25.3348 0.0000 -12.8414 0.0000
# 3 58.5602 25.3348 133.9520 0.0000 -8.2432 0.0000
# 4 0.0000 0.0000 0.0000 15.9654 0.0000 -14.5989
# 5 -25.9289 -12.8414 -8.2432 0.0000 30.0352 0.0000
# 6 0.0000 0.0000 0.0000 -14.5989 0.0000 10.8032
#
#
#
# Elastic Compliance Matrix: (Units=1/GPa)
#
#
# Indices 1 2 3 4 5 6 
#
# 1 0.031947 -0.024969 -0.008344 0.000000 0.014614 0.000000
# 2 -0.024969 0.039724 0.003175 0.000000 -0.003700 0.000000
# 3 -0.008344 0.003175 0.010328 0.000000 -0.003012 0.000000
# 4 0.000000 0.000000 0.000000 -0.265756 0.000000 -0.359129
# 5 0.014614 -0.003700 -0.003012 0.000000 0.043501 0.000000
# 6 0.000000 0.000000 0.000000 -0.359129 0.000000 -0.392743
#
#
# Mechanical properties :
#
#
# Convention : Reuss Voigt Hill
#
# Bulk Modulus (GPa) = 46.03734 64.54427 55.29080
# Shear Modulus (GPa) = -10.74157 21.65219 5.45531
#
# Velocity S-wave (km/s) = -2.40023 3.40777 1.71053
# Velocity P-wave (km/s) = 4.12434 7.07824 5.79274
#
# Compressibility (1/GPa) = 0.02172150
#
# Stress axis : x y z
#
# Youngs Moduli (GPa) = 31.30227 25.17345 96.82864
#
# Poissons Ratio (x) = 0.62855 0.80798
# Poissons Ratio (y) = 0.78158 -0.30741
# Poissons Ratio (z) = 0.26120 -0.07992
#
# Static dielectric constant tensor:
#      x y z
#    x 3.514660 0.000000 -0.229440 
#    y 0.000000 3.262550 0.000000 
#    z -0.229440 0.000000 3.625280 
# 
# 
# High freq. dielectric constant tensor:
#      x y z
#    x 1.720450 0.000000 -0.011660 
#    y 0.000000 1.691410 0.000000 
#    z -0.011660 0.000000 1.729530 
# 
# From -- ./inp_files/32263.got.cif
#   From: 2010.06.25/outbox.cif.g09.slc.cpg/sg10_17_cif.got.tgz:32263.got - 2010.06.27 22:07:45.
