data_PCOD8063949
_publ_section_title
;
Structure prediction by ZEFSAII (Michael W. Deem and Ramdas Pophale) SiO2 
 PCOD8063949
Probable space group: P 2/M
;
_chemical_formula_sum "Si O2"
_cell_formula_units_Z 28
_cell_length_a 9.716318
_cell_length_b 30.393734
_cell_length_c 5.013365
_cell_angle_alpha 90.000000
_cell_angle_beta 63.588912
_cell_angle_gamma 90.000000
_cell_volume 1325.994274
_symmetry_space_group_name_H-M "P 2/M"
_symmetry_group_IT_number 10
_symmetry_cell_setting 'monoclinic'
loop_
_space_group_symop_operation_xyz
x,y,z
-x,y,-z
-x,-y,-z
x,-y,z
loop_
_atom_site_type_symbol
_atom_site_label
_atom_site_fract_x
_atom_site_fract_y
_atom_site_fract_z
Si Si1 0.162461 0.550827 0.748722
Si Si2 0.675503 0.586856 0.903367
Si Si3 0.163915 0.723697 0.747153
Si Si4 0.317529 0.048915 0.138927
Si Si5 0.896013 0.176860 0.330955
Si Si6 0.681531 0.101281 0.366967
Si Si7 0.675554 0.312018 0.899235
O O1 0.148861 0.500000 0.678154
O O2 0.214896 0.577372 0.442764
O O3 0.283639 0.556747 0.880728
O O4 0.000000 0.569059 0.000000
O O5 0.693303 0.637565 0.973352
O O6 0.500000 0.574829 0.000000
O O7 0.158360 0.773009 0.642214
O O8 0.220451 0.694094 0.453160
O O9 0.277660 0.719911 0.899530
O O10 0.000000 0.707143 0.000000
O O11 0.261230 0.063944 0.477178
O O12 0.254567 0.000000 0.128531
O O13 0.500000 0.048147 0.000000
O O14 0.257131 0.084146 0.971759
O O15 0.745520 0.146952 0.430126
O O16 0.000000 0.169153 0.500000
O O17 0.000000 0.162152 0.000000
O O18 0.500000 0.107589 0.500000
O O19 0.500000 0.299543 0.000000
#
# Coordination Sequence:
#
# PCOD8063949 Si02
#       7
#     4   4   4   4   4   4   4
#     4  11  24  41  62  90 123 159 203 251 294 341
#     4  11  24  41  62  90 123 159 198 241 299 362
#     4  11  23  41  63  88 116 157 204 239 288 362
#     4   9  17  31  53  82 114 145 184 238 289 334
#     4  11  23  41  60  82 117 155 189 234 293 348
#     4  10  20  34  57  86 110 144 195 238 280 341
#     4  11  24  41  62  91 124 154 192 249 304 347
#
# _framework density 21.116230999999999
#
# number of rings (size 3 to 8) (size 9 to 14) (size 15 to 20)
#    0.000    1.429    0.000    6.000    0.000   11.429 
#    0.000    1.429    0.000    8.571    0.000    0.000 
#    0.000    0.000    0.000    0.000    0.000    0.000 
#
# Total GULP energy -347171.412521 kJ/mol
# GULP energy per Si atom -12398.979019 kJ/mol
# Density = 2.106817 g / cm^3
# Si number density = 21.116231 Si / 1000 Ang^3
#
#
#
# Elastic Constant Matrix: (Units=GPa)
#
#
# Indices 1 2 3 4 5 6 
#
# 1 104.9735 47.3090 24.2669 0.0000 22.5842 0.0000
# 2 47.3090 61.7976 19.7254 0.0000 -3.6179 0.0000
# 3 24.2669 19.7254 85.9452 0.0000 20.7231 0.0000
# 4 0.0000 0.0000 0.0000 28.6524 0.0000 5.9357
# 5 22.5842 -3.6179 20.7231 0.0000 37.7820 0.0000
# 6 0.0000 0.0000 0.0000 5.9357 0.0000 32.0395
#
#
#
# Elastic Compliance Matrix: (Units=1/GPa)
#
#
# Indices 1 2 3 4 5 6 
#
# 1 0.019540 -0.016308 0.001635 0.000000 -0.014138 0.000000
# 2 -0.016308 0.031749 -0.006644 0.000000 0.016433 0.000000
# 3 0.001635 -0.006644 0.015082 0.000000 -0.009886 0.000000
# 4 0.000000 0.000000 0.000000 0.036294 0.000000 -0.006724
# 5 -0.014138 0.016433 -0.009886 0.000000 0.041915 0.000000
# 6 0.000000 0.000000 0.000000 -0.006724 0.000000 0.032457
#
#
# Mechanical properties :
#
#
# Convention : Reuss Voigt Hill
#
# Bulk Modulus (GPa) = 42.13021 48.36877 45.24949
# Shear Modulus (GPa) = 21.96984 30.45578 26.21281
#
# Velocity S-wave (km/s) = 3.22906 3.80187 3.52711
# Velocity P-wave (km/s) = 5.82214 6.49831 6.16950
#
# Compressibility (1/GPa) = 0.02373593
#
# Stress axis : x y z
#
# Youngs Moduli (GPa) = 51.17810 31.49672 66.30229
#
# Poissons Ratio (x) = 0.51365 -0.10839
# Poissons Ratio (y) = 0.83461 0.44055
# Poissons Ratio (z) = -0.08367 0.20928
#
# Static dielectric constant tensor:
#      x y z
#    x 3.887180 0.000000 0.132130 
#    y 0.000000 3.736590 0.000000 
#    z 0.132130 0.000000 3.978040 
# 
# 
# High freq. dielectric constant tensor:
#      x y z
#    x 1.830280 0.000000 0.015550 
#    y 0.000000 1.826480 0.000000 
#    z 0.015550 0.000000 1.834260 
# 
# From -- ./inp_files/5489.got.cif
#   From: 2010.06.25/outbox.cif.g09.slc.cpg/sg10_3_cif.got.tgz:5489.got - 2010.06.27 22:07:45.
