data_PCOD8063198
_publ_section_title
;
Structure prediction by ZEFSAII (Michael W. Deem and Ramdas Pophale) SiO2 
 PCOD8063198
Probable space group: P 2/M
;
_chemical_formula_sum "Si O2"
_cell_formula_units_Z 32
_cell_length_a 15.431262
_cell_length_b 8.700101
_cell_length_c 25.821336
_cell_angle_alpha 90.000000
_cell_angle_beta 29.956689
_cell_angle_gamma 90.000000
_cell_volume 1731.032963
_symmetry_space_group_name_H-M "P 2/M"
_symmetry_group_IT_number 10
_symmetry_cell_setting 'monoclinic'
loop_
_space_group_symop_operation_xyz
x,y,z
-x,y,-z
-x,-y,-z
x,-y,z
loop_
_atom_site_type_symbol
_atom_site_label
_atom_site_fract_x
_atom_site_fract_y
_atom_site_fract_z
Si Si1 0.915247 0.821131 0.421753
Si Si2 0.950842 0.820149 0.950267
Si Si3 0.745581 0.680759 0.146987
Si Si4 0.794566 0.178972 0.921601
Si Si5 0.352259 0.679725 0.368005
Si Si6 0.435311 0.321450 0.129120
Si Si7 0.247859 0.178409 0.317049
Si Si8 0.104200 0.678670 0.232847
O O1 0.064832 0.781439 0.385636
O O2 0.949482 0.730562 0.350809
O O3 0.732529 0.767764 0.539723
O O4 0.911003 0.000000 0.410926
O O5 0.126666 0.729742 0.872882
O O6 0.901849 0.778231 0.917188
O O7 0.983360 0.000000 0.941216
O O8 0.795424 0.767305 0.068281
O O9 0.760407 0.500000 0.129307
O O10 0.552405 0.730206 0.262451
O O11 0.911522 0.226345 0.812135
O O12 0.747883 0.000000 0.944195
O O13 0.618309 0.276096 0.010110
O O14 0.330336 0.500000 0.388577
O O15 0.256599 0.724772 0.364708
O O16 0.432252 0.500000 0.145405
O O17 0.403688 0.225503 0.197939
O O18 0.288920 0.281563 0.162970
O O19 0.264756 0.000000 0.322289
O O20 0.084638 0.500000 0.230588
#
# Coordination Sequence:
#
# PCOD8063198 Si02
#       8
#     4   4   4   4   4   4   4   4
#     4  10  21  36  53  74 103 139 177 216 256 300
#     4  10  21  36  55  79 106 135 167 206 254 307
#     4  10  21  36  55  79 106 135 167 206 254 307
#     4  11  22  34  52  78 105 136 174 213 256 307
#     4  11  22  34  52  78 105 136 174 213 256 307
#     4  10  20  33  50  75 106 140 176 212 254 303
#     4  10  20  33  50  75 106 140 176 212 254 303
#     4  10  21  36  53  74 103 139 177 216 256 300
#
# _framework density 18.486070999999999
#
# number of rings (size 3 to 8) (size 9 to 14) (size 15 to 20)
#    0.000    1.750    0.000    5.250    0.000   12.000 
#    0.000    0.000    0.000    0.750    0.000    5.250 
#    0.000    0.000    0.000    0.000    0.000    0.000 
#
# Total GULP energy -396996.156593 kJ/mol
# GULP energy per Si atom -12406.129894 kJ/mol
# Density = 1.844400 g / cm^3
# Si number density = 18.486071 Si / 1000 Ang^3
#
#
#
# Elastic Constant Matrix: (Units=GPa)
#
#
# Indices 1 2 3 4 5 6 
#
# 1 84.7376 29.7374 48.2877 0.0000 15.8868 0.0000
# 2 29.7374 42.2919 19.0746 0.0000 -1.7276 0.0000
# 3 48.2877 19.0746 112.0759 0.0000 6.8277 0.0000
# 4 0.0000 0.0000 0.0000 33.6004 0.0000 7.4302
# 5 15.8868 -1.7276 6.8277 0.0000 22.8417 0.0000
# 6 0.0000 0.0000 0.0000 7.4302 0.0000 21.7090
#
#
#
# Elastic Compliance Matrix: (Units=1/GPa)
#
#
# Indices 1 2 3 4 5 6 
#
# 1 0.023497 -0.014088 -0.006789 0.000000 -0.015379 0.000000
# 2 -0.014088 0.034304 -0.000533 0.000000 0.012552 0.000000
# 3 -0.006789 -0.000533 0.011869 0.000000 0.001134 0.000000
# 4 0.000000 0.000000 0.000000 0.032198 0.000000 -0.011020
# 5 -0.015379 0.012552 0.001134 0.000000 0.055086 0.000000
# 6 0.000000 0.000000 0.000000 -0.011020 0.000000 0.049836
#
#
# Mechanical properties :
#
#
# Convention : Reuss Voigt Hill
#
# Bulk Modulus (GPa) = 37.24404 48.14497 42.69450
# Shear Modulus (GPa) = 19.33769 25.09728 22.21748
#
# Velocity S-wave (km/s) = 3.23781 3.68860 3.47053
# Velocity P-wave (km/s) = 5.84540 6.65143 6.26140
#
# Compressibility (1/GPa) = 0.02684994
#
# Stress axis : x y z
#
# Youngs Moduli (GPa) = 42.55827 29.15070 84.25098
#
# Poissons Ratio (x) = 0.41068 0.57199
# Poissons Ratio (y) = 0.59957 0.04493
# Poissons Ratio (z) = 0.28893 0.01554
#
# Static dielectric constant tensor:
#      x y z
#    x 3.274760 0.000000 0.078650 
#    y 0.000000 3.463790 0.000000 
#    z 0.078650 0.000000 3.420690 
# 
# 
# High freq. dielectric constant tensor:
#      x y z
#    x 1.696570 0.000000 0.011830 
#    y 0.000000 1.732750 0.000000 
#    z 0.011830 0.000000 1.714350 
# 
# From -- ./inp_files/89556.got.cif
#   From: 2010.06.25/outbox.cif.g09.slc.cpg/sg10_45_cif.got.tgz:89556.got - 2010.06.27 22:07:45.
