data_PCOD8063652
_publ_section_title
;
Structure prediction by ZEFSAII (Michael W. Deem and Ramdas Pophale) SiO2 
 PCOD8063652
Probable space group: P 2/M
;
_chemical_formula_sum "Si O2"
_cell_formula_units_Z 28
_cell_length_a 10.125210
_cell_length_b 8.563627
_cell_length_c 25.706559
_cell_angle_alpha 90.000000
_cell_angle_beta 140.053388
_cell_angle_gamma 90.000000
_cell_volume 1431.167607
_symmetry_space_group_name_H-M "P 2/M"
_symmetry_group_IT_number 10
_symmetry_cell_setting 'monoclinic'
loop_
_space_group_symop_operation_xyz
x,y,z
-x,y,-z
-x,-y,-z
x,-y,z
loop_
_atom_site_type_symbol
_atom_site_label
_atom_site_fract_x
_atom_site_fract_y
_atom_site_fract_z
Si Si1 0.497945 0.314241 0.757751
Si Si2 0.506936 0.684957 0.061853
Si Si3 0.940932 0.314391 0.232969
Si Si4 0.614546 0.685985 0.483081
Si Si5 0.235536 0.183862 0.067597
Si Si6 0.950814 0.314526 0.352097
Si Si7 0.646973 0.686181 0.692299
O O1 0.498348 0.500000 0.758279
O O2 0.633430 0.259842 0.846862
O O3 0.264559 0.248885 0.691033
O O4 0.587550 0.247052 0.730827
O O5 0.486201 0.500000 0.062272
O O6 0.722544 0.750890 0.148336
O O7 0.322200 0.764047 0.037802
O O8 0.500000 0.735849 0.000000
O O9 0.935643 0.500000 0.230274
O O10 0.984136 0.252070 0.303777
O O11 0.122947 0.253836 0.250574
O O12 0.500000 0.750873 0.500000
O O13 0.600966 0.500000 0.479656
O O14 0.507942 0.751656 0.398683
O O15 0.853288 0.741971 0.554906
O O16 0.250299 0.000000 0.077947
O O17 0.000000 0.241657 0.000000
O O18 0.941420 0.500000 0.348710
O O19 0.637040 0.500000 0.689412
#
# Coordination Sequence:
#
# PCOD8063652 Si02
#       7
#     4   4   4   4   4   4   4
#     4  10  20  34  53  78 106 137 177 225 269 313
#     4  10  21  36  59  88 111 136 174 224 277 325
#     4   9  15  27  45  71 105 135 170 211 256 313
#     4   9  14  22  38  66 106 145 172 204 264 324
#     4  11  25  42  57  76 108 147 182 221 270 325
#     4   9  15  25  44  68 102 140 171 212 260 313
#     4   9  17  26  43  74 108 141 174 212 263 319
#
# _framework density 19.564444999999999
#
# number of rings (size 3 to 8) (size 9 to 14) (size 15 to 20)
#    0.000    2.429    2.857    0.429    2.000    2.000 
#    0.000    2.857    0.000    0.000    0.000    2.000 
#    0.000    2.286    0.000    0.000    0.000    0.000 
#
# Total GULP energy -347100.759126 kJ/mol
# GULP energy per Si atom -12396.455683 kJ/mol
# Density = 1.951992 g / cm^3
# Si number density = 19.564445 Si / 1000 Ang^3
#
#
#
# Elastic Constant Matrix: (Units=GPa)
#
#
# Indices 1 2 3 4 5 6 
#
# 1 173.7635 11.3994 66.1424 0.0000 15.2033 0.0000
# 2 11.3994 10.1222 8.3377 0.0000 3.2632 0.0000
# 3 66.1424 8.3377 126.4787 0.0000 19.7194 0.0000
# 4 0.0000 0.0000 0.0000 4.3690 0.0000 3.4484
# 5 15.2033 3.2632 19.7194 0.0000 41.7330 0.0000
# 6 0.0000 0.0000 0.0000 3.4484 0.0000 9.0515
#
#
#
# Elastic Compliance Matrix: (Units=1/GPa)
#
#
# Indices 1 2 3 4 5 6 
#
# 1 0.007480 -0.005362 -0.003453 0.000000 -0.000674 0.000000
# 2 -0.005362 0.109409 -0.003648 0.000000 -0.004878 0.000000
# 3 -0.003453 -0.003648 0.010485 0.000000 -0.003411 0.000000
# 4 0.000000 0.000000 0.000000 0.327308 0.000000 -0.124698
# 5 -0.000674 -0.004878 -0.003411 0.000000 0.026200 0.000000
# 6 0.000000 0.000000 0.000000 -0.124698 0.000000 0.157987
#
#
# Mechanical properties :
#
#
# Convention : Reuss Voigt Hill
#
# Bulk Modulus (GPa) = 9.76110 53.56928 31.66519
# Shear Modulus (GPa) = 7.16389 25.99636 16.58013
#
# Velocity S-wave (km/s) = 1.91563 3.64916 2.91428
# Velocity P-wave (km/s) = 3.14529 6.72277 5.24826
#
# Compressibility (1/GPa) = 0.10244752
#
# Stress axis : x y z
#
# Youngs Moduli (GPa) = 133.68727 9.14000 95.37824
#
# Poissons Ratio (x) = 0.04901 0.32936
# Poissons Ratio (y) = 0.71687 0.34791
# Poissons Ratio (z) = 0.46165 0.03334
#
# Static dielectric constant tensor:
#      x y z
#    x 3.878840 0.000000 0.126620 
#    y 0.000000 2.871290 0.000000 
#    z 0.126620 0.000000 3.856410 
# 
# 
# High freq. dielectric constant tensor:
#      x y z
#    x 1.773810 0.000000 0.006880 
#    y 0.000000 1.689030 0.000000 
#    z 0.006880 0.000000 1.777560 
# 
# From -- ./inp_files/92107.got.cif
#   From: 2010.06.25/outbox.cif.g09.slc.cpg/sg10_47_cif.got.tgz:92107.got - 2010.06.27 22:07:45.
