data_PCOD8063892
_publ_section_title
;
Structure prediction by ZEFSAII (Michael W. Deem and Ramdas Pophale) SiO2 
 PCOD8063892
Probable space group: P 2/M
;
_chemical_formula_sum "Si O2"
_cell_formula_units_Z 28
_cell_length_a 11.735161
_cell_length_b 8.809948
_cell_length_c 15.178078
_cell_angle_alpha 90.000000
_cell_angle_beta 116.311529
_cell_angle_gamma 90.000000
_cell_volume 1406.629421
_symmetry_space_group_name_H-M "P 2/M"
_symmetry_group_IT_number 10
_symmetry_cell_setting 'monoclinic'
loop_
_space_group_symop_operation_xyz
x,y,z
-x,y,-z
-x,-y,-z
x,-y,z
loop_
_atom_site_type_symbol
_atom_site_label
_atom_site_fract_x
_atom_site_fract_y
_atom_site_fract_z
Si Si1 0.611537 0.825093 0.302638
Si Si2 0.864447 0.179423 0.479975
Si Si3 0.807502 0.320374 0.959124
Si Si4 0.808207 0.174688 0.653751
Si Si5 0.975295 0.824471 0.869218
Si Si6 0.442366 0.321571 0.390044
Si Si7 0.543966 0.823748 0.918894
O O1 0.757979 0.776452 0.370827
O O2 0.520491 0.728007 0.332410
O O3 0.574454 0.796649 0.188207
O O4 0.592807 0.000000 0.322438
O O5 0.826213 0.245014 0.562600
O O6 0.000000 0.252113 0.500000
O O7 0.880050 0.000000 0.493846
O O8 0.815070 0.500000 0.948779
O O9 0.861207 0.238346 0.890779
O O10 0.662968 0.273337 0.926920
O O11 0.895237 0.269434 0.071560
O O12 0.937680 0.193379 0.753970
O O13 0.700650 0.264671 0.669412
O O14 0.766399 0.000000 0.633877
O O15 0.998707 0.000000 0.901256
O O16 0.500000 0.252135 0.500000
O O17 0.443108 0.500000 0.394062
O O18 0.583929 0.000000 0.935143
O O19 0.500000 0.767566 0.000000
#
# Coordination Sequence:
#
# PCOD8063892 Si02
#       7
#     4   4   4   4   4   4   4
#     4  10  20  36  60  84 111 148 186 233 283 330
#     4   9  18  33  54  81 110 140 180 224 269 325
#     4  11  22  37  57  82 113 149 187 233 287 340
#     4  10  20  34  56  84 111 144 184 230 276 329
#     4  10  20  35  58  85 113 146 185 233 289 340
#     4  11  22  34  53  82 116 151 184 228 280 332
#     4  10  22  39  59  84 113 149 194 241 287 335
#
# _framework density 19.905740000000002
#
# number of rings (size 3 to 8) (size 9 to 14) (size 15 to 20)
#    0.000    1.857    1.429    3.857    0.000    7.143 
#    0.000    4.286    0.000    1.714    0.000    0.000 
#    0.000    0.000    0.000    0.000    0.000    0.000 
#
# Total GULP energy -347216.332192 kJ/mol
# GULP energy per Si atom -12400.583293 kJ/mol
# Density = 1.986043 g / cm^3
# Si number density = 19.905740 Si / 1000 Ang^3
#
#
#
# Elastic Constant Matrix: (Units=GPa)
#
#
# Indices 1 2 3 4 5 6 
#
# 1 103.2773 23.0639 39.9372 0.0000 16.5194 0.0000
# 2 23.0639 58.5469 24.3355 0.0000 1.5756 0.0000
# 3 39.9372 24.3355 135.6032 0.0000 9.3938 0.0000
# 4 0.0000 0.0000 0.0000 16.2585 0.0000 4.2661
# 5 16.5194 1.5756 9.3938 0.0000 27.5190 0.0000
# 6 0.0000 0.0000 0.0000 4.2661 0.0000 3.0062
#
#
#
# Elastic Compliance Matrix: (Units=1/GPa)
#
#
# Indices 1 2 3 4 5 6 
#
# 1 0.012535 -0.003691 -0.002584 0.000000 -0.006431 0.000000
# 2 -0.003691 0.019544 -0.002557 0.000000 0.001969 0.000000
# 3 -0.002584 -0.002557 0.008682 0.000000 -0.001266 0.000000
# 4 0.000000 0.000000 0.000000 0.097997 0.000000 -0.139068
# 5 -0.006431 0.001969 -0.001266 0.000000 0.040519 0.000000
# 6 0.000000 0.000000 0.000000 -0.139068 0.000000 0.529995
#
#
# Mechanical properties :
#
#
# Convention : Reuss Voigt Hill
#
# Bulk Modulus (GPa) = 43.29407 52.45563 47.87485
# Shear Modulus (GPa) = 6.80612 23.36279 15.08445
#
# Velocity S-wave (km/s) = 1.85111 3.42960 2.75579
# Velocity P-wave (km/s) = 5.13474 6.48785 5.85054
#
# Compressibility (1/GPa) = 0.02309785
#
# Stress axis : x y z
#
# Youngs Moduli (GPa) = 79.77824 51.16644 115.18097
#
# Poissons Ratio (x) = 0.18885 0.29760
# Poissons Ratio (y) = 0.29445 0.29450
# Poissons Ratio (z) = 0.20613 0.13082
#
# Static dielectric constant tensor:
#      x y z
#    x 3.542690 0.000000 0.133930 
#    y 0.000000 3.386730 0.000000 
#    z 0.133930 0.000000 3.931870 
# 
# 
# High freq. dielectric constant tensor:
#      x y z
#    x 1.762880 0.000000 0.009970 
#    y 0.000000 1.754330 0.000000 
#    z 0.009970 0.000000 1.793440 
# 
# From -- ./inp_files/63938.got.cif
#   From: 2010.06.25/outbox.cif.g09.slc.cpg/sg10_32_cif.got.tgz:63938.got - 2010.06.27 22:07:45.
