data_PCOD8063802
_publ_section_title
;
Structure prediction by ZEFSAII (Michael W. Deem and Ramdas Pophale) SiO2 
 PCOD8063802
Probable space group: P 2/M
;
_chemical_formula_sum "Si O2"
_cell_formula_units_Z 30
_cell_length_a 10.775727
_cell_length_b 9.621920
_cell_length_c 15.895369
_cell_angle_alpha 90.000000
_cell_angle_beta 112.983319
_cell_angle_gamma 90.000000
_cell_volume 1517.255315
_symmetry_space_group_name_H-M "P 2/M"
_symmetry_group_IT_number 10
_symmetry_cell_setting 'monoclinic'
loop_
_space_group_symop_operation_xyz
x,y,z
-x,y,-z
-x,-y,-z
x,-y,z
loop_
_atom_site_type_symbol
_atom_site_label
_atom_site_fract_x
_atom_site_fract_y
_atom_site_fract_z
Si Si1 0.727880 0.663664 0.761184
Si Si2 0.649340 0.835179 0.576358
Si Si3 0.148258 0.836793 0.515341
Si Si4 0.235214 0.654810 0.853490
Si Si5 0.990686 0.337772 0.089588
Si Si6 0.414135 0.847925 0.149052
Si Si7 0.500000 0.257359 0.000000
Si Si8 0.284246 0.154826 0.718804
O O1 0.692778 0.500000 0.742998
O O2 0.668377 0.749209 0.667288
O O3 0.886763 0.689744 0.813813
O O4 0.669899 0.721602 0.834119
O O5 0.500000 0.801481 0.500000
O O6 0.772217 0.784552 0.547342
O O7 0.659505 0.000000 0.597677
O O8 0.247979 0.794347 0.616429
O O9 0.000000 0.772216 0.500000
O O10 0.130345 0.000000 0.500585
O O11 0.187395 0.500000 0.818069
O O12 0.389274 0.648137 0.925009
O O13 0.211577 0.745898 0.765242
O O14 0.142935 0.722012 0.901702
O O15 0.971799 0.500000 0.068831
O O16 0.000000 0.264787 0.000000
O O17 0.556830 0.840268 0.232547
O O18 0.349154 0.000000 0.150216
O O19 0.429166 0.836483 0.052288
O O20 0.227891 0.000000 0.720292
#
# Coordination Sequence:
#
# PCOD8063802 Si02
#       8
#     4   4   4   4   4   4   2   4
#     4  11  23  37  58  86 116 152 196 240 286 342
#     4  10  21  39  62  86 115 155 198 242 299 358
#     4   9  18  33  56  83 109 143 188 234 281 339
#     4  10  20  34  55  80 110 146 186 228 280 341
#     4   9  19  36  54  75 110 153 189 227 279 336
#     4  10  20  36  57  81 112 149 187 231 286 339
#     4  10  20  34  58  86 110 142 192 242 280 332
#     4   9  19  35  55  80 109 140 177 229 284 334
#
# _framework density 19.772545999999998
#
# number of rings (size 3 to 8) (size 9 to 14) (size 15 to 20)
#    0.000    2.267    0.000    2.400    1.867    6.667 
#    0.000    1.333    0.000    3.600    0.000    0.000 
#    0.000    0.000    0.000    0.000    0.000    0.000 
#
# Total GULP energy -371770.636231 kJ/mol
# GULP energy per Si atom -12392.354541 kJ/mol
# Density = 1.972754 g / cm^3
# Si number density = 19.772546 Si / 1000 Ang^3
#
#
#
# Elastic Constant Matrix: (Units=GPa)
#
#
# Indices 1 2 3 4 5 6 
#
# 1 95.9244 31.2268 24.7260 0.0000 -20.7749 0.0000
# 2 31.2268 76.8080 37.9841 0.0000 -9.9701 0.0000
# 3 24.7260 37.9841 89.6551 0.0000 -15.8974 0.0000
# 4 0.0000 0.0000 0.0000 24.8600 0.0000 -6.3335
# 5 -20.7749 -9.9701 -15.8974 0.0000 30.0155 0.0000
# 6 0.0000 0.0000 0.0000 -6.3335 0.0000 -7.3965
#
#
#
# Elastic Compliance Matrix: (Units=1/GPa)
#
#
# Indices 1 2 3 4 5 6 
#
# 1 0.013630 -0.004248 -0.000592 0.000000 0.007709 0.000000
# 2 -0.004248 0.017899 -0.006488 0.000000 -0.000431 0.000000
# 3 -0.000592 -0.006488 0.015022 0.000000 0.005391 0.000000
# 4 0.000000 0.000000 0.000000 0.033022 0.000000 -0.028276
# 5 0.007709 -0.000431 0.005391 0.000000 0.041364 0.000000
# 6 0.000000 0.000000 0.000000 -0.028276 0.000000 -0.110986
#
#
# Mechanical properties :
#
#
# Convention : Reuss Voigt Hill
#
# Bulk Modulus (GPa) = 41.85083 50.02902 45.93993
# Shear Modulus (GPa) = 123.23806 20.72583 71.98194
#
# Velocity S-wave (km/s) = 7.90336 3.24112 6.04020
# Velocity P-wave (km/s) = 10.22234 6.27405 8.48116
#
# Compressibility (1/GPa) = 0.02389439
#
# Stress axis : x y z
#
# Youngs Moduli (GPa) = 73.36780 55.86877 66.56886
#
# Poissons Ratio (x) = 0.23731 0.03944
# Poissons Ratio (y) = 0.31164 0.43191
# Poissons Ratio (z) = 0.04347 0.36249
#
# Static dielectric constant tensor:
#      x y z
#    x 3.839360 0.000000 -0.121820 
#    y 0.000000 3.343630 0.000000 
#    z -0.121820 0.000000 3.659010 
# 
# 
# High freq. dielectric constant tensor:
#      x y z
#    x 1.777320 0.000000 -0.004690 
#    y 0.000000 1.737330 0.000000 
#    z -0.004690 0.000000 1.778170 
# 
# From -- ./inp_files/63869.got.cif
#   From: 2010.06.25/outbox.cif.g09.slc.cpg/sg10_32_cif.got.tgz:63869.got - 2010.06.27 22:07:45.
