data_PCOD8063601
_publ_section_title
;
Structure prediction by ZEFSAII (Michael W. Deem and Ramdas Pophale) SiO2 
 PCOD8063601
Probable space group: P 2/M
;
_chemical_formula_sum "Si O2"
_cell_formula_units_Z 32
_cell_length_a 25.783328
_cell_length_b 8.971843
_cell_length_c 15.652357
_cell_angle_alpha 90.000000
_cell_angle_beta 29.990967
_cell_angle_gamma 90.000000
_cell_volume 1809.888308
_symmetry_space_group_name_H-M "P 2/M"
_symmetry_group_IT_number 10
_symmetry_cell_setting 'monoclinic'
loop_
_space_group_symop_operation_xyz
x,y,z
-x,y,-z
-x,-y,-z
x,-y,z
loop_
_atom_site_type_symbol
_atom_site_label
_atom_site_fract_x
_atom_site_fract_y
_atom_site_fract_z
Si Si1 0.053690 0.827894 0.554139
Si Si2 0.428673 0.175618 0.413917
Si Si3 0.914021 0.322540 0.317393
Si Si4 0.352953 0.324182 0.872326
Si Si5 0.618497 0.662833 0.354410
Si Si6 0.082078 0.661310 0.957051
Si Si7 0.840981 0.172775 0.773093
Si Si8 0.245996 0.678162 0.595702
O O1 0.097217 0.734070 0.570790
O O2 0.130317 0.798328 0.366098
O O3 0.937276 0.778383 0.695291
O O4 0.054185 0.000000 0.579089
O O5 0.543140 0.243481 0.243739
O O6 0.370877 0.217971 0.585210
O O7 0.358339 0.242883 0.437632
O O8 0.436766 0.000000 0.393574
O O9 0.921568 0.500000 0.305349
O O10 0.813336 0.272468 0.406220
O O11 0.020999 0.255334 0.121817
O O12 0.370939 0.500000 0.855688
O O13 0.325344 0.282049 0.812897
O O14 0.257833 0.273361 0.065981
O O15 0.500000 0.642535 0.500000
O O16 0.661480 0.500000 0.322608
O O17 0.118815 0.500000 0.939030
O O18 0.181960 0.739754 0.771072
O O19 0.000000 0.635248 0.000000
O O20 0.814214 0.000000 0.826627
O O21 0.257752 0.500000 0.582457
#
# Coordination Sequence:
#
# PCOD8063601 Si02
#       8
#     4   4   4   4   4   4   4   4
#     4   9  19  35  53  73 101 132 158 194 248 303
#     4  11  21  31  47  72 102 136 171 204 240 289
#     4   9  17  30  51  76  99 129 170 209 245 289
#     4  10  20  34  53  75  98 128 166 208 251 291
#     4   8  16  31  47  65  93 127 162 199 240 283
#     4   7  12  25  44  65  90 123 161 197 234 276
#     4   9  19  36  54  73  99 131 162 194 244 304
#     4   9  17  31  49  69 100 138 171 206 245 285
#
# _framework density 17.680648999999999
#
# number of rings (size 3 to 8) (size 9 to 14) (size 15 to 20)
#    0.000    3.000    0.000    4.500    0.000    5.250 
#    0.000    5.625    0.000    3.000    0.000    5.250 
#    0.000    0.000    0.000    0.000    0.000    0.000 
#
# Total GULP energy -396450.936448 kJ/mol
# GULP energy per Si atom -12389.091764 kJ/mol
# Density = 1.764041 g / cm^3
# Si number density = 17.680649 Si / 1000 Ang^3
#
#
#
# Elastic Constant Matrix: (Units=GPa)
#
#
# Indices 1 2 3 4 5 6 
#
# 1 101.1554 43.2606 49.2875 0.0000 -1.5805 0.0000
# 2 43.2606 69.6877 38.8507 0.0000 -4.1299 0.0000
# 3 49.2875 38.8507 91.0866 0.0000 -4.1132 0.0000
# 4 0.0000 0.0000 0.0000 32.8453 0.0000 0.3611
# 5 -1.5805 -4.1299 -4.1132 0.0000 23.7666 0.0000
# 6 0.0000 0.0000 0.0000 0.3611 0.0000 24.8171
#
#
#
# Elastic Compliance Matrix: (Units=1/GPa)
#
#
# Indices 1 2 3 4 5 6 
#
# 1 0.015370 -0.006483 -0.005600 0.000000 -0.001074 0.000000
# 2 -0.006483 0.021646 -0.005618 0.000000 0.002358 0.000000
# 3 -0.005600 -0.005618 0.016473 0.000000 0.001502 0.000000
# 4 0.000000 0.000000 0.000000 0.030451 0.000000 -0.000443
# 5 -0.001074 0.002358 0.001502 0.000000 0.042674 0.000000
# 6 0.000000 0.000000 0.000000 -0.000443 0.000000 0.040301
#
#
# Mechanical properties :
#
#
# Convention : Reuss Voigt Hill
#
# Bulk Modulus (GPa) = 55.28966 58.30301 56.79633
# Shear Modulus (GPa) = 23.99842 24.98785 24.49314
#
# Velocity S-wave (km/s) = 3.68819 3.76345 3.72601
# Velocity P-wave (km/s) = 7.03393 7.20638 7.12068
#
# Compressibility (1/GPa) = 0.01808657
#
# Stress axis : x y z
#
# Youngs Moduli (GPa) = 65.06073 46.19782 60.70546
#
# Poissons Ratio (x) = 0.29950 0.33997
# Poissons Ratio (y) = 0.42179 0.34105
# Poissons Ratio (z) = 0.36436 0.25954
#
# Static dielectric constant tensor:
#      x y z
#    x 3.314920 0.000000 0.017220 
#    y 0.000000 3.003430 0.000000 
#    z 0.017220 0.000000 3.346200 
# 
# 
# High freq. dielectric constant tensor:
#      x y z
#    x 1.677040 0.000000 -0.007580 
#    y 0.000000 1.660550 0.000000 
#    z -0.007580 0.000000 1.671340 
# 
# From -- ./inp_files/72190.got.cif
#   From: 2010.06.25/outbox.cif.g09.slc.cpg/sg10_37_cif.got.tgz:72190.got - 2010.06.27 22:07:45.
