data_PCOD8063179
_publ_section_title
;
Structure prediction by ZEFSAII (Michael W. Deem and Ramdas Pophale) SiO2 
 PCOD8063179
Probable space group: P 2/M
;
_chemical_formula_sum "Si O2"
_cell_formula_units_Z 32
_cell_length_a 11.899608
_cell_length_b 9.358497
_cell_length_c 30.390041
_cell_angle_alpha 90.000000
_cell_angle_beta 150.467506
_cell_angle_gamma 90.000000
_cell_volume 1668.183866
_symmetry_space_group_name_H-M "P 2/M"
_symmetry_group_IT_number 10
_symmetry_cell_setting 'monoclinic'
loop_
_space_group_symop_operation_xyz
x,y,z
-x,y,-z
-x,-y,-z
x,-y,z
loop_
_atom_site_type_symbol
_atom_site_label
_atom_site_fract_x
_atom_site_fract_y
_atom_site_fract_z
Si Si1 0.361563 0.839339 0.518098
Si Si2 0.098966 0.338860 0.365233
Si Si3 0.221794 0.664042 0.309536
Si Si4 0.662312 0.334324 0.271872
Si Si5 0.599033 0.835759 0.963247
Si Si6 0.149715 0.164481 0.861827
Si Si7 0.748530 0.331372 0.928223
Si Si8 0.081895 0.160395 0.573958
O O1 0.301362 0.763768 0.451276
O O2 0.542352 0.748901 0.607297
O O3 0.130581 0.840480 0.466386
O O4 0.451624 0.000000 0.540214
O O5 0.165316 0.500000 0.401820
O O6 0.083349 0.322597 0.307778
O O7 0.852938 0.297069 0.300395
O O8 0.272651 0.500000 0.314454
O O9 0.067722 0.734975 0.219547
O O10 0.662846 0.500000 0.284440
O O11 0.420923 0.286811 0.169141
O O12 0.711764 0.249600 0.333948
O O13 0.351796 0.790467 0.897422
O O14 0.670534 0.740047 0.946740
O O15 0.595844 0.000000 0.946952
O O16 0.779826 0.812887 0.063788
O O17 0.083357 0.000000 0.830610
O O18 0.739775 0.500000 0.933278
O O19 0.000000 0.279573 0.000000
O O20 0.000000 0.229967 0.500000
O O21 0.173542 0.000000 0.596679
#
# Coordination Sequence:
#
# PCOD8063179 Si02
#       8
#     4   4   4   4   4   4   4   4
#     4  10  20  33  50  73 103 136 171 215 266 314
#     4   9  18  32  50  72 102 136 174 216 257 310
#     4  11  21  32  49  77 109 141 174 209 257 319
#     4   9  18  34  55  78 103 137 178 217 264 315
#     4   9  19  37  59  80 105 140 183 227 273 325
#     4   9  19  36  56  79 108 141 178 225 274 323
#     4  10  21  37  56  81 116 149 181 229 279 323
#     4   9  19  37  57  76 100 134 177 223 267 312
#
# _framework density 19.182538999999998
#
# number of rings (size 3 to 8) (size 9 to 14) (size 15 to 20)
#    0.000    2.500    0.000    2.625    0.000    6.000 
#    2.250    3.750    0.000    0.000    0.000    0.000 
#    0.000    0.000    0.000    0.000    0.000    0.000 
#
# Total GULP energy -396812.453304 kJ/mol
# GULP energy per Si atom -12400.389166 kJ/mol
# Density = 1.913888 g / cm^3
# Si number density = 19.182539 Si / 1000 Ang^3
#
#
#
# Elastic Constant Matrix: (Units=GPa)
#
#
# Indices 1 2 3 4 5 6 
#
# 1 49.8906 23.0568 28.0918 0.0000 -13.1862 0.0000
# 2 23.0568 93.9559 67.3273 0.0000 -4.0651 0.0000
# 3 28.0918 67.3273 143.7815 0.0000 -4.6858 0.0000
# 4 0.0000 0.0000 0.0000 35.3911 0.0000 -8.6680
# 5 -13.1862 -4.0651 -4.6858 0.0000 25.0131 0.0000
# 6 0.0000 0.0000 0.0000 -8.6680 0.0000 21.4929
#
#
#
# Elastic Compliance Matrix: (Units=1/GPa)
#
#
# Indices 1 2 3 4 5 6 
#
# 1 0.026990 -0.003891 -0.003027 0.000000 0.013029 0.000000
# 2 -0.003891 0.016615 -0.007042 0.000000 -0.000670 0.000000
# 3 -0.003027 -0.007042 0.010821 0.000000 -0.000713 0.000000
# 4 0.000000 0.000000 0.000000 0.031353 0.000000 0.012644
# 5 0.013029 -0.000670 -0.000713 0.000000 0.046605 0.000000
# 6 0.000000 0.000000 0.000000 0.012644 0.000000 0.051626
#
#
# Mechanical properties :
#
#
# Convention : Reuss Voigt Hill
#
# Bulk Modulus (GPa) = 37.72614 58.28664 48.00639
# Shear Modulus (GPa) = 22.64866 27.65624 25.15245
#
# Velocity S-wave (km/s) = 3.43985 3.80115 3.62500
# Velocity P-wave (km/s) = 5.95704 7.05097 6.52696
#
# Compressibility (1/GPa) = 0.02650682
#
# Stress axis : x y z
#
# Youngs Moduli (GPa) = 37.05114 60.18583 92.41639
#
# Poissons Ratio (x) = 0.23416 0.27972
# Poissons Ratio (y) = 0.14415 0.65079
# Poissons Ratio (z) = 0.11214 0.42382
#
# Static dielectric constant tensor:
#      x y z
#    x 3.272030 0.000000 -0.026440 
#    y 0.000000 3.624420 0.000000 
#    z -0.026440 0.000000 3.582260 
# 
# 
# High freq. dielectric constant tensor:
#      x y z
#    x 1.727590 0.000000 -0.004040 
#    y 0.000000 1.744290 0.000000 
#    z -0.004040 0.000000 1.751970 
# 
# From -- ./inp_files/84762.got.cif
#   From: 2010.06.25/outbox.cif.g09.slc.cpg/sg10_43_cif.got.tgz:84762.got - 2010.06.27 22:07:45.
