data_PCOD8063616
_publ_section_title
;
Structure prediction by ZEFSAII (Michael W. Deem and Ramdas Pophale) SiO2 
 PCOD8063616
Probable space group: P 2/M
;
_chemical_formula_sum "Si O2"
_cell_formula_units_Z 32
_cell_length_a 25.996096
_cell_length_b 9.434464
_cell_length_c 13.624223
_cell_angle_alpha 90.000000
_cell_angle_beta 149.818762
_cell_angle_gamma 90.000000
_cell_volume 1679.878511
_symmetry_space_group_name_H-M "P 2/M"
_symmetry_group_IT_number 10
_symmetry_cell_setting 'monoclinic'
loop_
_space_group_symop_operation_xyz
x,y,z
-x,y,-z
-x,-y,-z
x,-y,z
loop_
_atom_site_type_symbol
_atom_site_label
_atom_site_fract_x
_atom_site_fract_y
_atom_site_fract_z
Si Si1 0.486246 0.832691 0.751191
Si Si2 0.015260 0.666499 0.913827
Si Si3 0.679742 0.839393 0.190392
Si Si4 0.897310 0.847471 0.581348
Si Si5 0.934459 0.157698 0.301638
Si Si6 0.604293 0.341267 0.231560
Si Si7 0.425796 0.660503 0.470018
Si Si8 0.188870 0.334298 0.046041
O O1 0.405561 0.749822 0.685952
O O2 0.474240 0.773771 0.623131
O O3 0.464378 0.000000 0.717997
O O4 0.601279 0.793028 0.976229
O O5 0.004712 0.500000 0.896165
O O6 0.917350 0.727219 0.694705
O O7 0.121791 0.710756 0.032889
O O8 0.000000 0.724102 0.000000
O O9 0.796502 0.821114 0.347205
O O10 0.682007 0.740883 0.290186
O O11 0.651283 0.000000 0.174645
O O12 0.991527 0.857565 0.666475
O O13 0.884042 0.000000 0.613645
O O14 0.000000 0.224824 0.500000
O O15 0.892629 0.000000 0.262155
O O16 0.844255 0.257460 0.110820
O O17 0.643518 0.500000 0.321648
O O18 0.500000 0.348414 0.000000
O O19 0.500000 0.670467 0.500000
O O20 0.428301 0.500000 0.516577
O O21 0.308092 0.704404 0.256393
O O22 0.173464 0.500000 0.001557
#
# Coordination Sequence:
#
# PCOD8063616 Si02
#       8
#     4   4   4   4   4   4   4   4
#     4  10  20  34  53  76 103 136 174 216 262 311
#     4   9  18  33  52  75 103 133 167 209 257 310
#     4   9  18  32  49  73 107 139 167 208 260 311
#     4   9  18  32  49  73 104 134 166 206 253 306
#     4   9  18  33  54  78 103 132 166 207 257 312
#     4   9  17  30  49  72  99 133 172 211 253 305
#     4  10  22  39  55  73 102 140 182 226 266 306
#     4   9  19  36  55  75 102 135 170 213 262 308
#
# _framework density 19.048997
#
# number of rings (size 3 to 8) (size 9 to 14) (size 15 to 20)
#    0.000    2.750    0.000    0.750    0.000    5.750 
#    0.000    2.500    0.000    0.000    0.000    0.000 
#    0.000    0.000    0.000    0.000    0.000    0.000 
#
# Total GULP energy -396428.533729 kJ/mol
# GULP energy per Si atom -12388.391679 kJ/mol
# Density = 1.900564 g / cm^3
# Si number density = 19.048997 Si / 1000 Ang^3
#
#
#
# Elastic Constant Matrix: (Units=GPa)
#
#
# Indices 1 2 3 4 5 6 
#
# 1 58.7320 34.0316 47.5781 0.0000 -11.7161 0.0000
# 2 34.0316 76.6119 46.2033 0.0000 -9.1227 0.0000
# 3 47.5781 46.2033 120.4130 0.0000 -1.8977 0.0000
# 4 0.0000 0.0000 0.0000 32.9661 0.0000 -10.0937
# 5 -11.7161 -9.1227 -1.8977 0.0000 29.0286 0.0000
# 6 0.0000 0.0000 0.0000 -10.0937 0.0000 28.2754
#
#
#
# Elastic Compliance Matrix: (Units=1/GPa)
#
#
# Indices 1 2 3 4 5 6 
#
# 1 0.030328 -0.006770 -0.009236 0.000000 0.009509 0.000000
# 2 -0.006770 0.019225 -0.004655 0.000000 0.003005 0.000000
# 3 -0.009236 -0.004655 0.013672 0.000000 -0.004297 0.000000
# 4 0.000000 0.000000 0.000000 0.034057 0.000000 0.012157
# 5 0.009509 0.003005 -0.004297 0.000000 0.038950 0.000000
# 6 0.000000 0.000000 0.000000 0.012157 0.000000 0.039706
#
#
# Mechanical properties :
#
#
# Convention : Reuss Voigt Hill
#
# Bulk Modulus (GPa) = 45.65144 56.82031 51.23588
# Shear Modulus (GPa) = 22.26577 26.58361 24.42469
#
# Velocity S-wave (km/s) = 3.42258 3.73974 3.58467
# Velocity P-wave (km/s) = 6.29572 6.96713 6.63991
#
# Compressibility (1/GPa) = 0.02190511
#
# Stress axis : x y z
#
# Youngs Moduli (GPa) = 32.97295 52.01618 73.14042
#
# Poissons Ratio (x) = 0.35213 0.67552
# Poissons Ratio (y) = 0.22321 0.34043
# Poissons Ratio (z) = 0.30453 0.24211
#
# Static dielectric constant tensor:
#      x y z
#    x 3.486850 0.000000 -0.031960 
#    y 0.000000 3.886550 0.000000 
#    z -0.031960 0.000000 3.691370 
# 
# 
# High freq. dielectric constant tensor:
#      x y z
#    x 1.726370 0.000000 0.003000 
#    y 0.000000 1.740510 0.000000 
#    z 0.003000 0.000000 1.735050 
# 
# From -- ./inp_files/72230.got.cif
#   From: 2010.06.25/outbox.cif.g09.slc.cpg/sg10_37_cif.got.tgz:72230.got - 2010.06.27 22:07:45.
