data_PCOD8063328
_publ_section_title
;
Structure prediction by ZEFSAII (Michael W. Deem and Ramdas Pophale) SiO2 
 PCOD8063328
Probable space group: P 2/M
;
_chemical_formula_sum "Si O2"
_cell_formula_units_Z 32
_cell_length_a 12.160502
_cell_length_b 9.004005
_cell_length_c 29.456037
_cell_angle_alpha 90.000000
_cell_angle_beta 148.963008
_cell_angle_gamma 90.000000
_cell_volume 1662.904075
_symmetry_space_group_name_H-M "P 2/M"
_symmetry_group_IT_number 10
_symmetry_cell_setting 'monoclinic'
loop_
_space_group_symop_operation_xyz
x,y,z
-x,y,-z
-x,-y,-z
x,-y,z
loop_
_atom_site_type_symbol
_atom_site_label
_atom_site_fract_x
_atom_site_fract_y
_atom_site_fract_z
Si Si1 0.155921 0.170968 0.809801
Si Si2 0.973207 0.174311 0.139082
Si Si3 0.608728 0.675982 0.469298
Si Si4 0.627596 0.828078 0.946769
Si Si5 0.182777 0.675710 0.365561
Si Si6 0.244424 0.674597 0.095333
Si Si7 0.600418 0.174925 0.758606
Si Si8 0.756037 0.675311 0.423539
O O1 0.080353 0.243192 0.830755
O O2 0.407942 0.191400 0.895806
O O3 0.040996 0.254397 0.727918
O O4 0.088433 0.000000 0.782907
O O5 0.215596 0.213895 0.212638
O O6 0.929337 0.000000 0.125634
O O7 0.814368 0.238587 0.044657
O O8 0.617105 0.500000 0.470795
O O9 0.368331 0.728317 0.396144
O O10 0.764129 0.731650 0.564671
O O11 0.687465 0.739462 0.448741
O O12 0.616394 0.729627 0.897743
O O13 0.669443 0.000000 0.948596
O O14 0.163013 0.500000 0.357857
O O15 0.272042 0.500000 0.112019
O O16 0.334827 0.757348 0.170746
O O17 0.000000 0.720128 0.000000
O O18 0.381907 0.246146 0.664041
O O19 0.570773 0.000000 0.753992
O O20 0.717023 0.500000 0.406749
O O21 0.000000 0.716600 0.500000
#
# Coordination Sequence:
#
# PCOD8063328 Si02
#       8
#     4   4   4   4   4   4   4   4
#     4  10  20  33  52  82 115 144 180 224 276 332
#     4   9  18  34  56  80 109 147 187 225 274 333
#     4   8  16  33  55  75  99 139 186 224 269 329
#     4  10  20  36  57  79 109 150 188 226 274 333
#     4   9  17  32  54  76 101 139 184 226 268 323
#     4  11  23  39  59  83 112 145 188 240 284 329
#     4  11  22  37  61  87 112 148 192 235 281 337
#     4  10  21  37  56  80 112 148 184 229 286 339
#
# _framework density 19.243442999999999
#
# number of rings (size 3 to 8) (size 9 to 14) (size 15 to 20)
#    0.000    2.250    1.250    2.625    0.000    3.750 
#    0.000    4.375    0.000    1.500    0.000    0.000 
#    0.000    0.000    0.000    0.000    0.000    0.000 
#
# Total GULP energy -396837.566307 kJ/mol
# GULP energy per Si atom -12401.173947 kJ/mol
# Density = 1.919964 g / cm^3
# Si number density = 19.243443 Si / 1000 Ang^3
#
#
#
# Elastic Constant Matrix: (Units=GPa)
#
#
# Indices 1 2 3 4 5 6 
#
# 1 101.0123 32.3617 49.5825 0.0000 -11.8351 0.0000
# 2 32.3617 46.2529 49.2054 0.0000 0.0513 0.0000
# 3 49.5825 49.2054 139.5558 0.0000 -7.4472 0.0000
# 4 0.0000 0.0000 0.0000 27.7848 0.0000 -4.7595
# 5 -11.8351 0.0513 -7.4472 0.0000 27.6081 0.0000
# 6 0.0000 0.0000 0.0000 -4.7595 0.0000 13.7071
#
#
#
# Elastic Compliance Matrix: (Units=1/GPa)
#
#
# Indices 1 2 3 4 5 6 
#
# 1 0.013968 -0.007697 -0.001956 0.000000 0.005474 0.000000
# 2 -0.007697 0.039158 -0.011416 0.000000 -0.006452 0.000000
# 3 -0.001956 -0.011416 0.012015 0.000000 0.002424 0.000000
# 4 0.000000 0.000000 0.000000 0.038267 0.000000 0.013287
# 5 0.005474 -0.006452 0.002424 0.000000 0.039234 0.000000
# 6 0.000000 0.000000 0.000000 0.013287 0.000000 0.077569
#
#
# Mechanical properties :
#
#
# Convention : Reuss Voigt Hill
#
# Bulk Modulus (GPa) = 43.47670 61.01338 52.24504
# Shear Modulus (GPa) = 18.51739 24.19808 21.35774
#
# Velocity S-wave (km/s) = 3.10541 3.54993 3.33509
# Velocity P-wave (km/s) = 5.95820 6.96976 6.48374
#
# Compressibility (1/GPa) = 0.02300083
#
# Stress axis : x y z
#
# Youngs Moduli (GPa) = 71.59468 25.53771 83.22864
#
# Poissons Ratio (x) = 0.19658 0.16282
# Poissons Ratio (y) = 0.55110 0.95013
# Poissons Ratio (z) = 0.14006 0.29154
#
# Static dielectric constant tensor:
#      x y z
#    x 3.723770 0.000000 -0.102320 
#    y 0.000000 3.187740 0.000000 
#    z -0.102320 0.000000 3.522120 
# 
# 
# High freq. dielectric constant tensor:
#      x y z
#    x 1.755460 0.000000 -0.006380 
#    y 0.000000 1.717480 0.000000 
#    z -0.006380 0.000000 1.756130 
# 
# From -- ./inp_files/58180.got.cif
#   From: 2010.06.25/outbox.cif.g09.slc.cpg/sg10_30_cif.got.tgz:58180.got - 2010.06.27 22:07:45.
