data_PCOD8063912
_publ_section_title
;
Structure prediction by ZEFSAII (Michael W. Deem and Ramdas Pophale) SiO2 
 PCOD8063912
Probable space group: P 2/M
;
_chemical_formula_sum "Si O2"
_cell_formula_units_Z 32
_cell_length_a 14.219569
_cell_length_b 9.239008
_cell_length_c 24.484194
_cell_angle_alpha 90.000000
_cell_angle_beta 149.871788
_cell_angle_gamma 90.000000
_cell_volume 1614.531466
_symmetry_space_group_name_H-M "P 2/M"
_symmetry_group_IT_number 10
_symmetry_cell_setting 'monoclinic'
loop_
_space_group_symop_operation_xyz
x,y,z
-x,y,-z
-x,-y,-z
x,-y,z
loop_
_atom_site_type_symbol
_atom_site_label
_atom_site_fract_x
_atom_site_fract_y
_atom_site_fract_z
Si Si1 0.790330 0.171884 0.888961
Si Si2 0.479510 0.167576 0.817392
Si Si3 0.220652 0.666183 0.614936
Si Si4 0.620133 0.166434 0.112742
Si Si5 0.658642 0.836712 0.705848
Si Si6 0.247240 0.835744 0.523714
Si Si7 0.999886 0.669070 0.318373
Si Si8 0.302323 0.332170 0.378216
O O1 0.662019 0.224259 0.875684
O O2 0.708603 0.228949 0.790342
O O3 0.793724 0.000000 0.891008
O O4 0.000000 0.235248 0.000000
O O5 0.299037 0.263687 0.710005
O O6 0.505023 0.188949 0.895362
O O7 0.439292 0.000000 0.783051
O O8 0.284570 0.500000 0.642825
O O9 0.308762 0.759940 0.610679
O O10 0.000000 0.682208 0.500000
O O11 0.798849 0.269325 0.202407
O O12 0.686856 0.000000 0.141840
O O13 0.500000 0.212034 0.000000
O O14 0.435623 0.832812 0.582541
O O15 0.756646 0.745320 0.707562
O O16 0.735559 0.000000 0.740664
O O17 0.079400 0.747998 0.411720
O O18 0.179579 0.000000 0.500190
O O19 0.984614 0.500000 0.324585
O O20 0.138059 0.700234 0.337938
O O21 0.500000 0.271522 0.500000
O O22 0.323754 0.500000 0.375649
#
# Coordination Sequence:
#
# PCOD8063912 Si02
#       8
#     4   4   4   4   4   4   4   4
#     4   9  18  35  59  87 117 151 192 237 289 348
#     4  10  20  38  61  86 118 155 194 241 297 353
#     4  11  23  36  54  84 118 155 199 243 293 356
#     4  10  23  42  64  90 119 156 202 252 302 348
#     4  10  20  34  56  86 114 149 196 243 291 347
#     4  11  21  35  57  86 119 152 193 245 300 355
#     4  11  23  39  60  87 120 161 203 245 299 359
#     4  10  21  37  56  81 117 161 198 237 297 357
#
# _framework density 19.819991000000002
#
# number of rings (size 3 to 8) (size 9 to 14) (size 15 to 20)
#    0.000    1.750    2.500    1.875    0.000    6.500 
#    0.000    2.500    0.000    1.500    0.000    0.000 
#    0.000    0.000    0.000    0.000    0.000    0.000 
#
# Total GULP energy -396833.953950 kJ/mol
# GULP energy per Si atom -12401.061061 kJ/mol
# Density = 1.977488 g / cm^3
# Si number density = 19.819991 Si / 1000 Ang^3
#
#
#
# Elastic Constant Matrix: (Units=GPa)
#
#
# Indices 1 2 3 4 5 6 
#
# 1 104.8686 47.5660 54.5938 0.0000 -14.6479 0.0000
# 2 47.5660 83.9984 45.1131 0.0000 -6.1765 0.0000
# 3 54.5938 45.1131 122.4459 0.0000 -9.0261 0.0000
# 4 0.0000 0.0000 0.0000 12.1533 0.0000 4.5375
# 5 -14.6479 -6.1765 -9.0261 0.0000 35.3807 0.0000
# 6 0.0000 0.0000 0.0000 4.5375 0.0000 27.4917
#
#
#
# Elastic Compliance Matrix: (Units=1/GPa)
#
#
# Indices 1 2 3 4 5 6 
#
# 1 0.014980 -0.005930 -0.004192 0.000000 0.004097 0.000000
# 2 -0.005930 0.017241 -0.003738 0.000000 -0.000399 0.000000
# 3 -0.004192 -0.003738 0.011452 0.000000 0.000534 0.000000
# 4 0.000000 0.000000 0.000000 0.087685 0.000000 -0.014472
# 5 0.004097 -0.000399 0.000534 0.000000 0.030027 0.000000
# 6 0.000000 0.000000 0.000000 -0.014472 0.000000 0.038763
#
#
# Mechanical properties :
#
#
# Convention : Reuss Voigt Hill
#
# Bulk Modulus (GPa) = 62.68063 67.31766 64.99914
# Shear Modulus (GPa) = 21.44203 25.94115 23.69159
#
# Velocity S-wave (km/s) = 3.29270 3.62171 3.46112
# Velocity P-wave (km/s) = 6.79334 7.17825 6.98845
#
# Compressibility (1/GPa) = 0.01595389
#
# Stress axis : x y z
#
# Youngs Moduli (GPa) = 66.75463 58.00101 87.31799
#
# Poissons Ratio (x) = 0.34395 0.36606
# Poissons Ratio (y) = 0.39586 0.32636
# Poissons Ratio (z) = 0.27985 0.21678
#
# Static dielectric constant tensor:
#      x y z
#    x 3.689580 0.000000 -0.060150 
#    y 0.000000 3.468710 0.000000 
#    z -0.060150 0.000000 3.535580 
# 
# 
# High freq. dielectric constant tensor:
#      x y z
#    x 1.781650 0.000000 -0.006230 
#    y 0.000000 1.757020 0.000000 
#    z -0.006230 0.000000 1.762860 
# 
# From -- ./inp_files/89596.got.cif
#   From: 2010.06.25/outbox.cif.g09.slc.cpg/sg10_45_cif.got.tgz:89596.got - 2010.06.27 22:07:45.
