data_PCOD8063217
_publ_section_title
;
Structure prediction by ZEFSAII (Michael W. Deem and Ramdas Pophale) SiO2 
 PCOD8063217
Probable space group: P 2/M
;
_chemical_formula_sum "Si O2"
_cell_formula_units_Z 32
_cell_length_a 13.989475
_cell_length_b 9.602076
_cell_length_c 12.938130
_cell_angle_alpha 90.000000
_cell_angle_beta 94.168926
_cell_angle_gamma 90.000000
_cell_volume 1733.354619
_symmetry_space_group_name_H-M "P 2/M"
_symmetry_group_IT_number 10
_symmetry_cell_setting 'monoclinic'
loop_
_space_group_symop_operation_xyz
x,y,z
-x,y,-z
-x,-y,-z
x,-y,z
loop_
_atom_site_type_symbol
_atom_site_label
_atom_site_fract_x
_atom_site_fract_y
_atom_site_fract_z
Si Si1 0.770425 0.843069 0.642935
Si Si2 0.918714 0.339009 0.757499
Si Si3 0.393901 0.835670 0.520519
Si Si4 0.672256 0.846703 0.853330
Si Si5 0.306297 0.165321 0.733585
Si Si6 0.529195 0.837788 0.111784
Si Si7 0.863424 0.661494 0.196313
Si Si8 0.181667 0.661708 0.038968
O O1 0.864757 0.747229 0.662618
O O2 0.691315 0.777040 0.559725
O O3 0.725092 0.844637 0.750897
O O4 0.800098 0.000000 0.610706
O O5 0.893671 0.500000 0.737275
O O6 0.889709 0.296434 0.872840
O O7 0.030780 0.309134 0.752649
O O8 0.500000 0.773816 0.500000
O O9 0.362161 0.795106 0.633206
O O10 0.398740 0.000000 0.503805
O O11 0.561592 0.809269 0.820970
O O12 0.718241 0.742055 0.939538
O O13 0.677787 0.000000 0.905313
O O14 0.374843 0.224265 0.830271
O O15 0.206317 0.245409 0.738448
O O16 0.287188 0.000000 0.736433
O O17 0.549768 0.000000 0.099344
O O18 0.500000 0.768975 0.000000
O O19 0.835078 0.500000 0.207007
O O20 0.862510 0.704062 0.075076
O O21 0.205444 0.500000 0.044568
#
# Coordination Sequence:
#
# PCOD8063217 Si02
#       8
#     4   4   4   4   4   4   4   4
#     4   9  17  30  50  75  98 120 155 205 250 284
#     4   9  18  33  52  72  96 130 168 201 240 293
#     4   9  17  32  55  79 101 127 161 201 245 293
#     4   9  16  27  45  70  98 125 155 196 244 290
#     4  10  20  33  51  74  98 129 168 204 240 288
#     4   9  16  26  42  66  96 127 156 187 228 282
#     4  10  20  34  50  69  98 133 165 202 246 289
#     4   9  17  30  49  72  97 128 166 202 238 287
#
# _framework density 18.461313000000001
#
# number of rings (size 3 to 8) (size 9 to 14) (size 15 to 20)
#    0.000    2.750    0.000    1.875    0.000    6.500 
#    0.000    1.875    0.000   12.750    0.000    0.000 
#    0.000    0.000    0.000    0.000    0.000    0.000 
#
# Total GULP energy -396551.634622 kJ/mol
# GULP energy per Si atom -12392.238582 kJ/mol
# Density = 1.841929 g / cm^3
# Si number density = 18.461313 Si / 1000 Ang^3
#
#
#
# Elastic Constant Matrix: (Units=GPa)
#
#
# Indices 1 2 3 4 5 6 
#
# 1 133.2414 45.9426 60.1051 0.0000 9.7788 0.0000
# 2 45.9426 43.3365 32.2445 0.0000 3.1811 0.0000
# 3 60.1051 32.2445 75.1971 0.0000 15.5292 0.0000
# 4 0.0000 0.0000 0.0000 18.7581 0.0000 -1.2052
# 5 9.7788 3.1811 15.5292 0.0000 30.9797 0.0000
# 6 0.0000 0.0000 0.0000 -1.2052 0.0000 11.7529
#
#
#
# Elastic Compliance Matrix: (Units=1/GPa)
#
#
# Indices 1 2 3 4 5 6 
#
# 1 0.014003 -0.009556 -0.007123 0.000000 0.000131 0.000000
# 2 -0.009556 0.040915 -0.010777 0.000000 0.004217 0.000000
# 3 -0.007123 -0.010777 0.025567 0.000000 -0.009461 0.000000
# 4 0.000000 0.000000 0.000000 0.053664 0.000000 0.005503
# 5 0.000131 0.004217 -0.009461 0.000000 0.036547 0.000000
# 6 0.000000 0.000000 0.000000 0.005503 0.000000 0.085650
#
#
# Mechanical properties :
#
#
# Convention : Reuss Voigt Hill
#
# Bulk Modulus (GPa) = 39.10278 58.70661 48.90470
# Shear Modulus (GPa) = 15.63570 19.86366 17.74968
#
# Velocity S-wave (km/s) = 2.91339 3.28374 3.10409
# Velocity P-wave (km/s) = 5.70474 6.80045 6.27655
#
# Compressibility (1/GPa) = 0.02557363
#
# Stress axis : x y z
#
# Youngs Moduli (GPa) = 71.41136 24.44109 39.11357
#
# Poissons Ratio (x) = 0.23355 0.27859
# Poissons Ratio (y) = 0.68238 0.42154
# Poissons Ratio (z) = 0.50864 0.26341
#
# Static dielectric constant tensor:
#      x y z
#    x 3.570850 0.000000 0.184960 
#    y 0.000000 3.317100 0.000000 
#    z 0.184960 0.000000 3.411710 
# 
# 
# High freq. dielectric constant tensor:
#      x y z
#    x 1.724410 0.000000 0.006320 
#    y 0.000000 1.676510 0.000000 
#    z 0.006320 0.000000 1.707410 
# 
# From -- ./inp_files/46708.got.cif
#   From: 2010.06.25/outbox.cif.g09.slc.cpg/sg10_24_cif.got.tgz:46708.got - 2010.06.27 22:07:45.
