data_PCOD8063175
_publ_section_title
;
Structure prediction by ZEFSAII (Michael W. Deem and Ramdas Pophale) SiO2 
 PCOD8063175
Probable space group: P 2/M
;
_chemical_formula_sum "Si O2"
_cell_formula_units_Z 32
_cell_length_a 21.450098
_cell_length_b 9.424756
_cell_length_c 14.516206
_cell_angle_alpha 90.000000
_cell_angle_beta 35.447680
_cell_angle_gamma 90.000000
_cell_volume 1701.962689
_symmetry_space_group_name_H-M "P 2/M"
_symmetry_group_IT_number 10
_symmetry_cell_setting 'monoclinic'
loop_
_space_group_symop_operation_xyz
x,y,z
-x,y,-z
-x,-y,-z
x,-y,z
loop_
_atom_site_type_symbol
_atom_site_label
_atom_site_fract_x
_atom_site_fract_y
_atom_site_fract_z
Si Si1 0.187314 0.164722 0.592851
Si Si2 0.656068 0.166321 0.438444
Si Si3 0.995053 0.342324 0.405020
Si Si4 0.597668 0.835331 0.952138
Si Si5 0.950213 0.165757 0.826478
Si Si6 0.250246 0.341235 0.351565
Si Si7 0.443018 0.831328 0.791057
Si Si8 0.721084 0.168307 0.164125
O O1 0.234487 0.196702 0.636854
O O2 0.261107 0.252458 0.432791
O O3 0.061051 0.208234 0.745017
O O4 0.200875 0.000000 0.549478
O O5 0.552760 0.232122 0.614968
O O6 0.670309 0.232861 0.319185
O O7 0.636355 0.000000 0.452254
O O8 0.047052 0.500000 0.343365
O O9 0.873968 0.351929 0.519198
O O10 0.000000 0.273223 0.500000
O O11 0.061699 0.242956 0.256855
O O12 0.695244 0.740494 0.798571
O O13 0.632465 0.000000 0.912664
O O14 0.500000 0.811113 0.000000
O O15 0.568679 0.778783 0.089419
O O16 0.947458 0.000000 0.808888
O O17 0.846556 0.213656 0.010053
O O18 0.299133 0.500000 0.304273
O O19 0.344011 0.776104 0.846994
O O20 0.448176 0.000000 0.785826
O O21 0.712379 0.000000 0.178202
#
# Coordination Sequence:
#
# PCOD8063175 Si02
#       8
#     4   4   4   4   4   4   4   4
#     4   9  17  31  50  72  99 131 164 198 243 298
#     4   9  16  28  48  69  94 130 165 198 242 295
#     4   9  19  34  50  68  95 132 168 199 238 295
#     4  10  20  33  50  73 102 134 167 203 245 296
#     4   9  18  30  46  73 103 126 156 201 248 289
#     4  10  20  33  50  73  99 129 166 206 247 291
#     4   9  17  28  44  68  98 130 163 200 243 290
#     4   9  17  28  44  71 102 127 158 203 248 289
#
# _framework density 18.801822999999999
#
# number of rings (size 3 to 8) (size 9 to 14) (size 15 to 20)
#    0.000    2.750    0.000    1.500    1.750    5.000 
#    0.000    2.500    0.000    0.750    0.000    3.500 
#    0.000    4.000    0.000    0.000    0.000    0.000 
#
# Total GULP energy -396651.519557 kJ/mol
# GULP energy per Si atom -12395.359986 kJ/mol
# Density = 1.875903 g / cm^3
# Si number density = 18.801823 Si / 1000 Ang^3
#
#
#
# Elastic Constant Matrix: (Units=GPa)
#
#
# Indices 1 2 3 4 5 6 
#
# 1 113.6400 18.6159 60.6157 0.0000 20.3793 0.0000
# 2 18.6159 38.2448 31.5604 0.0000 5.4652 0.0000
# 3 60.6157 31.5604 141.6040 0.0000 16.3774 0.0000
# 4 0.0000 0.0000 0.0000 0.7115 0.0000 -1.4131
# 5 20.3793 5.4652 16.3774 0.0000 31.7569 0.0000
# 6 0.0000 0.0000 0.0000 -1.4131 0.0000 11.2081
#
#
#
# Elastic Compliance Matrix: (Units=1/GPa)
#
#
# Indices 1 2 3 4 5 6 
#
# 1 0.012328 -0.001702 -0.004272 0.000000 -0.005416 0.000000
# 2 -0.001702 0.032389 -0.006351 0.000000 -0.001207 0.000000
# 3 -0.004272 -0.006351 0.010488 0.000000 -0.001575 0.000000
# 4 0.000000 0.000000 0.000000 1.874886 0.000000 0.236375
# 5 -0.005416 -0.001207 -0.001575 0.000000 0.035984 0.000000
# 6 0.000000 0.000000 0.000000 0.236375 0.000000 0.119022
#
#
# Mechanical properties :
#
#
# Convention : Reuss Voigt Hill
#
# Bulk Modulus (GPa) = 32.72606 57.23030 44.97818
# Shear Modulus (GPa) = 2.35857 20.91507 11.63682
#
# Velocity S-wave (km/s) = 1.12123 3.33888 2.49051
# Velocity P-wave (km/s) = 4.37262 6.73565 5.67841
#
# Compressibility (1/GPa) = 0.03055669
#
# Stress axis : x y z
#
# Youngs Moduli (GPa) = 81.11499 30.87475 95.34694
#
# Poissons Ratio (x) = 0.05255 0.40728
# Poissons Ratio (y) = 0.13805 0.60552
# Poissons Ratio (z) = 0.34649 0.19608
#
# Static dielectric constant tensor:
#      x y z
#    x 3.583630 0.000000 0.100690 
#    y 0.000000 3.265650 0.000000 
#    z 0.100690 0.000000 3.643600 
# 
# 
# High freq. dielectric constant tensor:
#      x y z
#    x 1.735930 0.000000 0.001840 
#    y 0.000000 1.677590 0.000000 
#    z 0.001840 0.000000 1.733970 
# 
# From -- ./inp_files/71471.got.cif
#   From: 2010.06.25/outbox.cif.g09.slc.cpg/sg10_36_cif.got.tgz:71471.got - 2010.06.27 22:07:45.
