data_PCOD8063331
_publ_section_title
;
Structure prediction by ZEFSAII (Michael W. Deem and Ramdas Pophale) SiO2 
 PCOD8063331
Probable space group: P 2/M
;
_chemical_formula_sum "Si O2"
_cell_formula_units_Z 22
_cell_length_a 12.031864
_cell_length_b 18.729807
_cell_length_c 5.026766
_cell_angle_alpha 90.000000
_cell_angle_beta 93.510719
_cell_angle_gamma 90.000000
_cell_volume 1130.678425
_symmetry_space_group_name_H-M "P 2/M"
_symmetry_group_IT_number 10
_symmetry_cell_setting 'monoclinic'
loop_
_space_group_symop_operation_xyz
x,y,z
-x,y,-z
-x,-y,-z
x,-y,z
loop_
_atom_site_type_symbol
_atom_site_label
_atom_site_fract_x
_atom_site_fract_y
_atom_site_fract_z
Si Si1 0.132133 0.420712 0.507883
Si Si2 0.579590 0.000000 0.753331
Si Si3 0.620897 0.154391 0.649331
Si Si4 0.743459 0.194172 0.158044
Si Si5 0.131909 0.665132 0.003944
Si Si6 0.073266 0.079521 0.752517
O O1 0.180000 0.500000 0.456765
O O2 0.175057 0.364107 0.293849
O O3 0.000000 0.423704 0.500000
O O4 0.171863 0.394747 0.801293
O O5 0.500000 0.000000 0.500000
O O6 0.652640 0.928104 0.727030
O O7 0.500000 0.000000 0.000000
O O8 0.500000 0.161481 0.500000
O O9 0.702939 0.194325 0.456961
O O10 0.638092 0.191852 0.938885
O O11 0.819607 0.124633 0.151462
O O12 0.815823 0.261624 0.086316
O O13 0.000000 0.676712 0.000000
O O14 0.000000 0.113417 0.500000
O O15 0.113481 0.000000 0.673875
O O16 0.000000 0.075324 0.000000
#
# Coordination Sequence:
#
# PCOD8063331 Si02
#       6
#     4   2   4   4   4   4
#     4   9  17  31  52  78 113 152 182 216 264 320
#     4  10  20  38  58  76  98 130 176 238 300 338
#     4  11  24  39  57  80 108 138 185 245 295 348
#     4  12  23  36  59  80 111 149 186 229 287 340
#     4  10  20  33  52  82 117 149 185 220 263 329
#     4  10  22  38  54  75 107 145 189 228 261 317
#
# _framework density 19.457343999999999
#
# number of rings (size 3 to 8) (size 9 to 14) (size 15 to 20)
#    0.000    1.636    0.000    6.000    2.545    4.364 
#    0.000    0.000    0.000    0.000    0.000    0.000 
#    0.000   50.909    0.000    0.000    0.000    0.000 
#
# Total GULP energy -272562.382323 kJ/mol
# GULP energy per Si atom -12389.199197 kJ/mol
# Density = 1.941306 g / cm^3
# Si number density = 19.457344 Si / 1000 Ang^3
#
#
#
# Elastic Constant Matrix: (Units=GPa)
#
#
# Indices 1 2 3 4 5 6 
#
# 1 46.0165 32.8757 22.5224 0.0000 -6.0706 0.0000
# 2 32.8757 98.9592 34.1075 0.0000 -11.7472 0.0000
# 3 22.5224 34.1075 122.5715 0.0000 -12.0523 0.0000
# 4 0.0000 0.0000 0.0000 28.0221 0.0000 -21.2615
# 5 -6.0706 -11.7472 -12.0523 0.0000 35.3306 0.0000
# 6 0.0000 0.0000 0.0000 -21.2615 0.0000 -13.4823
#
#
#
# Elastic Compliance Matrix: (Units=1/GPa)
#
#
# Indices 1 2 3 4 5 6 
#
# 1 0.029491 -0.008658 -0.002891 0.000000 0.001202 0.000000
# 2 -0.008658 0.013983 -0.002058 0.000000 0.002459 0.000000
# 3 -0.002891 -0.002058 0.009464 0.000000 0.002047 0.000000
# 4 0.000000 0.000000 0.000000 0.016247 0.000000 -0.025621
# 5 0.001202 0.002459 0.002047 0.000000 0.030027 0.000000
# 6 0.000000 0.000000 0.000000 -0.025621 0.000000 -0.033767
#
#
# Mechanical properties :
#
#
# Convention : Reuss Voigt Hill
#
# Bulk Modulus (GPa) = 38.87715 49.61759 44.24737
# Shear Modulus (GPa) = 49.39127 21.84351 35.61739
#
# Velocity S-wave (km/s) = 5.04376 3.35421 4.28312
# Velocity P-wave (km/s) = 7.34462 6.36844 6.87388
#
# Compressibility (1/GPa) = 0.02572205
#
# Stress axis : x y z
#
# Youngs Moduli (GPa) = 33.90905 71.51635 105.66532
#
# Poissons Ratio (x) = 0.61918 0.30553
# Poissons Ratio (y) = 0.29358 0.21748
# Poissons Ratio (z) = 0.09805 0.14720
#
# Static dielectric constant tensor:
#      x y z
#    x 3.255760 0.000000 -0.123340 
#    y 0.000000 3.239060 0.000000 
#    z -0.123340 0.000000 3.926600 
# 
# 
# High freq. dielectric constant tensor:
#      x y z
#    x 1.713460 0.000000 -0.015050 
#    y 0.000000 1.748300 0.000000 
#    z -0.015050 0.000000 1.784970 
# 
# From -- ./inp_files/7272.got.cif
#   From: 2010.06.25/outbox.cif.g09.slc.cpg/sg10_4_cif.got.tgz:7272.got - 2010.06.27 22:07:45.
