data_PCOD8063634
_publ_section_title
;
Structure prediction by ZEFSAII (Michael W. Deem and Ramdas Pophale) SiO2 
 PCOD8063634
Probable space group: P 2/M
;
_chemical_formula_sum "Si O2"
_cell_formula_units_Z 32
_cell_length_a 23.472524
_cell_length_b 9.646748
_cell_length_c 21.579871
_cell_angle_alpha 90.000000
_cell_angle_beta 159.856642
_cell_angle_gamma 90.000000
_cell_volume 1682.732919
_symmetry_space_group_name_H-M "P 2/M"
_symmetry_group_IT_number 10
_symmetry_cell_setting 'monoclinic'
loop_
_space_group_symop_operation_xyz
x,y,z
-x,y,-z
-x,-y,-z
x,-y,z
loop_
_atom_site_type_symbol
_atom_site_label
_atom_site_fract_x
_atom_site_fract_y
_atom_site_fract_z
Si Si1 0.952701 0.839274 0.521489
Si Si2 0.211073 0.338423 0.456091
Si Si3 0.650724 0.345695 0.528991
Si Si4 0.568112 0.159985 0.136753
Si Si5 0.909299 0.337410 0.229752
Si Si6 0.462391 0.661845 0.139689
Si Si7 0.825409 0.345425 0.837980
Si Si8 0.410463 0.154510 0.342354
O O1 0.761484 0.805240 0.338208
O O2 0.000000 0.800551 0.500000
O O3 0.063159 0.744247 0.678485
O O4 0.992775 0.000000 0.575892
O O5 0.202509 0.500000 0.458561
O O6 0.215642 0.302922 0.387107
O O7 0.385376 0.282791 0.662328
O O8 0.043236 0.277600 0.316000
O O9 0.578653 0.500000 0.439062
O O10 0.723329 0.352636 0.671167
O O11 0.511274 0.227604 0.389835
O O12 0.466806 0.254793 0.080379
O O13 0.533468 0.000000 0.117551
O O14 0.500000 0.197094 0.000000
O O15 0.938569 0.500000 0.271952
O O16 0.718388 0.311872 0.013004
O O17 0.484604 0.500000 0.147578
O O18 0.842195 0.500000 0.883616
O O19 0.752600 0.246348 0.816021
O O20 0.000000 0.279251 0.000000
O O21 0.500000 0.150069 0.500000
O O22 0.365768 0.000000 0.274648
#
# Coordination Sequence:
#
# PCOD8063634 Si02
#       8
#     4   4   4   4   4   4   4   4
#     4  10  20  34  53  77 104 135 171 212 262 315
#     4   9  18  35  54  76 106 137 173 217 260 307
#     4   9  17  32  53  74 100 135 170 209 254 299
#     4  10  20  34  53  77 104 135 171 213 261 313
#     4  10  20  35  55  77 103 134 171 214 261 313
#     4  10  20  35  55  78 102 134 173 213 262 314
#     4   9  17  30  49  78 108 134 171 213 254 303
#     4   9  17  30  49  72  99 133 167 203 250 299
#
# _framework density 19.016684000000001
#
# number of rings (size 3 to 8) (size 9 to 14) (size 15 to 20)
#    0.000    2.500    1.250    1.125    0.000    3.750 
#    2.250    1.250    0.000    0.000    0.000    0.000 
#    0.000    0.000    0.000    0.000    0.000    0.000 
#
# Total GULP energy -396570.600877 kJ/mol
# GULP energy per Si atom -12392.831277 kJ/mol
# Density = 1.897340 g / cm^3
# Si number density = 19.016684 Si / 1000 Ang^3
#
#
#
# Elastic Constant Matrix: (Units=GPa)
#
#
# Indices 1 2 3 4 5 6 
#
# 1 86.0377 36.4824 19.3119 0.0000 35.5612 0.0000
# 2 36.4824 71.8968 22.8583 0.0000 21.3606 0.0000
# 3 19.3119 22.8583 76.6463 0.0000 33.9845 0.0000
# 4 0.0000 0.0000 0.0000 18.3764 0.0000 3.3524
# 5 35.5612 21.3606 33.9845 0.0000 32.0374 0.0000
# 6 0.0000 0.0000 0.0000 3.3524 0.0000 18.3606
#
#
#
# Elastic Compliance Matrix: (Units=1/GPa)
#
#
# Indices 1 2 3 4 5 6 
#
# 1 0.028292 -0.006312 0.012861 0.000000 -0.040838 0.000000
# 2 -0.006312 0.018753 -0.002955 0.000000 -0.002363 0.000000
# 3 0.012861 -0.002955 0.030480 0.000000 -0.044639 0.000000
# 4 0.000000 0.000000 0.000000 0.056293 0.000000 -0.010278
# 5 -0.040838 -0.002363 -0.044639 0.000000 0.125471 0.000000
# 6 0.000000 0.000000 0.000000 -0.010278 0.000000 0.056341
#
#
# Mechanical properties :
#
#
# Convention : Reuss Voigt Hill
#
# Bulk Modulus (GPa) = 11.80436 43.54288 27.67362
# Shear Modulus (GPa) = 14.85099 24.15009 19.50054
#
# Velocity S-wave (km/s) = 2.79757 3.56749 3.20573
# Velocity P-wave (km/s) = 4.08118 6.31793 5.31847
#
# Compressibility (1/GPa) = 0.08471449
#
# Stress axis : x y z
#
# Youngs Moduli (GPa) = 35.34598 53.32444 32.80845
#
# Poissons Ratio (x) = 0.33658 -0.42196
# Poissons Ratio (y) = 0.22310 0.09694
# Poissons Ratio (z) = -0.45460 0.15755
#
# Static dielectric constant tensor:
#      x y z
#    x 3.429400 0.000000 0.296750 
#    y 0.000000 3.478670 0.000000 
#    z 0.296750 0.000000 3.485960 
# 
# 
# High freq. dielectric constant tensor:
#      x y z
#    x 1.731260 0.000000 0.022100 
#    y 0.000000 1.722250 0.000000 
#    z 0.022100 0.000000 1.733540 
# 
# From -- ./inp_files/90598.got.cif
#   From: 2010.06.25/outbox.cif.g09.slc.cpg/sg10_46_cif.got.tgz:90598.got - 2010.06.27 22:07:45.
