data_PCOD8063791
_publ_section_title
;
Structure prediction by ZEFSAII (Michael W. Deem and Ramdas Pophale) SiO2 
 PCOD8063791
Probable space group: P 2/M
;
_chemical_formula_sum "Si O2"
_cell_formula_units_Z 28
_cell_length_a 18.214492
_cell_length_b 13.817175
_cell_length_c 9.084424
_cell_angle_alpha 90.000000
_cell_angle_beta 37.606820
_cell_angle_gamma 90.000000
_cell_volume 1395.192103
_symmetry_space_group_name_H-M "P 2/M"
_symmetry_group_IT_number 10
_symmetry_cell_setting 'monoclinic'
loop_
_space_group_symop_operation_xyz
x,y,z
-x,y,-z
-x,-y,-z
x,-y,z
loop_
_atom_site_type_symbol
_atom_site_label
_atom_site_fract_x
_atom_site_fract_y
_atom_site_fract_z
Si Si1 0.876631 0.704159 0.114611
Si Si2 0.226467 0.108853 0.829002
Si Si3 0.991036 0.390818 0.675422
Si Si4 0.138246 0.887809 0.291796
Si Si5 0.666736 0.798838 0.822388
Si Si6 0.439744 0.110611 0.292844
Si Si7 0.755910 0.390540 0.564238
O O1 0.850707 0.818226 0.148010
O O2 0.773669 0.646460 0.367839
O O3 0.000000 0.685673 0.000000
O O4 0.887502 0.663804 0.931706
O O5 0.366808 0.122246 0.561620
O O6 0.182691 0.000000 0.860983
O O7 0.210029 0.130737 0.026820
O O8 0.944672 0.500000 0.731401
O O9 0.118289 0.387169 0.552355
O O10 0.000000 0.341743 0.500000
O O11 0.203893 0.827654 0.315991
O O12 0.000000 0.852554 0.500000
O O13 0.141908 0.000000 0.330632
O O14 0.646151 0.859873 0.706501
O O15 0.665535 0.683721 0.789326
O O16 0.558569 0.822074 0.107952
O O17 0.481717 0.000000 0.205166
O O18 0.703132 0.500000 0.648220
#
# Coordination Sequence:
#
# PCOD8063791 Si02
#       7
#     4   4   4   4   4   4   4
#     4  10  20  34  55  79 116 159 191 239 296 351
#     4  10  22  37  55  84 119 152 193 238 286 354
#     4   9  19  34  56  83 111 151 199 243 291 351
#     4  10  23  38  57  90 127 154 185 236 300 360
#     4  11  21  37  62  85 113 157 196 242 297 337
#     4  10  21  40  63  86 113 151 210 248 276 343
#     4  10  21  36  54  83 115 149 197 249 295 349
#
# _framework density 20.068919999999999
#
# number of rings (size 3 to 8) (size 9 to 14) (size 15 to 20)
#    0.000    2.000    1.429    2.143    6.000    2.571 
#    0.000    3.571    0.000    0.000    0.000    1.000 
#    0.000    0.000    0.000    0.000    0.000    0.000 
#
# Total GULP energy -347124.570465 kJ/mol
# GULP energy per Si atom -12397.306088 kJ/mol
# Density = 2.002324 g / cm^3
# Si number density = 20.068920 Si / 1000 Ang^3
#
#
#
# Elastic Constant Matrix: (Units=GPa)
#
#
# Indices 1 2 3 4 5 6 
#
# 1 69.3275 30.3653 37.4106 0.0000 1.2849 0.0000
# 2 30.3653 149.8004 64.2216 0.0000 3.4489 0.0000
# 3 37.4106 64.2216 136.8303 0.0000 9.8284 0.0000
# 4 0.0000 0.0000 0.0000 31.8713 0.0000 -0.4809
# 5 1.2849 3.4489 9.8284 0.0000 26.7285 0.0000
# 6 0.0000 0.0000 0.0000 -0.4809 0.0000 20.5007
#
#
#
# Elastic Compliance Matrix: (Units=1/GPa)
#
#
# Indices 1 2 3 4 5 6 
#
# 1 0.017341 -0.001848 -0.003935 0.000000 0.000852 0.000000
# 2 -0.001848 0.008558 -0.003532 0.000000 0.000283 0.000000
# 3 -0.003935 -0.003532 0.010267 0.000000 -0.003130 0.000000
# 4 0.000000 0.000000 0.000000 0.031387 0.000000 0.000736
# 5 0.000852 0.000283 -0.003130 0.000000 0.038487 0.000000
# 6 0.000000 0.000000 0.000000 0.000736 0.000000 0.048796
#
#
# Mechanical properties :
#
#
# Convention : Reuss Voigt Hill
#
# Bulk Modulus (GPa) = 57.02427 68.88370 62.95399
# Shear Modulus (GPa) = 27.88455 30.75080 29.31767
#
# Velocity S-wave (km/s) = 3.73156 3.91866 3.82625
# Velocity P-wave (km/s) = 6.85872 7.40760 7.13844
#
# Compressibility (1/GPa) = 0.01753639
#
# Stress axis : x y z
#
# Youngs Moduli (GPa) = 57.66569 116.85421 97.40198
#
# Poissons Ratio (x) = 0.21591 0.38330
# Poissons Ratio (y) = 0.10655 0.34400
# Poissons Ratio (z) = 0.22693 0.41270
#
# Static dielectric constant tensor:
#      x y z
#    x 3.338660 0.000000 0.228070 
#    y 0.000000 3.818080 0.000000 
#    z 0.228070 0.000000 3.859670 
# 
# 
# High freq. dielectric constant tensor:
#      x y z
#    x 1.750560 0.000000 0.018850 
#    y 0.000000 1.790430 0.000000 
#    z 0.018850 0.000000 1.784470 
# 
# From -- ./inp_files/24884.got.cif
#   From: 2010.06.25/outbox.cif.g09.slc.cpg/sg10_13_cif.got.tgz:24884.got - 2010.06.27 22:07:45.
