data_PCOD8063383
_publ_section_title
;
Structure prediction by ZEFSAII (Michael W. Deem and Ramdas Pophale) SiO2 
 PCOD8063383
Probable space group: P 2/M
;
_chemical_formula_sum "Si O2"
_cell_formula_units_Z 28
_cell_length_a 14.128452
_cell_length_b 8.845765
_cell_length_c 17.629953
_cell_angle_alpha 90.000000
_cell_angle_beta 43.502062
_cell_angle_gamma 90.000000
_cell_volume 1516.735340
_symmetry_space_group_name_H-M "P 2/M"
_symmetry_group_IT_number 10
_symmetry_cell_setting 'monoclinic'
loop_
_space_group_symop_operation_xyz
x,y,z
-x,y,-z
-x,-y,-z
x,-y,z
loop_
_atom_site_type_symbol
_atom_site_label
_atom_site_fract_x
_atom_site_fract_y
_atom_site_fract_z
Si Si1 0.120123 0.677526 0.135876
Si Si2 0.357054 0.177161 0.702767
Si Si3 0.600767 0.325194 0.749301
Si Si4 0.170545 0.822528 0.670352
Si Si5 0.645717 0.680566 0.886228
Si Si6 0.293384 0.673084 0.891185
Si Si7 0.355453 0.320018 0.441316
O O1 0.091328 0.500000 0.163579
O O2 0.230774 0.737647 0.132700
O O3 0.984309 0.772702 0.226775
O O4 0.173286 0.711715 0.020129
O O5 0.260041 0.227363 0.690391
O O6 0.279745 0.221987 0.825363
O O7 0.501086 0.262090 0.607616
O O8 0.386518 0.000000 0.685184
O O9 0.636289 0.500000 0.726594
O O10 0.668776 0.257362 0.786433
O O11 0.437310 0.298619 0.849899
O O12 0.659124 0.255898 0.636716
O O13 0.227147 0.740768 0.562753
O O14 0.177261 0.000000 0.653146
O O15 0.639888 0.500000 0.890711
O O16 0.500000 0.745054 0.000000
O O17 0.284285 0.500000 0.868815
O O18 0.358273 0.500000 0.441298
#
# Coordination Sequence:
#
# PCOD8063383 Si02
#       7
#     4   4   4   4   4   4   4
#     4  10  20  33  54  82 109 139 177 218 261 307
#     4  10  21  36  55  77 102 139 181 216 260 317
#     4   8  14  27  50  82 110 130 161 211 265 310
#     4  11  24  39  52  70 105 148 182 215 260 317
#     4   9  14  26  53  84 110 134 164 210 263 311
#     4   9  17  31  52  81 110 135 170 219 265 306
#     4  10  20  35  58  83 105 131 173 225 266 305
#
# _framework density 18.460704
#
# number of rings (size 3 to 8) (size 9 to 14) (size 15 to 20)
#    0.000    2.429    1.429    2.571    0.000    5.143 
#    0.000    3.571    0.000    9.000    0.000    0.000 
#    0.000    0.000    0.000    0.000    0.000    0.000 
#
# Total GULP energy -347125.666417 kJ/mol
# GULP energy per Si atom -12397.345229 kJ/mol
# Density = 1.841869 g / cm^3
# Si number density = 18.460704 Si / 1000 Ang^3
#
#
#
# Elastic Constant Matrix: (Units=GPa)
#
#
# Indices 1 2 3 4 5 6 
#
# 1 45.1639 17.4325 34.4344 0.0000 12.4474 0.0000
# 2 17.4325 41.9348 26.5713 0.0000 2.5623 0.0000
# 3 34.4344 26.5713 115.2844 0.0000 4.8489 0.0000
# 4 0.0000 0.0000 0.0000 19.5125 0.0000 -2.5282
# 5 12.4474 2.5623 4.8489 0.0000 23.9184 0.0000
# 6 0.0000 0.0000 0.0000 -2.5282 0.0000 -0.5960
#
#
#
# Elastic Compliance Matrix: (Units=1/GPa)
#
#
# Indices 1 2 3 4 5 6 
#
# 1 0.036236 -0.008953 -0.008076 0.000000 -0.016262 0.000000
# 2 -0.008953 0.030205 -0.004385 0.000000 0.002312 0.000000
# 3 -0.008076 -0.004385 0.012003 0.000000 0.002239 0.000000
# 4 0.000000 0.000000 0.000000 0.033072 0.000000 -0.140292
# 5 -0.016262 0.002312 0.002239 0.000000 0.049570 0.000000
# 6 0.000000 0.000000 0.000000 -0.140292 0.000000 -1.082776
#
#
# Mechanical properties :
#
#
# Convention : Reuss Voigt Hill
#
# Bulk Modulus (GPa) = 28.07642 39.91771 33.99707
# Shear Modulus (GPa) = -5.76709 16.82997 5.53144
#
# Velocity S-wave (km/s) = -1.76940 3.02265 1.73287
# Velocity P-wave (km/s) = 3.32677 5.81824 4.73916
#
# Compressibility (1/GPa) = 0.03561707
#
# Stress axis : x y z
#
# Youngs Moduli (GPa) = 27.59652 33.10662 83.31288
#
# Poissons Ratio (x) = 0.29640 0.67284
# Poissons Ratio (y) = 0.24707 0.36533
# Poissons Ratio (z) = 0.22287 0.14517
#
# Static dielectric constant tensor:
#      x y z
#    x 3.552270 0.000000 0.302700 
#    y 0.000000 3.087410 0.000000 
#    z 0.302700 0.000000 3.538820 
# 
# 
# High freq. dielectric constant tensor:
#      x y z
#    x 1.712650 0.000000 0.018680 
#    y 0.000000 1.685480 0.000000 
#    z 0.018680 0.000000 1.720620 
# 
# From -- ./inp_files/68688.got.cif
#   From: 2010.06.25/outbox.cif.g09.slc.cpg/sg10_35_cif.got.tgz:68688.got - 2010.06.27 22:07:45.
