data_PCOD8063555
_publ_section_title
;
Structure prediction by ZEFSAII (Michael W. Deem and Ramdas Pophale) SiO2 
 PCOD8063555
Probable space group: P 2/M
;
_chemical_formula_sum "Si O2"
_cell_formula_units_Z 28
_cell_length_a 16.412726
_cell_length_b 9.380143
_cell_length_c 12.118972
_cell_angle_alpha 90.000000
_cell_angle_beta 50.389576
_cell_angle_gamma 90.000000
_cell_volume 1437.376999
_symmetry_space_group_name_H-M "P 2/M"
_symmetry_group_IT_number 10
_symmetry_cell_setting 'monoclinic'
loop_
_space_group_symop_operation_xyz
x,y,z
-x,y,-z
-x,-y,-z
x,-y,z
loop_
_atom_site_type_symbol
_atom_site_label
_atom_site_fract_x
_atom_site_fract_y
_atom_site_fract_z
Si Si1 0.568098 0.159441 0.551710
Si Si2 0.405773 0.662467 0.807808
Si Si3 0.272533 0.334867 0.710237
Si Si4 0.822728 0.169204 0.671122
Si Si5 0.379601 0.665266 0.079445
Si Si6 0.014063 0.167061 0.651014
Si Si7 0.079253 0.843240 0.833618
O O1 0.500000 0.158204 0.500000
O O2 0.505970 0.234453 0.705059
O O3 0.671940 0.250097 0.437077
O O4 0.598554 0.000000 0.562687
O O5 0.445680 0.500000 0.760546
O O6 0.318891 0.698980 0.790743
O O7 0.355820 0.689116 0.970415
O O8 0.279181 0.500000 0.675773
O O9 0.154423 0.279793 0.812794
O O10 0.708501 0.246010 0.777571
O O11 0.880965 0.216178 0.506834
O O12 0.902762 0.225409 0.698236
O O13 0.801730 0.000000 0.695139
O O14 0.368637 0.500000 0.122871
O O15 0.500000 0.717316 0.000000
O O16 0.023412 0.212977 0.770229
O O17 0.006001 0.000000 0.641832
O O18 0.132810 0.000000 0.764745
O O19 0.000000 0.866662 0.000000
#
# Coordination Sequence:
#
# PCOD8063555 Si02
#       7
#     4   4   4   4   4   4   4
#     4   9  17  31  52  77 102 132 177 222 256 307
#     4   9  19  35  53  74 106 146 177 215 270 324
#     4  10  20  34  52  75 106 145 182 215 265 327
#     4   9  18  36  62  82 105 143 188 227 268 327
#     4  10  22  38  54  78 112 143 177 227 282 326
#     4   8  17  36  58  83 111 143 179 226 280 322
#     4  10  21  35  53  80 113 142 175 222 274 320
#
# _framework density 19.479927
#
# number of rings (size 3 to 8) (size 9 to 14) (size 15 to 20)
#    0.000    2.714    0.000    1.714    2.000    4.571 
#    0.000    5.714    0.000    0.000    0.000    0.000 
#    0.000    0.000    0.000    0.000    0.000    0.000 
#
# Total GULP energy -347044.513486 kJ/mol
# GULP energy per Si atom -12394.446910 kJ/mol
# Density = 1.943559 g / cm^3
# Si number density = 19.479927 Si / 1000 Ang^3
#
#
#
# Elastic Constant Matrix: (Units=GPa)
#
#
# Indices 1 2 3 4 5 6 
#
# 1 93.3973 35.7582 50.5772 0.0000 -5.4820 0.0000
# 2 35.7582 74.1304 34.5149 0.0000 -9.7251 0.0000
# 3 50.5772 34.5149 99.6290 0.0000 -3.2556 0.0000
# 4 0.0000 0.0000 0.0000 21.7723 0.0000 -7.2082
# 5 -5.4820 -9.7251 -3.2556 0.0000 35.4009 0.0000
# 6 0.0000 0.0000 0.0000 -7.2082 0.0000 26.3949
#
#
#
# Elastic Compliance Matrix: (Units=1/GPa)
#
#
# Indices 1 2 3 4 5 6 
#
# 1 0.016046 -0.004621 -0.006525 0.000000 0.000615 0.000000
# 2 -0.004621 0.017976 -0.003755 0.000000 0.003877 0.000000
# 3 -0.006525 -0.003755 0.014627 0.000000 -0.000697 0.000000
# 4 0.000000 0.000000 0.000000 0.050495 0.000000 0.013790
# 5 0.000615 0.003877 -0.000697 0.000000 0.029344 0.000000
# 6 0.000000 0.000000 0.000000 0.013790 0.000000 0.041652
#
#
# Mechanical properties :
#
#
# Convention : Reuss Voigt Hill
#
# Bulk Modulus (GPa) = 53.05697 56.53967 54.79832
# Shear Modulus (GPa) = 24.24546 26.46738 25.35642
#
# Velocity S-wave (km/s) = 3.53177 3.69005 3.61178
# Velocity P-wave (km/s) = 6.62775 6.87335 6.75167
#
# Compressibility (1/GPa) = 0.01884767
#
# Stress axis : x y z
#
# Youngs Moduli (GPa) = 62.32234 55.63044 68.36471
#
# Poissons Ratio (x) = 0.25709 0.44605
# Poissons Ratio (y) = 0.28802 0.25669
# Poissons Ratio (z) = 0.40662 0.20887
#
# Static dielectric constant tensor:
#      x y z
#    x 3.557340 0.000000 0.143870 
#    y 0.000000 3.441120 0.000000 
#    z 0.143870 0.000000 3.638510 
# 
# 
# High freq. dielectric constant tensor:
#      x y z
#    x 1.749250 0.000000 0.002170 
#    y 0.000000 1.741520 0.000000 
#    z 0.002170 0.000000 1.757820 
# 
# From -- ./inp_files/49596.got.cif
#   From: 2010.06.25/outbox.cif.g09.slc.cpg/sg10_25_cif.got.tgz:49596.got - 2010.06.27 22:07:45.
