data_PCOD8063545
_publ_section_title
;
Structure prediction by ZEFSAII (Michael W. Deem and Ramdas Pophale) SiO2 
 PCOD8063545
Probable space group: P 2/M
;
_chemical_formula_sum "Si O2"
_cell_formula_units_Z 32
_cell_length_a 14.091232
_cell_length_b 9.045540
_cell_length_c 27.935770
_cell_angle_alpha 90.000000
_cell_angle_beta 149.619516
_cell_angle_gamma 90.000000
_cell_volume 1800.824409
_symmetry_space_group_name_H-M "P 2/M"
_symmetry_group_IT_number 10
_symmetry_cell_setting 'monoclinic'
loop_
_space_group_symop_operation_xyz
x,y,z
-x,y,-z
-x,-y,-z
x,-y,z
loop_
_atom_site_type_symbol
_atom_site_label
_atom_site_fract_x
_atom_site_fract_y
_atom_site_fract_z
Si Si1 0.928833 0.825219 0.093503
Si Si2 0.718402 0.671934 0.299340
Si Si3 0.372233 0.335137 0.087967
Si Si4 0.701634 0.827531 0.391040
Si Si5 0.339853 0.828829 0.288676
Si Si6 0.879920 0.328738 0.557585
Si Si7 0.427061 0.824281 0.520135
Si Si8 0.640417 0.665802 0.022507
O O1 0.139477 0.758351 0.187322
O O2 0.924651 0.000000 0.088959
O O3 0.819225 0.762702 0.998550
O O4 0.825664 0.768094 0.097193
O O5 0.697003 0.500000 0.304103
O O6 0.529796 0.732009 0.191518
O O7 0.750802 0.768191 0.360409
O O8 0.895147 0.692134 0.340428
O O9 0.316206 0.500000 0.080393
O O10 0.463077 0.340738 0.074164
O O11 0.481717 0.800743 0.306603
O O12 0.824027 0.740453 0.482568
O O13 0.752945 0.000000 0.416708
O O14 0.426101 0.765312 0.375813
O O15 0.304116 0.000000 0.282202
O O16 0.822538 0.500000 0.533251
O O17 0.775746 0.247553 0.556455
O O18 0.500000 0.772766 0.500000
O O19 0.402166 0.000000 0.511960
O O20 0.699133 0.500000 0.064572
O O21 0.500000 0.737834 0.000000
#
# Coordination Sequence:
#
# PCOD8063545 Si02
#       8
#     4   4   4   4   4   4   4   4
#     4   9  16  29  49  70  95 124 159 202 243 284
#     4  10  20  35  52  72 102 135 162 203 259 300
#     4   8  17  33  48  66  98 131 159 196 243 293
#     4  10  20  34  54  76  99 129 168 207 246 301
#     4   8  16  32  51  72  99 130 161 200 250 295
#     4  10  20  34  52  75 103 132 165 204 250 300
#     4   9  18  35  55  74 102 137 169 205 248 293
#     4   8  15  30  49  66  91 127 164 198 239 289
#
# _framework density 17.769639000000002
#
# number of rings (size 3 to 8) (size 9 to 14) (size 15 to 20)
#    0.750    2.250    0.000    1.875    0.000    3.500 
#    2.250    6.875    0.000    3.750    0.000    0.000 
#    0.000    0.000    0.000    0.000    0.000    0.000 
#
# Total GULP energy -396465.635218 kJ/mol
# GULP energy per Si atom -12389.551101 kJ/mol
# Density = 1.772919 g / cm^3
# Si number density = 17.769639 Si / 1000 Ang^3
#
#
#
# Elastic Constant Matrix: (Units=GPa)
#
#
# Indices 1 2 3 4 5 6 
#
# 1 85.9974 27.0136 29.9299 0.0000 6.4035 0.0000
# 2 27.0136 59.6102 29.7915 0.0000 6.5249 0.0000
# 3 29.9299 29.7915 88.3815 0.0000 16.5869 0.0000
# 4 0.0000 0.0000 0.0000 22.5752 0.0000 1.5383
# 5 6.4035 6.5249 16.5869 0.0000 24.0299 0.0000
# 6 0.0000 0.0000 0.0000 1.5383 0.0000 23.0627
#
#
#
# Elastic Compliance Matrix: (Units=1/GPa)
#
#
# Indices 1 2 3 4 5 6 
#
# 1 0.014271 -0.004867 -0.003132 0.000000 -0.000319 0.000000
# 2 -0.004867 0.021851 -0.005569 0.000000 -0.000793 0.000000
# 3 -0.003132 -0.005569 0.015868 0.000000 -0.008606 0.000000
# 4 0.000000 0.000000 0.000000 0.044499 0.000000 -0.002968
# 5 -0.000319 -0.000793 -0.008606 0.000000 0.047855 0.000000
# 6 0.000000 0.000000 0.000000 -0.002968 0.000000 0.043558
#
#
# Mechanical properties :
#
#
# Convention : Reuss Voigt Hill
#
# Bulk Modulus (GPa) = 40.23518 45.27323 42.75421
# Shear Modulus (GPa) = 22.38923 23.75051 23.06987
#
# Velocity S-wave (km/s) = 3.55346 3.65989 3.60707
# Velocity P-wave (km/s) = 6.28712 6.58733 6.43897
#
# Compressibility (1/GPa) = 0.02485387
#
# Stress axis : x y z
#
# Youngs Moduli (GPa) = 70.07240 45.76467 63.02175
#
# Poissons Ratio (x) = 0.22273 0.19741
# Poissons Ratio (y) = 0.34102 0.35094
# Poissons Ratio (z) = 0.21949 0.25485
#
# Static dielectric constant tensor:
#      x y z
#    x 3.221950 0.000000 0.137190 
#    y 0.000000 3.137960 0.000000 
#    z 0.137190 0.000000 3.379810 
# 
# 
# High freq. dielectric constant tensor:
#      x y z
#    x 1.674300 0.000000 0.011490 
#    y 0.000000 1.676630 0.000000 
#    z 0.011490 0.000000 1.676970 
# 
# From -- ./inp_files/95265.got.cif
#   From: 2010.06.25/outbox.cif.g09.slc.cpg/sg10_48_cif.got.tgz:95265.got - 2010.06.27 22:07:45.
