data_PCOD8063332
_publ_section_title
;
Structure prediction by ZEFSAII (Michael W. Deem and Ramdas Pophale) SiO2 
 PCOD8063332
Probable space group: P 2/M
;
_chemical_formula_sum "Si O2"
_cell_formula_units_Z 32
_cell_length_a 24.611480
_cell_length_b 9.238991
_cell_length_c 15.231879
_cell_angle_alpha 90.000000
_cell_angle_beta 27.679643
_cell_angle_gamma 90.000000
_cell_volume 1608.892873
_symmetry_space_group_name_H-M "P 2/M"
_symmetry_group_IT_number 10
_symmetry_cell_setting 'monoclinic'
loop_
_space_group_symop_operation_xyz
x,y,z
-x,y,-z
-x,-y,-z
x,-y,z
loop_
_atom_site_type_symbol
_atom_site_label
_atom_site_fract_x
_atom_site_fract_y
_atom_site_fract_z
Si Si1 0.548923 0.340897 0.021328
Si Si2 0.493473 0.333232 0.609424
Si Si3 0.946140 0.158811 0.980636
Si Si4 0.119418 0.167541 0.375705
Si Si5 0.803565 0.830646 0.421602
Si Si6 0.628774 0.169934 0.064712
Si Si7 0.746456 0.334158 0.329071
Si Si8 0.205727 0.657320 0.401686
O O1 0.488998 0.500000 0.125017
O O2 0.538009 0.235091 0.121144
O O3 0.500000 0.273044 0.000000
O O4 0.685688 0.367471 0.816959
O O5 0.500000 0.276229 0.500000
O O6 0.452260 0.500000 0.670691
O O7 0.400808 0.240794 0.798668
O O8 0.621369 0.314738 0.465898
O O9 0.843733 0.277380 0.120100
O O10 0.895550 0.000000 0.028217
O O11 0.000000 0.152309 0.000000
O O12 0.057489 0.198749 0.761214
O O13 0.113653 0.252439 0.476153
O O14 0.000000 0.214926 0.500000
O O15 0.118401 0.000000 0.402127
O O16 0.234613 0.201602 0.152050
O O17 0.752325 0.764223 0.406512
O O18 0.744587 0.747094 0.586453
O O19 0.773465 0.000000 0.465547
O O20 0.603705 0.000000 0.105043
O O21 0.774719 0.500000 0.312100
O O22 0.154168 0.500000 0.503500
#
# Coordination Sequence:
#
# PCOD8063332 Si02
#       8
#     4   4   4   4   4   4   4   4
#     4   9  19  35  55  80 115 154 185 220 275 340
#     4  10  23  43  61  79 112 155 194 237 294 348
#     4   8  16  32  51  73 104 142 178 215 270 333
#     4   9  19  39  62  82 114 153 187 227 285 344
#     4  10  20  34  53  79 115 151 180 220 283 344
#     4  10  21  37  60  89 114 145 191 241 286 333
#     4  10  20  34  56  80 105 142 188 235 283 334
#     4  10  20  33  52  83 115 144 186 231 270 324
#
# _framework density 19.889451999999999
#
# number of rings (size 3 to 8) (size 9 to 14) (size 15 to 20)
#    0.000    2.500    0.000    2.250    1.750    5.500 
#    2.250    0.000    0.000    0.000    0.000    0.000 
#    0.000    0.000    0.000    0.000    0.000    0.000 
#
# Total GULP energy -396581.077921 kJ/mol
# GULP energy per Si atom -12393.158685 kJ/mol
# Density = 1.984418 g / cm^3
# Si number density = 19.889452 Si / 1000 Ang^3
#
#
#
# Elastic Constant Matrix: (Units=GPa)
#
#
# Indices 1 2 3 4 5 6 
#
# 1 111.9395 59.9271 30.0895 0.0000 12.0864 0.0000
# 2 59.9271 125.7528 39.6742 0.0000 10.8387 0.0000
# 3 30.0895 39.6742 55.3646 0.0000 7.8607 0.0000
# 4 0.0000 0.0000 0.0000 30.3366 0.0000 3.5740
# 5 12.0864 10.8387 7.8607 0.0000 29.2117 0.0000
# 6 0.0000 0.0000 0.0000 3.5740 0.0000 23.7228
#
#
#
# Elastic Compliance Matrix: (Units=1/GPa)
#
#
# Indices 1 2 3 4 5 6 
#
# 1 0.012615 -0.004833 -0.003022 0.000000 -0.002613 0.000000
# 2 -0.004833 0.012230 -0.006006 0.000000 -0.000922 0.000000
# 3 -0.003022 -0.006006 0.024448 0.000000 -0.003100 0.000000
# 4 0.000000 0.000000 0.000000 0.033559 0.000000 -0.005056
# 5 -0.002613 -0.000922 -0.003100 0.000000 0.036490 0.000000
# 6 0.000000 0.000000 0.000000 -0.005056 0.000000 0.042915
#
#
# Mechanical properties :
#
#
# Convention : Reuss Voigt Hill
#
# Bulk Modulus (GPa) = 46.35769 61.38205 53.86987
# Shear Modulus (GPa) = 25.35874 27.54529 26.45201
#
# Velocity S-wave (km/s) = 3.57457 3.72549 3.65081
# Velocity P-wave (km/s) = 6.35570 7.03095 6.70184
#
# Compressibility (1/GPa) = 0.02157139
#
# Stress axis : x y z
#
# Youngs Moduli (GPa) = 79.26920 81.76801 40.90231
#
# Poissons Ratio (x) = 0.39520 0.12359
# Poissons Ratio (y) = 0.38313 0.24567
# Poissons Ratio (z) = 0.23952 0.49111
#
# Static dielectric constant tensor:
#      x y z
#    x 3.407250 0.000000 0.056030 
#    y 0.000000 3.857170 0.000000 
#    z 0.056030 0.000000 3.887240 
# 
# 
# High freq. dielectric constant tensor:
#      x y z
#    x 1.754880 0.000000 0.001990 
#    y 0.000000 1.781540 0.000000 
#    z 0.001990 0.000000 1.769950 
# 
# From -- ./inp_files/71557.got.cif
#   From: 2010.06.25/outbox.cif.g09.slc.cpg/sg10_36_cif.got.tgz:71557.got - 2010.06.27 22:07:45.
