data_PCOD8063239
_publ_section_title
;
Structure prediction by ZEFSAII (Michael W. Deem and Ramdas Pophale) SiO2 
 PCOD8063239
Probable space group: P 2/M
;
_chemical_formula_sum "Si O2"
_cell_formula_units_Z 24
_cell_length_a 9.641459
_cell_length_b 17.322787
_cell_length_c 12.371054
_cell_angle_alpha 90.000000
_cell_angle_beta 38.798470
_cell_angle_gamma 90.000000
_cell_volume 1294.630501
_symmetry_space_group_name_H-M "P 2/M"
_symmetry_group_IT_number 10
_symmetry_cell_setting 'monoclinic'
loop_
_space_group_symop_operation_xyz
x,y,z
-x,y,-z
-x,-y,-z
x,-y,z
loop_
_atom_site_type_symbol
_atom_site_label
_atom_site_fract_x
_atom_site_fract_y
_atom_site_fract_z
Si Si1 0.975825 0.000000 0.688106
Si Si2 0.635816 0.166604 0.705476
Si Si3 0.352452 0.306913 0.806978
Si Si4 0.953238 0.166603 0.705473
Si Si5 0.033596 0.306913 0.806975
Si Si6 0.664686 0.413965 0.500001
Si Si7 0.352037 0.000000 0.311890
O O1 0.924005 0.918657 0.779694
O O2 0.837256 0.000000 0.662745
O O3 0.234936 0.000000 0.499998
O O4 0.447583 0.228135 0.796480
O O5 0.744494 0.185022 0.755508
O O6 0.822155 0.169049 0.500001
O O7 0.516607 0.081343 0.779698
O O8 0.236157 0.287578 0.763844
O O9 0.546815 0.369458 0.670838
O O10 0.174556 0.341270 0.000002
O O11 0.959464 0.228134 0.796478
O O12 0.111514 0.369457 0.670834
O O13 0.500000 0.419645 0.500000
O O14 0.729229 0.500000 0.500000
#
# Coordination Sequence:
#
# PCOD8063239 Si02
#       7
#     2   4   4   4   4   4   2
#     4   7  12  24  44  71  98 127 169 212 243 280
#     4   9  16  29  51  75 100 133 171 209 248 290
#     4  10  20  33  51  76 104 132 163 202 248 297
#     4   9  16  29  51  75 100 133 171 209 248 290
#     4  10  20  33  51  76 104 132 163 202 248 297
#     4   9  18  34  55  76  99 128 162 203 249 297
#     4   7  12  24  44  71  98 127 169 212 243 280
#
# _framework density 18.538108999999999
#
# number of rings (size 3 to 8) (size 9 to 14) (size 15 to 20)
#    0.000    3.000    1.667    2.000    0.000    1.333 
#    0.000    5.000    0.000   10.000    0.000    2.333 
#    0.000    0.000    0.000    0.000    0.000    0.000 
#
# Total GULP energy -297346.085931 kJ/mol
# GULP energy per Si atom -12389.420247 kJ/mol
# Density = 1.849592 g / cm^3
# Si number density = 18.538109 Si / 1000 Ang^3
#
#
#
# Elastic Constant Matrix: (Units=GPa)
#
#
# Indices 1 2 3 4 5 6 
#
# 1 42.7054 41.2864 25.6265 0.0000 -1.2094 0.0000
# 2 41.2864 164.5762 60.6803 0.0000 -1.5287 0.0000
# 3 25.6265 60.6803 97.6384 0.0000 -3.1205 0.0000
# 4 0.0000 0.0000 0.0000 5.9050 0.0000 3.2753
# 5 -1.2094 -1.5287 -3.1205 0.0000 16.3604 0.0000
# 6 0.0000 0.0000 0.0000 3.2753 0.0000 47.4515
#
#
#
# Elastic Compliance Matrix: (Units=1/GPa)
#
#
# Indices 1 2 3 4 5 6 
#
# 1 0.032366 -0.006473 -0.004442 0.000000 0.000941 0.000000
# 2 -0.006473 0.009178 -0.004017 0.000000 -0.000387 0.000000
# 3 -0.004442 -0.004017 0.013967 0.000000 0.001960 0.000000
# 4 0.000000 0.000000 0.000000 0.176091 0.000000 -0.012155
# 5 0.000941 -0.000387 0.001960 0.000000 0.061530 0.000000
# 6 0.000000 0.000000 0.000000 -0.012155 0.000000 0.021913
#
#
# Mechanical properties :
#
#
# Convention : Reuss Voigt Hill
#
# Bulk Modulus (GPa) = 38.99163 62.23403 50.61283
# Shear Modulus (GPa) = 14.14592 25.76515 19.95554
#
# Velocity S-wave (km/s) = 2.76537 3.73211 3.28450
# Velocity P-wave (km/s) = 5.59243 7.22601 6.46106
#
# Compressibility (1/GPa) = 0.02564653
#
# Stress axis : x y z
#
# Youngs Moduli (GPa) = 30.89617 108.96055 71.59743
#
# Poissons Ratio (x) = 0.70531 0.31804
# Poissons Ratio (y) = 0.19999 0.28762
# Poissons Ratio (z) = 0.13724 0.43771
#
# Static dielectric constant tensor:
#      x y z
#    x 3.018390 0.000000 -0.024630 
#    y 0.000000 3.774770 0.000000 
#    z -0.024630 0.000000 3.330950 
# 
# 
# High freq. dielectric constant tensor:
#      x y z
#    x 1.671220 0.000000 -0.003160 
#    y 0.000000 1.724110 0.000000 
#    z -0.003160 0.000000 1.711350 
# 
# From -- ./inp_files/43239.got.cif
#   From: 2010.06.25/outbox.cif.g09.slc.cpg/sg10_22_cif.got.tgz:43239.got - 2010.06.27 22:07:45.
