data_PCOD8063090
_publ_section_title
;
Structure prediction by ZEFSAII (Michael W. Deem and Ramdas Pophale) SiO2 
 PCOD8063090
Probable space group: P 2/M
;
_chemical_formula_sum "Si O2"
_cell_formula_units_Z 32
_cell_length_a 23.671600
_cell_length_b 8.928084
_cell_length_c 16.614184
_cell_angle_alpha 90.000000
_cell_angle_beta 30.047896
_cell_angle_gamma 90.000000
_cell_volume 1758.179080
_symmetry_space_group_name_H-M "P 2/M"
_symmetry_group_IT_number 10
_symmetry_cell_setting 'monoclinic'
loop_
_space_group_symop_operation_xyz
x,y,z
-x,y,-z
-x,-y,-z
x,-y,z
loop_
_atom_site_type_symbol
_atom_site_label
_atom_site_fract_x
_atom_site_fract_y
_atom_site_fract_z
Si Si1 0.298498 0.665571 0.744005
Si Si2 0.255912 0.176981 0.478593
Si Si3 0.986843 0.828064 0.250962
Si Si4 0.596707 0.324222 0.115173
Si Si5 0.516205 0.175495 0.888486
Si Si6 0.369253 0.676431 0.485399
Si Si7 0.769163 0.821587 0.013221
Si Si8 0.042295 0.664438 0.032493
O O1 0.345952 0.500000 0.709759
O O2 0.366356 0.732221 0.582649
O O3 0.298674 0.768969 0.823103
O O4 0.174726 0.649034 0.862628
O O5 0.357483 0.219980 0.293809
O O6 0.275172 0.248983 0.543219
O O7 0.140132 0.236357 0.576652
O O8 0.246317 0.000000 0.504098
O O9 0.004128 0.799574 0.135713
O O10 0.987406 0.000000 0.273074
O O11 0.100263 0.757938 0.152585
O O12 0.618544 0.500000 0.086050
O O13 0.574319 0.265425 0.052856
O O14 0.492250 0.279677 0.300869
O O15 0.708269 0.242807 0.010019
O O16 0.493565 0.000000 0.904700
O O17 0.500000 0.226127 0.000000
O O18 0.347267 0.500000 0.509639
O O19 0.768339 0.000000 0.013812
O O20 0.992700 0.500000 0.119032
O O21 0.000000 0.718375 0.000000
#
# Coordination Sequence:
#
# PCOD8063090 Si02
#       8
#     4   4   4   4   4   4   4   4
#     4   9  17  29  43  61  89 125 165 205 242 277
#     4   9  17  30  49  73  99 124 153 192 238 285
#     4   9  18  30  44  64  91 124 159 195 232 273
#     4  10  20  34  52  73  97 125 158 195 236 282
#     4   9  18  34  57  82 103 121 144 181 233 290
#     4   9  18  31  47  68  94 125 161 202 245 285
#     4  10  20  33  47  65  93 130 170 203 233 272
#     4   9  16  25  39  59  84 118 160 202 239 275
#
# _framework density 18.200648999999999
#
# number of rings (size 3 to 8) (size 9 to 14) (size 15 to 20)
#    0.000    2.750    0.000    1.500    0.000    4.000 
#    0.000    5.000    0.000    0.750    0.000    5.250 
#    0.000    0.000    0.000    0.000    0.000    0.000 
#
# Total GULP energy -396423.867877 kJ/mol
# GULP energy per Si atom -12388.245871 kJ/mol
# Density = 1.815922 g / cm^3
# Si number density = 18.200649 Si / 1000 Ang^3
#
#
#
# Elastic Constant Matrix: (Units=GPa)
#
#
# Indices 1 2 3 4 5 6 
#
# 1 125.0501 36.7352 54.8783 0.0000 -13.3902 0.0000
# 2 36.7352 38.8782 20.1975 0.0000 -5.4932 0.0000
# 3 54.8783 20.1975 62.0153 0.0000 -12.3922 0.0000
# 4 0.0000 0.0000 0.0000 17.3927 0.0000 1.0275
# 5 -13.3902 -5.4932 -12.3922 0.0000 27.6597 0.0000
# 6 0.0000 0.0000 0.0000 1.0275 0.0000 23.8611
#
#
#
# Elastic Compliance Matrix: (Units=1/GPa)
#
#
# Indices 1 2 3 4 5 6 
#
# 1 0.015297 -0.008889 -0.010450 0.000000 0.000958 0.000000
# 2 -0.008889 0.036207 -0.003678 0.000000 0.001239 0.000000
# 3 -0.010450 -0.003678 0.027912 0.000000 0.006716 0.000000
# 4 0.000000 0.000000 0.000000 0.057642 0.000000 -0.002482
# 5 0.000958 0.001239 0.006716 0.000000 0.039873 0.000000
# 6 0.000000 0.000000 0.000000 -0.002482 0.000000 0.042016
#
#
# Mechanical properties :
#
#
# Convention : Reuss Voigt Hill
#
# Bulk Modulus (GPa) = 29.95689 49.95171 39.95430
# Shear Modulus (GPa) = 18.10895 21.39156 19.75025
#
# Velocity S-wave (km/s) = 3.15772 3.43201 3.29772
# Velocity P-wave (km/s) = 5.45802 6.57340 6.04150
#
# Compressibility (1/GPa) = 0.03338130
#
# Stress axis : x y z
#
# Youngs Moduli (GPa) = 65.37423 27.61926 35.82706
#
# Poissons Ratio (x) = 0.24552 0.37438
# Poissons Ratio (y) = 0.58114 0.13177
# Poissons Ratio (z) = 0.68313 0.10158
#
# Static dielectric constant tensor:
#      x y z
#    x 3.324700 0.000000 -0.269150 
#    y 0.000000 3.267580 0.000000 
#    z -0.269150 0.000000 3.470140 
# 
# 
# High freq. dielectric constant tensor:
#      x y z
#    x 1.693980 0.000000 -0.024180 
#    y 0.000000 1.693330 0.000000 
#    z -0.024180 0.000000 1.690460 
# 
# From -- ./inp_files/79947.got.cif
#   From: 2010.06.25/outbox.cif.g09.slc.cpg/sg10_40_cif.got.tgz:79947.got - 2010.06.27 22:07:45.
