data_PCOD8063715
_publ_section_title
;
Structure prediction by ZEFSAII (Michael W. Deem and Ramdas Pophale) SiO2 
 PCOD8063715
Probable space group: P 2/M
;
_chemical_formula_sum "Si O2"
_cell_formula_units_Z 32
_cell_length_a 12.328328
_cell_length_b 9.100060
_cell_length_c 30.944794
_cell_angle_alpha 90.000000
_cell_angle_beta 29.035965
_cell_angle_gamma 90.000000
_cell_volume 1684.995320
_symmetry_space_group_name_H-M "P 2/M"
_symmetry_group_IT_number 10
_symmetry_cell_setting 'monoclinic'
loop_
_space_group_symop_operation_xyz
x,y,z
-x,y,-z
-x,-y,-z
x,-y,z
loop_
_atom_site_type_symbol
_atom_site_label
_atom_site_fract_x
_atom_site_fract_y
_atom_site_fract_z
Si Si1 0.998490 0.166600 0.050288
Si Si2 0.643143 0.667028 0.022309
Si Si3 0.835330 0.328251 0.364983
Si Si4 0.322554 0.166189 0.765440
Si Si5 0.601226 0.671619 0.534630
Si Si6 0.029575 0.332385 0.166283
Si Si7 0.763273 0.171031 0.565216
Si Si8 0.814813 0.827102 0.807007
O O1 0.751320 0.183306 0.158358
O O2 0.086176 0.000000 0.027012
O O3 0.162323 0.284228 0.013662
O O4 0.000000 0.207044 0.000000
O O5 0.573019 0.500000 0.056836
O O6 0.435839 0.771677 0.101847
O O7 0.737733 0.680845 0.940815
O O8 0.885091 0.500000 0.343854
O O9 0.647397 0.284097 0.394779
O O10 0.764158 0.287751 0.438332
O O11 0.062484 0.237984 0.277802
O O12 0.584285 0.198649 0.666288
O O13 0.182706 0.283467 0.787139
O O14 0.266436 0.000000 0.769402
O O15 0.611378 0.500000 0.541608
O O16 0.677128 0.755561 0.551156
O O17 0.992213 0.500000 0.194512
O O18 0.041324 0.225877 0.202612
O O19 0.000000 0.235963 0.500000
O O20 0.791816 0.000000 0.544819
O O21 0.811220 0.000000 0.805343
#
# Coordination Sequence:
#
# PCOD8063715 Si02
#       8
#     4   4   4   4   4   4   4   4
#     4   9  18  35  57  79 105 140 182 229 273 319
#     4  10  21  36  53  75 107 143 179 222 269 320
#     4   9  19  37  58  80 109 143 179 223 278 333
#     4   9  18  34  55  78 105 141 183 223 269 324
#     4   9  19  37  60  81 105 141 183 228 276 329
#     4  10  20  34  54  78 106 141 179 222 270 318
#     4  10  21  36  53  78 113 149 183 228 281 327
#     4  12  23  33  50  80 112 143 178 216 265 325
#
# _framework density 18.991152
#
# number of rings (size 3 to 8) (size 9 to 14) (size 15 to 20)
#    0.000    2.250    0.000    3.750    0.000    7.000 
#    2.250    1.250    0.000    0.000    0.000    0.000 
#    0.000    0.000    0.000    0.000    0.000    0.000 
#
# Total GULP energy -396684.413708 kJ/mol
# GULP energy per Si atom -12396.387928 kJ/mol
# Density = 1.894793 g / cm^3
# Si number density = 18.991152 Si / 1000 Ang^3
#
#
#
# Elastic Constant Matrix: (Units=GPa)
#
#
# Indices 1 2 3 4 5 6 
#
# 1 68.2475 21.8691 41.2573 0.0000 12.2568 0.0000
# 2 21.8691 86.1366 48.7512 0.0000 4.6892 0.0000
# 3 41.2573 48.7512 134.3863 0.0000 1.9592 0.0000
# 4 0.0000 0.0000 0.0000 27.4070 0.0000 0.8033
# 5 12.2568 4.6892 1.9592 0.0000 25.1064 0.0000
# 6 0.0000 0.0000 0.0000 0.8033 0.0000 26.5336
#
#
#
# Elastic Compliance Matrix: (Units=1/GPa)
#
#
# Indices 1 2 3 4 5 6 
#
# 1 0.020085 -0.001497 -0.005491 0.000000 -0.009098 0.000000
# 2 -0.001497 0.014856 -0.004906 0.000000 -0.001661 0.000000
# 3 -0.005491 -0.004906 0.010867 0.000000 0.002749 0.000000
# 4 0.000000 0.000000 0.000000 0.036519 0.000000 -0.001106
# 5 -0.009098 -0.001661 0.002749 0.000000 0.044368 0.000000
# 6 0.000000 0.000000 0.000000 -0.001106 0.000000 0.037721
#
#
# Mechanical properties :
#
#
# Convention : Reuss Voigt Hill
#
# Bulk Modulus (GPa) = 45.40905 56.94731 51.17818
# Shear Modulus (GPa) = 25.56975 27.60226 26.58600
#
# Velocity S-wave (km/s) = 3.67332 3.81652 3.74560
# Velocity P-wave (km/s) = 6.47716 7.03366 6.76114
#
# Compressibility (1/GPa) = 0.02202204
#
# Stress axis : x y z
#
# Youngs Moduli (GPa) = 49.78780 67.31096 92.02578
#
# Poissons Ratio (x) = 0.10073 0.50529
# Poissons Ratio (y) = 0.07451 0.45146
# Poissons Ratio (z) = 0.27337 0.33021
#
# Static dielectric constant tensor:
#      x y z
#    x 3.243310 0.000000 0.137360 
#    y 0.000000 3.417700 0.000000 
#    z 0.137360 0.000000 3.822590 
# 
# 
# High freq. dielectric constant tensor:
#      x y z
#    x 1.710950 0.000000 0.010110 
#    y 0.000000 1.736870 0.000000 
#    z 0.010110 0.000000 1.756070 
# 
# From -- ./inp_files/94929.got.cif
#   From: 2010.06.25/outbox.cif.g09.slc.cpg/sg10_48_cif.got.tgz:94929.got - 2010.06.27 22:07:45.
