data_PCOD8063299
_publ_section_title
;
Structure prediction by ZEFSAII (Michael W. Deem and Ramdas Pophale) SiO2 
 PCOD8063299
Probable space group: P 2/M
;
_chemical_formula_sum "Si O2"
_cell_formula_units_Z 30
_cell_length_a 28.152118
_cell_length_b 9.959261
_cell_length_c 10.956702
_cell_angle_alpha 90.000000
_cell_angle_beta 32.568799
_cell_angle_gamma 90.000000
_cell_volume 1653.682194
_symmetry_space_group_name_H-M "P 2/M"
_symmetry_group_IT_number 10
_symmetry_cell_setting 'monoclinic'
loop_
_space_group_symop_operation_xyz
x,y,z
-x,y,-z
-x,-y,-z
x,-y,z
loop_
_atom_site_type_symbol
_atom_site_label
_atom_site_fract_x
_atom_site_fract_y
_atom_site_fract_z
Si Si1 0.000000 0.751286 0.000000
Si Si2 0.764128 0.155686 0.141692
Si Si3 0.415767 0.657477 0.834427
Si Si4 0.899792 0.355310 0.437154
Si Si5 0.909080 0.153930 0.632449
Si Si6 0.182458 0.849218 0.702596
Si Si7 0.723301 0.651483 0.675301
Si Si8 0.384459 0.658871 0.630727
O O1 0.968768 0.657573 0.177600
O O2 0.917379 0.839093 0.131617
O O3 0.814847 0.180392 0.158975
O O4 0.680668 0.253723 0.311557
O O5 0.734824 0.000000 0.193205
O O6 0.830526 0.198053 0.890931
O O7 0.401324 0.500000 0.860751
O O8 0.379748 0.710245 0.781521
O O9 0.518195 0.691667 0.631242
O O10 0.360694 0.713475 0.069440
O O11 0.917944 0.500000 0.460619
O O12 0.909717 0.235199 0.507688
O O13 0.800930 0.352017 0.604161
O O14 0.000000 0.184555 0.500000
O O15 0.900201 0.000000 0.613288
O O16 0.251536 0.747492 0.491049
O O17 0.215219 0.000000 0.604245
O O18 0.704735 0.500000 0.665712
O O19 0.363043 0.500000 0.665263
#
# Coordination Sequence:
#
# PCOD8063299 Si02
#       8
#     2   4   4   4   4   4   4   4
#     4  10  20  36  56  74 100 136 174 212 250 298
#     4  10  21  36  51  73 107 137 165 210 260 300
#     4   8  15  31  55  80 104 130 166 210 251 298
#     4  10  20  33  52  78 103 128 162 208 258 300
#     4  10  21  36  52  71  99 136 172 205 247 300
#     4  10  21  36  54  74  98 135 179 214 249 298
#     4   9  18  33  52  75 103 130 161 209 261 301
#     4   9  17  32  56  80 101 133 172 205 246 305
#
# _framework density 18.141331999999998
#
# number of rings (size 3 to 8) (size 9 to 14) (size 15 to 20)
#    0.000    2.533    0.000    2.800    0.000    6.667 
#    0.000    4.667    0.000    4.000    0.000    0.000 
#    0.000    0.000    0.000    0.000    0.000    0.000 
#
# Total GULP energy -371889.842184 kJ/mol
# GULP energy per Si atom -12396.328073 kJ/mol
# Density = 1.810004 g / cm^3
# Si number density = 18.141332 Si / 1000 Ang^3
#
#
#
# Elastic Constant Matrix: (Units=GPa)
#
#
# Indices 1 2 3 4 5 6 
#
# 1 81.7513 47.3144 42.6974 0.0000 8.8712 0.0000
# 2 47.3144 87.0024 52.6194 0.0000 7.8936 0.0000
# 3 42.6974 52.6194 132.6684 0.0000 12.8491 0.0000
# 4 0.0000 0.0000 0.0000 22.1116 0.0000 1.7036
# 5 8.8712 7.8936 12.8491 0.0000 23.5259 0.0000
# 6 0.0000 0.0000 0.0000 1.7036 0.0000 30.2789
#
#
#
# Elastic Compliance Matrix: (Units=1/GPa)
#
#
# Indices 1 2 3 4 5 6 
#
# 1 0.018686 -0.008461 -0.002376 0.000000 -0.002909 0.000000
# 2 -0.008461 0.019033 -0.004769 0.000000 -0.000591 0.000000
# 3 -0.002376 -0.004769 0.010508 0.000000 -0.003243 0.000000
# 4 0.000000 0.000000 0.000000 0.045422 0.000000 -0.002556
# 5 -0.002909 -0.000591 -0.003243 0.000000 0.045573 0.000000
# 6 0.000000 0.000000 0.000000 -0.002556 0.000000 0.033170
#
#
# Mechanical properties :
#
#
# Convention : Reuss Voigt Hill
#
# Bulk Modulus (GPa) = 58.77111 65.18716 61.97913
# Shear Modulus (GPa) = 23.89207 25.76932 24.83070
#
# Velocity S-wave (km/s) = 3.63298 3.77301 3.70366
# Velocity P-wave (km/s) = 7.07564 7.41564 7.24763
#
# Compressibility (1/GPa) = 0.01701516
#
# Stress axis : x y z
#
# Youngs Moduli (GPa) = 53.51682 52.54070 95.16733
#
# Poissons Ratio (x) = 0.44453 0.22614
# Poissons Ratio (y) = 0.45279 0.45382
# Poissons Ratio (z) = 0.12717 0.25055
#
# Static dielectric constant tensor:
#      x y z
#    x 3.046970 0.000000 0.005110 
#    y 0.000000 3.282220 0.000000 
#    z 0.005110 0.000000 3.687560 
# 
# 
# High freq. dielectric constant tensor:
#      x y z
#    x 1.688750 0.000000 0.004530 
#    y 0.000000 1.691100 0.000000 
#    z 0.004530 0.000000 1.712430 
# 
# From -- ./inp_files/57980.got.cif
#   From: 2010.06.25/outbox.cif.g09.slc.cpg/sg10_29_cif.got.tgz:57980.got - 2010.06.27 22:07:45.
