data_PCOD8063961
_publ_section_title
;
Structure prediction by ZEFSAII (Michael W. Deem and Ramdas Pophale) SiO2 
 PCOD8063961
Probable space group: P 2/M
;
_chemical_formula_sum "Si O2"
_cell_formula_units_Z 28
_cell_length_a 11.769311
_cell_length_b 9.156538
_cell_length_c 13.389934
_cell_angle_alpha 90.000000
_cell_angle_beta 103.532238
_cell_angle_gamma 90.000000
_cell_volume 1402.922095
_symmetry_space_group_name_H-M "P 2/M"
_symmetry_group_IT_number 10
_symmetry_cell_setting 'monoclinic'
loop_
_space_group_symop_operation_xyz
x,y,z
-x,y,-z
-x,-y,-z
x,-y,z
loop_
_atom_site_type_symbol
_atom_site_label
_atom_site_fract_x
_atom_site_fract_y
_atom_site_fract_z
Si Si1 0.305101 0.827346 0.660408
Si Si2 0.608189 0.173567 0.958896
Si Si3 0.209146 0.170987 0.848815
Si Si4 0.572802 0.172374 0.728615
Si Si5 0.034624 0.829352 0.117824
Si Si6 0.789086 0.669406 0.712790
Si Si7 0.125167 0.669147 0.486769
O O1 0.260335 0.761781 0.757197
O O2 0.440497 0.786123 0.672228
O O3 0.230487 0.756808 0.557635
O O4 0.286502 0.000000 0.653082
O O5 0.724684 0.231199 0.038891
O O6 0.602377 0.000000 0.951559
O O7 0.500000 0.234637 0.000000
O O8 0.600918 0.233469 0.845183
O O9 0.072473 0.205613 0.829804
O O10 0.234257 0.000000 0.851079
O O11 0.662407 0.254525 0.673163
O O12 0.592829 0.000000 0.723381
O O13 0.145859 0.741106 0.179306
O O14 0.067810 0.000000 0.123797
O O15 0.000000 0.777710 0.000000
O O16 0.770300 0.500000 0.730687
O O17 0.866295 0.695155 0.629881
O O18 0.139509 0.500000 0.518027
O O19 0.000000 0.728320 0.500000
#
# Coordination Sequence:
#
# PCOD8063961 Si02
#       7
#     4   4   4   4   4   4   4
#     4  10  20  34  57  88 113 140 183 235 284 329
#     4   9  14  26  51  82 116 149 178 214 264 325
#     4   9  16  28  50  83 116 143 178 225 276 329
#     4  10  20  35  57  86 118 149 184 227 280 336
#     4  10  20  35  57  86 116 146 183 226 277 334
#     4  11  24  40  58  80 110 150 191 231 279 332
#     4  10  23  43  62  79 105 146 192 234 282 338
#
# _framework density 19.958342999999999
#
# number of rings (size 3 to 8) (size 9 to 14) (size 15 to 20)
#    0.000    2.143    1.429    2.143    0.000    5.143 
#    0.000    2.857    0.000    1.286    0.000    0.000 
#    0.000    0.000    0.000    0.000    0.000    0.000 
#
# Total GULP energy -347200.272823 kJ/mol
# GULP energy per Si atom -12400.009744 kJ/mol
# Density = 1.991292 g / cm^3
# Si number density = 19.958343 Si / 1000 Ang^3
#
#
#
# Elastic Constant Matrix: (Units=GPa)
#
#
# Indices 1 2 3 4 5 6 
#
# 1 126.0454 46.9157 43.0099 0.0000 5.2380 0.0000
# 2 46.9157 50.9001 40.4539 0.0000 7.1752 0.0000
# 3 43.0099 40.4539 100.7682 0.0000 16.7723 0.0000
# 4 0.0000 0.0000 0.0000 13.2117 0.0000 -1.9811
# 5 5.2380 7.1752 16.7723 0.0000 33.9924 0.0000
# 6 0.0000 0.0000 0.0000 -1.9811 0.0000 22.2615
#
#
#
# Elastic Compliance Matrix: (Units=1/GPa)
#
#
# Indices 1 2 3 4 5 6 
#
# 1 0.012172 -0.010424 -0.001160 0.000000 0.000897 0.000000
# 2 -0.010424 0.037784 -0.010524 0.000000 -0.001177 0.000000
# 3 -0.001160 -0.010524 0.015519 0.000000 -0.005257 0.000000
# 4 0.000000 0.000000 0.000000 0.076714 0.000000 0.006827
# 5 0.000897 -0.001177 -0.005257 0.000000 0.032122 0.000000
# 6 0.000000 0.000000 0.000000 0.006827 0.000000 0.045528
#
#
# Mechanical properties :
#
#
# Convention : Reuss Voigt Hill
#
# Bulk Modulus (GPa) = 47.03673 59.83028 53.43351
# Shear Modulus (GPa) = 18.44063 23.71540 21.07801
#
# Velocity S-wave (km/s) = 3.04296 3.45083 3.25330
# Velocity P-wave (km/s) = 5.99706 6.77645 6.39864
#
# Compressibility (1/GPa) = 0.02125998
#
# Stress axis : x y z
#
# Youngs Moduli (GPa) = 82.15559 26.46631 64.43895
#
# Poissons Ratio (x) = 0.27588 0.07474
# Poissons Ratio (y) = 0.85638 0.67813
# Poissons Ratio (z) = 0.09529 0.27852
#
# Static dielectric constant tensor:
#      x y z
#    x 3.819110 0.000000 -0.037780 
#    y 0.000000 3.157200 0.000000 
#    z -0.037780 0.000000 3.611240 
# 
# 
# High freq. dielectric constant tensor:
#      x y z
#    x 1.796850 0.000000 0.001370 
#    y 0.000000 1.728620 0.000000 
#    z 0.001370 0.000000 1.780470 
# 
# From -- ./inp_files/55872.got.cif
#   From: 2010.06.25/outbox.cif.g09.slc.cpg/sg10_28_cif.got.tgz:55872.got - 2010.06.27 22:07:45.
