data_PCOD8063360
_publ_section_title
;
Structure prediction by ZEFSAII (Michael W. Deem and Ramdas Pophale) SiO2 
 PCOD8063360
Probable space group: P 2/M
;
_chemical_formula_sum "Si O2"
_cell_formula_units_Z 28
_cell_length_a 9.995666
_cell_length_b 13.270660
_cell_length_c 14.918340
_cell_angle_alpha 90.000000
_cell_angle_beta 130.643698
_cell_angle_gamma 90.000000
_cell_volume 1501.542518
_symmetry_space_group_name_H-M "P 2/M"
_symmetry_group_IT_number 10
_symmetry_cell_setting 'monoclinic'
loop_
_space_group_symop_operation_xyz
x,y,z
-x,y,-z
-x,-y,-z
x,-y,z
loop_
_atom_site_type_symbol
_atom_site_label
_atom_site_fract_x
_atom_site_fract_y
_atom_site_fract_z
Si Si1 0.321583 0.382281 0.978686
Si Si2 0.064354 0.116162 0.427912
Si Si3 0.468399 0.614559 0.226738
Si Si4 0.360619 0.303608 0.358438
Si Si5 0.531857 0.107977 0.410709
Si Si6 0.150841 0.614674 0.623688
Si Si7 0.970176 0.291746 0.260489
O O1 0.260879 0.500000 0.947331
O O2 0.170497 0.303567 0.880843
O O3 0.500000 0.366867 0.000000
O O4 0.349857 0.343843 0.093556
O O5 0.269500 0.145546 0.516399
O O6 0.000000 0.135590 0.500000
O O7 0.960032 0.185344 0.309901
O O8 0.035285 0.000000 0.386209
O O9 0.505128 0.500000 0.215297
O O10 0.378969 0.617224 0.285605
O O11 0.660706 0.669050 0.310882
O O12 0.500000 0.322870 0.500000
O O13 0.397436 0.196494 0.323672
O O14 0.165723 0.311527 0.310781
O O15 0.500000 0.088854 0.500000
O O16 0.497311 0.000000 0.345361
O O17 0.164109 0.500000 0.596437
O O18 0.089435 0.618765 0.699429
O O19 0.000000 0.671962 0.500000
#
# Coordination Sequence:
#
# PCOD8063360 Si02
#       7
#     4   4   4   4   4   4   4
#     4  10  21  40  61  81 105 151 211 247 279 334
#     4  10  21  35  56  89 121 150 190 239 294 352
#     4  10  22  39  56  77 115 154 192 241 284 342
#     4  11  22  35  54  88 120 148 185 234 297 353
#     4   9  17  34  55  78 115 152 178 218 283 353
#     4  10  20  33  53  81 109 143 183 231 293 348
#     4  12  21  33  59  83 111 149 193 240 281 332
#
# _framework density 18.647490999999999
#
# number of rings (size 3 to 8) (size 9 to 14) (size 15 to 20)
#    0.000    1.714    4.286    1.714    2.000    2.000 
#    0.000    1.429    0.000    1.286    0.000    2.000 
#    0.000    0.000    0.000    0.000    0.000    0.000 
#
# Total GULP energy -346913.402370 kJ/mol
# GULP energy per Si atom -12389.764370 kJ/mol
# Density = 1.860505 g / cm^3
# Si number density = 18.647491 Si / 1000 Ang^3
#
#
#
# Elastic Constant Matrix: (Units=GPa)
#
#
# Indices 1 2 3 4 5 6 
#
# 1 131.4443 17.2423 57.4786 0.0000 5.1911 0.0000
# 2 17.2423 44.7197 27.3945 0.0000 4.7605 0.0000
# 3 57.4786 27.3945 130.5351 0.0000 -2.1352 0.0000
# 4 0.0000 0.0000 0.0000 23.6653 0.0000 -0.2852
# 5 5.1911 4.7605 -2.1352 0.0000 31.6139 0.0000
# 6 0.0000 0.0000 0.0000 -0.2852 0.0000 20.9762
#
#
#
# Elastic Compliance Matrix: (Units=1/GPa)
#
#
# Indices 1 2 3 4 5 6 
#
# 1 0.009570 -0.001047 -0.004022 0.000000 -0.001686 0.000000
# 2 -0.001047 0.026353 -0.005137 0.000000 -0.004143 0.000000
# 3 -0.004022 -0.005137 0.010545 0.000000 0.002146 0.000000
# 4 0.000000 0.000000 0.000000 0.042263 0.000000 0.000575
# 5 -0.001686 -0.004143 0.002146 0.000000 0.032677 0.000000
# 6 0.000000 0.000000 0.000000 0.000575 0.000000 0.047681
#
#
# Mechanical properties :
#
#
# Convention : Reuss Voigt Hill
#
# Bulk Modulus (GPa) = 38.37844 56.77000 47.57422
# Shear Modulus (GPa) = 25.22858 28.88998 27.05928
#
# Velocity S-wave (km/s) = 3.68220 3.94035 3.81346
# Velocity P-wave (km/s) = 6.22124 7.15623 6.70505
#
# Compressibility (1/GPa) = 0.02605630
#
# Stress axis : x y z
#
# Youngs Moduli (GPa) = 104.48838 37.94595 94.83100
#
# Poissons Ratio (x) = 0.03972 0.38142
# Poissons Ratio (y) = 0.10937 0.48719
# Poissons Ratio (z) = 0.42026 0.19495
#
# Static dielectric constant tensor:
#      x y z
#    x 3.414610 0.000000 0.047940 
#    y 0.000000 3.683470 0.000000 
#    z 0.047940 0.000000 3.468690 
# 
# 
# High freq. dielectric constant tensor:
#      x y z
#    x 1.738130 0.000000 0.001980 
#    y 0.000000 1.708680 0.000000 
#    z 0.001980 0.000000 1.697820 
# 
# From -- ./inp_files/29619.got.cif
#   From: 2010.06.25/outbox.cif.g09.slc.cpg/sg10_15_cif.got.tgz:29619.got - 2010.06.27 22:07:45.
