data_PCOD8063147
_publ_section_title
;
Structure prediction by ZEFSAII (Michael W. Deem and Ramdas Pophale) SiO2 
 PCOD8063147
Probable space group: P 2/M
;
_chemical_formula_sum "Si O2"
_cell_formula_units_Z 28
_cell_length_a 32.771021
_cell_length_b 9.292126
_cell_length_c 9.753087
_cell_angle_alpha 90.000000
_cell_angle_beta 31.770317
_cell_angle_gamma 90.000000
_cell_volume 1563.717365
_symmetry_space_group_name_H-M "P 2/M"
_symmetry_group_IT_number 10
_symmetry_cell_setting 'monoclinic'
loop_
_space_group_symop_operation_xyz
x,y,z
-x,y,-z
-x,-y,-z
x,-y,z
loop_
_atom_site_type_symbol
_atom_site_label
_atom_site_fract_x
_atom_site_fract_y
_atom_site_fract_z
Si Si1 0.237851 0.671651 0.722227
Si Si2 0.586547 0.672623 0.272506
Si Si3 0.312063 0.660334 0.777832
Si Si4 0.938216 0.330819 0.791748
Si Si5 0.830534 0.339331 0.613951
Si Si6 0.719716 0.328863 0.696486
Si Si7 0.020582 0.834601 0.784086
O O1 0.243553 0.500000 0.707095
O O2 0.292270 0.737334 0.688675
O O3 0.269400 0.734324 0.487506
O O4 0.148496 0.715360 0.004173
O O5 0.500000 0.732885 0.500000
O O6 0.588358 0.500000 0.272582
O O7 0.621318 0.734456 0.317798
O O8 0.639415 0.726910 0.994116
O O9 0.341135 0.500000 0.660973
O O10 0.233529 0.653743 0.086828
O O11 0.943721 0.500000 0.805318
O O12 0.000000 0.283554 0.500000
O O13 0.956465 0.248215 0.879540
O O14 0.865333 0.500000 0.493068
O O15 0.792679 0.280196 0.580944
O O16 0.895453 0.232229 0.482707
O O17 0.718387 0.500000 0.697005
O O18 0.022141 0.000000 0.734804
O O19 0.000000 0.813335 0.000000
#
# Coordination Sequence:
#
# PCOD8063147 Si02
#       7
#     4   4   4   4   4   4   4
#     4   9  15  24  38  58  81 102 136 187 227 254
#     4   8  13  22  35  53  81 114 142 167 204 259
#     4   8  14  24  40  60  80 104 137 178 217 254
#     4  10  20  33  50  69  87 115 158 201 237 274
#     4   9  16  29  47  62  79 111 154 190 220 261
#     4   8  14  23  38  59  80 106 141 180 219 256
#     4  11  23  34  44  64  94 123 151 189 237 281
#
# _framework density 17.906048999999999
#
# number of rings (size 3 to 8) (size 9 to 14) (size 15 to 20)
#    0.000    3.000    0.000    3.857    0.000    4.857 
#    0.000    0.714    0.000    4.286    0.000    0.000 
#    0.000    9.143    0.000    0.000    0.000   50.571 
#
# Total GULP energy -346968.956929 kJ/mol
# GULP energy per Si atom -12391.748462 kJ/mol
# Density = 1.786529 g / cm^3
# Si number density = 17.906049 Si / 1000 Ang^3
#
#
#
# Elastic Constant Matrix: (Units=GPa)
#
#
# Indices 1 2 3 4 5 6 
#
# 1 158.6821 18.8492 63.9383 0.0000 4.2028 0.0000
# 2 18.8492 26.5759 9.8823 0.0000 -0.9584 0.0000
# 3 63.9383 9.8823 79.1303 0.0000 -2.4753 0.0000
# 4 0.0000 0.0000 0.0000 4.1339 0.0000 4.2741
# 5 4.2028 -0.9584 -2.4753 0.0000 33.0447 0.0000
# 6 0.0000 0.0000 0.0000 4.2741 0.0000 6.6563
#
#
#
# Elastic Compliance Matrix: (Units=1/GPa)
#
#
# Indices 1 2 3 4 5 6 
#
# 1 0.009892 -0.004291 -0.007518 0.000000 -0.001946 0.000000
# 2 -0.004291 0.041342 -0.001645 0.000000 0.001622 0.000000
# 3 -0.007518 -0.001645 0.018991 0.000000 0.002331 0.000000
# 4 0.000000 0.000000 0.000000 0.719690 0.000000 -0.462123
# 5 -0.001946 0.001622 0.002331 0.000000 0.030731 0.000000
# 6 0.000000 0.000000 0.000000 -0.462123 0.000000 0.446970
#
#
# Mechanical properties :
#
#
# Convention : Reuss Voigt Hill
#
# Bulk Modulus (GPa) = 23.08613 49.96977 36.52795
# Shear Modulus (GPa) = 3.81982 20.21488 12.01735
#
# Velocity S-wave (km/s) = 1.46215 3.36362 2.59343
# Velocity P-wave (km/s) = 3.97133 6.56144 5.42328
#
# Compressibility (1/GPa) = 0.04331606
#
# Stress axis : x y z
#
# Youngs Moduli (GPa) = 101.08677 24.18870 52.65758
#
# Poissons Ratio (x) = 0.10379 0.39589
# Poissons Ratio (y) = 0.43374 0.08664
# Poissons Ratio (z) = 0.76000 0.03980
#
# Static dielectric constant tensor:
#      x y z
#    x 3.773300 0.000000 0.108690 
#    y 0.000000 2.709960 0.000000 
#    z 0.108690 0.000000 3.359390 
# 
# 
# High freq. dielectric constant tensor:
#      x y z
#    x 1.709210 0.000000 0.007300 
#    y 0.000000 1.617070 0.000000 
#    z 0.007300 0.000000 1.683660 
# 
# From -- ./inp_files/37941.got.cif
#   From: 2010.06.25/outbox.cif.g09.slc.cpg/sg10_19_cif.got.tgz:37941.got - 2010.06.27 22:07:45.
