data_PCOD8063932
_publ_section_title
;
Structure prediction by ZEFSAII (Michael W. Deem and Ramdas Pophale) SiO2 
 PCOD8063932
Probable space group: P 2/M
;
_chemical_formula_sum "Si O2"
_cell_formula_units_Z 28
_cell_length_a 15.879544
_cell_length_b 8.873159
_cell_length_c 12.472041
_cell_angle_alpha 90.000000
_cell_angle_beta 123.871770
_cell_angle_gamma 90.000000
_cell_volume 1459.089906
_symmetry_space_group_name_H-M "P 2/M"
_symmetry_group_IT_number 10
_symmetry_cell_setting 'monoclinic'
loop_
_space_group_symop_operation_xyz
x,y,z
-x,y,-z
-x,-y,-z
x,-y,z
loop_
_atom_site_type_symbol
_atom_site_label
_atom_site_fract_x
_atom_site_fract_y
_atom_site_fract_z
Si Si1 0.507449 0.172876 0.173322
Si Si2 0.913123 0.325420 0.790657
Si Si3 0.715762 0.823621 0.052812
Si Si4 0.774997 0.821423 0.524420
Si Si5 0.858862 0.674744 0.989541
Si Si6 0.714444 0.322583 0.268752
Si Si7 0.439933 0.826325 0.555080
O O1 0.596411 0.277656 0.192371
O O2 0.493833 0.195109 0.290998
O O3 0.537652 0.000000 0.168999
O O4 0.402627 0.217997 0.043648
O O5 0.893167 0.500000 0.751665
O O6 0.870188 0.225843 0.663457
O O7 0.859812 0.280268 0.864860
O O8 0.032090 0.291258 0.881435
O O9 0.758427 0.736240 0.186716
O O10 0.731022 0.000000 0.080119
O O11 0.775085 0.774281 0.988728
O O12 0.781869 0.750182 0.410950
O O13 0.672352 0.757563 0.507687
O O14 0.771257 0.000000 0.507746
O O15 0.831302 0.500000 0.983278
O O16 0.726378 0.500000 0.283238
O O17 0.500000 0.744963 0.500000
O O18 0.424700 0.000000 0.514311
#
# Coordination Sequence:
#
# PCOD8063932 Si02
#       7
#     4   4   4   4   4   4   4
#     4   9  19  34  52  77 111 148 183 224 274 321
#     4   9  19  38  60  81 112 149 182 221 273 332
#     4  11  22  35  56  83 113 144 185 235 279 321
#     4  10  20  34  57  82 109 144 183 228 278 327
#     4   9  20  38  58  82 113 148 183 222 272 329
#     4  11  22  37  56  78 110 149 189 227 271 332
#     4   8  15  28  47  73 107 141 175 213 259 319
#
# _framework density 19.190042999999999
#
# number of rings (size 3 to 8) (size 9 to 14) (size 15 to 20)
#    0.000    2.429    0.000    4.286    2.000    4.000 
#    0.000    2.143    0.000    6.429    0.000    0.000 
#    0.000    0.000    0.000    0.000    0.000    0.000 
#
# Total GULP energy -347203.828281 kJ/mol
# GULP energy per Si atom -12400.136724 kJ/mol
# Density = 1.914637 g / cm^3
# Si number density = 19.190043 Si / 1000 Ang^3
#
#
#
# Elastic Constant Matrix: (Units=GPa)
#
#
# Indices 1 2 3 4 5 6 
#
# 1 40.4597 28.8914 17.9516 0.0000 -8.7827 0.0000
# 2 28.8914 87.8287 45.5381 0.0000 0.4351 0.0000
# 3 17.9516 45.5381 112.6771 0.0000 -0.8369 0.0000
# 4 0.0000 0.0000 0.0000 29.1580 0.0000 0.8238
# 5 -8.7827 0.4351 -0.8369 0.0000 22.9985 0.0000
# 6 0.0000 0.0000 0.0000 0.8238 0.0000 26.7227
#
#
#
# Elastic Compliance Matrix: (Units=1/GPa)
#
#
# Indices 1 2 3 4 5 6 
#
# 1 0.036473 -0.011524 -0.001049 0.000000 0.014108 0.000000
# 2 -0.011524 0.018051 -0.005496 0.000000 -0.004942 0.000000
# 3 -0.001049 -0.005496 0.011264 0.000000 0.000113 0.000000
# 4 0.000000 0.000000 0.000000 0.034326 0.000000 -0.001058
# 5 0.014108 -0.004942 0.000113 0.000000 0.048966 0.000000
# 6 0.000000 0.000000 0.000000 -0.001058 0.000000 0.037454
#
#
# Mechanical properties :
#
#
# Convention : Reuss Voigt Hill
#
# Bulk Modulus (GPa) = 33.72632 47.30307 40.51470
# Shear Modulus (GPa) = 21.50043 25.68149 23.59096
#
# Velocity S-wave (km/s) = 3.35086 3.66221 3.50999
# Velocity P-wave (km/s) = 5.70825 6.52577 6.13065
#
# Compressibility (1/GPa) = 0.02965043
#
# Stress axis : x y z
#
# Youngs Moduli (GPa) = 27.41780 55.39978 88.77881
#
# Poissons Ratio (x) = 0.63842 0.09310
# Poissons Ratio (y) = 0.31596 0.48791
# Poissons Ratio (z) = 0.02875 0.30447
#
# Static dielectric constant tensor:
#      x y z
#    x 3.456840 0.000000 -0.145160 
#    y 0.000000 3.257350 0.000000 
#    z -0.145160 0.000000 3.566950 
# 
# 
# High freq. dielectric constant tensor:
#      x y z
#    x 1.733150 0.000000 -0.012900 
#    y 0.000000 1.729320 0.000000 
#    z -0.012900 0.000000 1.755030 
# 
# From -- ./inp_files/50109.got.cif
#   From: 2010.06.25/outbox.cif.g09.slc.cpg/sg10_26_cif.got.tgz:50109.got - 2010.06.27 22:07:45.
