data_PCOD8063065
_publ_section_title
;
Structure prediction by ZEFSAII (Michael W. Deem and Ramdas Pophale) SiO2 
 PCOD8063065
Probable space group: P 2/M
;
_chemical_formula_sum "Si O2"
_cell_formula_units_Z 26
_cell_length_a 20.296132
_cell_length_b 9.015980
_cell_length_c 11.502671
_cell_angle_alpha 90.000000
_cell_angle_beta 38.936196
_cell_angle_gamma 90.000000
_cell_volume 1322.814088
_symmetry_space_group_name_H-M "P 2/M"
_symmetry_group_IT_number 10
_symmetry_cell_setting 'monoclinic'
loop_
_space_group_symop_operation_xyz
x,y,z
-x,y,-z
-x,-y,-z
x,-y,z
loop_
_atom_site_type_symbol
_atom_site_label
_atom_site_fract_x
_atom_site_fract_y
_atom_site_fract_z
Si Si1 0.029983 0.174335 0.826594
Si Si2 0.500000 0.247788 0.500000
Si Si3 0.343866 0.665216 0.903886
Si Si4 0.168309 0.677575 0.979477
Si Si5 0.314098 0.165719 0.604470
Si Si6 0.750304 0.327839 0.516297
Si Si7 0.599772 0.328097 0.927837
O O1 0.141841 0.240020 0.640528
O O2 0.947444 0.254153 0.853312
O O3 0.028783 0.000000 0.804057
O O4 0.000000 0.212523 0.000000
O O5 0.564952 0.344583 0.318546
O O6 0.419147 0.149376 0.536767
O O7 0.314098 0.500000 0.982098
O O8 0.238167 0.735233 0.993240
O O9 0.379641 0.748631 0.973563
O O10 0.164824 0.500000 0.977314
O O11 0.221981 0.740916 0.790287
O O12 0.333959 0.253544 0.456787
O O13 0.271722 0.000000 0.638110
O O14 0.766317 0.500000 0.463086
O O15 0.704364 0.308539 0.708297
O O16 0.571002 0.500000 0.987362
O O17 0.500000 0.252636 0.000000
#
# Coordination Sequence:
#
# PCOD8063065 Si02
#       7
#     4   2   4   4   4   4   4
#     4  11  22  37  58  83 114 152 185 231 290 341
#     4  10  20  32  54  80 109 150 191 226 277 342
#     4   9  18  33  54  84 117 145 184 237 288 331
#     4  10  20  34  56  84 112 143 183 234 282 335
#     4  11  21  34  51  77 114 150 183 228 283 335
#     4  11  22  35  58  86 111 147 192 235 278 332
#     4   9  18  34  56  83 117 152 186 229 281 332
#
# _framework density 19.655068
#
# number of rings (size 3 to 8) (size 9 to 14) (size 15 to 20)
#    0.000    1.846    1.538    3.231    0.000    3.692 
#    0.000    0.769    0.000   22.154    0.000    0.000 
#    0.000    0.000    0.000    0.000    0.000    0.000 
#
# Total GULP energy -322255.348975 kJ/mol
# GULP energy per Si atom -12394.436499 kJ/mol
# Density = 1.961033 g / cm^3
# Si number density = 19.655068 Si / 1000 Ang^3
#
#
#
# Elastic Constant Matrix: (Units=GPa)
#
#
# Indices 1 2 3 4 5 6 
#
# 1 148.6171 38.8465 58.3529 0.0000 3.1639 0.0000
# 2 38.8465 89.1523 27.4433 0.0000 -1.4500 0.0000
# 3 58.3529 27.4433 82.8214 0.0000 -0.9594 0.0000
# 4 0.0000 0.0000 0.0000 8.8548 0.0000 -3.3051
# 5 3.1639 -1.4500 -0.9594 0.0000 36.0935 0.0000
# 6 0.0000 0.0000 0.0000 -3.3051 0.0000 17.8189
#
#
#
# Elastic Compliance Matrix: (Units=1/GPa)
#
#
# Indices 1 2 3 4 5 6 
#
# 1 0.009777 -0.002399 -0.006107 0.000000 -0.001116 0.000000
# 2 -0.002399 0.013085 -0.002638 0.000000 0.000666 0.000000
# 3 -0.006107 -0.002638 0.017261 0.000000 0.000888 0.000000
# 4 0.000000 0.000000 0.000000 0.121334 0.000000 0.022506
# 5 -0.001116 0.000666 0.000888 0.000000 0.027854 0.000000
# 6 0.000000 0.000000 0.000000 0.022506 0.000000 0.060295
#
#
# Mechanical properties :
#
#
# Convention : Reuss Voigt Hill
#
# Bulk Modulus (GPa) = 56.06524 63.31958 59.69241
# Shear Modulus (GPa) = 17.99609 25.61665 21.80637
#
# Velocity S-wave (km/s) = 3.02916 3.61406 3.33446
# Velocity P-wave (km/s) = 6.38913 7.04986 6.72761
#
# Compressibility (1/GPa) = 0.01783636
#
# Stress axis : x y z
#
# Youngs Moduli (GPa) = 102.27916 76.42466 57.93334
#
# Poissons Ratio (x) = 0.18331 0.35379
# Poissons Ratio (y) = 0.24532 0.15283
# Poissons Ratio (z) = 0.62460 0.20161
#
# Static dielectric constant tensor:
#      x y z
#    x 4.083210 0.000000 -0.002380 
#    y 0.000000 3.300930 0.000000 
#    z -0.002380 0.000000 3.394920 
# 
# 
# High freq. dielectric constant tensor:
#      x y z
#    x 1.782820 0.000000 -0.009920 
#    y 0.000000 1.740630 0.000000 
#    z -0.009920 0.000000 1.746810 
# 
# From -- ./inp_files/55110.got.cif
#   From: 2010.06.25/outbox.cif.g09.slc.cpg/sg10_28_cif.got.tgz:55110.got - 2010.06.27 22:07:45.
