data_PCOD8063356
_publ_section_title
;
Structure prediction by ZEFSAII (Michael W. Deem and Ramdas Pophale) SiO2 
 PCOD8063356
Probable space group: P 2/M
;
_chemical_formula_sum "Si O2"
_cell_formula_units_Z 28
_cell_length_a 27.352703
_cell_length_b 9.327372
_cell_length_c 9.677631
_cell_angle_alpha 90.000000
_cell_angle_beta 38.039670
_cell_angle_gamma 90.000000
_cell_volume 1521.441229
_symmetry_space_group_name_H-M "P 2/M"
_symmetry_group_IT_number 10
_symmetry_cell_setting 'monoclinic'
loop_
_space_group_symop_operation_xyz
x,y,z
-x,y,-z
-x,-y,-z
x,-y,z
loop_
_atom_site_type_symbol
_atom_site_label
_atom_site_fract_x
_atom_site_fract_y
_atom_site_fract_z
Si Si1 0.992006 0.157401 0.854528
Si Si2 0.858404 0.667171 0.494571
Si Si3 0.698773 0.168490 0.346174
Si Si4 0.177109 0.831932 0.701727
Si Si5 0.519992 0.167796 0.799948
Si Si6 0.435965 0.667393 0.756822
Si Si7 0.727663 0.666122 0.011733
O O1 0.055230 0.270928 0.655287
O O2 0.008570 0.000000 0.752079
O O3 0.900874 0.205839 0.031452
O O4 0.000000 0.147749 0.000000
O O5 0.866932 0.500000 0.441858
O O6 0.820777 0.743228 0.444751
O O7 0.802994 0.696074 0.748595
O O8 0.746262 0.209918 0.379302
O O9 0.608527 0.220701 0.566401
O O10 0.703932 0.000000 0.307646
O O11 0.738521 0.246763 0.128242
O O12 0.175976 0.000000 0.665062
O O13 0.455205 0.248128 0.852830
O O14 0.511141 0.000000 0.792727
O O15 0.500000 0.209105 0.000000
O O16 0.500000 0.709990 0.500000
O O17 0.437481 0.500000 0.787800
O O18 0.350412 0.718918 0.895104
O O19 0.719011 0.500000 0.069928
#
# Coordination Sequence:
#
# PCOD8063356 Si02
#       7
#     4   4   4   4   4   4   4
#     4   8  15  31  53  76 104 137 173 213 257 306
#     4  10  20  33  53  81 108 135 173 218 261 309
#     4  10  21  37  55  77 106 140 176 213 261 314
#     4   9  19  35  55  79 107 138 174 216 259 310
#     4  10  22  37  54  81 111 135 169 220 267 308
#     4  10  20  37  58  76 101 142 182 213 253 308
#     4  10  22  38  53  76 109 140 176 219 258 306
#
# _framework density 18.403601999999999
#
# number of rings (size 3 to 8) (size 9 to 14) (size 15 to 20)
#    0.000    2.429    1.429    1.286    2.000    5.429 
#    0.000    0.714    0.000    4.286    0.000    0.000 
#    0.000    0.000    0.000    0.000    0.000    0.000 
#
# Total GULP energy -347215.152957 kJ/mol
# GULP energy per Si atom -12400.541177 kJ/mol
# Density = 1.836171 g / cm^3
# Si number density = 18.403602 Si / 1000 Ang^3
#
#
#
# Elastic Constant Matrix: (Units=GPa)
#
#
# Indices 1 2 3 4 5 6 
#
# 1 51.7813 26.2267 16.3257 0.0000 7.3277 0.0000
# 2 26.2267 60.2707 39.9724 0.0000 10.8965 0.0000
# 3 16.3257 39.9724 85.4373 0.0000 3.6286 0.0000
# 4 0.0000 0.0000 0.0000 19.4644 0.0000 -6.3505
# 5 7.3277 10.8965 3.6286 0.0000 26.0047 0.0000
# 6 0.0000 0.0000 0.0000 -6.3505 0.0000 23.6781
#
#
#
# Elastic Compliance Matrix: (Units=1/GPa)
#
#
# Indices 1 2 3 4 5 6 
#
# 1 0.024948 -0.010572 0.000291 0.000000 -0.002641 0.000000
# 2 -0.010572 0.030592 -0.011946 0.000000 -0.008173 0.000000
# 3 0.000291 -0.011946 0.017130 0.000000 0.002533 0.000000
# 4 0.000000 0.000000 0.000000 0.056303 0.000000 0.015101
# 5 -0.002641 -0.008173 0.002533 0.000000 0.042270 0.000000
# 6 0.000000 0.000000 0.000000 0.015101 0.000000 0.046283
#
#
# Mechanical properties :
#
#
# Convention : Reuss Voigt Hill
#
# Bulk Modulus (GPa) = 35.43832 40.28210 37.86021
# Shear Modulus (GPa) = 18.42399 21.49373 19.95886
#
# Velocity S-wave (km/s) = 3.16746 3.42118 3.29676
# Velocity P-wave (km/s) = 5.71621 6.12712 5.92523
#
# Compressibility (1/GPa) = 0.02821804
#
# Stress axis : x y z
#
# Youngs Moduli (GPa) = 40.08261 32.68802 58.37672
#
# Poissons Ratio (x) = 0.34557 -0.01699
# Poissons Ratio (y) = 0.42375 0.69734
# Poissons Ratio (z) = -0.01167 0.39048
#
# Static dielectric constant tensor:
#      x y z
#    x 3.474930 0.000000 -0.350790 
#    y 0.000000 3.316060 0.000000 
#    z -0.350790 0.000000 3.485620 
# 
# 
# High freq. dielectric constant tensor:
#      x y z
#    x 1.707930 0.000000 -0.015270 
#    y 0.000000 1.707990 0.000000 
#    z -0.015270 0.000000 1.713760 
# 
# From -- ./inp_files/36946.got.cif
#   From: 2010.06.25/outbox.cif.g09.slc.cpg/sg10_19_cif.got.tgz:36946.got - 2010.06.27 22:07:45.
