data_PCOD8063527
_publ_section_title
;
Structure prediction by ZEFSAII (Michael W. Deem and Ramdas Pophale) SiO2 
 PCOD8063527
Probable space group: P 2/M
;
_chemical_formula_sum "Si O2"
_cell_formula_units_Z 28
_cell_length_a 14.512051
_cell_length_b 9.286687
_cell_length_c 16.757754
_cell_angle_alpha 90.000000
_cell_angle_beta 138.550354
_cell_angle_gamma 90.000000
_cell_volume 1494.989690
_symmetry_space_group_name_H-M "P 2/M"
_symmetry_group_IT_number 10
_symmetry_cell_setting 'monoclinic'
loop_
_space_group_symop_operation_xyz
x,y,z
-x,y,-z
-x,-y,-z
x,-y,z
loop_
_atom_site_type_symbol
_atom_site_label
_atom_site_fract_x
_atom_site_fract_y
_atom_site_fract_z
Si Si1 0.915717 0.169877 0.193959
Si Si2 0.603186 0.335363 0.802295
Si Si3 0.642456 0.833368 0.286017
Si Si4 0.347930 0.167825 0.887176
Si Si5 0.572475 0.663062 0.468314
Si Si6 0.889220 0.169015 0.995869
Si Si7 0.809700 0.169605 0.546327
O O1 0.768821 0.236794 0.129893
O O2 0.945667 0.209132 0.121048
O O3 0.038182 0.229888 0.331035
O O4 0.907667 0.000000 0.199874
O O5 0.623609 0.500000 0.843484
O O6 0.499177 0.256858 0.796141
O O7 0.539386 0.325919 0.673714
O O8 0.749464 0.256511 0.891827
O O9 0.701240 0.806709 0.235758
O O10 0.764042 0.785137 0.426787
O O11 0.602969 0.000000 0.274197
O O12 0.360941 0.000000 0.915750
O O13 0.500000 0.239697 0.000000
O O14 0.500000 0.722516 0.500000
O O15 0.625935 0.500000 0.513854
O O16 0.703465 0.764051 0.539985
O O17 0.855946 0.000000 0.967788
O O18 0.000000 0.215480 0.000000
O O19 0.804994 0.000000 0.554168
#
# Coordination Sequence:
#
# PCOD8063527 Si02
#       7
#     4   4   4   4   4   4   4
#     4   9  18  32  49  75 107 133 166 212 256 299
#     4  10  20  34  52  74 100 131 167 209 254 298
#     4   9  17  31  52  77 101 130 168 206 250 301
#     4   9  16  27  49  76 101 134 171 207 249 299
#     4   9  19  34  51  71  97 132 170 207 248 299
#     4  10  21  35  52  73 100 135 171 208 252 301
#     4   9  18  31  49  75 104 130 163 210 254 295
#
# _framework density 18.729225
#
# number of rings (size 3 to 8) (size 9 to 14) (size 15 to 20)
#    0.000    2.714    0.000    1.286    2.000    4.000 
#    0.000    3.571    0.000    4.714    0.000    4.000 
#    0.000    0.000    0.000    0.000    0.000    0.000 
#
# Total GULP energy -347094.012835 kJ/mol
# GULP energy per Si atom -12396.214744 kJ/mol
# Density = 1.868660 g / cm^3
# Si number density = 18.729225 Si / 1000 Ang^3
#
#
#
# Elastic Constant Matrix: (Units=GPa)
#
#
# Indices 1 2 3 4 5 6 
#
# 1 132.5747 25.3808 73.6056 0.0000 0.7688 0.0000
# 2 25.3808 32.7152 22.6869 0.0000 6.4096 0.0000
# 3 73.6056 22.6869 113.4376 0.0000 21.5533 0.0000
# 4 0.0000 0.0000 0.0000 13.9387 0.0000 -5.0989
# 5 0.7688 6.4096 21.5533 0.0000 27.7315 0.0000
# 6 0.0000 0.0000 0.0000 -5.0989 0.0000 6.9086
#
#
#
# Elastic Compliance Matrix: (Units=1/GPa)
#
#
# Indices 1 2 3 4 5 6 
#
# 1 0.013808 -0.005837 -0.009357 0.000000 0.008239 0.000000
# 2 -0.005837 0.038193 -0.002586 0.000000 -0.006656 0.000000
# 3 -0.009357 -0.002586 0.017882 0.000000 -0.013041 0.000000
# 4 0.000000 0.000000 0.000000 0.098276 0.000000 0.072532
# 5 0.008239 -0.006656 -0.013041 0.000000 0.047506 0.000000
# 6 0.000000 0.000000 0.000000 0.072532 0.000000 0.198279
#
#
# Mechanical properties :
#
#
# Convention : Reuss Voigt Hill
#
# Bulk Modulus (GPa) = 29.13661 58.00824 43.57242
# Shear Modulus (GPa) = 10.84726 20.18605 15.51666
#
# Velocity S-wave (km/s) = 2.40919 3.28652 2.88144
# Velocity P-wave (km/s) = 4.83006 6.74099 5.86389
#
# Compressibility (1/GPa) = 0.03432108
#
# Stress axis : x y z
#
# Youngs Moduli (GPa) = 72.42194 26.18283 55.92158
#
# Poissons Ratio (x) = 0.15284 0.52329
# Poissons Ratio (y) = 0.42276 0.14462
# Poissons Ratio (z) = 0.67769 0.06771
#
# Static dielectric constant tensor:
#      x y z
#    x 3.585040 0.000000 -0.019880 
#    y 0.000000 3.182410 0.000000 
#    z -0.019880 0.000000 3.650850 
# 
# 
# High freq. dielectric constant tensor:
#      x y z
#    x 1.730530 0.000000 -0.005400 
#    y 0.000000 1.686830 0.000000 
#    z -0.005400 0.000000 1.736150 
# 
# From -- ./inp_files/68681.got.cif
#   From: 2010.06.25/outbox.cif.g09.slc.cpg/sg10_35_cif.got.tgz:68681.got - 2010.06.27 22:07:45.
