data_PCOD8063404
_publ_section_title
;
Structure prediction by ZEFSAII (Michael W. Deem and Ramdas Pophale) SiO2 
 PCOD8063404
Probable space group: P 2/M
;
_chemical_formula_sum "Si O2"
_cell_formula_units_Z 18
_cell_length_a 11.340297
_cell_length_b 7.746461
_cell_length_c 17.193432
_cell_angle_alpha 90.000000
_cell_angle_beta 141.055382
_cell_angle_gamma 90.000000
_cell_volume 949.386908
_symmetry_space_group_name_H-M "P 2/M"
_symmetry_group_IT_number 10
_symmetry_cell_setting 'monoclinic'
loop_
_space_group_symop_operation_xyz
x,y,z
-x,y,-z
-x,-y,-z
x,-y,z
loop_
_atom_site_type_symbol
_atom_site_label
_atom_site_fract_x
_atom_site_fract_y
_atom_site_fract_z
Si Si1 0.162416 0.192069 0.916535
Si Si2 0.836704 0.500000 0.587111
Si Si3 0.898013 0.500000 0.799229
Si Si4 0.467323 0.690894 0.818124
Si Si5 0.894844 0.806174 0.289639
Si Si6 0.480460 0.500000 0.302757
O O1 0.189095 0.230088 0.838874
O O2 0.021185 0.330748 0.881035
O O3 0.079155 0.000000 0.886933
O O4 0.364076 0.199029 0.060238
O O5 0.823343 0.500000 0.673106
O O6 0.626342 0.500000 0.447936
O O7 0.940890 0.670177 0.608260
O O8 0.727294 0.500000 0.770499
O O9 0.465676 0.500000 0.856754
O O10 0.271918 0.785879 0.734094
O O11 0.491600 0.670229 0.737054
O O12 0.977261 0.000000 0.338737
#
# Coordination Sequence:
#
# PCOD8063404 Si02
#       6
#     4   2   2   4   4   2
#     4  10  20  35  58  86 111 140 181 223 269 327
#     4  10  20  39  61  77 104 145 187 232 273 306
#     4  10  20  39  61  77 104 145 187 232 273 306
#     4  10  20  33  55  79 119 144 165 216 276 327
#     4  10  20  35  58  86 111 140 181 223 269 327
#     4  10  23  38  55  78 110 148 190 226 261 324
#
# _framework density 18.959603000000001
#
# number of rings (size 3 to 8) (size 9 to 14) (size 15 to 20)
#    0.667    1.333    2.222    1.667    0.000    6.222 
#    0.000    7.778    0.000    5.333    0.000    0.000 
#    0.000    0.000    0.000    0.000    0.000    0.000 
#
# Total GULP energy -223189.498469 kJ/mol
# GULP energy per Si atom -12399.416582 kJ/mol
# Density = 1.891645 g / cm^3
# Si number density = 18.959603 Si / 1000 Ang^3
#
#
#
# Elastic Constant Matrix: (Units=GPa)
#
#
# Indices 1 2 3 4 5 6 
#
# 1 96.3041 29.4461 5.8441 0.0000 17.6618 0.0000
# 2 29.4461 125.2548 15.7662 0.0000 10.0426 0.0000
# 3 5.8441 15.7662 31.9907 0.0000 6.8673 0.0000
# 4 0.0000 0.0000 0.0000 14.7232 0.0000 -4.7264
# 5 17.6618 10.0426 6.8673 0.0000 22.7989 0.0000
# 6 0.0000 0.0000 0.0000 -4.7264 0.0000 13.2802
#
#
#
# Elastic Compliance Matrix: (Units=1/GPa)
#
#
# Indices 1 2 3 4 5 6 
#
# 1 0.012718 -0.002363 0.000783 0.000000 -0.009047 0.000000
# 2 -0.002363 0.009104 -0.003835 0.000000 -0.001024 0.000000
# 3 0.000783 -0.003835 0.035039 0.000000 -0.009472 0.000000
# 4 0.000000 0.000000 0.000000 0.076681 0.000000 0.027290
# 5 -0.009047 -0.001024 -0.009472 0.000000 0.054175 0.000000
# 6 0.000000 0.000000 0.000000 0.027290 0.000000 0.085012
#
#
# Mechanical properties :
#
#
# Convention : Reuss Voigt Hill
#
# Bulk Modulus (GPa) = 21.72411 39.51803 30.62107
# Shear Modulus (GPa) = 16.72780 23.66001 20.19391
#
# Velocity S-wave (km/s) = 2.97355 3.53642 3.26713
# Velocity P-wave (km/s) = 4.82414 6.12891 5.51525
#
# Compressibility (1/GPa) = 0.04603180
#
# Stress axis : x y z
#
# Youngs Moduli (GPa) = 78.62843 109.83996 28.53930
#
# Poissons Ratio (x) = 0.25956 -0.02236
# Poissons Ratio (y) = 0.18581 0.10946
# Poissons Ratio (z) = -0.06160 0.42127
#
# Static dielectric constant tensor:
#      x y z
#    x 3.253870 0.000000 -0.030590 
#    y 0.000000 3.557130 0.000000 
#    z -0.030590 0.000000 3.183220 
# 
# 
# High freq. dielectric constant tensor:
#      x y z
#    x 1.722080 0.000000 0.001410 
#    y 0.000000 1.739330 0.000000 
#    z 0.001410 0.000000 1.722740 
# 
# From -- ./inp_files/22409.got.cif
#   From: 2010.06.25/outbox.cif.g09.slc.cpg/sg10_12_cif.got.tgz:22409.got - 2010.06.27 22:07:45.
