data_PCOD8063656
_publ_section_title
;
Structure prediction by ZEFSAII (Michael W. Deem and Ramdas Pophale) SiO2 
 PCOD8063656
Probable space group: P 2/M
;
_chemical_formula_sum "Si O2"
_cell_formula_units_Z 32
_cell_length_a 24.050832
_cell_length_b 9.266240
_cell_length_c 24.051314
_cell_angle_alpha 90.000000
_cell_angle_beta 18.429209
_cell_angle_gamma 90.000000
_cell_volume 1694.501331
_symmetry_space_group_name_H-M "P 2/M"
_symmetry_group_IT_number 10
_symmetry_cell_setting 'monoclinic'
loop_
_space_group_symop_operation_xyz
x,y,z
-x,y,-z
-x,-y,-z
x,-y,z
loop_
_atom_site_type_symbol
_atom_site_label
_atom_site_fract_x
_atom_site_fract_y
_atom_site_fract_z
Si Si1 0.640958 0.165363 0.526247
Si Si2 0.078679 0.334555 0.982631
Si Si3 0.372276 0.171349 0.872188
Si Si4 0.834425 0.665862 0.731399
Si Si5 0.026324 0.834634 0.140879
Si Si6 0.482661 0.334555 0.578648
Si Si7 0.435838 0.172051 0.936005
Si Si8 0.768442 0.334139 0.665778
O O1 0.526769 0.230131 0.685296
O O2 0.609539 0.248084 0.498769
O O3 0.846741 0.180149 0.346647
O O4 0.587017 0.000000 0.567317
O O5 0.019419 0.500000 0.045108
O O6 0.286671 0.316593 0.786636
O O7 0.998799 0.248063 0.109501
O O8 0.000000 0.271271 0.000000
O O9 0.403980 0.230364 0.903872
O O10 0.373238 0.000000 0.873246
O O11 0.185401 0.230162 0.026652
O O12 0.799159 0.500000 0.781477
O O13 0.772021 0.693135 0.728004
O O14 0.041314 0.702422 0.541089
O O15 0.723882 0.770209 0.875470
O O16 0.067409 0.000000 0.086934
O O17 0.500000 0.271252 0.500000
O O18 0.545146 0.500000 0.519372
O O19 0.624272 0.229797 0.776462
O O20 0.437801 0.000000 0.937959
O O21 0.718349 0.500000 0.701067
#
# Coordination Sequence:
#
# PCOD8063656 Si02
#       8
#     4   4   4   4   4   4   4   4
#     4  10  20  36  58  78  99 135 180 221 263 313
#     4  10  20  34  53  78 108 138 167 208 267 328
#     4   9  20  38  54  75 110 146 180 224 272 324
#     4   9  19  37  59  82 113 154 194 232 278 333
#     4  10  20  36  58  78  99 135 180 221 263 313
#     4  10  20  34  53  78 108 138 167 208 267 328
#     4  11  22  34  55  86 116 148 188 236 290 338
#     4   9  19  37  59  82 113 154 194 232 278 333
#
# _framework density 18.884611
#
# number of rings (size 3 to 8) (size 9 to 14) (size 15 to 20)
#    0.000    2.250    1.250    2.250    0.000    5.500 
#    0.000    6.250    0.000    0.000    0.000    0.000 
#    0.000    0.000    0.000    0.000    0.000    0.000 
#
# Total GULP energy -396832.246258 kJ/mol
# GULP energy per Si atom -12401.007696 kJ/mol
# Density = 1.884163 g / cm^3
# Si number density = 18.884611 Si / 1000 Ang^3
#
#
#
# Elastic Constant Matrix: (Units=GPa)
#
#
# Indices 1 2 3 4 5 6 
#
# 1 125.3206 49.5082 72.7231 0.0000 3.9719 0.0000
# 2 49.5082 63.0134 46.7535 0.0000 0.6024 0.0000
# 3 72.7231 46.7535 131.2351 0.0000 -4.6393 0.0000
# 4 0.0000 0.0000 0.0000 18.3939 0.0000 -8.4273
# 5 3.9719 0.6024 -4.6393 0.0000 17.5905 0.0000
# 6 0.0000 0.0000 0.0000 -8.4273 0.0000 -28.3263
#
#
#
# Elastic Compliance Matrix: (Units=1/GPa)
#
#
# Indices 1 2 3 4 5 6 
#
# 1 0.014020 -0.006925 -0.005456 0.000000 -0.004368 0.000000
# 2 -0.006925 0.025129 -0.005138 0.000000 -0.000652 0.000000
# 3 -0.005456 -0.005138 0.012642 0.000000 0.004742 0.000000
# 4 0.000000 0.000000 0.000000 0.047844 0.000000 -0.014234
# 5 -0.004368 -0.000652 0.004742 0.000000 0.059108 0.000000
# 6 0.000000 0.000000 0.000000 -0.014234 0.000000 -0.031068
#
#
# Mechanical properties :
#
#
# Convention : Reuss Voigt Hill
#
# Bulk Modulus (GPa) = 59.69521 73.05984 66.37753
# Shear Modulus (GPa) = 29.70928 11.57057 20.63992
#
# Velocity S-wave (km/s) = 3.97066 2.47796 3.30957
# Velocity P-wave (km/s) = 7.25952 6.85263 7.05901
#
# Compressibility (1/GPa) = 0.01675176
#
# Stress axis : x y z
#
# Youngs Moduli (GPa) = 71.32644 39.79488 79.10376
#
# Poissons Ratio (x) = 0.27558 0.43162
# Poissons Ratio (y) = 0.49394 0.40643
# Poissons Ratio (z) = 0.38919 0.20446
#
# Static dielectric constant tensor:
#      x y z
#    x 3.476110 0.000000 -0.021710 
#    y 0.000000 3.246510 0.000000 
#    z -0.021710 0.000000 3.596240 
# 
# 
# High freq. dielectric constant tensor:
#      x y z
#    x 1.728540 0.000000 -0.004160 
#    y 0.000000 1.712520 0.000000 
#    z -0.004160 0.000000 1.751460 
# 
# From -- ./inp_files/90579.got.cif
#   From: 2010.06.25/outbox.cif.g09.slc.cpg/sg10_46_cif.got.tgz:90579.got - 2010.06.27 22:07:45.
