data_PCOD8063433
_publ_section_title
;
Structure prediction by ZEFSAII (Michael W. Deem and Ramdas Pophale) SiO2 
 PCOD8063433
Probable space group: P 2/M
;
_chemical_formula_sum "Si O2"
_cell_formula_units_Z 32
_cell_length_a 26.263521
_cell_length_b 13.595974
_cell_length_c 9.717792
_cell_angle_alpha 90.000000
_cell_angle_beta 27.719848
_cell_angle_gamma 90.000000
_cell_volume 1614.071291
_symmetry_space_group_name_H-M "P 2/M"
_symmetry_group_IT_number 10
_symmetry_cell_setting 'monoclinic'
loop_
_space_group_symop_operation_xyz
x,y,z
-x,y,-z
-x,-y,-z
x,-y,z
loop_
_atom_site_type_symbol
_atom_site_label
_atom_site_fract_x
_atom_site_fract_y
_atom_site_fract_z
Si Si1 0.123266 0.889496 0.207110
Si Si2 0.739985 0.890004 0.384792
Si Si3 0.604955 0.702018 0.653797
Si Si4 0.799611 0.258300 0.764552
Si Si5 0.604108 0.615671 0.348864
Si Si6 0.869994 0.792883 0.312694
Si Si7 0.190119 0.608670 0.703235
Si Si8 0.009109 0.389492 0.630284
O O1 0.199467 0.819121 0.114274
O O2 0.000000 0.849698 0.500000
O O3 0.128759 0.000000 0.254710
O O4 0.163792 0.885520 0.955413
O O5 0.643730 0.815573 0.570464
O O6 0.801605 0.863896 0.377654
O O7 0.689538 0.000000 0.515716
O O8 0.584682 0.667901 0.544055
O O9 0.692166 0.632232 0.517790
O O10 0.500000 0.689484 0.000000
O O11 0.803335 0.195214 0.615314
O O12 0.908985 0.321919 0.481782
O O13 0.699445 0.331413 0.033531
O O14 0.500000 0.628181 0.500000
O O15 0.631567 0.500000 0.306414
O O16 0.853535 0.679569 0.310294
O O17 0.000000 0.820522 0.000000
O O18 0.190762 0.500000 0.636405
O O19 0.111445 0.616488 0.021633
O O20 0.055743 0.500000 0.517346
O O21 0.000000 0.346138 0.500000
#
# Coordination Sequence:
#
# PCOD8063433 Si02
#       8
#     4   4   4   4   4   4   4   4
#     4  10  21  38  65  95 122 160 204 253 316 381
#     4  10  23  44  67  92 123 161 212 264 315 380
#     4  11  24  44  69  91 120 162 213 267 317 369
#     4  12  22  38  63  88 132 165 204 257 310 371
#     4  11  26  44  64  94 128 167 212 256 313 372
#     4  11  23  37  58  95 133 172 205 249 312 370
#     4  10  22  38  57  88 127 166 213 253 299 371
#     4  10  20  33  57  89 122 163 206 252 306 370
#
# _framework density 19.825642999999999
#
# number of rings (size 3 to 8) (size 9 to 14) (size 15 to 20)
#    0.000    1.375    2.500    2.625    7.000    4.250 
#    0.000    0.000    0.000    0.750    0.000    0.000 
#    0.000    0.000    0.000    0.000    0.000    0.000 
#
# Total GULP energy -396711.212862 kJ/mol
# GULP energy per Si atom -12397.225402 kJ/mol
# Density = 1.978052 g / cm^3
# Si number density = 19.825643 Si / 1000 Ang^3
#
#
#
# Elastic Constant Matrix: (Units=GPa)
#
#
# Indices 1 2 3 4 5 6 
#
# 1 107.7504 43.0259 40.0039 0.0000 7.4772 0.0000
# 2 43.0259 111.6656 38.4839 0.0000 -2.8359 0.0000
# 3 40.0039 38.4839 119.9536 0.0000 2.5751 0.0000
# 4 0.0000 0.0000 0.0000 25.7658 0.0000 -1.8922
# 5 7.4772 -2.8359 2.5751 0.0000 33.6902 0.0000
# 6 0.0000 0.0000 0.0000 -1.8922 0.0000 20.6294
#
#
#
# Elastic Compliance Matrix: (Units=1/GPa)
#
#
# Indices 1 2 3 4 5 6 
#
# 1 0.011984 -0.003745 -0.002736 0.000000 -0.002766 0.000000
# 2 -0.003745 0.011279 -0.002412 0.000000 0.001965 0.000000
# 3 -0.002736 -0.002412 0.010030 0.000000 -0.000363 0.000000
# 4 0.000000 0.000000 0.000000 0.039074 0.000000 0.003584
# 5 -0.002766 0.001965 -0.000363 0.000000 0.030489 0.000000
# 6 0.000000 0.000000 0.000000 0.003584 0.000000 0.048803
#
#
# Mechanical properties :
#
#
# Convention : Reuss Voigt Hill
#
# Bulk Modulus (GPa) = 64.48071 64.71078 64.59575
# Shear Modulus (GPa) = 28.63442 30.54079 29.58761
#
# Velocity S-wave (km/s) = 3.80453 3.92914 3.86734
# Velocity P-wave (km/s) = 7.20374 7.30034 7.25220
#
# Compressibility (1/GPa) = 0.01550851
#
# Stress axis : x y z
#
# Youngs Moduli (GPa) = 83.44701 88.65721 99.69603
#
# Poissons Ratio (x) = 0.33201 0.27274
# Poissons Ratio (y) = 0.31250 0.24047
# Poissons Ratio (z) = 0.22828 0.21384
#
# Static dielectric constant tensor:
#      x y z
#    x 3.634060 0.000000 0.078850 
#    y 0.000000 3.884600 0.000000 
#    z 0.078850 0.000000 3.564400 
# 
# 
# High freq. dielectric constant tensor:
#      x y z
#    x 1.773070 0.000000 0.010610 
#    y 0.000000 1.782220 0.000000 
#    z 0.010610 0.000000 1.770230 
# 
# From -- ./inp_files/36355.got.cif
#   From: 2010.06.25/outbox.cif.g09.slc.cpg/sg10_19_cif.got.tgz:36355.got - 2010.06.27 22:07:45.
