data_PCOD8063688
_publ_section_title
;
Structure prediction by ZEFSAII (Michael W. Deem and Ramdas Pophale) SiO2 
 PCOD8063688
Probable space group: P 2/M
;
_chemical_formula_sum "Si O2"
_cell_formula_units_Z 32
_cell_length_a 14.421977
_cell_length_b 8.890197
_cell_length_c 12.360321
_cell_angle_alpha 90.000000
_cell_angle_beta 91.067669
_cell_angle_gamma 90.000000
_cell_volume 1584.493736
_symmetry_space_group_name_H-M "P 2/M"
_symmetry_group_IT_number 10
_symmetry_cell_setting 'monoclinic'
loop_
_space_group_symop_operation_xyz
x,y,z
-x,y,-z
-x,-y,-z
x,-y,z
loop_
_atom_site_type_symbol
_atom_site_label
_atom_site_fract_x
_atom_site_fract_y
_atom_site_fract_z
Si Si1 0.686252 0.822297 0.890219
Si Si2 0.163048 0.830816 0.717663
Si Si3 0.281173 0.168430 0.520009
Si Si4 0.500344 0.327634 0.836168
Si Si5 0.555907 0.666198 0.392850
Si Si6 0.783012 0.322912 0.685882
Si Si7 0.708767 0.323484 0.108474
Si Si8 0.027635 0.824297 0.380626
O O1 0.578171 0.772240 0.895640
O O2 0.739864 0.752173 0.790645
O O3 0.692221 0.000000 0.882517
O O4 0.736487 0.764888 0.000205
O O5 0.190215 0.817785 0.591519
O O6 0.218309 0.717558 0.795888
O O7 0.053591 0.795552 0.709629
O O8 0.182426 0.000000 0.760044
O O9 0.364394 0.209781 0.602928
O O10 0.279673 0.281565 0.419216
O O11 0.294048 0.000000 0.475319
O O12 0.517826 0.500000 0.871628
O O13 0.513499 0.303186 0.707898
O O14 0.395904 0.276557 0.861668
O O15 0.500000 0.677259 0.500000
O O16 0.600716 0.500000 0.377916
O O17 0.781902 0.500000 0.703258
O O18 0.886245 0.266213 0.665465
O O19 0.716168 0.500000 0.087628
O O20 0.000000 0.765798 0.500000
O O21 0.054536 0.000000 0.387989
#
# Coordination Sequence:
#
# PCOD8063688 Si02
#       8
#     4   4   4   4   4   4   4   4
#     4  12  26  43  64  89 121 163 213 262 312 367
#     4  10  21  38  63  93 126 161 201 249 301 361
#     4  11  21  36  59  88 123 162 202 247 304 363
#     4  10  21  38  60  90 126 165 207 255 309 363
#     4  10  20  34  53  82 122 166 205 247 303 365
#     4  12  25  41  63  92 127 163 206 257 312 373
#     4  11  23  41  65  91 126 166 209 258 309 363
#     4  10  20  40  66  94 129 165 201 248 307 369
#
# _framework density 20.195723999999998
#
# number of rings (size 3 to 8) (size 9 to 14) (size 15 to 20)
#    0.000    1.250    2.500    4.125    0.000    5.500 
#    0.000    0.625    0.000    3.750    0.000    0.000 
#    0.000    0.000    0.000    0.000    0.000    0.000 
#
# Total GULP energy -396818.638158 kJ/mol
# GULP energy per Si atom -12400.582442 kJ/mol
# Density = 2.014976 g / cm^3
# Si number density = 20.195724 Si / 1000 Ang^3
#
#
#
# Elastic Constant Matrix: (Units=GPa)
#
#
# Indices 1 2 3 4 5 6 
#
# 1 75.7632 42.5994 23.8144 0.0000 8.3791 0.0000
# 2 42.5994 120.4210 40.8665 0.0000 4.0337 0.0000
# 3 23.8144 40.8665 102.2201 0.0000 9.6835 0.0000
# 4 0.0000 0.0000 0.0000 31.9300 0.0000 2.6570
# 5 8.3791 4.0337 9.6835 0.0000 19.1281 0.0000
# 6 0.0000 0.0000 0.0000 2.6570 0.0000 29.5960
#
#
#
# Elastic Compliance Matrix: (Units=1/GPa)
#
#
# Indices 1 2 3 4 5 6 
#
# 1 0.017338 -0.005501 -0.001292 0.000000 -0.005780 0.000000
# 2 -0.005501 0.011353 -0.003423 0.000000 0.001748 0.000000
# 3 -0.001292 -0.003423 0.011901 0.000000 -0.004737 0.000000
# 4 0.000000 0.000000 0.000000 0.031554 0.000000 -0.002833
# 5 -0.005780 0.001748 -0.004737 0.000000 0.056841 0.000000
# 6 0.000000 0.000000 0.000000 -0.002833 0.000000 0.034043
#
#
# Mechanical properties :
#
#
# Convention : Reuss Voigt Hill
#
# Bulk Modulus (GPa) = 49.60487 56.99610 53.30049
# Shear Modulus (GPa) = 26.29062 28.87243 27.58152
#
# Velocity S-wave (km/s) = 3.61195 3.78515 3.69956
# Velocity P-wave (km/s) = 6.48153 6.88377 6.68568
#
# Compressibility (1/GPa) = 0.02015931
#
# Stress axis : x y z
#
# Youngs Moduli (GPa) = 57.67810 88.08032 84.02595
#
# Poissons Ratio (x) = 0.48453 0.10859
# Poissons Ratio (y) = 0.31729 0.28762
# Poissons Ratio (z) = 0.07454 0.30149
#
# Static dielectric constant tensor:
#      x y z
#    x 3.761530 0.000000 0.029990 
#    y 0.000000 3.628970 0.000000 
#    z 0.029990 0.000000 3.766940 
# 
# 
# High freq. dielectric constant tensor:
#      x y z
#    x 1.783550 0.000000 0.005970 
#    y 0.000000 1.784290 0.000000 
#    z 0.005970 0.000000 1.794700 
# 
# From -- ./inp_files/49900.got.cif
#   From: 2010.06.25/outbox.cif.g09.slc.cpg/sg10_25_cif.got.tgz:49900.got - 2010.06.27 22:07:45.
