data_PCOD8063866
_publ_section_title
;
Structure prediction by ZEFSAII (Michael W. Deem and Ramdas Pophale) SiO2 
 PCOD8063866
Probable space group: P 2/M
;
_chemical_formula_sum "Si O2"
_cell_formula_units_Z 28
_cell_length_a 10.174294
_cell_length_b 7.688049
_cell_length_c 28.687582
_cell_angle_alpha 90.000000
_cell_angle_beta 37.107971
_cell_angle_gamma 90.000000
_cell_volume 1353.821263
_symmetry_space_group_name_H-M "P 2/M"
_symmetry_group_IT_number 10
_symmetry_cell_setting 'monoclinic'
loop_
_space_group_symop_operation_xyz
x,y,z
-x,y,-z
-x,-y,-z
x,-y,z
loop_
_atom_site_type_symbol
_atom_site_label
_atom_site_fract_x
_atom_site_fract_y
_atom_site_fract_z
Si Si1 0.300647 0.302018 0.585598
Si Si2 0.069119 0.202358 0.841481
Si Si3 0.733785 0.500000 0.957487
Si Si4 0.191230 0.799217 0.409974
Si Si5 0.849159 0.304074 0.679046
Si Si6 0.747249 0.500000 0.062378
Si Si7 0.388038 0.806298 0.835665
Si Si8 0.365049 0.797425 0.671325
O O1 0.500000 0.212692 0.500000
O O2 0.285608 0.500000 0.572564
O O3 0.330417 0.298058 0.632449
O O4 0.068167 0.215310 0.638222
O O5 0.249242 0.249607 0.829555
O O6 0.167728 0.241087 0.762597
O O7 0.861323 0.325484 0.906675
O O8 0.998633 0.000000 0.865540
O O9 0.500000 0.500000 0.000000
O O10 0.691704 0.500000 0.024147
O O11 0.128615 0.688852 0.382757
O O12 0.413702 0.725164 0.368765
O O13 0.000000 0.771611 0.500000
O O14 0.222433 0.000000 0.386859
O O15 0.815450 0.500000 0.707662
O O16 0.642342 0.189023 0.751436
O O17 0.648698 0.674433 0.111944
O O18 0.000000 0.500000 0.000000
O O19 0.319611 0.000000 0.871244
O O20 0.387150 0.000000 0.654114
#
# Coordination Sequence:
#
# PCOD8063866 Si02
#       8
#     4   4   2   4   4   2   4   4
#     4  10  23  40  56  84 127 172 216 268 323 373
#     4  10  22  42  68  98 130 167 213 260 315 385
#     4  12  28  46  70 100 135 170 202 254 325 380
#     4  10  20  34  55  87 122 157 207 267 317 367
#     4  11  22  37  60  87 124 164 216 270 309 374
#     4  12  24  44  70 104 133 162 220 256 305 410
#     4  11  22  41  71 100 131 169 211 269 326 371
#     4  10  21  37  60  88 118 163 215 255 309 382
#
# _framework density 20.682198
#
# number of rings (size 3 to 8) (size 9 to 14) (size 15 to 20)
#    0.000    1.429    3.571    1.286    1.000    4.571 
#    0.000    1.429    0.000    0.000    0.000    0.000 
#    0.000    0.000    0.000    0.000    0.000    0.000 
#
# Total GULP energy -347257.332954 kJ/mol
# GULP energy per Si atom -12402.047606 kJ/mol
# Density = 2.063512 g / cm^3
# Si number density = 20.682198 Si / 1000 Ang^3
#
#
#
# Elastic Constant Matrix: (Units=GPa)
#
#
# Indices 1 2 3 4 5 6 
#
# 1 147.9390 30.4786 72.9606 0.0000 -3.7916 0.0000
# 2 30.4786 80.5146 48.3438 0.0000 -0.7303 0.0000
# 3 72.9606 48.3438 132.4095 0.0000 -2.6210 0.0000
# 4 0.0000 0.0000 0.0000 14.6903 0.0000 -1.5128
# 5 -3.7916 -0.7303 -2.6210 0.0000 45.1263 0.0000
# 6 0.0000 0.0000 0.0000 -1.5128 0.0000 12.1465
#
#
#
# Elastic Compliance Matrix: (Units=1/GPa)
#
#
# Indices 1 2 3 4 5 6 
#
# 1 0.009313 -0.000571 -0.004914 0.000000 0.000488 0.000000
# 2 -0.000571 0.015943 -0.005509 0.000000 -0.000110 0.000000
# 3 -0.004914 -0.005509 0.012275 0.000000 0.000211 0.000000
# 4 0.000000 0.000000 0.000000 0.068957 0.000000 0.008588
# 5 0.000488 -0.000110 0.000211 0.000000 0.022211 0.000000
# 6 0.000000 0.000000 0.000000 0.008588 0.000000 0.083398
#
#
# Mechanical properties :
#
#
# Convention : Reuss Voigt Hill
#
# Bulk Modulus (GPa) = 64.32854 73.82546 69.07700
# Shear Modulus (GPa) = 20.89743 28.33130 24.61437
#
# Velocity S-wave (km/s) = 3.18214 3.70515 3.45356
# Velocity P-wave (km/s) = 6.68373 7.35370 7.02670
#
# Compressibility (1/GPa) = 0.01554520
#
# Stress axis : x y z
#
# Youngs Moduli (GPa) = 107.37778 62.72490 81.46492
#
# Poissons Ratio (x) = 0.03579 0.40029
# Poissons Ratio (y) = 0.06127 0.44875
# Poissons Ratio (z) = 0.52761 0.34552
#
# Static dielectric constant tensor:
#      x y z
#    x 3.693720 0.000000 -0.106570 
#    y 0.000000 3.695670 0.000000 
#    z -0.106570 0.000000 3.734310 
# 
# 
# High freq. dielectric constant tensor:
#      x y z
#    x 1.806190 0.000000 -0.001220 
#    y 0.000000 1.806520 0.000000 
#    z -0.001220 0.000000 1.813320 
# 
# From -- ./inp_files/92011.got.cif
#   From: 2010.06.25/outbox.cif.g09.slc.cpg/sg10_47_cif.got.tgz:92011.got - 2010.06.27 22:07:45.
