data_PCOD8063745
_publ_section_title
;
Structure prediction by ZEFSAII (Michael W. Deem and Ramdas Pophale) SiO2 
 PCOD8063745
Probable space group: P 2/M
;
_chemical_formula_sum "Si O2"
_cell_formula_units_Z 32
_cell_length_a 14.960996
_cell_length_b 9.072769
_cell_length_c 14.961055
_cell_angle_alpha 90.000000
_cell_angle_beta 59.398800
_cell_angle_gamma 90.000000
_cell_volume 1747.954844
_symmetry_space_group_name_H-M "P 2/M"
_symmetry_group_IT_number 10
_symmetry_cell_setting 'monoclinic'
loop_
_space_group_symop_operation_xyz
x,y,z
-x,y,-z
-x,-y,-z
x,-y,z
loop_
_atom_site_type_symbol
_atom_site_label
_atom_site_fract_x
_atom_site_fract_y
_atom_site_fract_z
Si Si1 0.234577 0.827129 0.060615
Si Si2 0.560618 0.172872 0.734582
Si Si3 0.939785 0.330870 0.439780
Si Si4 0.992259 0.828147 0.764709
Si Si5 0.264709 0.171851 0.492255
Si Si6 0.786490 0.173396 0.286494
Si Si7 0.395420 0.674620 0.104577
Si Si8 0.672496 0.174993 0.172501
O O1 0.112423 0.791571 0.128691
O O2 0.295894 0.739171 0.105036
O O3 0.257800 0.000000 0.061596
O O4 0.269914 0.769582 0.945798
O O5 0.628691 0.208428 0.612427
O O6 0.605046 0.260824 0.795895
O O7 0.445800 0.230432 0.769926
O O8 0.561592 0.000000 0.757805
O O9 0.923180 0.500000 0.423160
O O10 0.827969 0.256765 0.508992
O O11 0.000000 0.308707 0.500000
O O12 0.008996 0.256746 0.327971
O O13 0.092442 0.777721 0.771924
O O14 0.001102 0.000000 0.737579
O O15 0.271933 0.222258 0.592436
O O16 0.237570 0.000000 0.501089
O O17 0.729734 0.246272 0.229745
O O18 0.778812 0.000000 0.278796
O O19 0.385100 0.500000 0.114899
O O20 0.500000 0.723450 0.000000
O O21 0.675876 0.000000 0.175899
#
# Coordination Sequence:
#
# PCOD8063745 Si02
#       8
#     4   4   4   4   4   4   4   4
#     4  10  20  34  54  81 109 140 177 217 262 313
#     4  10  20  34  54  81 109 140 177 217 262 313
#     4  10  21  35  51  73 102 137 178 222 264 312
#     4   9  19  34  53  78 107 138 174 216 263 313
#     4   9  19  34  53  78 107 138 174 216 263 313
#     4   8  15  31  52  78 110 139 171 215 262 310
#     4  11  23  37  53  74 105 144 179 221 268 310
#     4   9  17  30  53  81 109 140 174 215 261 310
#
# _framework density 18.307110000000002
#
# number of rings (size 3 to 8) (size 9 to 14) (size 15 to 20)
#    0.000    2.500    1.250    1.500    1.750    3.500 
#    0.000    5.000    0.000    6.000    0.000    8.750 
#    0.000    0.000    0.000    0.000    0.000    0.000 
#
# Total GULP energy -396790.510216 kJ/mol
# GULP energy per Si atom -12399.703444 kJ/mol
# Density = 1.826544 g / cm^3
# Si number density = 18.307110 Si / 1000 Ang^3
#
#
#
# Elastic Constant Matrix: (Units=GPa)
#
#
# Indices 1 2 3 4 5 6 
#
# 1 137.5349 43.2318 101.3776 0.0000 6.5125 0.0000
# 2 43.2318 44.5030 40.0639 0.0000 2.7514 0.0000
# 3 101.3776 40.0639 145.4842 0.0000 -13.3414 0.0000
# 4 0.0000 0.0000 0.0000 5.1087 0.0000 -2.5865
# 5 6.5125 2.7514 -13.3414 0.0000 31.5233 0.0000
# 6 0.0000 0.0000 0.0000 -2.5865 0.0000 2.1222
#
#
#
# Elastic Compliance Matrix: (Units=1/GPa)
#
#
# Indices 1 2 3 4 5 6 
#
# 1 0.018455 -0.006875 -0.011716 0.000000 -0.008171 0.000000
# 2 -0.006875 0.033707 -0.004818 0.000000 -0.003561 0.000000
# 3 -0.011716 -0.004818 0.017296 0.000000 0.010161 0.000000
# 4 0.000000 0.000000 0.000000 0.511123 0.000000 0.622932
# 5 -0.008171 -0.003561 0.010161 0.000000 0.038022 0.000000
# 6 0.000000 0.000000 0.000000 0.622932 0.000000 1.230405
#
#
# Mechanical properties :
#
#
# Convention : Reuss Voigt Hill
#
# Bulk Modulus (GPa) = 44.17025 77.42985 60.80005
# Shear Modulus (GPa) = 2.62692 17.27410 9.95051
#
# Velocity S-wave (km/s) = 1.19918 3.07510 2.33391
# Velocity P-wave (km/s) = 5.10853 7.41587 6.36758
#
# Compressibility (1/GPa) = 0.02263967
#
# Stress axis : x y z
#
# Youngs Moduli (GPa) = 54.18716 29.66764 57.81694
#
# Poissons Ratio (x) = 0.20397 0.67736
# Poissons Ratio (y) = 0.37255 0.27856
# Poissons Ratio (z) = 0.63484 0.14294
#
# Static dielectric constant tensor:
#      x y z
#    x 3.583400 0.000000 -0.053180 
#    y 0.000000 3.102020 0.000000 
#    z -0.053180 0.000000 3.644650 
# 
# 
# High freq. dielectric constant tensor:
#      x y z
#    x 1.714830 0.000000 -0.002450 
#    y 0.000000 1.677620 0.000000 
#    z -0.002450 0.000000 1.717650 
# 
# From -- ./inp_files/66500.got.cif
#   From: 2010.06.25/outbox.cif.g09.slc.cpg/sg10_34_cif.got.tgz:66500.got - 2010.06.27 22:07:45.
