data_PCOD8063218
_publ_section_title
;
Structure prediction by ZEFSAII (Michael W. Deem and Ramdas Pophale) SiO2 
 PCOD8063218
Probable space group: P 2/M
;
_chemical_formula_sum "Si O2"
_cell_formula_units_Z 28
_cell_length_a 9.852890
_cell_length_b 13.652140
_cell_length_c 19.351725
_cell_angle_alpha 90.000000
_cell_angle_beta 35.747854
_cell_angle_gamma 90.000000
_cell_volume 1520.757362
_symmetry_space_group_name_H-M "P 2/M"
_symmetry_group_IT_number 10
_symmetry_cell_setting 'monoclinic'
loop_
_space_group_symop_operation_xyz
x,y,z
-x,y,-z
-x,-y,-z
x,-y,z
loop_
_atom_site_type_symbol
_atom_site_label
_atom_site_fract_x
_atom_site_fract_y
_atom_site_fract_z
Si Si1 0.015795 0.892799 0.265503
Si Si2 0.451732 0.386844 0.376136
Si Si3 0.274834 0.787289 0.045642
Si Si4 0.461548 0.108960 0.176932
Si Si5 0.027769 0.388837 0.801897
Si Si6 0.789808 0.257241 0.633602
Si Si7 0.885737 0.700416 0.379237
O O1 0.087768 0.858957 0.158977
O O2 0.247424 0.900767 0.214161
O O3 0.844977 0.812709 0.370549
O O4 0.894341 0.000000 0.312246
O O5 0.379851 0.500000 0.408175
O O6 0.726131 0.371505 0.262868
O O7 0.349142 0.341334 0.348833
O O8 0.348545 0.334803 0.487032
O O9 0.160208 0.680465 0.083408
O O10 0.500000 0.774658 0.000000
O O11 0.333408 0.832256 0.946680
O O12 0.384664 0.168085 0.277154
O O13 0.547318 0.000000 0.162872
O O14 0.943934 0.500000 0.846632
O O15 0.048881 0.368329 0.711598
O O16 0.000000 0.214999 0.500000
O O17 0.893963 0.304985 0.660106
#
# Coordination Sequence:
#
# PCOD8063218 Si02
#       7
#     4   4   4   4   4   4   4
#     4   8  14  26  47  76 104 127 157 199 244 288
#     4  10  20  34  50  69  99 137 167 196 245 299
#     4   9  17  30  49  74 100 127 163 204 245 289
#     4   9  16  29  51  74  96 126 163 201 241 288
#     4  10  20  33  51  74  99 129 164 205 250 290
#     4   9  19  33  50  76 103 129 162 199 240 285
#     4   9  17  30  52  78 100 126 166 205 237 282
#
# _framework density 18.411878000000002
#
# number of rings (size 3 to 8) (size 9 to 14) (size 15 to 20)
#    0.000    2.857    0.000    2.143    0.000    6.571 
#    0.000    3.571    0.000   14.571    0.000    0.000 
#    0.000    0.000    0.000    0.000    0.000    0.000 
#
# Total GULP energy -347134.476459 kJ/mol
# GULP energy per Si atom -12397.659874 kJ/mol
# Density = 1.836997 g / cm^3
# Si number density = 18.411878 Si / 1000 Ang^3
#
#
#
# Elastic Constant Matrix: (Units=GPa)
#
#
# Indices 1 2 3 4 5 6 
#
# 1 46.8597 35.6794 28.0128 0.0000 7.0258 0.0000
# 2 35.6794 173.1432 75.3369 0.0000 0.3319 0.0000
# 3 28.0128 75.3369 86.8107 0.0000 9.9451 0.0000
# 4 0.0000 0.0000 0.0000 31.7985 0.0000 -0.1873
# 5 7.0258 0.3319 9.9451 0.0000 16.5632 0.0000
# 6 0.0000 0.0000 0.0000 -0.1873 0.0000 6.1410
#
#
#
# Elastic Compliance Matrix: (Units=1/GPa)
#
#
# Indices 1 2 3 4 5 6 
#
# 1 0.028464 -0.003699 -0.004940 0.000000 -0.009034 0.000000
# 2 -0.003699 0.010161 -0.008356 0.000000 0.006382 0.000000
# 3 -0.004940 -0.008356 0.021591 0.000000 -0.010701 0.000000
# 4 0.000000 0.000000 0.000000 0.031454 0.000000 0.000959
# 5 -0.009034 0.006382 -0.010701 0.000000 0.070504 0.000000
# 6 0.000000 0.000000 0.000000 0.000959 0.000000 0.162869
#
#
# Mechanical properties :
#
#
# Convention : Reuss Voigt Hill
#
# Bulk Modulus (GPa) = 38.12934 64.98578 51.55756
# Shear Modulus (GPa) = 13.59526 22.08618 17.84072
#
# Velocity S-wave (km/s) = 2.72029 3.46723 3.11622
# Velocity P-wave (km/s) = 5.53360 7.16945 6.40397
#
# Compressibility (1/GPa) = 0.02622653
#
# Stress axis : x y z
#
# Youngs Moduli (GPa) = 35.13172 98.41275 46.31568
#
# Poissons Ratio (x) = 0.36399 0.22882
# Poissons Ratio (y) = 0.12994 0.38701
# Poissons Ratio (z) = 0.17357 0.82233
#
# Static dielectric constant tensor:
#      x y z
#    x 3.098270 0.000000 0.094090 
#    y 0.000000 3.686800 0.000000 
#    z 0.094090 0.000000 3.371800 
# 
# 
# High freq. dielectric constant tensor:
#      x y z
#    x 1.681950 0.000000 0.008530 
#    y 0.000000 1.720920 0.000000 
#    z 0.008530 0.000000 1.703800 
# 
# From -- ./inp_files/75286.got.cif
#   From: 2010.06.25/outbox.cif.g09.slc.cpg/sg10_38_cif.got.tgz:75286.got - 2010.06.27 22:07:45.
