data_PCOD8063122
_publ_section_title
;
Structure prediction by ZEFSAII (Michael W. Deem and Ramdas Pophale) SiO2 
 PCOD8063122
Probable space group: P 2/M
;
_chemical_formula_sum "Si O2"
_cell_formula_units_Z 32
_cell_length_a 20.513848
_cell_length_b 9.683370
_cell_length_c 14.162973
_cell_angle_alpha 90.000000
_cell_angle_beta 136.402914
_cell_angle_gamma 90.000000
_cell_volume 1940.056831
_symmetry_space_group_name_H-M "P 2/M"
_symmetry_group_IT_number 10
_symmetry_cell_setting 'monoclinic'
loop_
_space_group_symop_operation_xyz
x,y,z
-x,y,-z
-x,-y,-z
x,-y,z
loop_
_atom_site_type_symbol
_atom_site_label
_atom_site_fract_x
_atom_site_fract_y
_atom_site_fract_z
Si Si1 0.943092 0.657756 0.624651
Si Si2 0.181559 0.842244 0.624650
Si Si3 0.898337 0.336569 0.920825
Si Si4 0.853938 0.662328 0.083164
Si Si5 0.729226 0.837672 0.083164
Si Si6 0.333851 0.840644 0.626087
Si Si7 0.522486 0.163431 0.920823
Si Si8 0.792237 0.659356 0.626088
O O1 0.932228 0.500000 0.581517
O O2 0.907174 0.750000 0.500000
O O3 0.882709 0.687485 0.655164
O O4 0.050724 0.695302 0.759652
O O5 0.208929 0.804697 0.759652
O O6 0.272453 0.812517 0.655161
O O7 0.149288 0.000000 0.581515
O O8 0.910609 0.500000 0.937474
O O9 0.820467 0.294553 0.761245
O O10 0.864834 0.283443 0.987523
O O11 0.000000 0.271094 0.000000
O O12 0.829790 0.500000 0.061550
O O13 0.769283 0.750000 0.038566
O O14 0.731762 0.000000 0.061552
O O15 0.622689 0.783445 0.987523
O O16 0.440777 0.794547 0.761244
O O17 0.296816 0.750001 0.499998
O O18 0.328484 0.000000 0.590161
O O19 0.526857 0.000000 0.937463
O O20 0.500000 0.228906 0.000000
O O21 0.761679 0.500000 0.590159
#
# Coordination Sequence:
#
# PCOD8063122 Si02
#       8
#     4   4   4   4   4   4   4   4
#     4   9  17  29  46  68  95 126 158 192 230 276
#     4   9  17  29  46  68  95 126 158 192 230 276
#     4   9  15  29  53  73  90 122 166 200 229 277
#     4  10  20  33  49  70  96 127 162 198 236 279
#     4  10  20  33  49  70  96 127 162 198 236 279
#     4   9  16  28  49  74  96 119 153 197 239 279
#     4   9  15  29  53  73  90 122 166 200 229 277
#     4   9  16  28  49  74  96 119 153 197 239 279
#
# _framework density 16.494361999999999
#
# number of rings (size 3 to 8) (size 9 to 14) (size 15 to 20)
#    0.000    2.750    2.500    0.000    0.000    1.500 
#    0.000    3.750    0.000    2.250    0.000    5.250 
#    0.000    0.000    0.000    0.000    0.000    0.000 
#
# Total GULP energy -396778.293598 kJ/mol
# GULP energy per Si atom -12399.321675 kJ/mol
# Density = 1.645682 g / cm^3
# Si number density = 16.494362 Si / 1000 Ang^3
#
#
#
# Elastic Constant Matrix: (Units=GPa)
#
#
# Indices 1 2 3 4 5 6 
#
# 1 104.8185 41.1613 70.0311 0.0000 -0.5799 0.0000
# 2 41.1613 48.2151 48.6720 0.0000 -0.3795 0.0000
# 3 70.0311 48.6720 108.1171 0.0000 0.4138 0.0000
# 4 0.0000 0.0000 0.0000 24.7821 0.0000 -0.4210
# 5 -0.5799 -0.3795 0.4138 0.0000 23.0756 0.0000
# 6 0.0000 0.0000 0.0000 -0.4210 0.0000 16.4623
#
#
#
# Elastic Compliance Matrix: (Units=1/GPa)
#
#
# Indices 1 2 3 4 5 6 
#
# 1 0.017886 -0.006541 -0.008643 0.000000 0.000497 0.000000
# 2 -0.006541 0.040429 -0.013967 0.000000 0.000751 0.000000
# 3 -0.008643 -0.013967 0.021138 0.000000 -0.000826 0.000000
# 4 0.000000 0.000000 0.000000 0.040369 0.000000 0.001032
# 5 0.000497 0.000751 -0.000826 0.000000 0.043376 0.000000
# 6 0.000000 0.000000 0.000000 0.001032 0.000000 0.060771
#
#
# Mechanical properties :
#
#
# Convention : Reuss Voigt Hill
#
# Bulk Modulus (GPa) = 47.27454 64.54217 55.90835
# Shear Modulus (GPa) = 17.28192 19.61641 18.44917
#
# Velocity S-wave (km/s) = 3.24040 3.45233 3.34805
# Velocity P-wave (km/s) = 6.53632 7.42336 6.99392
#
# Compressibility (1/GPa) = 0.02115304
#
# Stress axis : x y z
#
# Youngs Moduli (GPa) = 55.91002 24.73473 47.30816
#
# Poissons Ratio (x) = 0.16178 0.40887
# Poissons Ratio (y) = 0.36569 0.66073
# Poissons Ratio (z) = 0.48322 0.34546
#
# Static dielectric constant tensor:
#      x y z
#    x 2.981030 0.000000 -0.012180 
#    y 0.000000 2.862540 0.000000 
#    z -0.012180 0.000000 3.221970 
# 
# 
# High freq. dielectric constant tensor:
#      x y z
#    x 1.615350 0.000000 -0.001210 
#    y 0.000000 1.607230 0.000000 
#    z -0.001210 0.000000 1.639300 
# 
# From -- ./inp_files/66018.got.cif
#   From: 2010.06.25/outbox.cif.g09.slc.cpg/sg10_34_cif.got.tgz:66018.got - 2010.06.27 22:07:45.
