data_PCOD8063614
_publ_section_title
;
Structure prediction by ZEFSAII (Michael W. Deem and Ramdas Pophale) SiO2 
 PCOD8063614
Probable space group: P 2/M
;
_chemical_formula_sum "Si O2"
_cell_formula_units_Z 28
_cell_length_a 9.549731
_cell_length_b 8.879273
_cell_length_c 26.848484
_cell_angle_alpha 90.000000
_cell_angle_beta 140.628314
_cell_angle_gamma 90.000000
_cell_volume 1444.163227
_symmetry_space_group_name_H-M "P 2/M"
_symmetry_group_IT_number 10
_symmetry_cell_setting 'monoclinic'
loop_
_space_group_symop_operation_xyz
x,y,z
-x,y,-z
-x,-y,-z
x,-y,z
loop_
_atom_site_type_symbol
_atom_site_label
_atom_site_fract_x
_atom_site_fract_y
_atom_site_fract_z
Si Si1 0.367611 0.173300 0.013097
Si Si2 0.182234 0.830160 0.703578
Si Si3 0.391310 0.173124 0.234471
Si Si4 0.304422 0.173907 0.412422
Si Si5 0.208956 0.676051 0.282406
Si Si6 0.720914 0.672648 0.172165
Si Si7 0.944808 0.322641 0.928608
O O1 0.523468 0.220190 0.101257
O O2 0.298537 0.000000 0.999807
O O3 0.500000 0.207413 0.000000
O O4 0.150228 0.275422 0.950759
O O5 0.343773 0.810268 0.700583
O O6 0.246127 0.703988 0.760864
O O7 0.924291 0.804624 0.619529
O O8 0.210933 0.000000 0.733457
O O9 0.331392 0.256323 0.268636
O O10 0.271727 0.242704 0.152919
O O11 0.319496 0.000000 0.219567
O O12 0.500000 0.242486 0.500000
O O13 0.303499 0.255917 0.359173
O O14 0.351536 0.000000 0.413810
O O15 0.255005 0.500000 0.296375
O O16 0.947637 0.710102 0.205327
O O17 0.649596 0.500000 0.144916
O O18 0.906243 0.500000 0.915606
O O19 0.000000 0.268511 0.000000
#
# Coordination Sequence:
#
# PCOD8063614 Si02
#       7
#     4   4   4   4   4   4   4
#     4  11  23  36  52  75 102 136 179 226 274 321
#     4   9  19  35  56  81 107 138 176 217 263 317
#     4  11  22  36  55  79 109 144 183 226 271 322
#     4   9  18  36  62  88 113 142 178 220 266 320
#     4  10  21  36  56  82 112 146 182 222 270 323
#     4  10  20  34  53  76 102 136 178 223 270 320
#     4  11  24  39  55  77 107 144 185 229 277 326
#
# _framework density 19.388392
#
# number of rings (size 3 to 8) (size 9 to 14) (size 15 to 20)
#    0.000    1.857    0.000    3.857    0.000   10.000 
#    0.000    0.714    0.000    4.286    0.000    0.000 
#    0.000    0.000    0.000    0.000    0.000    0.000 
#
# Total GULP energy -347214.183420 kJ/mol
# GULP energy per Si atom -12400.506551 kJ/mol
# Density = 1.934426 g / cm^3
# Si number density = 19.388392 Si / 1000 Ang^3
#
#
#
# Elastic Constant Matrix: (Units=GPa)
#
#
# Indices 1 2 3 4 5 6 
#
# 1 108.4564 36.9701 38.9597 0.0000 9.7392 0.0000
# 2 36.9701 56.4331 25.5428 0.0000 0.2954 0.0000
# 3 38.9597 25.5428 99.5340 0.0000 9.2473 0.0000
# 4 0.0000 0.0000 0.0000 20.8524 0.0000 -4.0391
# 5 9.7392 0.2954 9.2473 0.0000 24.3883 0.0000
# 6 0.0000 0.0000 0.0000 -4.0391 0.0000 28.0781
#
#
#
# Elastic Compliance Matrix: (Units=1/GPa)
#
#
# Indices 1 2 3 4 5 6 
#
# 1 0.013092 -0.007248 -0.002889 0.000000 -0.004045 0.000000
# 2 -0.007248 0.024136 -0.003730 0.000000 0.004016 0.000000
# 3 -0.002889 -0.003730 0.012462 0.000000 -0.003527 0.000000
# 4 0.000000 0.000000 0.000000 0.049331 0.000000 0.007096
# 5 -0.004045 0.004016 -0.003527 0.000000 0.043907 0.000000
# 6 0.000000 0.000000 0.000000 0.007096 0.000000 0.036636
#
#
# Mechanical properties :
#
#
# Convention : Reuss Voigt Hill
#
# Bulk Modulus (GPa) = 45.54418 51.92987 48.73703
# Shear Modulus (GPa) = 23.29751 25.52716 24.41234
#
# Velocity S-wave (km/s) = 3.47020 3.63246 3.55226
# Velocity P-wave (km/s) = 6.29268 6.66597 6.48202
#
# Compressibility (1/GPa) = 0.02195670
#
# Stress axis : x y z
#
# Youngs Moduli (GPa) = 76.38340 41.43259 80.24204
#
# Poissons Ratio (x) = 0.30031 0.23179
# Poissons Ratio (y) = 0.55363 0.29929
# Poissons Ratio (z) = 0.22064 0.15454
#
# Static dielectric constant tensor:
#      x y z
#    x 3.629440 0.000000 0.209120 
#    y 0.000000 3.562770 0.000000 
#    z 0.209120 0.000000 3.522180 
# 
# 
# High freq. dielectric constant tensor:
#      x y z
#    x 1.759150 0.000000 0.013930 
#    y 0.000000 1.761750 0.000000 
#    z 0.013930 0.000000 1.737530 
# 
# From -- ./inp_files/36973.got.cif
#   From: 2010.06.25/outbox.cif.g09.slc.cpg/sg10_19_cif.got.tgz:36973.got - 2010.06.27 22:07:45.
