data_PCOD8063952
_publ_section_title
;
Structure prediction by ZEFSAII (Michael W. Deem and Ramdas Pophale) SiO2 
 PCOD8063952
Probable space group: P 2/M
;
_chemical_formula_sum "Si O2"
_cell_formula_units_Z 32
_cell_length_a 14.946916
_cell_length_b 8.982675
_cell_length_c 24.640174
_cell_angle_alpha 90.000000
_cell_angle_beta 152.115313
_cell_angle_gamma 90.000000
_cell_volume 1547.257079
_symmetry_space_group_name_H-M "P 2/M"
_symmetry_group_IT_number 10
_symmetry_cell_setting 'monoclinic'
loop_
_space_group_symop_operation_xyz
x,y,z
-x,y,-z
-x,-y,-z
x,-y,z
loop_
_atom_site_type_symbol
_atom_site_label
_atom_site_fract_x
_atom_site_fract_y
_atom_site_fract_z
Si Si1 0.288581 0.176768 0.638137
Si Si2 0.686722 0.674211 0.067379
Si Si3 0.235832 0.329281 0.225191
Si Si4 0.815851 0.330843 0.019905
Si Si5 0.445314 0.175218 0.531307
Si Si6 0.289324 0.176047 0.145707
Si Si7 0.007808 0.823938 0.304393
Si Si8 0.935473 0.176667 0.382678
O O1 0.494104 0.233725 0.730826
O O2 0.134083 0.241112 0.513236
O O3 0.238737 0.231790 0.672785
O O4 0.284425 0.000000 0.635763
O O5 0.704051 0.500000 0.087813
O O6 0.681699 0.708821 0.000013
O O7 0.883459 0.749664 0.191241
O O8 0.500000 0.737226 0.000000
O O9 0.292809 0.500000 0.246526
O O10 0.412001 0.250102 0.349438
O O11 0.181395 0.255658 0.137508
O O12 0.041331 0.314699 0.156312
O O13 0.774421 0.500000 0.979049
O O14 0.775071 0.220556 0.948748
O O15 0.500000 0.222083 0.500000
O O16 0.227787 0.229861 0.423147
O O17 0.464040 0.000000 0.551014
O O18 0.262394 0.000000 0.137278
O O19 0.908946 0.768229 0.307258
O O20 0.000179 0.000000 0.291886
O O21 0.951538 0.000000 0.391592
#
# Coordination Sequence:
#
# PCOD8063952 Si02
#       8
#     4   4   4   4   4   4   4   4
#     4   8  15  28  47  75 109 143 177 219 275 336
#     4  10  23  42  61  82 113 155 197 241 293 345
#     4  11  23  39  60  85 117 159 201 238 283 348
#     4  10  23  42  59  79 113 155 199 242 289 350
#     4  10  21  37  59  89 123 153 187 240 299 344
#     4  11  22  35  58  88 116 149 194 244 297 345
#     4  10  20  34  57  86 114 146 187 235 288 344
#     4   8  14  27  48  74 108 143 176 219 273 333
#
# _framework density 20.681759
#
# number of rings (size 3 to 8) (size 9 to 14) (size 15 to 20)
#    0.000    2.250    0.000    3.375    1.750    6.000 
#    0.000    0.000    0.000    0.000    0.000    3.500 
#    0.000    0.000    0.000    0.000    0.000    0.000 
#
# Total GULP energy -396621.121542 kJ/mol
# GULP energy per Si atom -12394.410048 kJ/mol
# Density = 2.063469 g / cm^3
# Si number density = 20.681759 Si / 1000 Ang^3
#
#
#
# Elastic Constant Matrix: (Units=GPa)
#
#
# Indices 1 2 3 4 5 6 
#
# 1 120.2886 33.1358 31.1188 0.0000 -2.8740 0.0000
# 2 33.1358 53.3077 31.3014 0.0000 -4.7497 0.0000
# 3 31.1188 31.3014 69.9777 0.0000 -8.3526 0.0000
# 4 0.0000 0.0000 0.0000 27.0969 0.0000 -4.1708
# 5 -2.8740 -4.7497 -8.3526 0.0000 33.2703 0.0000
# 6 0.0000 0.0000 0.0000 -4.1708 0.0000 21.0530
#
#
#
# Elastic Compliance Matrix: (Units=1/GPa)
#
#
# Indices 1 2 3 4 5 6 
#
# 1 0.010309 -0.005051 -0.002376 0.000000 -0.000427 0.000000
# 2 -0.005051 0.027936 -0.010130 0.000000 0.001009 0.000000
# 3 -0.002376 -0.010130 0.020289 0.000000 0.003442 0.000000
# 4 0.000000 0.000000 0.000000 0.038065 0.000000 0.007541
# 5 -0.000427 0.001009 0.003442 0.000000 0.031028 0.000000
# 6 0.000000 0.000000 0.000000 0.007541 0.000000 0.048993
#
#
# Mechanical properties :
#
#
# Convention : Reuss Voigt Hill
#
# Bulk Modulus (GPa) = 42.69642 48.29843 45.49742
# Shear Modulus (GPa) = 22.77475 26.15192 24.46334
#
# Velocity S-wave (km/s) = 3.32203 3.55983 3.44298
# Velocity P-wave (km/s) = 5.95011 6.34826 6.15241
#
# Compressibility (1/GPa) = 0.02342117
#
# Stress axis : x y z
#
# Youngs Moduli (GPa) = 97.00042 35.79552 49.28840
#
# Poissons Ratio (x) = 0.18080 0.11711
# Poissons Ratio (y) = 0.48995 0.49927
# Poissons Ratio (z) = 0.23048 0.36259
#
# Static dielectric constant tensor:
#      x y z
#    x 4.174250 0.000000 0.171190 
#    y 0.000000 3.345040 0.000000 
#    z 0.171190 0.000000 3.782370 
# 
# 
# High freq. dielectric constant tensor:
#      x y z
#    x 1.829680 0.000000 0.004350 
#    y 0.000000 1.771660 0.000000 
#    z 0.004350 0.000000 1.808940 
# 
# From -- ./inp_files/89599.got.cif
#   From: 2010.06.25/outbox.cif.g09.slc.cpg/sg10_45_cif.got.tgz:89599.got - 2010.06.27 22:07:45.
