data_PCOD8063831
_publ_section_title
;
Structure prediction by ZEFSAII (Michael W. Deem and Ramdas Pophale) SiO2 
 PCOD8063831
Probable space group: P 2/M
;
_chemical_formula_sum "Si O2"
_cell_formula_units_Z 32
_cell_length_a 14.032867
_cell_length_b 8.949470
_cell_length_c 12.975208
_cell_angle_alpha 90.000000
_cell_angle_beta 87.227511
_cell_angle_gamma 90.000000
_cell_volume 1627.606461
_symmetry_space_group_name_H-M "P 2/M"
_symmetry_group_IT_number 10
_symmetry_cell_setting 'monoclinic'
loop_
_space_group_symop_operation_xyz
x,y,z
-x,y,-z
-x,-y,-z
x,-y,z
loop_
_atom_site_type_symbol
_atom_site_label
_atom_site_fract_x
_atom_site_fract_y
_atom_site_fract_z
Si Si1 0.608868 0.673358 0.688970
Si Si2 0.285619 0.824778 0.126968
Si Si3 0.061063 0.323487 0.900914
Si Si4 0.084789 0.173285 0.223962
Si Si5 0.614994 0.671617 0.293821
Si Si6 0.699101 0.822991 0.486763
Si Si7 0.723915 0.324159 0.082181
Si Si8 0.098536 0.176561 0.453639
O O1 0.636993 0.500000 0.685189
O O2 0.657736 0.749513 0.783627
O O3 0.496844 0.697013 0.707055
O O4 0.639216 0.747403 0.580507
O O5 0.173011 0.790038 0.144309
O O6 0.306767 0.000000 0.129655
O O7 0.318780 0.757735 0.016004
O O8 0.058451 0.500000 0.896318
O O9 0.169195 0.265501 0.900892
O O10 0.010805 0.260535 0.801638
O O11 0.000000 0.261290 0.000000
O O12 0.115221 0.227349 0.335592
O O13 0.058669 0.000000 0.224612
O O14 0.640584 0.500000 0.318043
O O15 0.658823 0.775837 0.378975
O O16 0.658799 0.719814 0.182122
O O17 0.809559 0.769367 0.486504
O O18 0.690228 0.000000 0.501222
O O19 0.722800 0.500000 0.059989
O O20 0.000000 0.249702 0.500000
O O21 0.090573 0.000000 0.462150
#
# Coordination Sequence:
#
# PCOD8063831 Si02
#       8
#     4   4   4   4   4   4   4   4
#     4  11  23  41  65  87 113 155 201 243 297 359
#     4  11  22  38  61  90 121 151 197 250 295 347
#     4  10  20  34  55  83 113 148 191 234 279 335
#     4  10  20  35  56  82 115 152 191 236 285 347
#     4  10  24  43  61  85 118 158 200 242 295 358
#     4  11  22  39  64  92 121 153 195 246 295 345
#     4  10  22  41  60  83 122 161 196 242 294 352
#     4   9  19  36  56  83 119 155 187 227 287 351
#
# _framework density 19.660772000000001
#
# number of rings (size 3 to 8) (size 9 to 14) (size 15 to 20)
#    0.000    1.750    2.500    1.500    1.750    4.750 
#    0.000    2.500    0.000    1.875    0.000    0.000 
#    0.000    0.000    0.000    0.000    0.000    0.000 
#
# Total GULP energy -396876.935148 kJ/mol
# GULP energy per Si atom -12402.404223 kJ/mol
# Density = 1.961602 g / cm^3
# Si number density = 19.660772 Si / 1000 Ang^3
#
#
#
# Elastic Constant Matrix: (Units=GPa)
#
#
# Indices 1 2 3 4 5 6 
#
# 1 81.3438 35.5065 38.7224 0.0000 -18.7797 0.0000
# 2 35.5065 64.5926 44.8340 0.0000 -3.7169 0.0000
# 3 38.7224 44.8340 119.2549 0.0000 -10.8587 0.0000
# 4 0.0000 0.0000 0.0000 33.7245 0.0000 9.0642
# 5 -18.7797 -3.7169 -10.8587 0.0000 34.1498 0.0000
# 6 0.0000 0.0000 0.0000 9.0642 0.0000 26.0760
#
#
#
# Elastic Compliance Matrix: (Units=1/GPa)
#
#
# Indices 1 2 3 4 5 6 
#
# 1 0.019080 -0.008441 -0.002214 0.000000 0.008869 0.000000
# 2 -0.008441 0.024684 -0.006917 0.000000 -0.004155 0.000000
# 3 -0.002214 -0.006917 0.011869 0.000000 0.001803 0.000000
# 4 0.000000 0.000000 0.000000 0.032708 0.000000 -0.011370
# 5 0.008869 -0.004155 0.001803 0.000000 0.034281 0.000000
# 6 0.000000 0.000000 0.000000 -0.011370 0.000000 0.042302
#
#
# Mechanical properties :
#
#
# Convention : Reuss Voigt Hill
#
# Bulk Modulus (GPa) = 48.80971 55.92411 52.36691
# Shear Modulus (GPa) = 24.16651 28.53197 26.34924
#
# Velocity S-wave (km/s) = 3.50976 3.81361 3.66484
# Velocity P-wave (km/s) = 6.42685 6.92082 6.67840
#
# Compressibility (1/GPa) = 0.02048773
#
# Stress axis : x y z
#
# Youngs Moduli (GPa) = 52.41198 40.51229 84.25138
#
# Poissons Ratio (x) = 0.34195 0.18656
# Poissons Ratio (y) = 0.44239 0.58281
# Poissons Ratio (z) = 0.11606 0.28024
#
# Static dielectric constant tensor:
#      x y z
#    x 3.760680 0.000000 -0.073720 
#    y 0.000000 3.416520 0.000000 
#    z -0.073720 0.000000 3.641270 
# 
# 
# High freq. dielectric constant tensor:
#      x y z
#    x 1.774500 0.000000 0.003280 
#    y 0.000000 1.751380 0.000000 
#    z 0.003280 0.000000 1.775060 
# 
# From -- ./inp_files/49856.got.cif
#   From: 2010.06.25/outbox.cif.g09.slc.cpg/sg10_25_cif.got.tgz:49856.got - 2010.06.27 22:07:45.
