data_PCOD8063390
_publ_section_title
;
Structure prediction by ZEFSAII (Michael W. Deem and Ramdas Pophale) SiO2 
 PCOD8063390
Probable space group: P 2/M
;
_chemical_formula_sum "Si O2"
_cell_formula_units_Z 28
_cell_length_a 21.637335
_cell_length_b 8.877520
_cell_length_c 24.250524
_cell_angle_alpha 90.000000
_cell_angle_beta 161.892130
_cell_angle_gamma 90.000000
_cell_volume 1447.795855
_symmetry_space_group_name_H-M "P 2/M"
_symmetry_group_IT_number 10
_symmetry_cell_setting 'monoclinic'
loop_
_space_group_symop_operation_xyz
x,y,z
-x,y,-z
-x,-y,-z
x,-y,z
loop_
_atom_site_type_symbol
_atom_site_label
_atom_site_fract_x
_atom_site_fract_y
_atom_site_fract_z
Si Si1 0.470387 0.176435 0.599240
Si Si2 0.210164 0.327645 0.202411
Si Si3 0.689249 0.177039 0.896216
Si Si4 0.951862 0.320849 0.519939
Si Si5 0.510836 0.321009 0.168243
Si Si6 0.341155 0.679121 0.909144
Si Si7 0.110721 0.327168 0.242959
O O1 0.620156 0.221600 0.677671
O O2 0.560346 0.224582 0.734093
O O3 0.262644 0.263844 0.417147
O O4 0.429345 0.000000 0.560509
O O5 0.252271 0.500000 0.220188
O O6 0.213427 0.310645 0.270719
O O7 0.000000 0.273259 0.000000
O O8 0.595692 0.253249 0.869771
O O9 0.691471 0.000000 0.906682
O O10 0.911566 0.231985 0.075603
O O11 0.949468 0.500000 0.514947
O O12 0.737888 0.261626 0.358637
O O13 0.000000 0.256486 0.500000
O O14 0.120729 0.263832 0.705731
O O15 0.503812 0.500000 0.166052
O O16 0.395275 0.262393 0.015912
O O17 0.350706 0.500000 0.915806
O O18 0.500000 0.743851 0.000000
O O19 0.060357 0.500000 0.213878
#
# Coordination Sequence:
#
# PCOD8063390 Si02
#       7
#     4   4   4   4   4   4   4
#     4  11  24  40  61  88 121 161 201 243 294 354
#     4  10  20  37  62  92 122 152 192 248 304 349
#     4  11  25  43  59  80 118 164 204 242 290 350
#     4   9  15  26  48  80 112 139 171 224 287 340
#     4  10  20  33  54  83 112 145 189 238 289 343
#     4   9  15  26  48  81 114 139 173 228 290 341
#     4  11  23  40  65  91 118 153 197 249 301 351
#
# _framework density 19.339742999999999
#
# number of rings (size 3 to 8) (size 9 to 14) (size 15 to 20)
#    0.000    1.857    2.857    1.714    0.000    6.000 
#    0.000    1.429    0.000    0.857    0.000    0.000 
#    0.000    0.000    0.000    0.000    0.000    0.000 
#
# Total GULP energy -347270.117739 kJ/mol
# GULP energy per Si atom -12402.504205 kJ/mol
# Density = 1.929572 g / cm^3
# Si number density = 19.339743 Si / 1000 Ang^3
#
#
#
# Elastic Constant Matrix: (Units=GPa)
#
#
# Indices 1 2 3 4 5 6 
#
# 1 103.5850 28.2274 31.5056 0.0000 -22.3240 0.0000
# 2 28.2274 12.9513 34.5880 0.0000 4.9093 0.0000
# 3 31.5056 34.5880 104.5306 0.0000 -57.4076 0.0000
# 4 0.0000 0.0000 0.0000 23.9094 0.0000 -1.8301
# 5 -22.3240 4.9093 -57.4076 0.0000 -1.2348 0.0000
# 6 0.0000 0.0000 0.0000 -1.8301 0.0000 -7.2676
#
#
#
# Elastic Compliance Matrix: (Units=1/GPa)
#
#
# Indices 1 2 3 4 5 6 
#
# 1 0.011861 -0.008851 -0.005191 0.000000 -0.008276 0.000000
# 2 -0.008851 0.059379 0.007559 0.000000 0.044682 0.000000
# 3 -0.005191 0.007559 0.002890 0.000000 -0.010452 0.000000
# 4 0.000000 0.000000 0.000000 0.041034 0.000000 -0.010333
# 5 -0.008276 0.044682 -0.010452 0.000000 0.003347 0.000000
# 6 0.000000 0.000000 0.000000 -0.010333 0.000000 -0.134995
#
#
# Mechanical properties :
#
#
# Convention : Reuss Voigt Hill
#
# Bulk Modulus (GPa) = 16.34955 45.52320 30.93637
# Shear Modulus (GPa) = 296.37036 11.53113 153.95074
#
# Velocity S-wave (km/s) = 12.39261 2.44445 8.93175
# Velocity P-wave (km/s) = 14.60279 5.61755 11.06341
#
# Compressibility (1/GPa) = 0.06116378
#
# Stress axis : x y z
#
# Youngs Moduli (GPa) = 84.30863 16.84089 346.02945
#
# Poissons Ratio (x) = 0.14905 1.79635
# Poissons Ratio (y) = 0.74618 -2.61549
# Poissons Ratio (z) = 0.43767 -0.12729
#
# Static dielectric constant tensor:
#      x y z
#    x 3.517410 0.000000 -0.124300 
#    y 0.000000 3.211150 0.000000 
#    z -0.124300 0.000000 3.860630 
# 
# 
# High freq. dielectric constant tensor:
#      x y z
#    x 1.751040 0.000000 -0.006260 
#    y 0.000000 1.718360 0.000000 
#    z -0.006260 0.000000 1.773120 
# 
# From -- ./inp_files/90412.got.cif
#   From: 2010.06.25/outbox.cif.g09.slc.cpg/sg10_46_cif.got.tgz:90412.got - 2010.06.27 22:07:45.
