data_PCOD8063456
_publ_section_title
;
Structure prediction by ZEFSAII (Michael W. Deem and Ramdas Pophale) SiO2 
 PCOD8063456
Probable space group: P 2/M
;
_chemical_formula_sum "Si O2"
_cell_formula_units_Z 32
_cell_length_a 15.326298
_cell_length_b 8.836837
_cell_length_c 20.442215
_cell_angle_alpha 90.000000
_cell_angle_beta 135.713095
_cell_angle_gamma 90.000000
_cell_volume 1933.187864
_symmetry_space_group_name_H-M "P 2/M"
_symmetry_group_IT_number 10
_symmetry_cell_setting 'monoclinic'
loop_
_space_group_symop_operation_xyz
x,y,z
-x,y,-z
-x,-y,-z
x,-y,z
loop_
_atom_site_type_symbol
_atom_site_label
_atom_site_fract_x
_atom_site_fract_y
_atom_site_fract_z
Si Si1 0.458823 0.678990 0.280957
Si Si2 0.192264 0.321686 0.096519
Si Si3 0.862198 0.176414 0.704972
Si Si4 0.089364 0.166822 0.609868
Si Si5 0.890820 0.677249 0.581379
Si Si6 0.710640 0.820808 0.380272
Si Si7 0.008702 0.320858 0.110341
Si Si8 0.587161 0.824391 0.607156
O O1 0.472616 0.500000 0.283774
O O2 0.333537 0.739392 0.177383
O O3 0.572036 0.755358 0.303136
O O4 0.457338 0.725339 0.355824
O O5 0.191083 0.500000 0.103062
O O6 0.111977 0.260317 0.114429
O O7 0.127597 0.277720 0.992753
O O8 0.875131 0.272704 0.646889
O O9 0.729564 0.214168 0.666470
O O10 0.972345 0.229556 0.812551
O O11 0.875924 0.000000 0.695910
O O12 0.222355 0.224902 0.652562
O O13 0.000000 0.155392 0.500000
O O14 0.030481 0.279338 0.631631
O O15 0.103028 0.000000 0.649219
O O16 0.872863 0.500000 0.565363
O O17 0.783637 0.756175 0.481700
O O18 0.707988 0.000000 0.387173
O O19 0.020065 0.500000 0.129577
O O20 0.500000 0.778182 0.500000
O O21 0.569575 0.000000 0.615648
#
# Coordination Sequence:
#
# PCOD8063456 Si02
#       8
#     4   4   4   4   4   4   4   4
#     4  11  20  31  49  73  96 124 165 204 239 283
#     4   8  16  30  50  71  93 124 159 203 250 288
#     4  11  21  32  47  70  99 130 164 201 242 288
#     4   8  16  32  51  69  94 128 160 194 240 288
#     4  11  21  32  50  74  98 127 164 204 240 281
#     4  10  20  34  50  70 100 134 162 194 241 290
#     4   9  16  32  52  68  92 126 163 201 246 291
#     4  10  21  34  45  60  91 134 168 195 234 282
#
# _framework density 16.552968
#
# number of rings (size 3 to 8) (size 9 to 14) (size 15 to 20)
#    0.000    2.250    1.250    4.500    0.000    4.500 
#    0.000    2.500    0.000    0.000    0.000    0.875 
#    0.000    7.000    0.000    0.000    0.000    0.000 
#
# Total GULP energy -396727.584495 kJ/mol
# GULP energy per Si atom -12397.737015 kJ/mol
# Density = 1.651529 g / cm^3
# Si number density = 16.552968 Si / 1000 Ang^3
#
#
#
# Elastic Constant Matrix: (Units=GPa)
#
#
# Indices 1 2 3 4 5 6 
#
# 1 66.4711 27.2943 26.2763 0.0000 27.4838 0.0000
# 2 27.2943 62.3533 25.2296 0.0000 10.5066 0.0000
# 3 26.2763 25.2296 91.5896 0.0000 19.1104 0.0000
# 4 0.0000 0.0000 0.0000 5.0425 0.0000 -8.6059
# 5 27.4838 10.5066 19.1104 0.0000 18.6636 0.0000
# 6 0.0000 0.0000 0.0000 -8.6059 0.0000 22.4816
#
#
#
# Elastic Compliance Matrix: (Units=1/GPa)
#
#
# Indices 1 2 3 4 5 6 
#
# 1 0.043157 -0.009833 0.003094 0.000000 -0.061184 0.000000
# 2 -0.009833 0.020921 -0.004458 0.000000 0.007268 0.000000
# 3 0.003094 -0.004458 0.014861 0.000000 -0.017262 0.000000
# 4 0.000000 0.000000 0.000000 0.572014 0.000000 0.218965
# 5 -0.061184 0.007268 -0.017262 0.000000 0.157262 0.000000
# 6 0.000000 0.000000 0.000000 0.218965 0.000000 0.128300
#
#
# Mechanical properties :
#
#
# Convention : Reuss Voigt Hill
#
# Bulk Modulus (GPa) = 17.68590 42.00159 29.84374
# Shear Modulus (GPa) = 5.11373 18.67848 11.89611
#
# Velocity S-wave (km/s) = 1.75955 3.36282 2.68371
# Velocity P-wave (km/s) = 3.85171 6.36453 5.26036
#
# Compressibility (1/GPa) = 0.05654222
#
# Stress axis : x y z
#
# Youngs Moduli (GPa) = 23.17142 47.79793 67.29164
#
# Poissons Ratio (x) = 0.47002 -0.20818
# Poissons Ratio (y) = 0.22785 0.30002
# Poissons Ratio (z) = -0.07168 0.21311
#
# Static dielectric constant tensor:
#      x y z
#    x 3.349630 0.000000 0.287070 
#    y 0.000000 3.036000 0.000000 
#    z 0.287070 0.000000 3.232200 
# 
# 
# High freq. dielectric constant tensor:
#      x y z
#    x 1.626110 0.000000 0.008880 
#    y 0.000000 1.634750 0.000000 
#    z 0.008880 0.000000 1.620140 
# 
# From -- ./inp_files/66105.got.cif
#   From: 2010.06.25/outbox.cif.g09.slc.cpg/sg10_34_cif.got.tgz:66105.got - 2010.06.27 22:07:45.
