data_PCOD8063872
_publ_section_title
;
Structure prediction by ZEFSAII (Michael W. Deem and Ramdas Pophale) SiO2 
 PCOD8063872
Probable space group: P 2/M
;
_chemical_formula_sum "Si O2"
_cell_formula_units_Z 32
_cell_length_a 21.629787
_cell_length_b 9.178035
_cell_length_c 10.544897
_cell_angle_alpha 90.000000
_cell_angle_beta 49.037255
_cell_angle_gamma 90.000000
_cell_volume 1580.772864
_symmetry_space_group_name_H-M "P 2/M"
_symmetry_group_IT_number 10
_symmetry_cell_setting 'monoclinic'
loop_
_space_group_symop_operation_xyz
x,y,z
-x,y,-z
-x,-y,-z
x,-y,z
loop_
_atom_site_type_symbol
_atom_site_label
_atom_site_fract_x
_atom_site_fract_y
_atom_site_fract_z
Si Si1 0.358151 0.833776 0.367661
Si Si2 0.060401 0.673916 0.310972
Si Si3 0.475064 0.832996 0.740099
Si Si4 0.239624 0.665324 0.679911
Si Si5 0.064699 0.673099 0.017327
Si Si6 0.761931 0.667199 0.885594
Si Si7 0.640383 0.333857 0.255587
Si Si8 0.617383 0.331350 0.913505
O O1 0.426054 0.822628 0.388502
O O2 0.269749 0.765120 0.523085
O O3 0.398111 0.749507 0.196629
O O4 0.341948 0.000000 0.350787
O O5 0.056064 0.500000 0.319243
O O6 0.042045 0.728282 0.190573
O O7 0.148314 0.738119 0.236510
O O8 0.000000 0.738235 0.500000
O O9 0.441739 0.763455 0.652358
O O10 0.446428 0.000000 0.789107
O O11 0.438001 0.740771 0.905170
O O12 0.224884 0.500000 0.652547
O O13 0.318657 0.672822 0.663331
O O14 0.156267 0.726339 0.855444
O O15 0.063350 0.500000 0.019205
O O16 0.000000 0.733936 0.000000
O O17 0.775388 0.500000 0.906466
O O18 0.714405 0.683763 0.816472
O O19 0.706562 0.736423 0.070153
O O20 0.617606 0.500000 0.249222
O O21 0.592272 0.500000 0.934158
#
# Coordination Sequence:
#
# PCOD8063872 Si02
#       8
#     4   4   4   4   4   4   4   4
#     4  11  24  38  51  74 111 147 182 228 280 335
#     4   9  15  24  43  73 109 144 174 213 271 332
#     4  10  21  36  54  77 107 143 181 227 281 332
#     4  10  20  35  56  78 107 146 187 231 275 324
#     4   9  17  30  50  79 116 150 180 224 283 340
#     4   8  14  27  46  71 102 134 169 212 262 315
#     4   9  17  32  54  76 103 141 184 229 273 318
#     4  10  20  34  56  80 105 140 183 229 274 327
#
# _framework density 20.243262000000001
#
# number of rings (size 3 to 8) (size 9 to 14) (size 15 to 20)
#    0.000    2.500    1.250    2.250    0.000    5.500 
#    0.000    6.250    0.000    0.375    0.000    0.000 
#    0.000    4.500    0.000    0.000    0.000    0.000 
#
# Total GULP energy -396501.889048 kJ/mol
# GULP energy per Si atom -12390.684033 kJ/mol
# Density = 2.019719 g / cm^3
# Si number density = 20.243262 Si / 1000 Ang^3
#
#
#
# Elastic Constant Matrix: (Units=GPa)
#
#
# Indices 1 2 3 4 5 6 
#
# 1 89.3064 22.4165 23.3458 0.0000 -8.2550 0.0000
# 2 22.4165 81.8245 29.6327 0.0000 -6.6966 0.0000
# 3 23.3458 29.6327 89.7348 0.0000 -13.5046 0.0000
# 4 0.0000 0.0000 0.0000 9.5762 0.0000 -5.6759
# 5 -8.2550 -6.6966 -13.5046 0.0000 18.4405 0.0000
# 6 0.0000 0.0000 0.0000 -5.6759 0.0000 -3.3133
#
#
#
# Elastic Compliance Matrix: (Units=1/GPa)
#
#
# Indices 1 2 3 4 5 6 
#
# 1 0.012641 -0.002478 -0.001972 0.000000 0.003315 0.000000
# 2 -0.002478 0.014426 -0.003931 0.000000 0.001251 0.000000
# 3 -0.001972 -0.003931 0.014169 0.000000 0.008066 0.000000
# 4 0.000000 0.000000 0.000000 0.051815 0.000000 -0.088762
# 5 0.003315 0.001251 0.008066 0.000000 0.062074 0.000000
# 6 0.000000 0.000000 0.000000 -0.088762 0.000000 -0.149756
#
#
# Mechanical properties :
#
#
# Convention : Reuss Voigt Hill
#
# Bulk Modulus (GPa) = 40.85745 45.73952 43.29849
# Shear Modulus (GPa) = 165.08037 17.30539 91.19288
#
# Velocity S-wave (km/s) = 9.04021 2.92699 6.71910
# Velocity P-wave (km/s) = 11.36636 5.83670 9.03497
#
# Compressibility (1/GPa) = 0.02447534
#
# Stress axis : x y z
#
# Youngs Moduli (GPa) = 79.10641 69.31900 70.57695
#
# Poissons Ratio (x) = 0.17176 0.13915
# Poissons Ratio (y) = 0.19601 0.27744
# Poissons Ratio (z) = 0.15597 0.27249
#
# Static dielectric constant tensor:
#      x y z
#    x 3.947350 0.000000 -0.112110 
#    y 0.000000 3.257760 0.000000 
#    z -0.112110 0.000000 3.677750 
# 
# 
# High freq. dielectric constant tensor:
#      x y z
#    x 1.794360 0.000000 -0.002340 
#    y 0.000000 1.738780 0.000000 
#    z -0.002340 0.000000 1.789050 
# 
# From -- ./inp_files/55248.got.cif
#   From: 2010.06.25/outbox.cif.g09.slc.cpg/sg10_28_cif.got.tgz:55248.got - 2010.06.27 22:07:45.
