data_PCOD8063182
_publ_section_title
;
Structure prediction by ZEFSAII (Michael W. Deem and Ramdas Pophale) SiO2 
 PCOD8063182
Probable space group: P 2/M
;
_chemical_formula_sum "Si O2"
_cell_formula_units_Z 28
_cell_length_a 22.836002
_cell_length_b 9.241003
_cell_length_c 9.308392
_cell_angle_alpha 90.000000
_cell_angle_beta 52.307134
_cell_angle_gamma 90.000000
_cell_volume 1554.371526
_symmetry_space_group_name_H-M "P 2/M"
_symmetry_group_IT_number 10
_symmetry_cell_setting 'monoclinic'
loop_
_space_group_symop_operation_xyz
x,y,z
-x,y,-z
-x,-y,-z
x,-y,z
loop_
_atom_site_type_symbol
_atom_site_label
_atom_site_fract_x
_atom_site_fract_y
_atom_site_fract_z
Si Si1 0.433480 0.328606 0.507654
Si Si2 0.566520 0.671394 0.808094
Si Si3 0.857325 0.828634 0.548848
Si Si4 0.857325 0.171366 0.879177
Si Si5 0.000000 0.172145 0.837022
Si Si6 0.268441 0.331576 0.429810
Si Si7 0.731559 0.331576 0.235132
O O1 0.500000 0.259086 0.500000
O O2 0.442548 0.500000 0.485968
O O3 0.441175 0.261153 0.338237
O O4 0.351889 0.292349 0.690776
O O5 0.557450 0.500000 0.813614
O O6 0.648110 0.707648 0.746444
O O7 0.500000 0.740915 0.000000
O O8 0.865460 0.779694 0.701810
O O9 0.784280 0.761776 0.590585
O O10 0.927970 0.769932 0.354613
O O11 0.851276 0.000000 0.545712
O O12 0.927971 0.230067 0.861474
O O13 0.851276 0.000000 0.900460
O O14 0.784281 0.238225 0.056574
O O15 0.000001 0.000000 0.838079
O O16 0.000000 0.232876 0.000000
O O17 0.251693 0.500000 0.430170
O O18 0.257421 0.291915 0.613868
O O19 0.748306 0.500000 0.185249
#
# Coordination Sequence:
#
# PCOD8063182 Si02
#       7
#     4   4   4   4   4   4   4
#     4   8  14  25  42  65  92 121 154 192 232 275
#     4   8  14  25  42  65  92 121 154 192 232 275
#     4  10  20  33  50  73  99 125 156 196 238 280
#     4  10  20  33  50  73  99 125 156 196 238 280
#     4   9  17  31  52  73  92 121 160 196 232 279
#     4   9  18  32  49  71  99 128 159 196 237 282
#     4   9  18  32  49  71  99 128 159 196 237 282
#
# _framework density 18.013711000000001
#
# number of rings (size 3 to 8) (size 9 to 14) (size 15 to 20)
#    0.000    3.000    0.000    3.000    0.000    5.143 
#    0.000    3.571    0.000    5.143    0.000    0.000 
#    0.000    0.000    0.000    0.000    0.000    0.000 
#
# Total GULP energy -347072.175329 kJ/mol
# GULP energy per Si atom -12395.434833 kJ/mol
# Density = 1.797271 g / cm^3
# Si number density = 18.013711 Si / 1000 Ang^3
#
#
#
# Elastic Constant Matrix: (Units=GPa)
#
#
# Indices 1 2 3 4 5 6 
#
# 1 166.4306 25.3518 80.5508 0.0000 -3.7232 0.0000
# 2 25.3518 14.1655 25.3514 0.0000 -0.0013 0.0000
# 3 80.5508 25.3514 154.4416 0.0000 -12.4147 0.0000
# 4 0.0000 0.0000 0.0000 29.3796 0.0000 -10.0141
# 5 -3.7232 -0.0013 -12.4147 0.0000 29.8609 0.0000
# 6 0.0000 0.0000 0.0000 -10.0141 0.0000 36.8203
#
#
#
# Elastic Compliance Matrix: (Units=1/GPa)
#
#
# Indices 1 2 3 4 5 6 
#
# 1 0.009115 -0.011033 -0.002950 0.000000 -0.000091 0.000000
# 2 -0.011033 0.114770 -0.013651 0.000000 -0.007046 0.000000
# 3 -0.002950 -0.013651 0.010578 0.000000 0.004030 0.000000
# 4 0.000000 0.000000 0.000000 0.037515 0.000000 0.010203
# 5 -0.000091 -0.007046 0.004030 0.000000 0.035152 0.000000
# 6 0.000000 0.000000 0.000000 0.010203 0.000000 0.029934
#
#
# Mechanical properties :
#
#
# Convention : Reuss Voigt Hill
#
# Bulk Modulus (GPa) = 12.62721 66.39396 39.51059
# Shear Modulus (GPa) = 15.68719 32.79775 24.24247
#
# Velocity S-wave (km/s) = 2.95421 4.27161 3.67247
# Velocity P-wave (km/s) = 4.31990 7.82728 6.32170
#
# Compressibility (1/GPa) = 0.07919405
#
# Stress axis : x y z
#
# Youngs Moduli (GPa) = 109.70926 8.71310 94.53205
#
# Poissons Ratio (x) = 0.09613 0.27889
# Poissons Ratio (y) = 1.21042 1.29048
# Poissons Ratio (z) = 0.32367 0.11894
#
# Static dielectric constant tensor:
#      x y z
#    x 3.567440 0.000000 0.019300 
#    y 0.000000 2.791050 0.000000 
#    z 0.019300 0.000000 3.581800 
# 
# 
# High freq. dielectric constant tensor:
#      x y z
#    x 1.711030 0.000000 -0.006110 
#    y 0.000000 1.641410 0.000000 
#    z -0.006110 0.000000 1.706490 
# 
# From -- ./inp_files/34410.got.cif
#   From: 2010.06.25/outbox.cif.g09.slc.cpg/sg10_18_cif.got.tgz:34410.got - 2010.06.27 22:07:45.
