data_PCOD8063163
_publ_section_title
;
Structure prediction by ZEFSAII (Michael W. Deem and Ramdas Pophale) SiO2 
 PCOD8063163
Probable space group: P 2/M
;
_chemical_formula_sum "Si O2"
_cell_formula_units_Z 32
_cell_length_a 19.182602
_cell_length_b 20.352110
_cell_length_c 10.619201
_cell_angle_alpha 90.000000
_cell_angle_beta 154.582330
_cell_angle_gamma 90.000000
_cell_volume 1779.436013
_symmetry_space_group_name_H-M "P 2/M"
_symmetry_group_IT_number 10
_symmetry_cell_setting 'monoclinic'
loop_
_space_group_symop_operation_xyz
x,y,z
-x,y,-z
-x,-y,-z
x,-y,z
loop_
_atom_site_type_symbol
_atom_site_label
_atom_site_fract_x
_atom_site_fract_y
_atom_site_fract_z
Si Si1 0.008988 0.576727 0.158980
Si Si2 0.081474 0.197070 0.829041
Si Si3 0.248893 0.673982 0.162598
Si Si4 0.413703 0.326018 0.162595
Si Si5 0.582007 0.072371 0.829838
Si Si6 0.350008 0.576727 0.841020
Si Si7 0.747830 0.072371 0.829836
Si Si8 0.247565 0.197070 0.829038
O O1 0.971001 0.500000 0.110061
O O2 0.185141 0.594848 0.499999
O O3 0.000000 0.599619 0.000000
O O4 0.871992 0.613710 0.014365
O O5 0.164555 0.194898 0.829110
O O6 0.887960 0.205342 0.500002
O O7 0.153087 0.257681 0.025158
O O8 0.116941 0.129155 0.961227
O O9 0.393976 0.671592 0.500002
O O10 0.315301 0.667429 0.130602
O O11 0.357624 0.386290 0.985631
O O12 0.372069 0.257681 0.025154
O O13 0.665095 0.075912 0.830190
O O14 0.389656 0.084354 0.500001
O O15 0.613778 0.000000 0.941531
O O16 0.655716 0.129155 0.038776
O O17 0.360943 0.500000 0.889943
O O18 0.500000 0.599621 0.000000
O O19 0.827753 0.000000 0.941530
#
# Coordination Sequence:
#
# PCOD8063163 Si02
#       8
#     4   4   4   4   4   4   4   4
#     4  10  21  37  56  76  99 127 159 197 241 289
#     4   9  16  25  38  58  86 119 155 196 240 284
#     4  10  20  33  50  72  99 131 165 201 242 289
#     4  10  20  33  50  72  99 131 165 201 242 289
#     4   8  13  21  33  50  76 113 154 192 232 281
#     4  10  21  37  56  76  99 127 159 197 241 289
#     4   8  13  21  33  50  76 113 154 192 232 281
#     4   9  16  25  38  58  86 119 155 196 240 284
#
# _framework density 17.983225999999998
#
# number of rings (size 3 to 8) (size 9 to 14) (size 15 to 20)
#    0.000    2.750    0.000    3.000    0.000    7.000 
#    0.000    5.000    0.000    0.000    0.000    0.000 
#    0.000    1.000    0.000    3.750    0.000    8.750 
#
# Total GULP energy -396739.048131 kJ/mol
# GULP energy per Si atom -12398.095254 kJ/mol
# Density = 1.794230 g / cm^3
# Si number density = 17.983226 Si / 1000 Ang^3
#
#
#
# Elastic Constant Matrix: (Units=GPa)
#
#
# Indices 1 2 3 4 5 6 
#
# 1 23.1043 31.9851 31.3369 0.0000 3.7259 0.0000
# 2 31.9851 114.4224 79.1829 0.0000 3.5015 0.0000
# 3 31.3369 79.1829 151.8050 0.0000 5.8233 0.0000
# 4 0.0000 0.0000 0.0000 38.6890 0.0000 2.6948
# 5 3.7259 3.5015 5.8233 0.0000 21.1463 0.0000
# 6 0.0000 0.0000 0.0000 2.6948 0.0000 2.3708
#
#
#
# Elastic Compliance Matrix: (Units=1/GPa)
#
#
# Indices 1 2 3 4 5 6 
#
# 1 0.076868 -0.016385 -0.006980 0.000000 -0.008909 0.000000
# 2 -0.016385 0.017171 -0.005635 0.000000 0.001596 0.000000
# 3 -0.006980 -0.005635 0.011001 0.000000 -0.000867 0.000000
# 4 0.000000 0.000000 0.000000 0.028069 0.000000 -0.031905
# 5 -0.008909 0.001596 -0.000867 0.000000 0.048834 0.000000
# 6 0.000000 0.000000 0.000000 -0.031905 0.000000 0.458063
#
#
# Mechanical properties :
#
#
# Convention : Reuss Voigt Hill
#
# Bulk Modulus (GPa) = 21.25837 63.81571 42.53704
# Shear Modulus (GPa) = 7.00589 22.22967 14.61778
#
# Velocity S-wave (km/s) = 1.97592 3.51968 2.85416
# Velocity P-wave (km/s) = 4.12947 7.21671 5.87934
#
# Compressibility (1/GPa) = 0.04704030
#
# Stress axis : x y z
#
# Youngs Moduli (GPa) = 13.00933 58.23934 90.90212
#
# Poissons Ratio (x) = 0.95423 0.63446
# Poissons Ratio (y) = 0.21315 0.51226
# Poissons Ratio (z) = 0.09080 0.32819
#
# Static dielectric constant tensor:
#      x y z
#    x 2.731370 0.000000 0.061560 
#    y 0.000000 3.559390 0.000000 
#    z 0.061560 0.000000 3.561020 
# 
# 
# High freq. dielectric constant tensor:
#      x y z
#    x 1.627790 0.000000 0.006130 
#    y 0.000000 1.710720 0.000000 
#    z 0.006130 0.000000 1.710460 
# 
# From -- ./inp_files/57100.got.cif
#   From: 2010.06.25/outbox.cif.g09.slc.cpg/sg10_29_cif.got.tgz:57100.got - 2010.06.27 22:07:45.
