data_PCOD8063067
_publ_section_title
;
Structure prediction by ZEFSAII (Michael W. Deem and Ramdas Pophale) SiO2 
 PCOD8063067
Probable space group: P 2/M
;
_chemical_formula_sum "Si O2"
_cell_formula_units_Z 30
_cell_length_a 28.840717
_cell_length_b 10.555636
_cell_length_c 15.444342
_cell_angle_alpha 90.000000
_cell_angle_beta 20.054045
_cell_angle_gamma 90.000000
_cell_volume 1612.261264
_symmetry_space_group_name_H-M "P 2/M"
_symmetry_group_IT_number 10
_symmetry_cell_setting 'monoclinic'
loop_
_space_group_symop_operation_xyz
x,y,z
-x,y,-z
-x,-y,-z
x,-y,z
loop_
_atom_site_type_symbol
_atom_site_label
_atom_site_fract_x
_atom_site_fract_y
_atom_site_fract_z
Si Si1 0.475677 0.355947 0.637076
Si Si2 0.500000 0.207846 0.000000
Si Si3 0.983540 0.647353 0.765585
Si Si4 0.278070 0.642617 0.666091
Si Si5 0.405840 0.865849 0.346879
Si Si6 0.665379 0.783876 0.975572
Si Si7 0.281995 0.356619 0.285543
Si Si8 0.035103 0.857300 0.536788
O O1 0.500000 0.295437 0.500000
O O2 0.426511 0.500000 0.713110
O O3 0.613921 0.345468 0.447332
O O4 0.355185 0.280097 0.894680
O O5 0.455151 0.127619 0.161337
O O6 0.365809 0.285472 0.211662
O O7 0.978574 0.500000 0.740557
O O8 0.122750 0.674368 0.572266
O O9 0.968416 0.747522 0.713170
O O10 0.867096 0.673687 0.039124
O O11 0.280733 0.500000 0.621697
O O12 0.310647 0.744821 0.533849
O O13 0.537473 0.871050 0.177795
O O14 0.328973 0.000000 0.499020
O O15 0.667360 0.673601 0.900003
O O16 0.803300 0.862103 0.734369
O O17 0.313857 0.500000 0.248229
O O18 0.000000 0.822729 0.500000
O O19 0.982204 0.000000 0.653057
#
# Coordination Sequence:
#
# PCOD8063067 Si02
#       8
#     4   2   4   4   4   4   4   4
#     4   9  17  28  47  74 102 133 172 218 260 299
#     4  10  20  32  54  82 105 130 167 216 261 312
#     4   9  19  36  55  76 104 138 176 212 255 310
#     4   9  19  35  53  75 105 139 173 211 259 310
#     4  10  20  35  56  78 103 135 172 213 260 311
#     4   9  18  32  50  71 103 137 173 212 260 305
#     4   9  17  31  52  79 105 133 167 211 262 313
#     4  10  21  34  50  74 105 139 177 219 261 304
#
# _framework density 18.607406999999998
#
# number of rings (size 3 to 8) (size 9 to 14) (size 15 to 20)
#    0.000    2.667    0.000    1.200    1.867    5.067 
#    0.000    1.333    0.000    5.200    0.000    0.000 
#    0.000    0.000    0.000    0.000    0.000    0.000 
#
# Total GULP energy -371807.060684 kJ/mol
# GULP energy per Si atom -12393.568689 kJ/mol
# Density = 1.856506 g / cm^3
# Si number density = 18.607407 Si / 1000 Ang^3
#
#
#
# Elastic Constant Matrix: (Units=GPa)
#
#
# Indices 1 2 3 4 5 6 
#
# 1 73.9126 41.4715 20.2856 0.0000 12.3389 0.0000
# 2 41.4715 126.5832 49.2309 0.0000 13.1516 0.0000
# 3 20.2856 49.2309 80.0411 0.0000 13.0029 0.0000
# 4 0.0000 0.0000 0.0000 17.2282 0.0000 -2.2177
# 5 12.3389 13.1516 13.0029 0.0000 27.3037 0.0000
# 6 0.0000 0.0000 0.0000 -2.2177 0.0000 -12.5023
#
#
#
# Elastic Compliance Matrix: (Units=1/GPa)
#
#
# Indices 1 2 3 4 5 6 
#
# 1 0.017304 -0.004931 -0.000507 0.000000 -0.005203 0.000000
# 2 -0.004931 0.011904 -0.005964 0.000000 -0.000665 0.000000
# 3 -0.000507 -0.005964 0.017110 0.000000 -0.005047 0.000000
# 4 0.000000 0.000000 0.000000 0.056749 0.000000 -0.010066
# 5 -0.005203 -0.000665 -0.005047 0.000000 0.041700 0.000000
# 6 0.000000 0.000000 0.000000 -0.010066 0.000000 -0.078200
#
#
# Mechanical properties :
#
#
# Convention : Reuss Voigt Hill
#
# Bulk Modulus (GPa) = 42.52884 55.83477 49.18180
# Shear Modulus (GPa) = 51.43445 17.70917 34.57181
#
# Velocity S-wave (km/s) = 5.26326 3.08835 4.31508
# Velocity P-wave (km/s) = 7.73572 6.54134 7.16347
#
# Compressibility (1/GPa) = 0.02351346
#
# Stress axis : x y z
#
# Youngs Moduli (GPa) = 57.78930 84.00362 58.44451
#
# Poissons Ratio (x) = 0.41426 0.02964
# Poissons Ratio (y) = 0.28498 0.34857
# Poissons Ratio (z) = 0.02931 0.50100
#
# Static dielectric constant tensor:
#      x y z
#    x 3.291700 0.000000 -0.030910 
#    y 0.000000 3.446980 0.000000 
#    z -0.030910 0.000000 3.397320 
# 
# 
# High freq. dielectric constant tensor:
#      x y z
#    x 1.709230 0.000000 -0.001510 
#    y 0.000000 1.722420 0.000000 
#    z -0.001510 0.000000 1.713640 
# 
# From -- ./inp_files/72395.got.cif
#   From: 2010.06.25/outbox.cif.g09.slc.cpg/sg10_37_cif.got.tgz:72395.got - 2010.06.27 22:07:45.
