data_PCOD8063857
_publ_section_title
;
Structure prediction by ZEFSAII (Michael W. Deem and Ramdas Pophale) SiO2 
 PCOD8063857
Probable space group: P 2/M
;
_chemical_formula_sum "Si O2"
_cell_formula_units_Z 24
_cell_length_a 11.407969
_cell_length_b 9.148243
_cell_length_c 23.159883
_cell_angle_alpha 90.000000
_cell_angle_beta 30.447407
_cell_angle_gamma 90.000000
_cell_volume 1224.824258
_symmetry_space_group_name_H-M "P 2/M"
_symmetry_group_IT_number 10
_symmetry_cell_setting 'monoclinic'
loop_
_space_group_symop_operation_xyz
x,y,z
-x,y,-z
-x,-y,-z
x,-y,z
loop_
_atom_site_type_symbol
_atom_site_label
_atom_site_fract_x
_atom_site_fract_y
_atom_site_fract_z
Si Si1 0.920782 0.330172 0.171910
Si Si2 0.647331 0.328756 0.173554
Si Si3 0.189667 0.834973 0.373149
Si Si4 0.262998 0.671019 0.627970
Si Si5 0.668156 0.827079 0.047315
Si Si6 0.139850 0.834932 0.264043
O O1 0.987770 0.500000 0.144536
O O2 0.794164 0.284854 0.167010
O O3 0.753130 0.292248 0.296999
O O4 0.158322 0.236678 0.074782
O O5 0.663386 0.500000 0.153509
O O6 0.386762 0.284008 0.298057
O O7 0.739527 0.243136 0.078486
O O8 0.076258 0.822623 0.358360
O O9 0.000000 0.794016 0.500000
O O10 0.287809 0.000000 0.340165
O O11 0.500000 0.738413 0.500000
O O12 0.261466 0.500000 0.616632
O O13 0.033362 0.732572 0.696396
O O14 0.405899 0.784177 0.141545
O O15 0.693495 0.000000 0.041744
O O16 0.107946 0.000000 0.255124
#
# Coordination Sequence:
#
# PCOD8063857 Si02
#       6
#     4   4   4   4   4   4
#     4  10  22  38  56  83 117 151 189 234 282 332
#     4  10  20  34  55  85 118 148 184 233 283 336
#     4   9  19  35  55  81 114 150 188 233 282 333
#     4  10  23  41  59  80 112 152 191 233 279 331
#     4  10  21  38  60  86 116 147 185 233 286 342
#     4   9  20  38  57  81 112 144 185 236 281 328
#
# _framework density 19.594646999999998
#
# number of rings (size 3 to 8) (size 9 to 14) (size 15 to 20)
#    0.000    2.333    0.000    2.500    2.333    8.667 
#    0.000    3.333    0.000    0.000    0.000    0.000 
#    0.000    0.000    0.000    0.000    0.000    0.000 
#
# Total GULP energy -297591.823130 kJ/mol
# GULP energy per Si atom -12399.659297 kJ/mol
# Density = 1.955005 g / cm^3
# Si number density = 19.594647 Si / 1000 Ang^3
#
#
#
# Elastic Constant Matrix: (Units=GPa)
#
#
# Indices 1 2 3 4 5 6 
#
# 1 86.6490 41.3051 55.5669 0.0000 -11.6635 0.0000
# 2 41.3051 55.2930 47.5781 0.0000 0.0912 0.0000
# 3 55.5669 47.5781 135.1500 0.0000 9.5363 0.0000
# 4 0.0000 0.0000 0.0000 26.6918 0.0000 0.1386
# 5 -11.6635 0.0912 9.5363 0.0000 17.0873 0.0000
# 6 0.0000 0.0000 0.0000 0.1386 0.0000 27.6388
#
#
#
# Elastic Compliance Matrix: (Units=1/GPa)
#
#
# Indices 1 2 3 4 5 6 
#
# 1 0.025104 -0.012350 -0.007482 0.000000 0.021377 0.000000
# 2 -0.012350 0.032465 -0.005980 0.000000 -0.005266 0.000000
# 3 -0.007482 -0.005980 0.013469 0.000000 -0.012592 0.000000
# 4 0.000000 0.000000 0.000000 0.037466 0.000000 -0.000188
# 5 0.021377 -0.005266 -0.012592 0.000000 0.080170 0.000000
# 6 0.000000 0.000000 0.000000 -0.000188 0.000000 0.036182
#
#
# Mechanical properties :
#
#
# Convention : Reuss Voigt Hill
#
# Bulk Modulus (GPa) = 51.50858 62.88802 57.19830
# Shear Modulus (GPa) = 17.67088 23.12637 20.39862
#
# Velocity S-wave (km/s) = 3.00629 3.43919 3.23000
# Velocity P-wave (km/s) = 6.19633 6.92350 6.56998
#
# Compressibility (1/GPa) = 0.01941424
#
# Stress axis : x y z
#
# Youngs Moduli (GPa) = 39.83477 30.80199 74.24448
#
# Poissons Ratio (x) = 0.38041 0.55550
# Poissons Ratio (y) = 0.49197 0.44396
# Poissons Ratio (z) = 0.29804 0.18419
#
# Static dielectric constant tensor:
#      x y z
#    x 3.458310 0.000000 0.110500 
#    y 0.000000 3.493920 0.000000 
#    z 0.110500 0.000000 3.863180 
# 
# 
# High freq. dielectric constant tensor:
#      x y z
#    x 1.753890 0.000000 0.004670 
#    y 0.000000 1.758510 0.000000 
#    z 0.004670 0.000000 1.775660 
# 
# From -- ./inp_files/45163.got.cif
#   From: 2010.06.25/outbox.cif.g09.slc.cpg/sg10_23_cif.got.tgz:45163.got - 2010.06.27 22:07:45.
