data_PCOD8063255
_publ_section_title
;
Structure prediction by ZEFSAII (Michael W. Deem and Ramdas Pophale) SiO2 
 PCOD8063255
Probable space group: P 2/M
;
_chemical_formula_sum "Si O2"
_cell_formula_units_Z 24
_cell_length_a 31.060533
_cell_length_b 9.261616
_cell_length_c 8.965294
_cell_angle_alpha 90.000000
_cell_angle_beta 29.384804
_cell_angle_gamma 90.000000
_cell_volume 1265.470664
_symmetry_space_group_name_H-M "P 2/M"
_symmetry_group_IT_number 10
_symmetry_cell_setting 'monoclinic'
loop_
_space_group_symop_operation_xyz
x,y,z
-x,y,-z
-x,-y,-z
x,-y,z
loop_
_atom_site_type_symbol
_atom_site_label
_atom_site_fract_x
_atom_site_fract_y
_atom_site_fract_z
Si Si1 0.522808 0.333014 0.264440
Si Si2 0.836192 0.165779 0.324054
Si Si3 0.651444 0.667437 0.394256
Si Si4 0.334737 0.833788 0.341309
Si Si5 0.809071 0.670040 0.708135
Si Si6 0.998956 0.658966 0.180613
O O1 0.500000 0.284431 0.500000
O O2 0.551257 0.500000 0.174614
O O3 0.440448 0.303921 0.407513
O O4 0.603989 0.237948 0.967405
O O5 0.765618 0.183357 0.406461
O O6 0.802293 0.247783 0.572433
O O7 0.851909 0.000000 0.319775
O O8 0.927578 0.230056 0.983637
O O9 0.663730 0.500000 0.398084
O O10 0.652536 0.758266 0.540053
O O11 0.729042 0.721164 0.052268
O O12 0.361632 0.000000 0.276038
O O13 0.804250 0.500000 0.686634
O O14 0.899784 0.707349 0.522678
O O15 0.019970 0.500000 0.183296
O O16 0.000000 0.652680 0.000000
#
# Coordination Sequence:
#
# PCOD8063255 Si02
#       6
#     4   4   4   4   4   4
#     4  10  21  38  61  85 105 131 172 219 264 311
#     4  10  20  33  51  77 107 141 180 217 258 310
#     4  10  21  37  57  80 106 138 175 214 261 316
#     4  11  24  38  52  76 111 146 177 212 258 311
#     4   9  18  34  56  81 106 134 174 222 267 311
#     4   8  15  29  51  78 105 134 172 219 266 308
#
# _framework density 18.965275999999999
#
# number of rings (size 3 to 8) (size 9 to 14) (size 15 to 20)
#    0.000    2.333    0.000    3.500    0.000   10.667 
#    0.000    0.833    0.000    5.000    0.000    0.000 
#    0.000    0.000    0.000    0.000    0.000    0.000 
#
# Total GULP energy -297616.326640 kJ/mol
# GULP energy per Si atom -12400.680277 kJ/mol
# Density = 1.892211 g / cm^3
# Si number density = 18.965276 Si / 1000 Ang^3
#
#
#
# Elastic Constant Matrix: (Units=GPa)
#
#
# Indices 1 2 3 4 5 6 
#
# 1 80.9049 45.7414 7.3198 0.0000 -0.1887 0.0000
# 2 45.7414 83.4131 22.3692 0.0000 -4.4497 0.0000
# 3 7.3198 22.3692 37.0439 0.0000 -14.6694 0.0000
# 4 0.0000 0.0000 0.0000 16.1438 0.0000 -13.7295
# 5 -0.1887 -4.4497 -14.6694 0.0000 25.4540 0.0000
# 6 0.0000 0.0000 0.0000 -13.7295 0.0000 19.5628
#
#
#
# Elastic Compliance Matrix: (Units=1/GPa)
#
#
# Indices 1 2 3 4 5 6 
#
# 1 0.018171 -0.010735 0.002853 0.000000 -0.000098 0.000000
# 2 -0.010735 0.020852 -0.011737 0.000000 -0.003199 0.000000
# 3 0.002853 -0.011737 0.042389 0.000000 0.022398 0.000000
# 4 0.000000 0.000000 0.000000 0.153653 0.000000 0.107837
# 5 -0.000098 -0.003199 0.022398 0.000000 0.051635 0.000000
# 6 0.000000 0.000000 0.000000 0.107837 0.000000 0.126799
#
#
# Mechanical properties :
#
#
# Convention : Reuss Voigt Hill
#
# Bulk Modulus (GPa) = 23.71132 39.13585 31.42358
# Shear Modulus (GPa) = 10.71134 20.62755 15.66944
#
# Velocity S-wave (km/s) = 2.37910 3.30153 2.87752
# Velocity P-wave (km/s) = 4.48068 5.93412 5.25786
#
# Compressibility (1/GPa) = 0.04217395
#
# Stress axis : x y z
#
# Youngs Moduli (GPa) = 55.03275 47.95664 23.59121
#
# Poissons Ratio (x) = 0.51480 -0.06731
# Poissons Ratio (y) = 0.59077 0.27690
# Poissons Ratio (z) = -0.15701 0.56288
#
# Static dielectric constant tensor:
#      x y z
#    x 3.305420 0.000000 -0.245790 
#    y 0.000000 3.485150 0.000000 
#    z -0.245790 0.000000 3.840690 
# 
# 
# High freq. dielectric constant tensor:
#      x y z
#    x 1.724840 0.000000 -0.018320 
#    y 0.000000 1.732960 0.000000 
#    z -0.018320 0.000000 1.746160 
# 
# From -- ./inp_files/27060.got.cif
#   From: 2010.06.25/outbox.cif.g09.slc.cpg/sg10_14_cif.got.tgz:27060.got - 2010.06.27 22:07:45.
