data_PCOD8063117
_publ_section_title
;
Structure prediction by ZEFSAII (Michael W. Deem and Ramdas Pophale) SiO2 
 PCOD8063117
Probable space group: P 2/M
;
_chemical_formula_sum "Si O2"
_cell_formula_units_Z 28
_cell_length_a 24.403773
_cell_length_b 9.621799
_cell_length_c 21.954362
_cell_angle_alpha 90.000000
_cell_angle_beta 17.708627
_cell_angle_gamma 90.000000
_cell_volume 1568.049380
_symmetry_space_group_name_H-M "P 2/M"
_symmetry_group_IT_number 10
_symmetry_cell_setting 'monoclinic'
loop_
_space_group_symop_operation_xyz
x,y,z
-x,y,-z
-x,-y,-z
x,-y,z
loop_
_atom_site_type_symbol
_atom_site_label
_atom_site_fract_x
_atom_site_fract_y
_atom_site_fract_z
Si Si1 0.202983 0.664945 0.297016
Si Si2 0.356894 0.657330 0.822515
Si Si3 0.922525 0.842395 0.145708
Si Si4 0.453212 0.665495 0.140357
Si Si5 0.615750 0.665073 0.652770
Si Si6 0.490744 0.842391 0.441022
Si Si7 0.963711 0.342672 0.215697
O O1 0.188077 0.500000 0.311923
O O2 0.288720 0.715349 0.270741
O O3 0.000000 0.726906 0.500000
O O4 0.348183 0.715346 0.092354
O O5 0.422335 0.500000 0.739646
O O6 0.461857 0.718616 0.769559
O O7 0.386010 0.747206 0.731395
O O8 0.145920 0.660720 0.062254
O O9 0.709010 0.834503 0.372980
O O10 0.996595 0.747199 0.120808
O O11 0.991089 0.000000 0.083223
O O12 0.000000 0.785103 0.000000
O O13 0.452829 0.500000 0.141511
O O14 0.418666 0.729381 0.243986
O O15 0.612907 0.500000 0.661282
O O16 0.806742 0.718626 0.424673
O O17 0.500000 0.785111 0.500000
O O18 0.565381 0.000000 0.360311
O O19 0.915694 0.500000 0.246285
#
# Coordination Sequence:
#
# PCOD8063117 Si02
#       7
#     4   4   4   4   4   4   4
#     4   8  13  21  34  55  83 114 155 197 229 269
#     4  10  20  33  49  69  93 124 159 195 239 288
#     4  10  20  34  52  72  93 119 153 195 244 293
#     4   8  14  23  36  55  81 118 156 194 236 270
#     4   9  17  30  44  61  91 124 160 202 238 284
#     4  10  20  34  52  72  93 119 153 195 244 293
#     4  10  20  33  49  69  93 124 159 195 239 288
#
# _framework density 17.856580000000001
#
# number of rings (size 3 to 8) (size 9 to 14) (size 15 to 20)
#    0.000    2.714    1.429    1.714    0.000    3.429 
#    0.000    5.714    0.000    0.000    0.000    0.000 
#    0.000    0.000    0.000   10.286    0.000   33.714 
#
# Total GULP energy -347062.141953 kJ/mol
# GULP energy per Si atom -12395.076498 kJ/mol
# Density = 1.781594 g / cm^3
# Si number density = 17.856580 Si / 1000 Ang^3
#
#
#
# Elastic Constant Matrix: (Units=GPa)
#
#
# Indices 1 2 3 4 5 6 
#
# 1 138.9097 27.7654 78.6479 0.0000 12.1494 0.0000
# 2 27.7654 28.7390 21.6839 0.0000 5.7495 0.0000
# 3 78.6479 21.6839 128.2526 0.0000 -2.0744 0.0000
# 4 0.0000 0.0000 0.0000 3.3847 0.0000 -2.4801
# 5 12.1494 5.7495 -2.0744 0.0000 37.1502 0.0000
# 6 0.0000 0.0000 0.0000 -2.4801 0.0000 0.7712
#
#
#
# Elastic Compliance Matrix: (Units=1/GPa)
#
#
# Indices 1 2 3 4 5 6 
#
# 1 0.012566 -0.006402 -0.006680 0.000000 -0.003492 0.000000
# 2 -0.006402 0.044806 -0.003731 0.000000 -0.005049 0.000000
# 3 -0.006680 -0.003731 0.012580 0.000000 0.003465 0.000000
# 4 0.000000 0.000000 0.000000 -0.217808 0.000000 -0.700452
# 5 -0.003492 -0.005049 0.003465 0.000000 0.029035 0.000000
# 6 0.000000 0.000000 0.000000 -0.700452 0.000000 -0.955927
#
#
# Mechanical properties :
#
#
# Convention : Reuss Voigt Hill
#
# Bulk Modulus (GPa) = 27.52810 61.34395 44.43602
# Shear Modulus (GPa) = -4.85902 19.44817 7.29457
#
# Velocity S-wave (km/s) = -1.65138 3.30378 2.02335
# Velocity P-wave (km/s) = 3.43710 6.99868 5.51340
#
# Compressibility (1/GPa) = 0.03632652
#
# Stress axis : x y z
#
# Youngs Moduli (GPa) = 79.58045 22.31830 79.48921
#
# Poissons Ratio (x) = 0.14287 0.53098
# Poissons Ratio (y) = 0.50944 0.29661
# Poissons Ratio (z) = 0.53159 0.08328
#
# Static dielectric constant tensor:
#      x y z
#    x 3.467130 0.000000 -0.039940 
#    y 0.000000 2.838750 0.000000 
#    z -0.039940 0.000000 3.509220 
# 
# 
# High freq. dielectric constant tensor:
#      x y z
#    x 1.692260 0.000000 -0.010210 
#    y 0.000000 1.629640 0.000000 
#    z -0.010210 0.000000 1.703050 
# 
# From -- ./inp_files/86442.got.cif
#   From: 2010.06.25/outbox.cif.g09.slc.cpg/sg10_44_cif.got.tgz:86442.got - 2010.06.27 22:07:45.
