data_PCOD8063956
_publ_section_title
;
Structure prediction by ZEFSAII (Michael W. Deem and Ramdas Pophale) SiO2 
 PCOD8063956
Probable space group: P 2/M
;
_chemical_formula_sum "Si O2"
_cell_formula_units_Z 24
_cell_length_a 23.481887
_cell_length_b 9.738749
_cell_length_c 5.268425
_cell_angle_alpha 90.000000
_cell_angle_beta 85.010674
_cell_angle_gamma 90.000000
_cell_volume 1200.240467
_symmetry_space_group_name_H-M "P 2/M"
_symmetry_group_IT_number 10
_symmetry_cell_setting 'monoclinic'
loop_
_space_group_symop_operation_xyz
x,y,z
-x,y,-z
-x,-y,-z
x,-y,z
loop_
_atom_site_type_symbol
_atom_site_label
_atom_site_fract_x
_atom_site_fract_y
_atom_site_fract_z
Si Si1 0.027031 0.657216 0.739577
Si Si2 0.734367 0.346137 0.547789
Si Si3 0.197731 0.150747 0.184058
Si Si4 0.845893 0.744231 0.307848
Si Si5 0.631659 0.836963 0.453643
Si Si6 0.563590 0.161827 0.977620
O O1 0.006838 0.500000 0.747555
O O2 0.095349 0.661928 0.713775
O O3 0.000000 0.729290 0.500000
O O4 0.000000 0.729577 0.000000
O O5 0.711564 0.500000 0.616427
O O6 0.751639 0.264518 0.801655
O O7 0.791472 0.358691 0.351775
O O8 0.689049 0.252455 0.415636
O O9 0.156221 0.154300 0.447688
O O10 0.226340 0.000000 0.154679
O O11 0.159139 0.174094 0.952713
O O12 0.598075 0.787805 0.717728
O O13 0.645778 0.000000 0.450530
O O14 0.594919 0.794282 0.223257
O O15 0.557879 0.000000 0.964956
O O16 0.500000 0.227331 0.000000
#
# Coordination Sequence:
#
# PCOD8063956 Si02
#       6
#     4   4   4   4   4   4
#     4  10  20  35  58  86 117 152 196 246 292 343
#     4  10  24  39  59  89 123 156 193 242 296 353
#     4  10  22  39  62  85 114 156 197 236 290 355
#     4  10  22  38  61  86 119 150 197 241 298 347
#     4  10  20  34  57  87 115 150 192 239 289 343
#     4   9  18  34  57  84 113 148 195 245 285 328
#
# _framework density 19.995992999999999
#
# number of rings (size 3 to 8) (size 9 to 14) (size 15 to 20)
#    1.000    1.167    0.000    3.000    2.333    3.333 
#    0.000    0.000    0.000   13.000    0.000    0.000 
#    0.000    0.000    0.000    0.000    0.000    0.000 
#
# Total GULP energy -297371.372557 kJ/mol
# GULP energy per Si atom -12390.473857 kJ/mol
# Density = 1.995048 g / cm^3
# Si number density = 19.995993 Si / 1000 Ang^3
#
#
#
# Elastic Constant Matrix: (Units=GPa)
#
#
# Indices 1 2 3 4 5 6 
#
# 1 140.0730 29.2390 52.9298 0.0000 6.2851 0.0000
# 2 29.2390 85.5879 30.5856 0.0000 12.2222 0.0000
# 3 52.9298 30.5856 168.8227 0.0000 18.0827 0.0000
# 4 0.0000 0.0000 0.0000 7.1686 0.0000 2.1136
# 5 6.2851 12.2222 18.0827 0.0000 25.5035 0.0000
# 6 0.0000 0.0000 0.0000 2.1136 0.0000 15.8307
#
#
#
# Elastic Compliance Matrix: (Units=1/GPa)
#
#
# Indices 1 2 3 4 5 6 
#
# 1 0.008436 -0.002137 -0.002321 0.000000 0.000591 0.000000
# 2 -0.002137 0.013587 -0.001245 0.000000 -0.005102 0.000000
# 3 -0.002321 -0.001245 0.007306 0.000000 -0.004012 0.000000
# 4 0.000000 0.000000 0.000000 0.145213 0.000000 -0.019388
# 5 0.000591 -0.005102 -0.004012 0.000000 0.044354 0.000000
# 6 0.000000 0.000000 0.000000 -0.019388 0.000000 0.065757
#
#
# Mechanical properties :
#
#
# Convention : Reuss Voigt Hill
#
# Bulk Modulus (GPa) = 55.79240 68.88802 62.34021
# Shear Modulus (GPa) = 16.55440 28.48252 22.51846
#
# Velocity S-wave (km/s) = 2.88042 3.77823 3.35945
# Velocity P-wave (km/s) = 6.24698 7.31841 6.80382
#
# Compressibility (1/GPa) = 0.01792359
#
# Stress axis : x y z
#
# Youngs Moduli (GPa) = 118.54408 73.59727 136.86772
#
# Poissons Ratio (x) = 0.15726 0.31766
# Poissons Ratio (y) = 0.25330 0.17043
# Poissons Ratio (z) = 0.27513 0.09164
#
# Static dielectric constant tensor:
#      x y z
#    x 3.519860 0.000000 0.055290 
#    y 0.000000 3.126980 0.000000 
#    z 0.055290 0.000000 3.849850 
# 
# 
# High freq. dielectric constant tensor:
#      x y z
#    x 1.774690 0.000000 0.008620 
#    y 0.000000 1.731820 0.000000 
#    z 0.008620 0.000000 1.793600 
# 
# From -- ./inp_files/13012.got.cif
#   From: 2010.06.25/outbox.cif.g09.slc.cpg/sg10_7_cif.got.tgz:13012.got - 2010.06.27 22:07:45.
