data_PCOD8063773
_publ_section_title
;
Structure prediction by ZEFSAII (Michael W. Deem and Ramdas Pophale) SiO2 
 PCOD8063773
Probable space group: P 2/M
;
_chemical_formula_sum "Si O2"
_cell_formula_units_Z 32
_cell_length_a 28.473653
_cell_length_b 8.898020
_cell_length_c 12.342109
_cell_angle_alpha 90.000000
_cell_angle_beta 149.604881
_cell_angle_gamma 90.000000
_cell_volume 1582.130752
_symmetry_space_group_name_H-M "P 2/M"
_symmetry_group_IT_number 10
_symmetry_cell_setting 'monoclinic'
loop_
_space_group_symop_operation_xyz
x,y,z
-x,y,-z
-x,-y,-z
x,-y,z
loop_
_atom_site_type_symbol
_atom_site_label
_atom_site_fract_x
_atom_site_fract_y
_atom_site_fract_z
Si Si1 0.054575 0.829544 0.713856
Si Si2 0.778696 0.330909 0.027830
Si Si3 0.003400 0.828619 0.844202
Si Si4 0.727228 0.825215 0.136373
Si Si5 0.182587 0.322223 0.475868
Si Si6 0.482915 0.175832 0.343077
Si Si7 0.212491 0.821847 0.317269
Si Si8 0.349969 0.328098 0.421277
O O1 0.141169 0.718168 0.896424
O O2 0.987756 0.812527 0.684178
O O3 0.000000 0.778905 0.500000
O O4 0.091960 0.000000 0.780562
O O5 0.794291 0.500000 0.100313
O O6 0.781784 0.220705 0.136482
O O7 0.685536 0.317010 0.773015
O O8 0.925446 0.728238 0.746253
O O9 0.988408 0.000000 0.853187
O O10 0.107540 0.773919 0.077231
O O11 0.765897 0.732931 0.314209
O O12 0.744562 0.000000 0.193495
O O13 0.620194 0.786235 0.902266
O O14 0.187456 0.500000 0.479784
O O15 0.236418 0.251291 0.480788
O O16 0.500000 0.234473 0.500000
O O17 0.547737 0.257636 0.383441
O O18 0.504738 0.000000 0.381835
O O19 0.285844 0.763147 0.376086
O O20 0.222207 0.000000 0.342886
O O21 0.354718 0.500000 0.470611
#
# Coordination Sequence:
#
# PCOD8063773 Si02
#       8
#     4   4   4   4   4   4   4   4
#     4  10  20  34  54  82 118 162 206 248 296 357
#     4  11  22  35  56  88 125 161 196 243 307 366
#     4  10  21  38  61  90 121 162 213 256 298 357
#     4  11  23  41  65  90 123 163 207 254 302 366
#     4  12  26  42  62  90 126 162 204 258 315 367
#     4  10  21  39  65  95 123 159 206 251 300 365
#     4  11  23  42  67  90 121 165 215 259 298 357
#     4  11  23  38  61  94 129 160 196 249 310 365
#
# _framework density 20.225888999999999
#
# number of rings (size 3 to 8) (size 9 to 14) (size 15 to 20)
#    0.000    1.250    2.500    3.750    0.000    6.500 
#    0.000    0.625    0.000    3.750    0.000    0.000 
#    0.000    0.000    0.000    0.000    0.000    0.000 
#
# Total GULP energy -396867.565870 kJ/mol
# GULP energy per Si atom -12402.111433 kJ/mol
# Density = 2.017985 g / cm^3
# Si number density = 20.225889 Si / 1000 Ang^3
#
#
#
# Elastic Constant Matrix: (Units=GPa)
#
#
# Indices 1 2 3 4 5 6 
#
# 1 122.3468 53.3958 38.4806 0.0000 -2.0840 0.0000
# 2 53.3958 102.2574 33.5175 0.0000 8.5997 0.0000
# 3 38.4806 33.5175 48.7827 0.0000 4.9403 0.0000
# 4 0.0000 0.0000 0.0000 18.9450 0.0000 -8.7715
# 5 -2.0840 8.5997 4.9403 0.0000 30.9196 0.0000
# 6 0.0000 0.0000 0.0000 -8.7715 0.0000 20.9104
#
#
#
# Elastic Compliance Matrix: (Units=1/GPa)
#
#
# Indices 1 2 3 4 5 6 
#
# 1 0.012373 -0.004419 -0.007046 0.000000 0.003189 0.000000
# 2 -0.004419 0.014344 -0.006033 0.000000 -0.003323 0.000000
# 3 -0.007046 -0.006033 0.030575 0.000000 -0.003682 0.000000
# 4 0.000000 0.000000 0.000000 0.065507 0.000000 0.027479
# 5 0.003189 -0.003323 -0.003682 0.000000 0.034070 0.000000
# 6 0.000000 0.000000 0.000000 0.027479 0.000000 0.059350
#
#
# Mechanical properties :
#
#
# Convention : Reuss Voigt Hill
#
# Bulk Modulus (GPa) = 44.85313 58.24163 51.54738
# Shear Modulus (GPa) = 19.33137 24.02120 21.67628
#
# Velocity S-wave (km/s) = 3.09491 3.44996 3.27725
# Velocity P-wave (km/s) = 5.91570 6.68788 6.31361
#
# Compressibility (1/GPa) = 0.02229499
#
# Stress axis : x y z
#
# Youngs Moduli (GPa) = 80.82302 69.71702 32.70618
#
# Poissons Ratio (x) = 0.30809 0.23046
# Poissons Ratio (y) = 0.35717 0.19731
# Poissons Ratio (z) = 0.56951 0.42058
#
# Static dielectric constant tensor:
#      x y z
#    x 3.694350 0.000000 -0.050250 
#    y 0.000000 3.602640 0.000000 
#    z -0.050250 0.000000 3.647650 
# 
# 
# High freq. dielectric constant tensor:
#      x y z
#    x 1.797090 0.000000 -0.002150 
#    y 0.000000 1.789280 0.000000 
#    z -0.002150 0.000000 1.780890 
# 
# From -- ./inp_files/58286.got.cif
#   From: 2010.06.25/outbox.cif.g09.slc.cpg/sg10_30_cif.got.tgz:58286.got - 2010.06.27 22:07:45.
