data_PCOD8063365
_publ_section_title
;
Structure prediction by ZEFSAII (Michael W. Deem and Ramdas Pophale) SiO2 
 PCOD8063365
Probable space group: P 2/M
;
_chemical_formula_sum "Si O2"
_cell_formula_units_Z 26
_cell_length_a 9.050012
_cell_length_b 11.890815
_cell_length_c 14.062216
_cell_angle_alpha 90.000000
_cell_angle_beta 116.526021
_cell_angle_gamma 90.000000
_cell_volume 1353.964667
_symmetry_space_group_name_H-M "P 2/M"
_symmetry_group_IT_number 10
_symmetry_cell_setting 'monoclinic'
loop_
_space_group_symop_operation_xyz
x,y,z
-x,y,-z
-x,-y,-z
x,-y,z
loop_
_atom_site_type_symbol
_atom_site_label
_atom_site_fract_x
_atom_site_fract_y
_atom_site_fract_z
Si Si1 0.674785 0.225786 0.287085
Si Si2 0.337330 0.228864 0.083663
Si Si3 0.167887 0.629706 0.186586
Si Si4 0.970031 0.000000 0.207570
Si Si5 0.158630 0.758833 0.848643
Si Si6 0.175566 0.000000 0.098070
Si Si7 0.864507 0.000000 0.379793
Si Si8 0.496453 0.630398 0.390911
O O1 0.524840 0.217379 0.169850
O O2 0.809139 0.278392 0.252167
O O3 0.742048 0.107529 0.347130
O O4 0.629311 0.303238 0.363973
O O5 0.238086 0.328041 0.107120
O O6 0.268340 0.109304 0.092674
O O7 0.312007 0.261858 0.965343
O O8 0.121472 0.500000 0.163648
O O9 0.309306 0.651197 0.305329
O O10 0.005401 0.695935 0.167599
O O11 0.865118 0.891920 0.147628
O O12 0.988607 0.000000 0.326097
O O13 0.148100 0.000000 0.205460
O O14 0.000000 0.000000 0.000000
O O15 0.000000 0.000000 0.500000
O O16 0.500000 0.674529 0.500000
O O17 0.547194 0.500000 0.398537
#
# Coordination Sequence:
#
# PCOD8063365 Si02
#       8
#     4   4   4   2   4   2   2   4
#     4  10  23  38  57  85 114 148 187 229 287 342
#     4  11  20  34  56  82 116 149 188 228 276 335
#     4  10  21  35  54  83 115 149 190 234 281 336
#     4  10  20  33  53  82 108 143 187 231 271 314
#     4  11  20  35  55  82 116 152 183 229 278 338
#     4  12  17  31  56  85 107 146 197 227 263 331
#     4  10  23  42  57  81 122 152 178 233 296 337
#     4   9  20  41  63  81 108 146 195 248 286 320
#
# _framework density 19.202864999999999
#
# number of rings (size 3 to 8) (size 9 to 14) (size 15 to 20)
#    0.000    1.692    3.077    1.385    0.000    4.308 
#    0.000    3.462    0.000    7.846    0.000    0.000 
#    0.000    0.000    0.000    0.000    0.000    0.000 
#
# Total GULP energy -322168.887704 kJ/mol
# GULP energy per Si atom -12391.111066 kJ/mol
# Density = 1.915916 g / cm^3
# Si number density = 19.202865 Si / 1000 Ang^3
#
#
#
# Elastic Constant Matrix: (Units=GPa)
#
#
# Indices 1 2 3 4 5 6 
#
# 1 68.2528 31.4849 49.1417 0.0000 -5.8256 0.0000
# 2 31.4849 87.7759 55.2582 0.0000 -0.4413 0.0000
# 3 49.1417 55.2582 114.4059 0.0000 -23.4992 0.0000
# 4 0.0000 0.0000 0.0000 17.5306 0.0000 -13.6446
# 5 -5.8256 -0.4413 -23.4992 0.0000 31.7587 0.0000
# 6 0.0000 0.0000 0.0000 -13.6446 0.0000 14.0984
#
#
#
# Elastic Compliance Matrix: (Units=1/GPa)
#
#
# Indices 1 2 3 4 5 6 
#
# 1 0.021820 -0.002318 -0.008770 0.000000 -0.002519 0.000000
# 2 -0.002318 0.017893 -0.009060 0.000000 -0.006880 0.000000
# 3 -0.008770 -0.009060 0.019490 0.000000 0.012686 0.000000
# 4 0.000000 0.000000 0.000000 0.231199 0.000000 0.223756
# 5 -0.002519 -0.006880 0.012686 0.000000 0.040317 0.000000
# 6 0.000000 0.000000 0.000000 0.223756 0.000000 0.287483
#
#
# Mechanical properties :
#
#
# Convention : Reuss Voigt Hill
#
# Bulk Modulus (GPa) = 52.89247 60.24492 56.56869
# Shear Modulus (GPa) = 7.52105 21.64753 14.58429
#
# Velocity S-wave (km/s) = 1.98119 3.36118 2.75887
# Velocity P-wave (km/s) = 5.73039 6.81941 6.29848
#
# Compressibility (1/GPa) = 0.01890628
#
# Stress axis : x y z
#
# Youngs Moduli (GPa) = 45.82852 55.88740 51.30897
#
# Poissons Ratio (x) = 0.12956 0.45000
# Poissons Ratio (y) = 0.10624 0.46485
# Poissons Ratio (z) = 0.40194 0.50633
#
# Static dielectric constant tensor:
#      x y z
#    x -1.230830 0.000000 -0.084590 
#    y 0.000000 3.230290 0.000000 
#    z -0.084590 0.000000 3.679840 
# 
# 
# High freq. dielectric constant tensor:
#      x y z
#    x 1.751770 0.000000 -0.011320 
#    y 0.000000 1.743270 0.000000 
#    z -0.011320 0.000000 1.748320 
# 
# From -- ./inp_files/61095.got.cif
#   From: 2010.06.25/outbox.cif.g09.slc.cpg/sg10_31_cif.got.tgz:61095.got - 2010.06.27 22:07:45.
