data_PCOD8063909
_publ_section_title
;
Structure prediction by ZEFSAII (Michael W. Deem and Ramdas Pophale) SiO2 
 PCOD8063909
Probable space group: P 2/M
;
_chemical_formula_sum "Si O2"
_cell_formula_units_Z 32
_cell_length_a 8.729540
_cell_length_b 22.566040
_cell_length_c 14.269213
_cell_angle_alpha 90.000000
_cell_angle_beta 149.391801
_cell_angle_gamma 90.000000
_cell_volume 1431.215135
_symmetry_space_group_name_H-M "P 2/M"
_symmetry_group_IT_number 10
_symmetry_cell_setting 'monoclinic'
loop_
_space_group_symop_operation_xyz
x,y,z
-x,y,-z
-x,-y,-z
x,-y,z
loop_
_atom_site_type_symbol
_atom_site_label
_atom_site_fract_x
_atom_site_fract_y
_atom_site_fract_z
Si Si1 0.340442 0.128587 0.512888
Si Si2 0.329227 0.067896 0.165065
Si Si3 0.657817 0.566068 0.849081
Si Si4 0.964972 0.316503 0.272115
Si Si5 0.732523 0.433861 0.540373
Si Si6 0.702249 0.247937 0.406543
Si Si7 0.394071 0.313316 0.088190
Si Si8 0.723112 0.932904 0.203021
O O1 0.500000 0.145150 0.500000
O O2 0.511587 0.073362 0.650347
O O3 0.379256 0.181438 0.608025
O O4 0.993575 0.110853 0.317228
O O5 0.546000 0.095177 0.198673
O O6 0.280912 0.000000 0.111327
O O7 0.000000 0.098736 0.000000
O O8 0.614965 0.500000 0.869375
O O9 0.435309 0.575142 0.645499
O O10 0.577973 0.616126 0.881760
O O11 0.000000 0.575640 0.000000
O O12 0.670069 0.293871 0.169420
O O13 0.000481 0.386920 0.306930
O O14 0.248370 0.282858 0.468514
O O15 0.914260 0.301019 0.134189
O O16 0.500000 0.421736 0.500000
O O17 0.869984 0.500000 0.620000
O O18 0.420428 0.276700 0.200058
O O19 0.000000 0.251476 0.500000
O O20 0.840098 0.000000 0.286221
O O21 0.500000 0.934329 0.000000
#
# Coordination Sequence:
#
# PCOD8063909 Si02
#       8
#     4   4   4   4   4   4   4   4
#     4  12  25  42  63  95 132 175 223 273 326 387
#     4  10  21  40  67 100 137 173 215 268 322 385
#     4  10  20  35  56  86 119 153 194 243 309 381
#     4  10  21  39  64  86 115 152 207 250 317 379
#     4  10  20  34  56  85 121 155 190 244 305 376
#     4  10  22  44  63  85 122 163 214 269 319 378
#     4  10  21  40  62  88 113 158 198 258 316 375
#     4  10  21  40  68 102 137 178 220 264 329 392
#
# _framework density 22.358623000000001
#
# number of rings (size 3 to 8) (size 9 to 14) (size 15 to 20)
#    0.000    1.750    1.250    3.000    0.000    5.500 
#   11.250    2.500    0.000    0.000    0.000    0.000 
#    0.000    0.000    0.000    0.000    0.000    0.000 
#
# Total GULP energy -396632.764855 kJ/mol
# GULP energy per Si atom -12394.773902 kJ/mol
# Density = 2.230773 g / cm^3
# Si number density = 22.358623 Si / 1000 Ang^3
#
#
#
# Elastic Constant Matrix: (Units=GPa)
#
#
# Indices 1 2 3 4 5 6 
#
# 1 82.3615 34.7385 45.4030 0.0000 -15.0436 0.0000
# 2 34.7385 81.4444 41.2462 0.0000 -7.0966 0.0000
# 3 45.4030 41.2462 129.7620 0.0000 -20.7375 0.0000
# 4 0.0000 0.0000 0.0000 18.5178 0.0000 -10.8732
# 5 -15.0436 -7.0966 -20.7375 0.0000 36.5008 0.0000
# 6 0.0000 0.0000 0.0000 -10.8732 0.0000 25.1322
#
#
#
# Elastic Compliance Matrix: (Units=1/GPa)
#
#
# Indices 1 2 3 4 5 6 
#
# 1 0.017041 -0.005035 -0.003735 0.000000 0.003922 0.000000
# 2 -0.005035 0.016123 -0.003513 0.000000 -0.000936 0.000000
# 3 -0.003735 -0.003513 0.010751 0.000000 0.003886 0.000000
# 4 0.000000 0.000000 0.000000 0.072392 0.000000 0.031320
# 5 0.003922 -0.000936 0.003886 0.000000 0.031039 0.000000
# 6 0.000000 0.000000 0.000000 0.031320 0.000000 0.053340
#
#
# Mechanical properties :
#
#
# Convention : Reuss Voigt Hill
#
# Bulk Modulus (GPa) = 51.68268 59.59371 55.63820
# Shear Modulus (GPa) = 21.57950 27.50883 24.54417
#
# Velocity S-wave (km/s) = 3.11006 3.51143 3.31682
# Velocity P-wave (km/s) = 6.00518 6.56899 6.29340
#
# Compressibility (1/GPa) = 0.01934884
#
# Stress axis : x y z
#
# Youngs Moduli (GPa) = 58.68282 62.02181 93.01529
#
# Poissons Ratio (x) = 0.31228 0.34743
# Poissons Ratio (y) = 0.29547 0.32675
# Poissons Ratio (z) = 0.21919 0.21788
#
# Static dielectric constant tensor:
#      x y z
#    x 3.981090 0.000000 -0.260690 
#    y 0.000000 3.958390 0.000000 
#    z -0.260690 0.000000 4.239820 
# 
# 
# High freq. dielectric constant tensor:
#      x y z
#    x 1.869470 0.000000 -0.015890 
#    y 0.000000 1.868270 0.000000 
#    z -0.015890 0.000000 1.887140 
# 
# From -- ./inp_files/62726.got.cif
#   From: 2010.06.25/outbox.cif.g09.slc.cpg/sg10_32_cif.got.tgz:62726.got - 2010.06.27 22:07:45.
