data_PCOD8063526
_publ_section_title
;
Structure prediction by ZEFSAII (Michael W. Deem and Ramdas Pophale) SiO2 
 PCOD8063526
Probable space group: P 2/M
;
_chemical_formula_sum "Si O2"
_cell_formula_units_Z 24
_cell_length_a 24.784771
_cell_length_b 9.355402
_cell_length_c 9.220700
_cell_angle_alpha 90.000000
_cell_angle_beta 137.725827
_cell_angle_gamma 90.000000
_cell_volume 1438.199572
_symmetry_space_group_name_H-M "P 2/M"
_symmetry_group_IT_number 10
_symmetry_cell_setting 'monoclinic'
loop_
_space_group_symop_operation_xyz
x,y,z
-x,y,-z
-x,-y,-z
x,-y,z
loop_
_atom_site_type_symbol
_atom_site_label
_atom_site_fract_x
_atom_site_fract_y
_atom_site_fract_z
Si Si1 0.779637 0.164727 0.913652
Si Si2 0.487815 0.335890 0.641466
Si Si3 0.241174 0.660922 0.865852
Si Si4 0.360993 0.834573 0.571063
Si Si5 0.912965 0.338165 0.291089
Si Si6 0.642488 0.663412 0.143674
O O1 0.728197 0.234667 0.944269
O O2 0.730100 0.184741 0.667211
O O3 0.795032 0.000000 0.980289
O O4 0.866486 0.244834 0.075464
O O5 0.500000 0.289218 0.500000
O O6 0.459468 0.500000 0.596161
O O7 0.420750 0.236658 0.577092
O O8 0.570496 0.312044 0.889780
O O9 0.272907 0.500000 0.962476
O O10 0.143167 0.664202 0.674814
O O11 0.275604 0.707386 0.778117
O O12 0.368971 0.764726 0.743253
O O13 0.383925 0.000000 0.630307
O O14 0.923340 0.500000 0.253150
O O15 0.000000 0.271509 0.500000
O O16 0.645703 0.500000 0.205361
#
# Coordination Sequence:
#
# PCOD8063526 Si02
#       6
#     4   4   4   4   4   4
#     4   9  18  31  48  72 100 130 165 200 241 293
#     4  10  21  36  55  75  96 126 170 215 250 291
#     4   8  16  31  51  74  99 125 161 206 249 290
#     4  11  23  35  48  71 104 137 168 204 246 294
#     4   8  15  29  52  79 102 124 158 205 250 292
#     4  10  20  34  52  73  98 132 170 206 247 296
#
# _framework density 16.687532000000001
#
# number of rings (size 3 to 8) (size 9 to 14) (size 15 to 20)
#    1.000    1.667    0.000    2.000    0.000    8.000 
#    0.000    0.000    0.000    1.000    0.000    7.000 
#    0.000    0.000    0.000    0.000    0.000    0.000 
#
# Total GULP energy -297373.010941 kJ/mol
# GULP energy per Si atom -12390.542123 kJ/mol
# Density = 1.664955 g / cm^3
# Si number density = 16.687532 Si / 1000 Ang^3
#
#
#
# Elastic Constant Matrix: (Units=GPa)
#
#
# Indices 1 2 3 4 5 6 
#
# 1 74.5817 44.3395 58.9010 0.0000 -3.5418 0.0000
# 2 44.3395 93.5135 57.9847 0.0000 -5.6627 0.0000
# 3 58.9010 57.9847 94.8300 0.0000 -4.2146 0.0000
# 4 0.0000 0.0000 0.0000 25.7226 0.0000 2.5623
# 5 -3.5418 -5.6627 -4.2146 0.0000 28.2779 0.0000
# 6 0.0000 0.0000 0.0000 2.5623 0.0000 13.4657
#
#
#
# Elastic Compliance Matrix: (Units=1/GPa)
#
#
# Indices 1 2 3 4 5 6 
#
# 1 0.027177 -0.003872 -0.014492 0.000000 0.000469 0.000000
# 2 -0.003872 0.017877 -0.008445 0.000000 0.001836 0.000000
# 3 -0.014492 -0.008445 0.024718 0.000000 0.000178 0.000000
# 4 0.000000 0.000000 0.000000 0.039627 0.000000 -0.007540
# 5 0.000469 0.001836 0.000178 0.000000 0.035816 0.000000
# 6 0.000000 0.000000 0.000000 -0.007540 0.000000 0.075698
#
#
# Mechanical properties :
#
#
# Convention : Reuss Voigt Hill
#
# Bulk Modulus (GPa) = 61.89921 65.04174 63.47047
# Shear Modulus (GPa) = 17.86252 20.27323 19.06788
#
# Velocity S-wave (km/s) = 3.27526 3.48928 3.38397
# Velocity P-wave (km/s) = 7.17473 7.43602 7.30654
#
# Compressibility (1/GPa) = 0.01615530
#
# Stress axis : x y z
#
# Youngs Moduli (GPa) = 36.79525 55.93853 40.45614
#
# Poissons Ratio (x) = 0.21657 0.58630
# Poissons Ratio (y) = 0.14246 0.34164
# Poissons Ratio (z) = 0.53325 0.47238
#
# Static dielectric constant tensor:
#      x y z
#    x 3.074590 0.000000 0.112550 
#    y 0.000000 3.165420 0.000000 
#    z 0.112550 0.000000 2.997770 
# 
# 
# High freq. dielectric constant tensor:
#      x y z
#    x 1.627470 0.000000 0.009050 
#    y 0.000000 1.645810 0.000000 
#    z 0.009050 0.000000 1.627460 
# 
# From -- ./inp_files/33502.got.cif
#   From: 2010.06.25/outbox.cif.g09.slc.cpg/sg10_17_cif.got.tgz:33502.got - 2010.06.27 22:07:45.
