data_PCOD8063787
_publ_section_title
;
Structure prediction by ZEFSAII (Michael W. Deem and Ramdas Pophale) SiO2 
 PCOD8063787
Probable space group: P 2/M
;
_chemical_formula_sum "Si O2"
_cell_formula_units_Z 32
_cell_length_a 16.346270
_cell_length_b 9.313296
_cell_length_c 10.774503
_cell_angle_alpha 90.000000
_cell_angle_beta 84.653885
_cell_angle_gamma 90.000000
_cell_volume 1633.149838
_symmetry_space_group_name_H-M "P 2/M"
_symmetry_group_IT_number 10
_symmetry_cell_setting 'monoclinic'
loop_
_space_group_symop_operation_xyz
x,y,z
-x,y,-z
-x,-y,-z
x,-y,z
loop_
_atom_site_type_symbol
_atom_site_label
_atom_site_fract_x
_atom_site_fract_y
_atom_site_fract_z
Si Si1 0.768487 0.830304 0.088282
Si Si2 0.796583 0.340423 0.627604
Si Si3 0.959315 0.168994 0.637347
Si Si4 0.386097 0.830366 0.730557
Si Si5 0.559980 0.834476 0.786981
Si Si6 0.950374 0.830348 0.126255
Si Si7 0.665039 0.835245 0.526176
Si Si8 0.306879 0.659449 0.112978
O O1 0.695891 0.778329 0.188889
O O2 0.855532 0.781681 0.132988
O O3 0.766500 0.000000 0.063680
O O4 0.756250 0.749107 0.961141
O O5 0.821692 0.500000 0.577930
O O6 0.874880 0.252657 0.660717
O O7 0.749017 0.255230 0.526310
O O8 0.733779 0.353259 0.748414
O O9 0.000000 0.208840 0.500000
O O10 0.014400 0.222820 0.746034
O O11 0.941696 0.000000 0.648700
O O12 0.467940 0.770166 0.785896
O O13 0.381864 0.777658 0.589097
O O14 0.393944 0.000000 0.731916
O O15 0.603480 0.818038 0.648496
O O16 0.606519 0.743436 0.886138
O O17 0.560288 0.000000 0.830696
O O18 0.957339 0.000000 0.120173
O O19 0.000000 0.766259 0.000000
O O20 0.692878 0.000000 0.505042
O O21 0.322840 0.500000 0.055888
#
# Coordination Sequence:
#
# PCOD8063787 Si02
#       8
#     4   4   4   4   4   4   4   4
#     4  10  20  34  55  78 104 138 175 221 272 320
#     4  10  21  36  54  77 107 143 180 220 266 319
#     4  10  21  35  57  86 112 140 179 228 278 329
#     4   9  18  31  52  81 109 136 173 223 273 321
#     4   9  17  32  54  80 106 137 177 219 268 323
#     4   9  18  33  54  80 108 139 178 221 268 324
#     4   9  17  31  55  80 106 139 176 219 265 320
#     4  10  21  37  54  75 105 141 184 225 262 313
#
# _framework density 19.594037
#
# number of rings (size 3 to 8) (size 9 to 14) (size 15 to 20)
#    0.000    2.500    0.000    1.875    1.750    4.750 
#    0.000    5.000    0.000    5.250    0.000    0.000 
#    0.000    0.000    0.000    0.000    0.000    0.000 
#
# Total GULP energy -396735.618363 kJ/mol
# GULP energy per Si atom -12397.988074 kJ/mol
# Density = 1.954944 g / cm^3
# Si number density = 19.594037 Si / 1000 Ang^3
#
#
#
# Elastic Constant Matrix: (Units=GPa)
#
#
# Indices 1 2 3 4 5 6 
#
# 1 162.1950 48.7540 43.0640 0.0000 29.1000 0.0000
# 2 48.7540 63.7545 25.5191 0.0000 9.5622 0.0000
# 3 43.0640 25.5191 78.3323 0.0000 18.1123 0.0000
# 4 0.0000 0.0000 0.0000 10.7904 0.0000 -4.9903
# 5 29.1000 9.5622 18.1123 0.0000 29.0754 0.0000
# 6 0.0000 0.0000 0.0000 -4.9903 0.0000 5.1867
#
#
#
# Elastic Compliance Matrix: (Units=1/GPa)
#
#
# Indices 1 2 3 4 5 6 
#
# 1 0.009501 -0.005522 -0.001922 0.000000 -0.006495 0.000000
# 2 -0.005522 0.021423 -0.004197 0.000000 0.001095 0.000000
# 3 -0.001922 -0.004197 0.016854 0.000000 -0.007195 0.000000
# 4 0.000000 0.000000 0.000000 0.166973 0.000000 0.160653
# 5 -0.006495 0.001095 -0.007195 0.000000 0.045016 0.000000
# 6 0.000000 0.000000 0.000000 0.160653 0.000000 0.347373
#
#
# Mechanical properties :
#
#
# Convention : Reuss Voigt Hill
#
# Bulk Modulus (GPa) = 40.82317 59.88401 50.35359
# Shear Modulus (GPa) = 7.82978 21.47347 14.65162
#
# Velocity S-wave (km/s) = 2.00117 3.31406 2.73749
# Velocity P-wave (km/s) = 5.12048 6.72850 5.97879
#
# Compressibility (1/GPa) = 0.02449589
#
# Stress axis : x y z
#
# Youngs Moduli (GPa) = 105.25172 46.67788 59.33357
#
# Poissons Ratio (x) = 0.25775 0.11407
# Poissons Ratio (y) = 0.58118 0.24902
# Poissons Ratio (z) = 0.20234 0.19590
#
# Static dielectric constant tensor:
#      x y z
#    x 3.727800 0.000000 0.142970 
#    y 0.000000 3.471540 0.000000 
#    z 0.142970 0.000000 3.597640 
# 
# 
# High freq. dielectric constant tensor:
#      x y z
#    x 1.773120 0.000000 0.011160 
#    y 0.000000 1.726610 0.000000 
#    z 0.011160 0.000000 1.761330 
# 
# From -- ./inp_files/49799.got.cif
#   From: 2010.06.25/outbox.cif.g09.slc.cpg/sg10_25_cif.got.tgz:49799.got - 2010.06.27 22:07:45.
