data_PCOD8063704
_publ_section_title
;
Structure prediction by ZEFSAII (Michael W. Deem and Ramdas Pophale) SiO2 
 PCOD8063704
Probable space group: P 2/M
;
_chemical_formula_sum "Si O2"
_cell_formula_units_Z 22
_cell_length_a 10.176065
_cell_length_b 21.986684
_cell_length_c 5.138301
_cell_angle_alpha 90.000000
_cell_angle_beta 115.517747
_cell_angle_gamma 90.000000
_cell_volume 1037.488302
_symmetry_space_group_name_H-M "P 2/M"
_symmetry_group_IT_number 10
_symmetry_cell_setting 'monoclinic'
loop_
_space_group_symop_operation_xyz
x,y,z
-x,y,-z
-x,-y,-z
x,-y,z
loop_
_atom_site_type_symbol
_atom_site_label
_atom_site_fract_x
_atom_site_fract_y
_atom_site_fract_z
Si Si1 0.399642 0.000000 0.163506
Si Si2 0.901170 0.565661 0.663158
Si Si3 0.836764 0.311333 0.762969
Si Si4 0.403071 0.749194 0.159400
Si Si5 0.338085 0.124987 0.258009
Si Si6 0.097644 0.814371 0.339791
O O1 0.500000 0.000000 0.500000
O O2 0.299249 0.938679 0.079634
O O3 0.500000 0.000000 0.000000
O O4 0.818405 0.500000 0.560812
O O5 0.792009 0.624095 0.591452
O O6 0.000000 0.578397 0.500000
O O7 0.000000 0.561031 0.000000
O O8 0.727377 0.298853 0.910386
O O9 0.830730 0.253208 0.559056
O O10 0.000000 0.319891 0.000000
O O11 0.500000 0.751088 0.500000
O O12 0.332715 0.816832 0.056125
O O13 0.500000 0.728307 0.000000
O O14 0.500000 0.117905 0.500000
O O15 0.225758 0.136531 0.400784
O O16 0.000000 0.834595 0.500000
O O17 0.000000 0.811442 0.000000
#
# Coordination Sequence:
#
# PCOD8063704 Si02
#       6
#     2   4   4   4   4   4
#     4  10  20  34  54  78 100 128 171 214 247 290
#     4   9  17  29  47  73 101 128 164 209 249 287
#     4   9  19  33  54  77 102 133 171 209 249 298
#     4  10  21  35  52  76 105 134 165 207 256 301
#     4   9  20  36  56  77 101 134 172 209 249 299
#     4  10  21  35  52  77 107 134 164 207 257 302
#
# _framework density 21.205058000000001
#
# number of rings (size 3 to 8) (size 9 to 14) (size 15 to 20)
#    0.000    2.545    0.000    1.091    0.000   18.909 
#    0.000    0.909    0.000    1.091    0.000    0.000 
#    0.000    0.000    0.000    0.000    0.000    0.000 
#
# Total GULP energy -272550.387958 kJ/mol
# GULP energy per Si atom -12388.653998 kJ/mol
# Density = 2.115679 g / cm^3
# Si number density = 21.205058 Si / 1000 Ang^3
#
#
#
# Elastic Constant Matrix: (Units=GPa)
#
#
# Indices 1 2 3 4 5 6 
#
# 1 184.5669 95.0185 32.1891 0.0000 -39.3886 0.0000
# 2 95.0185 220.5937 13.8895 0.0000 -21.7100 0.0000
# 3 32.1891 13.8895 47.0615 0.0000 -29.3309 0.0000
# 4 0.0000 0.0000 0.0000 14.9766 0.0000 -1.5729
# 5 -39.3886 -21.7100 -29.3309 0.0000 38.8351 0.0000
# 6 0.0000 0.0000 0.0000 -1.5729 0.0000 36.9042
#
#
#
# Elastic Compliance Matrix: (Units=1/GPa)
#
#
# Indices 1 2 3 4 5 6 
#
# 1 0.008431 -0.002966 -0.001124 0.000000 0.006044 0.000000
# 2 -0.002966 0.005846 0.000879 0.000000 0.000924 0.000000
# 3 -0.001124 0.000879 0.040345 0.000000 0.029822 0.000000
# 4 0.000000 0.000000 0.000000 0.067071 0.000000 0.002859
# 5 0.006044 0.000924 0.029822 0.000000 0.054920 0.000000
# 6 0.000000 0.000000 0.000000 0.002859 0.000000 0.027219
#
#
# Mechanical properties :
#
#
# Convention : Reuss Voigt Hill
#
# Bulk Modulus (GPa) = 20.74699 81.60181 51.17440
# Shear Modulus (GPa) = 22.09241 38.88485 30.48863
#
# Velocity S-wave (km/s) = 3.23127 4.28688 3.79595
# Velocity P-wave (km/s) = 4.87100 7.94159 6.58770
#
# Compressibility (1/GPa) = 0.04819977
#
# Stress axis : x y z
#
# Youngs Moduli (GPa) = 118.61098 171.04682 24.78609
#
# Poissons Ratio (x) = 0.50731 0.02787
# Poissons Ratio (y) = 0.35179 -0.02179
# Poissons Ratio (z) = 0.13338 -0.15036
#
# Static dielectric constant tensor:
#      x y z
#    x 3.918770 0.000000 -0.159110 
#    y 0.000000 5.477560 0.000000 
#    z -0.159110 0.000000 3.426640 
# 
# 
# High freq. dielectric constant tensor:
#      x y z
#    x 1.818130 0.000000 -0.025470 
#    y 0.000000 1.841190 0.000000 
#    z -0.025470 0.000000 1.799820 
# 
# From -- ./inp_files/5200.got.cif
#   From: 2010.06.25/outbox.cif.g09.slc.cpg/sg10_3_cif.got.tgz:5200.got - 2010.06.27 22:07:45.
