data_PCOD8063392
_publ_section_title
;
Structure prediction by ZEFSAII (Michael W. Deem and Ramdas Pophale) SiO2 
 PCOD8063392
Probable space group: P 2/M
;
_chemical_formula_sum "Si O2"
_cell_formula_units_Z 28
_cell_length_a 9.016176
_cell_length_b 10.444414
_cell_length_c 16.550474
_cell_angle_alpha 90.000000
_cell_angle_beta 59.559295
_cell_angle_gamma 90.000000
_cell_volume 1343.698140
_symmetry_space_group_name_H-M "P 2/M"
_symmetry_group_IT_number 10
_symmetry_cell_setting 'monoclinic'
loop_
_space_group_symop_operation_xyz
x,y,z
-x,y,-z
-x,-y,-z
x,-y,z
loop_
_atom_site_type_symbol
_atom_site_label
_atom_site_fract_x
_atom_site_fract_y
_atom_site_fract_z
Si Si1 0.921496 0.215420 0.829947
Si Si2 0.501440 0.749285 0.316307
Si Si3 0.381121 0.853801 0.185079
Si Si4 0.825122 0.358371 0.144205
Si Si5 0.758447 0.142578 0.038043
Si Si6 0.317618 0.640299 0.507418
Si Si7 0.769405 0.860907 0.357646
O O1 0.766661 0.240762 0.809106
O O2 0.015646 0.344183 0.836567
O O3 0.068645 0.132164 0.746834
O O4 0.838980 0.139593 0.927475
O O5 0.410311 0.829947 0.271608
O O6 0.643649 0.652717 0.240573
O O7 0.350430 0.672616 0.404197
O O8 0.595584 0.842785 0.353713
O O9 0.556066 0.826284 0.087643
O O10 0.319761 0.000000 0.189997
O O11 0.835137 0.500000 0.102402
O O12 0.847782 0.248410 0.070408
O O13 0.784202 0.000000 0.069448
O O14 0.500000 0.634063 0.500000
O O15 0.227236 0.500000 0.538734
O O16 0.203384 0.749275 0.582930
O O17 0.755074 0.000000 0.404532
#
# Coordination Sequence:
#
# PCOD8063392 Si02
#       7
#     4   4   4   4   4   4   4
#     4  11  22  35  55  81 116 151 183 225 278 332
#     4   9  19  35  59  82 109 144 184 228 276 329
#     4  10  20  35  56  84 115 148 186 229 277 330
#     4  10  22  39  59  84 113 146 187 233 280 329
#     4  10  21  37  59  84 110 146 191 233 275 327
#     4   9  18  34  57  81 105 139 182 226 274 327
#     4  10  20  33  54  84 111 139 180 229 277 324
#
# _framework density 20.838013
#
# number of rings (size 3 to 8) (size 9 to 14) (size 15 to 20)
#    0.000    2.143    0.000    3.000    0.000   14.000 
#    0.000    4.286    0.000    6.857    0.000    0.000 
#    0.000    0.000    0.000    0.000    0.000    0.000 
#
# Total GULP energy -347025.981170 kJ/mol
# GULP energy per Si atom -12393.785042 kJ/mol
# Density = 2.079058 g / cm^3
# Si number density = 20.838013 Si / 1000 Ang^3
#
#
#
# Elastic Constant Matrix: (Units=GPa)
#
#
# Indices 1 2 3 4 5 6 
#
# 1 102.1534 35.5567 26.0684 0.0000 7.2331 0.0000
# 2 35.5567 152.3212 57.7141 0.0000 -1.3901 0.0000
# 3 26.0684 57.7141 127.1953 0.0000 6.9436 0.0000
# 4 0.0000 0.0000 0.0000 5.3444 0.0000 8.2474
# 5 7.2331 -1.3901 6.9436 0.0000 13.4505 0.0000
# 6 0.0000 0.0000 0.0000 8.2474 0.0000 11.6690
#
#
#
# Elastic Compliance Matrix: (Units=1/GPa)
#
#
# Indices 1 2 3 4 5 6 
#
# 1 0.011248 -0.002325 -0.000933 0.000000 -0.005807 0.000000
# 2 -0.002325 0.008509 -0.003602 0.000000 0.003989 0.000000
# 3 -0.000933 -0.003602 0.009961 0.000000 -0.005013 0.000000
# 4 0.000000 0.000000 0.000000 -2.062905 0.000000 1.458018
# 5 -0.005807 0.003989 -0.005013 0.000000 0.080469 0.000000
# 6 0.000000 0.000000 0.000000 1.458018 0.000000 -0.944800
#
#
# Mechanical properties :
#
#
# Convention : Reuss Voigt Hill
#
# Bulk Modulus (GPa) = 62.51059 68.92758 65.71909
# Shear Modulus (GPa) = -1.73704 23.58150 10.92223
#
# Velocity S-wave (km/s) = -0.91400 3.36766 2.29191
# Velocity P-wave (km/s) = 5.38048 6.94774 6.21372
#
# Compressibility (1/GPa) = 0.01599729
#
# Stress axis : x y z
#
# Youngs Moduli (GPa) = 88.90622 117.52149 100.38826
#
# Poissons Ratio (x) = 0.27324 0.09369
# Poissons Ratio (y) = 0.20671 0.36162
# Poissons Ratio (z) = 0.08297 0.42334
#
# Static dielectric constant tensor:
#      x y z
#    x 3.593080 0.000000 -0.048400 
#    y 0.000000 3.697460 0.000000 
#    z -0.048400 0.000000 3.923250 
# 
# 
# High freq. dielectric constant tensor:
#      x y z
#    x 1.786250 0.000000 -0.006510 
#    y 0.000000 1.798830 0.000000 
#    z -0.006510 0.000000 1.823670 
# 
# From -- ./inp_files/61118.got.cif
#   From: 2010.06.25/outbox.cif.g09.slc.cpg/sg10_31_cif.got.tgz:61118.got - 2010.06.27 22:07:45.
