data_PCOD8063689
_publ_section_title
;
Structure prediction by ZEFSAII (Michael W. Deem and Ramdas Pophale) SiO2 
 PCOD8063689
Probable space group: P 2/M
;
_chemical_formula_sum "Si O2"
_cell_formula_units_Z 16
_cell_length_a 8.943615
_cell_length_b 12.063219
_cell_length_c 9.220448
_cell_angle_alpha 90.000000
_cell_angle_beta 55.043671
_cell_angle_gamma 90.000000
_cell_volume 815.313147
_symmetry_space_group_name_H-M "P 2/M"
_symmetry_group_IT_number 10
_symmetry_cell_setting 'monoclinic'
loop_
_space_group_symop_operation_xyz
x,y,z
-x,y,-z
-x,-y,-z
x,-y,z
loop_
_atom_site_type_symbol
_atom_site_label
_atom_site_fract_x
_atom_site_fract_y
_atom_site_fract_z
Si Si1 0.454344 0.500000 0.857024
Si Si2 0.038379 0.728907 0.647265
Si Si3 0.191651 0.701429 0.966289
Si Si4 0.833285 0.500000 0.481719
Si Si5 0.697149 0.128501 0.326585
O O1 0.340158 0.606110 0.872813
O O2 0.641165 0.500000 0.666680
O O3 0.500000 0.500000 0.000000
O O4 0.145435 0.612925 0.622911
O O5 0.159456 0.830974 0.633086
O O6 0.000000 0.744976 0.500000
O O7 0.847790 0.728351 0.842202
O O8 0.273728 0.809106 0.841833
O O9 0.000000 0.665483 0.000000
O O10 0.000000 0.500000 0.500000
O O11 0.500000 0.153332 0.500000
O O12 0.729911 0.000000 0.277337
#
# Coordination Sequence:
#
# PCOD8063689 Si02
#       5
#     2   4   4   2   4
#     4  12  21  34  60  89 119 151 190 238 286 337
#     4  10  20  37  59  84 116 149 190 237 283 338
#     4  10  22  38  59  86 119 153 191 233 287 347
#     4  10  20  34  53  83 119 149 181 228 287 339
#     4  10  22  40  59  81 112 151 195 239 285 339
#
# _framework density 19.624362000000001
#
# number of rings (size 3 to 8) (size 9 to 14) (size 15 to 20)
#    0.000    1.750    0.000    5.625    0.000    8.000 
#    0.000    6.250    0.000    3.750    0.000    0.000 
#    0.000    0.000    0.000    0.000    0.000    0.000 
#
# Total GULP energy -198388.050003 kJ/mol
# GULP energy per Si atom -12399.253125 kJ/mol
# Density = 1.957970 g / cm^3
# Si number density = 19.624362 Si / 1000 Ang^3
#
#
#
# Elastic Constant Matrix: (Units=GPa)
#
#
# Indices 1 2 3 4 5 6 
#
# 1 67.9045 55.8639 57.5351 0.0000 -9.8099 0.0000
# 2 55.8639 138.6290 93.6178 0.0000 -10.2958 0.0000
# 3 57.5351 93.6178 187.8683 0.0000 -4.3191 0.0000
# 4 0.0000 0.0000 0.0000 27.9927 0.0000 -13.4123
# 5 -9.8099 -10.2958 -4.3191 0.0000 43.4182 0.0000
# 6 0.0000 0.0000 0.0000 -13.4123 0.0000 13.1163
#
#
#
# Elastic Compliance Matrix: (Units=1/GPa)
#
#
# Indices 1 2 3 4 5 6 
#
# 1 0.024168 -0.006840 -0.003914 0.000000 0.003449 0.000000
# 2 -0.006840 0.012992 -0.004354 0.000000 0.001102 0.000000
# 3 -0.003914 -0.004354 0.008667 0.000000 -0.001055 0.000000
# 4 0.000000 0.000000 0.000000 0.070040 0.000000 0.071621
# 5 0.003449 0.001102 -0.001055 0.000000 0.023968 0.000000
# 6 0.000000 0.000000 0.000000 0.071621 0.000000 0.149478
#
#
# Mechanical properties :
#
#
# Convention : Reuss Voigt Hill
#
# Bulk Modulus (GPa) = 64.05529 89.82615 76.94072
# Shear Modulus (GPa) = 15.39731 29.39777 22.39754
#
# Velocity S-wave (km/s) = 2.80411 3.87463 3.38200
# Velocity P-wave (km/s) = 6.57234 8.11721 7.38528
#
# Compressibility (1/GPa) = 0.01561151
#
# Stress axis : x y z
#
# Youngs Moduli (GPa) = 41.37693 76.97044 115.38105
#
# Poissons Ratio (x) = 0.52647 0.45158
# Poissons Ratio (y) = 0.28301 0.50237
# Poissons Ratio (z) = 0.16194 0.33513
#
# Static dielectric constant tensor:
#      x y z
#    x 3.445590 0.000000 -0.099910 
#    y 0.000000 3.772160 0.000000 
#    z -0.099910 0.000000 3.901090 
# 
# 
# High freq. dielectric constant tensor:
#      x y z
#    x 1.751340 0.000000 -0.006150 
#    y 0.000000 1.763840 0.000000 
#    z -0.006150 0.000000 1.789800 
# 
# From -- ./inp_files/17099.got.cif
#   From: 2010.06.25/outbox.cif.g09.slc.cpg/sg10_9_cif.got.tgz:17099.got - 2010.06.27 22:07:45.
