data_PCOD8063927
_publ_section_title
;
Structure prediction by ZEFSAII (Michael W. Deem and Ramdas Pophale) SiO2 
 PCOD8063927
Probable space group: P 2/M
;
_chemical_formula_sum "Si O2"
_cell_formula_units_Z 28
_cell_length_a 20.331766
_cell_length_b 8.630309
_cell_length_c 14.376295
_cell_angle_alpha 90.000000
_cell_angle_beta 32.121888
_cell_angle_gamma 90.000000
_cell_volume 1341.322412
_symmetry_space_group_name_H-M "P 2/M"
_symmetry_group_IT_number 10
_symmetry_cell_setting 'monoclinic'
loop_
_space_group_symop_operation_xyz
x,y,z
-x,y,-z
-x,-y,-z
x,-y,z
loop_
_atom_site_type_symbol
_atom_site_label
_atom_site_fract_x
_atom_site_fract_y
_atom_site_fract_z
Si Si1 0.428208 0.820336 0.286896
Si Si2 0.955581 0.678922 0.224478
Si Si3 0.140556 0.181113 0.317804
Si Si4 0.219394 0.179382 0.903178
Si Si5 0.237654 0.320559 0.384176
Si Si6 0.681884 0.320097 0.036621
Si Si7 0.237481 0.179427 0.671479
O O1 0.367525 0.723975 0.275748
O O2 0.570347 0.774997 0.125076
O O3 0.359802 0.781130 0.465934
O O4 0.416599 0.000000 0.275926
O O5 0.995207 0.500000 0.174081
O O6 0.873271 0.718473 0.412704
O O7 0.878126 0.719044 0.224810
O O8 0.075069 0.785416 0.087356
O O9 0.220688 0.218970 0.312709
O O10 0.000000 0.237024 0.500000
O O11 0.147799 0.000000 0.287020
O O12 0.192885 0.274285 0.166971
O O13 0.301905 0.279622 0.874498
O O14 0.265105 0.222554 0.744981
O O15 0.241954 0.000000 0.898679
O O16 0.239994 0.500000 0.353560
O O17 0.653504 0.500000 0.059775
O O18 0.199828 0.000000 0.706433
#
# Coordination Sequence:
#
# PCOD8063927 Si02
#       7
#     4   4   4   4   4   4   4
#     4  10  21  41  64  86 115 152 198 243 286 340
#     4  10  20  34  56  88 123 155 191 239 293 346
#     4  11  24  42  65  92 119 151 192 235 283 343
#     4  11  22  37  57  83 117 157 200 242 289 344
#     4  10  21  38  61  89 121 155 191 237 292 344
#     4  12  26  42  60  85 118 153 192 240 293 346
#     4   9  20  37  59  85 115 155 198 242 289 341
#
# _framework density 20.874922000000002
#
# number of rings (size 3 to 8) (size 9 to 14) (size 15 to 20)
#    0.000    1.571    0.000    4.714    0.000    9.714 
#    0.000    5.714    0.000    0.000    0.000    0.000 
#    0.000    0.000    0.000    0.000    0.000    0.000 
#
# Total GULP energy -347414.206213 kJ/mol
# GULP energy per Si atom -12407.650222 kJ/mol
# Density = 2.082741 g / cm^3
# Si number density = 20.874922 Si / 1000 Ang^3
#
#
#
# Elastic Constant Matrix: (Units=GPa)
#
#
# Indices 1 2 3 4 5 6 
#
# 1 99.5135 14.6593 23.5386 0.0000 7.7989 0.0000
# 2 14.6593 54.5137 11.5964 0.0000 6.1058 0.0000
# 3 23.5386 11.5964 50.6103 0.0000 -9.5353 0.0000
# 4 0.0000 0.0000 0.0000 27.8032 0.0000 -2.2427
# 5 7.7989 6.1058 -9.5353 0.0000 31.7850 0.0000
# 6 0.0000 0.0000 0.0000 -2.2427 0.0000 33.7508
#
#
#
# Elastic Compliance Matrix: (Units=1/GPa)
#
#
# Indices 1 2 3 4 5 6 
#
# 1 0.012066 -0.001432 -0.006137 0.000000 -0.004526 0.000000
# 2 -0.001432 0.020346 -0.004945 0.000000 -0.005041 0.000000
# 3 -0.006137 -0.004945 0.025659 0.000000 0.010153 0.000000
# 4 0.000000 0.000000 0.000000 0.036161 0.000000 0.002403
# 5 -0.004526 -0.005041 0.010153 0.000000 0.036586 0.000000
# 6 0.000000 0.000000 0.000000 0.002403 0.000000 0.029789
#
#
# Mechanical properties :
#
#
# Convention : Reuss Voigt Hill
#
# Bulk Modulus (GPa) = 30.26409 33.80291 32.03350
# Shear Modulus (GPa) = 25.42599 28.99066 27.20832
#
# Velocity S-wave (km/s) = 3.49379 3.73068 3.61418
# Velocity P-wave (km/s) = 5.55020 5.89792 5.72670
#
# Compressibility (1/GPa) = 0.03304246
#
# Stress axis : x y z
#
# Youngs Moduli (GPa) = 82.87657 49.15028 38.97270
#
# Poissons Ratio (x) = 0.07040 0.23916
# Poissons Ratio (y) = 0.11871 0.19273
# Poissons Ratio (z) = 0.50857 0.24307
#
# Static dielectric constant tensor:
#      x y z
#    x 3.795710 0.000000 0.108900 
#    y 0.000000 3.721560 0.000000 
#    z 0.108900 0.000000 3.741860 
# 
# 
# High freq. dielectric constant tensor:
#      x y z
#    x 1.823620 0.000000 0.004780 
#    y 0.000000 1.821510 0.000000 
#    z 0.004780 0.000000 1.813180 
# 
# From -- ./inp_files/70203.got.cif
#   From: 2010.06.25/outbox.cif.g09.slc.cpg/sg10_36_cif.got.tgz:70203.got - 2010.06.27 22:07:45.
