data_PCOD8063326
_publ_section_title
;
Structure prediction by ZEFSAII (Michael W. Deem and Ramdas Pophale) SiO2 
 PCOD8063326
Probable space group: P 2/M
;
_chemical_formula_sum "Si O2"
_cell_formula_units_Z 18
_cell_length_a 12.543232
_cell_length_b 9.283202
_cell_length_c 16.339447
_cell_angle_alpha 90.000000
_cell_angle_beta 25.097447
_cell_angle_gamma 90.000000
_cell_volume 806.999693
_symmetry_space_group_name_H-M "P 2/M"
_symmetry_group_IT_number 10
_symmetry_cell_setting 'monoclinic'
loop_
_space_group_symop_operation_xyz
x,y,z
-x,y,-z
-x,-y,-z
x,-y,z
loop_
_atom_site_type_symbol
_atom_site_label
_atom_site_fract_x
_atom_site_fract_y
_atom_site_fract_z
Si Si1 0.990322 0.841527 0.914790
Si Si2 0.500000 0.757995 0.500000
Si Si3 0.278837 0.169744 0.333223
Si Si4 0.230655 0.662258 0.528348
Si Si5 0.271715 0.331654 0.034278
O O1 0.271143 0.858468 0.685431
O O2 0.862439 0.000000 0.994610
O O3 0.000000 0.788525 0.000000
O O4 0.832604 0.717880 0.980867
O O5 0.405742 0.664099 0.487672
O O6 0.329285 0.230000 0.389774
O O7 0.468190 0.243176 0.135190
O O8 0.000000 0.211777 0.500000
O O9 0.323806 0.000000 0.302154
O O10 0.236214 0.500000 0.489842
O O11 0.940464 0.705853 0.750960
O O12 0.333414 0.500000 0.989981
#
# Coordination Sequence:
#
# PCOD8063326 Si02
#       5
#     4   2   4   4   4
#     4  10  20  33  52  81 118 158 198 239 287 348
#     4  10  20  34  58  90 122 156 196 240 292 350
#     4  11  25  43  63  88 119 157 201 250 302 355
#     4  10  22  40  63  91 123 159 199 245 297 354
#     4  10  22  39  60  87 118 154 197 246 299 354
#
# _framework density 22.304842000000001
#
# number of rings (size 3 to 8) (size 9 to 14) (size 15 to 20)
#    0.000    1.778    0.000    3.333    0.000   11.111 
#    0.000    4.444    0.000    0.000    0.000    0.000 
#    0.000    0.000    0.000    0.000    0.000    0.000 
#
# Total GULP energy -223125.565594 kJ/mol
# GULP energy per Si atom -12395.864755 kJ/mol
# Density = 2.225407 g / cm^3
# Si number density = 22.304842 Si / 1000 Ang^3
#
#
#
# Elastic Constant Matrix: (Units=GPa)
#
#
# Indices 1 2 3 4 5 6 
#
# 1 40.9554 1.0303 0.1794 0.0000 -5.0844 0.0000
# 2 1.0303 95.7618 26.0401 0.0000 0.7900 0.0000
# 3 0.1794 26.0401 104.7809 0.0000 -14.9034 0.0000
# 4 0.0000 0.0000 0.0000 37.3291 0.0000 -12.4354
# 5 -5.0844 0.7900 -14.9034 0.0000 32.3149 0.0000
# 6 0.0000 0.0000 0.0000 -12.4354 0.0000 16.8938
#
#
#
# Elastic Compliance Matrix: (Units=1/GPa)
#
#
# Indices 1 2 3 4 5 6 
#
# 1 0.024954 -0.000490 0.000684 0.000000 0.004254 0.000000
# 2 -0.000490 0.011294 -0.003057 0.000000 -0.001763 0.000000
# 3 0.000684 -0.003057 0.011053 0.000000 0.005280 0.000000
# 4 0.000000 0.000000 0.000000 0.035492 0.000000 0.026125
# 5 0.004254 -0.001763 0.005280 0.000000 0.034093 0.000000
# 6 0.000000 0.000000 0.000000 0.026125 0.000000 0.078424
#
#
# Mechanical properties :
#
#
# Convention : Reuss Voigt Hill
#
# Bulk Modulus (GPa) = 24.05204 32.88864 28.47034
# Shear Modulus (GPa) = 23.26747 31.59078 27.42912
#
# Velocity S-wave (km/s) = 3.23330 3.76748 3.51057
# Velocity P-wave (km/s) = 4.97450 5.80537 5.40592
#
# Compressibility (1/GPa) = 0.04157652
#
# Stress axis : x y z
#
# Youngs Moduli (GPa) = 40.07348 88.54615 90.47192
#
# Poissons Ratio (x) = 0.04335 -0.06188
# Poissons Ratio (y) = 0.01962 0.27653
# Poissons Ratio (z) = -0.02741 0.27065
#
# Static dielectric constant tensor:
#      x y z
#    x 3.801190 0.000000 -0.029850 
#    y 0.000000 3.769270 0.000000 
#    z -0.029850 0.000000 4.489370 
# 
# 
# High freq. dielectric constant tensor:
#      x y z
#    x 1.857500 0.000000 0.001480 
#    y 0.000000 1.872730 0.000000 
#    z 0.001480 0.000000 1.902290 
# 
# From -- ./inp_files/84585.got.cif
#   From: 2010.06.25/outbox.cif.g09.slc.cpg/sg10_43_cif.got.tgz:84585.got - 2010.06.27 22:07:45.
