data_PCOD8063653
_publ_section_title
;
Structure prediction by ZEFSAII (Michael W. Deem and Ramdas Pophale) SiO2 
 PCOD8063653
Probable space group: P 2/M
;
_chemical_formula_sum "Si O2"
_cell_formula_units_Z 32
_cell_length_a 12.152445
_cell_length_b 18.373240
_cell_length_c 14.343608
_cell_angle_alpha 90.000000
_cell_angle_beta 147.921454
_cell_angle_gamma 90.000000
_cell_volume 1700.861165
_symmetry_space_group_name_H-M "P 2/M"
_symmetry_group_IT_number 10
_symmetry_cell_setting 'monoclinic'
loop_
_space_group_symop_operation_xyz
x,y,z
-x,y,-z
-x,-y,-z
x,-y,z
loop_
_atom_site_type_symbol
_atom_site_label
_atom_site_fract_x
_atom_site_fract_y
_atom_site_fract_z
Si Si1 0.207525 0.332224 0.207388
Si Si2 0.208132 0.833144 0.208097
Si Si3 0.479771 0.083510 0.697391
Si Si4 0.583586 0.414564 0.798897
Si Si5 0.622824 0.086366 0.999934
Si Si6 0.121901 0.586126 0.500220
Si Si7 0.915057 0.916487 0.697515
Si Si8 0.013067 0.585464 0.797968
O O1 0.275399 0.249705 0.275324
O O2 0.383944 0.373217 0.275443
O O3 0.167854 0.373342 0.275853
O O4 0.000000 0.335553 0.000000
O O5 0.392099 0.871019 0.285014
O O6 0.178058 0.871001 0.285065
O O7 0.000000 0.839225 0.000000
O O8 0.515971 0.113684 0.827649
O O9 0.236417 0.090795 0.499906
O O10 0.554619 0.000000 0.743941
O O11 0.588540 0.500000 0.780504
O O12 0.361059 0.388808 0.677446
O O13 0.757567 0.393787 0.000480
O O14 0.613568 0.000000 0.999984
O O15 0.500000 0.120419 0.000000
O O16 0.860562 0.113697 0.172115
O O17 0.111807 0.500000 0.499469
O O18 0.000000 0.621398 0.500000
O O19 0.007880 0.611508 0.323748
O O20 0.933242 0.000000 0.744018
O O21 0.971467 0.500000 0.779382
#
# Coordination Sequence:
#
# PCOD8063653 Si02
#       8
#     4   4   4   4   4   4   4   4
#     4   9  19  33  51  79 103 134 169 211 258 309
#     4  11  20  33  53  77 105 141 170 213 263 312
#     4  10  20  34  53  78 107 136 170 213 258 307
#     4   9  17  32  53  75 103 135 166 207 257 304
#     4   9  18  33  55  81 105 134 171 210 256 305
#     4   9  18  31  49  77 105 130 169 212 248 297
#     4  10  20  34  53  78 107 136 170 213 258 307
#     4   9  17  32  53  75 103 135 166 207 257 304
#
# _framework density 18.813998000000002
#
# number of rings (size 3 to 8) (size 9 to 14) (size 15 to 20)
#    0.000    2.500    1.250    1.125    0.000    4.500 
#    4.500    6.875    0.000    1.500    0.000    0.000 
#    0.000    0.000    0.000    0.000    0.000    0.000 
#
# Total GULP energy -396778.325115 kJ/mol
# GULP energy per Si atom -12399.322660 kJ/mol
# Density = 1.877118 g / cm^3
# Si number density = 18.813998 Si / 1000 Ang^3
#
#
#
# Elastic Constant Matrix: (Units=GPa)
#
#
# Indices 1 2 3 4 5 6 
#
# 1 186.7116 47.2423 77.2897 0.0000 4.3454 0.0000
# 2 47.2423 57.7210 29.4329 0.0000 1.0306 0.0000
# 3 77.2897 29.4329 124.3046 0.0000 -1.9901 0.0000
# 4 0.0000 0.0000 0.0000 11.9532 0.0000 -9.7523
# 5 4.3454 1.0306 -1.9901 0.0000 14.9478 0.0000
# 6 0.0000 0.0000 0.0000 -9.7523 0.0000 -131.9315
#
#
#
# Elastic Compliance Matrix: (Units=1/GPa)
#
#
# Indices 1 2 3 4 5 6 
#
# 1 0.008289 -0.004649 -0.004095 0.000000 -0.002634 0.000000
# 2 -0.004649 0.022370 -0.002414 0.000000 -0.000512 0.000000
# 3 -0.004095 -0.002414 0.011208 0.000000 0.002849 0.000000
# 4 0.000000 0.000000 0.000000 0.078901 0.000000 -0.005832
# 5 -0.002634 -0.000512 0.002849 0.000000 0.068080 0.000000
# 6 0.000000 0.000000 0.000000 -0.005832 0.000000 -0.007149
#
#
# Mechanical properties :
#
#
# Convention : Reuss Voigt Hill
#
# Bulk Modulus (GPa) = 51.15051 75.18523 63.16787
# Shear Modulus (GPa) = 23.74934 -6.68793 8.53071
#
# Velocity S-wave (km/s) = 3.55677 -1.88745 2.13168
# Velocity P-wave (km/s) = 6.64184 5.94131 6.30132
#
# Compressibility (1/GPa) = 0.01955015
#
# Stress axis : x y z
#
# Youngs Moduli (GPa) = 120.64834 44.70318 89.21951
#
# Poissons Ratio (x) = 0.20781 0.36536
# Poissons Ratio (y) = 0.56085 0.21542
# Poissons Ratio (z) = 0.49407 0.10794
#
# Static dielectric constant tensor:
#      x y z
#    x 3.661220 0.000000 0.002310 
#    y 0.000000 3.230060 0.000000 
#    z 0.002310 0.000000 3.602660 
# 
# 
# High freq. dielectric constant tensor:
#      x y z
#    x 1.727540 0.000000 -0.000950 
#    y 0.000000 1.694500 0.000000 
#    z -0.000950 0.000000 1.741610 
# 
# From -- ./inp_files/65426.got.cif
#   From: 2010.06.25/outbox.cif.g09.slc.cpg/sg10_33_cif.got.tgz:65426.got - 2010.06.27 22:07:45.
