data_PCOD8063183
_publ_section_title
;
Structure prediction by ZEFSAII (Michael W. Deem and Ramdas Pophale) SiO2 
 PCOD8063183
Probable space group: P 2/M
;
_chemical_formula_sum "Si O2"
_cell_formula_units_Z 24
_cell_length_a 24.441021
_cell_length_b 9.212392
_cell_length_c 18.101304
_cell_angle_alpha 90.000000
_cell_angle_beta 19.570825
_cell_angle_gamma 90.000000
_cell_volume 1365.242825
_symmetry_space_group_name_H-M "P 2/M"
_symmetry_group_IT_number 10
_symmetry_cell_setting 'monoclinic'
loop_
_space_group_symop_operation_xyz
x,y,z
-x,y,-z
-x,-y,-z
x,-y,z
loop_
_atom_site_type_symbol
_atom_site_label
_atom_site_fract_x
_atom_site_fract_y
_atom_site_fract_z
Si Si1 0.513083 0.669631 0.565597
Si Si2 0.168684 0.670087 0.747978
Si Si3 0.818411 0.170471 0.751975
Si Si4 0.670226 0.163726 0.581012
Si Si5 0.478582 0.668594 0.940739
Si Si6 0.347358 0.159797 0.894145
O O1 0.500000 0.735282 0.500000
O O2 0.484390 0.500000 0.600293
O O3 0.687957 0.711582 0.377197
O O4 0.364640 0.732759 0.803245
O O5 0.170980 0.500000 0.726523
O O6 0.188250 0.756025 0.645946
O O7 0.000000 0.718290 0.000000
O O8 0.000000 0.216931 0.500000
O O9 0.783912 0.000000 0.781651
O O10 0.694942 0.263036 0.859848
O O11 0.797546 0.206974 0.865934
O O12 0.629441 0.251537 0.707702
O O13 0.509407 0.161230 0.736674
O O14 0.727075 0.000000 0.528430
O O15 0.480203 0.500000 0.915660
O O16 0.500000 0.690511 0.000000
O O17 0.314748 0.000000 0.903135
#
# Coordination Sequence:
#
# PCOD8063183 Si02
#       6
#     4   4   4   4   4   4
#     4   9  17  29  45  65  88 116 150 185 223 269
#     4   9  17  30  48  68  92 122 153 189 234 280
#     4   9  18  33  52  73  98 127 159 196 239 289
#     4   9  17  30  49  70  92 122 160 197 233 281
#     4  10  20  33  50  73  99 127 162 202 242 288
#     4   8  15  28  46  67  89 117 152 186 223 270
#
# _framework density 17.579288999999999
#
# number of rings (size 3 to 8) (size 9 to 14) (size 15 to 20)
#    0.000    3.000    0.000    2.000    0.000    6.333 
#    0.000    1.667    0.000    6.000    0.000    0.000 
#    0.000    0.000    0.000    0.000    0.000    0.000 
#
# Total GULP energy -297527.040040 kJ/mol
# GULP energy per Si atom -12396.960002 kJ/mol
# Density = 1.753928 g / cm^3
# Si number density = 17.579289 Si / 1000 Ang^3
#
#
#
# Elastic Constant Matrix: (Units=GPa)
#
#
# Indices 1 2 3 4 5 6 
#
# 1 89.8759 53.6035 51.9894 0.0000 27.8596 0.0000
# 2 53.6035 88.5211 56.8535 0.0000 18.1578 0.0000
# 3 51.9894 56.8535 136.9712 0.0000 34.2798 0.0000
# 4 0.0000 0.0000 0.0000 27.3237 0.0000 10.1035
# 5 27.8596 18.1578 34.2798 0.0000 26.8563 0.0000
# 6 0.0000 0.0000 0.0000 10.1035 0.0000 21.6381
#
#
#
# Elastic Compliance Matrix: (Units=1/GPa)
#
#
# Indices 1 2 3 4 5 6 
#
# 1 0.022170 -0.009975 -0.000304 0.000000 -0.015866 0.000000
# 2 -0.009975 0.020094 -0.005502 0.000000 0.003784 0.000000
# 3 -0.000304 -0.005502 0.012769 0.000000 -0.012264 0.000000
# 4 0.000000 0.000000 0.000000 0.044236 0.000000 -0.020655
# 5 -0.015866 0.003784 -0.012264 0.000000 0.066789 0.000000
# 6 0.000000 0.000000 0.000000 -0.020655 0.000000 0.055859
#
#
# Mechanical properties :
#
#
# Convention : Reuss Voigt Hill
#
# Bulk Modulus (GPa) = 42.60354 71.14013 56.87183
# Shear Modulus (GPa) = 19.13498 25.35841 22.24670
#
# Velocity S-wave (km/s) = 3.30282 3.80217 3.56125
# Velocity P-wave (km/s) = 6.23157 7.73507 7.02367
#
# Compressibility (1/GPa) = 0.02347223
#
# Stress axis : x y z
#
# Youngs Moduli (GPa) = 45.10699 49.76515 78.31584
#
# Poissons Ratio (x) = 0.49642 0.02377
# Poissons Ratio (y) = 0.44995 0.43085
# Poissons Ratio (z) = 0.01369 0.27378
#
# Static dielectric constant tensor:
#      x y z
#    x 3.232060 0.000000 0.259580 
#    y 0.000000 3.369540 0.000000 
#    z 0.259580 0.000000 3.610960 
# 
# 
# High freq. dielectric constant tensor:
#      x y z
#    x 1.657680 0.000000 0.031140 
#    y 0.000000 1.681400 0.000000 
#    z 0.031140 0.000000 1.673360 
# 
# From -- ./inp_files/52627.got.cif
#   From: 2010.06.25/outbox.cif.g09.slc.cpg/sg10_27_cif.got.tgz:52627.got - 2010.06.27 22:07:45.
