data_PCOD8063143
_publ_section_title
;
Structure prediction by ZEFSAII (Michael W. Deem and Ramdas Pophale) SiO2 
 PCOD8063143
Probable space group: P 2/M
;
_chemical_formula_sum "Si O2"
_cell_formula_units_Z 28
_cell_length_a 17.348870
_cell_length_b 9.175911
_cell_length_c 14.294730
_cell_angle_alpha 90.000000
_cell_angle_beta 136.388064
_cell_angle_gamma 90.000000
_cell_volume 1569.643007
_symmetry_space_group_name_H-M "P 2/M"
_symmetry_group_IT_number 10
_symmetry_cell_setting 'monoclinic'
loop_
_space_group_symop_operation_xyz
x,y,z
-x,y,-z
-x,-y,-z
x,-y,z
loop_
_atom_site_type_symbol
_atom_site_label
_atom_site_fract_x
_atom_site_fract_y
_atom_site_fract_z
Si Si1 0.324571 0.831114 0.677847
Si Si2 0.920888 0.329816 0.217499
Si Si3 0.775431 0.831273 0.944626
Si Si4 0.136459 0.829296 0.369971
Si Si5 0.279872 0.329920 0.824938
Si Si6 0.114765 0.170638 0.142617
Si Si7 0.421446 0.169150 0.098024
O O1 0.254165 0.796374 0.523039
O O2 0.275107 0.736596 0.718141
O O3 0.452017 0.786472 0.767816
O O4 0.315786 0.000000 0.698605
O O5 0.939172 0.500000 0.218362
O O6 0.839597 0.297385 0.233072
O O7 0.039266 0.253691 0.341383
O O8 0.868989 0.263486 0.077944
O O9 0.783987 0.796169 0.841264
O O10 0.652141 0.792604 0.874655
O O11 0.804598 0.000000 0.989398
O O12 0.143902 0.765434 0.270539
O O13 0.108822 0.000000 0.347712
O O14 0.305296 0.500000 0.841386
O O15 0.379755 0.258384 0.971911
O O16 0.097850 0.000000 0.140923
O O17 0.000000 0.238074 0.000000
O O18 0.410797 0.000000 0.062400
#
# Coordination Sequence:
#
# PCOD8063143 Si02
#       7
#     4   4   4   4   4   4   4
#     4  10  21  35  50  72 102 134 167 206 245 288
#     4  10  20  33  49  74 103 127 161 209 253 291
#     4   9  16  30  53  76  99 130 164 200 246 293
#     4  10  20  34  51  72 102 136 167 198 244 301
#     4  10  21  35  53  75  98 129 168 208 250 295
#     4   9  15  27  51  78  99 125 165 204 239 289
#     4   9  18  33  53  76 101 129 166 207 244 286
#
# _framework density 17.838452
#
# number of rings (size 3 to 8) (size 9 to 14) (size 15 to 20)
#    0.000    2.429    1.429    1.286    0.000    5.143 
#    0.000    5.000    0.000    4.286    0.000    0.000 
#    0.000    6.857    0.000    0.000    0.000    0.000 
#
# Total GULP energy -347177.199147 kJ/mol
# GULP energy per Si atom -12399.185684 kJ/mol
# Density = 1.779785 g / cm^3
# Si number density = 17.838452 Si / 1000 Ang^3
#
#
#
# Elastic Constant Matrix: (Units=GPa)
#
#
# Indices 1 2 3 4 5 6 
#
# 1 109.2248 35.8491 66.5303 0.0000 -8.6422 0.0000
# 2 35.8491 50.9571 38.6301 0.0000 -0.6224 0.0000
# 3 66.5303 38.6301 118.9072 0.0000 -4.8878 0.0000
# 4 0.0000 0.0000 0.0000 6.4258 0.0000 4.6172
# 5 -8.6422 -0.6224 -4.8878 0.0000 23.9197 0.0000
# 6 0.0000 0.0000 0.0000 4.6172 0.0000 18.3345
#
#
#
# Elastic Compliance Matrix: (Units=1/GPa)
#
#
# Indices 1 2 3 4 5 6 
#
# 1 0.015369 -0.005798 -0.006548 0.000000 0.004064 0.000000
# 2 -0.005798 0.028251 -0.006041 0.000000 -0.002594 0.000000
# 3 -0.006548 -0.006041 0.014050 0.000000 0.000348 0.000000
# 4 0.000000 0.000000 0.000000 0.190002 0.000000 -0.047848
# 5 0.004064 -0.002594 0.000348 0.000000 0.043278 0.000000
# 6 0.000000 0.000000 0.000000 -0.047848 0.000000 0.066591
#
#
# Mechanical properties :
#
#
# Convention : Reuss Voigt Hill
#
# Bulk Modulus (GPa) = 47.85565 62.34535 55.10050
# Shear Modulus (GPa) = 12.46008 18.94132 15.70070
#
# Velocity S-wave (km/s) = 2.64577 3.26210 2.96997
# Velocity P-wave (km/s) = 6.01822 7.01529 6.53579
#
# Compressibility (1/GPa) = 0.02089617
#
# Stress axis : x y z
#
# Youngs Moduli (GPa) = 65.06753 35.39681 71.17212
#
# Poissons Ratio (x) = 0.20524 0.46605
# Poissons Ratio (y) = 0.37728 0.42992
# Poissons Ratio (z) = 0.42607 0.21381
#
# Static dielectric constant tensor:
#      x y z
#    x 3.537840 0.000000 0.008380 
#    y 0.000000 3.173220 0.000000 
#    z 0.008380 0.000000 3.225650 
# 
# 
# High freq. dielectric constant tensor:
#      x y z
#    x 1.701450 0.000000 0.001860 
#    y 0.000000 1.671800 0.000000 
#    z 0.001860 0.000000 1.671230 
# 
# From -- ./inp_files/68608.got.cif
#   From: 2010.06.25/outbox.cif.g09.slc.cpg/sg10_35_cif.got.tgz:68608.got - 2010.06.27 22:07:45.
