data_PCOD8063153
_publ_section_title
;
Structure prediction by ZEFSAII (Michael W. Deem and Ramdas Pophale) SiO2 
 PCOD8063153
Probable space group: P 2/M
;
_chemical_formula_sum "Si O2"
_cell_formula_units_Z 32
_cell_length_a 14.400683
_cell_length_b 9.315760
_cell_length_c 13.743691
_cell_angle_alpha 90.000000
_cell_angle_beta 76.807459
_cell_angle_gamma 90.000000
_cell_volume 1795.102185
_symmetry_space_group_name_H-M "P 2/M"
_symmetry_group_IT_number 10
_symmetry_cell_setting 'monoclinic'
loop_
_space_group_symop_operation_xyz
x,y,z
-x,y,-z
-x,-y,-z
x,-y,z
loop_
_atom_site_type_symbol
_atom_site_label
_atom_site_fract_x
_atom_site_fract_y
_atom_site_fract_z
Si Si1 0.702509 0.665261 0.858058
Si Si2 0.372003 0.332680 0.915499
Si Si3 0.452905 0.832347 0.611119
Si Si4 0.895995 0.334093 0.336532
Si Si5 0.889305 0.664557 0.708934
Si Si6 0.716076 0.335102 0.263912
Si Si7 0.886929 0.160286 0.524511
Si Si8 0.545253 0.831311 0.792237
O O1 0.673279 0.500000 0.847675
O O2 0.815922 0.687242 0.815255
O O3 0.646962 0.763125 0.793740
O O4 0.679899 0.713724 0.973115
O O5 0.400211 0.500000 0.909329
O O6 0.299718 0.295156 0.845102
O O7 0.467797 0.240990 0.881754
O O8 0.500000 0.775723 0.500000
O O9 0.351891 0.755648 0.649493
O O10 0.522693 0.796968 0.684850
O O11 0.431385 0.000000 0.609380
O O12 0.893132 0.500000 0.368114
O O13 0.826859 0.303182 0.261666
O O14 0.854039 0.243703 0.436316
O O15 0.004249 0.288251 0.282657
O O16 0.891018 0.500000 0.673583
O O17 0.850229 0.758081 0.628627
O O18 0.690177 0.500000 0.289418
O O19 0.000000 0.155991 0.500000
O O20 0.843347 0.000000 0.533518
O O21 0.546480 0.000000 0.812449
#
# Coordination Sequence:
#
# PCOD8063153 Si02
#       8
#     4   4   4   4   4   4   4   4
#     4  10  20  33  50  71  96 128 161 196 242 287
#     4   9  18  34  52  70  95 125 159 199 240 286
#     4   9  19  35  51  70  99 129 155 190 237 284
#     4   9  17  31  50  71  97 129 162 196 235 281
#     4   9  18  32  48  69  99 130 160 196 238 283
#     4   9  18  32  51  73  95 124 162 198 233 279
#     4   9  17  29  46  68  93 123 159 196 233 275
#     4  10  20  33  51  74  97 124 159 197 239 288
#
# _framework density 17.826281999999999
#
# number of rings (size 3 to 8) (size 9 to 14) (size 15 to 20)
#    0.000    2.750    0.000    1.125    0.000    6.250 
#    0.000    3.125    0.000    3.750    0.000    0.000 
#    0.000    9.000    0.000    0.000    0.000    0.000 
#
# Total GULP energy -396778.513069 kJ/mol
# GULP energy per Si atom -12399.328533 kJ/mol
# Density = 1.778571 g / cm^3
# Si number density = 17.826282 Si / 1000 Ang^3
#
#
#
# Elastic Constant Matrix: (Units=GPa)
#
#
# Indices 1 2 3 4 5 6 
#
# 1 105.8815 37.4569 50.2984 0.0000 -0.8880 0.0000
# 2 37.4569 62.9051 39.2911 0.0000 -0.8700 0.0000
# 3 50.2984 39.2911 116.9698 0.0000 -7.0575 0.0000
# 4 0.0000 0.0000 0.0000 19.2080 0.0000 3.1266
# 5 -0.8880 -0.8700 -7.0575 0.0000 18.9825 0.0000
# 6 0.0000 0.0000 0.0000 3.1266 0.0000 19.2067
#
#
#
# Elastic Compliance Matrix: (Units=1/GPa)
#
#
# Indices 1 2 3 4 5 6 
#
# 1 0.013224 -0.005437 -0.003926 0.000000 -0.001090 0.000000
# 2 -0.005437 0.022403 -0.005259 0.000000 -0.001183 0.000000
# 3 -0.003926 -0.005259 0.012253 0.000000 0.004131 0.000000
# 4 0.000000 0.000000 0.000000 0.053479 0.000000 -0.008706
# 5 -0.001090 -0.001183 0.004131 0.000000 0.054111 0.000000
# 6 0.000000 0.000000 0.000000 -0.008706 0.000000 0.053482
#
#
# Mechanical properties :
#
#
# Convention : Reuss Voigt Hill
#
# Bulk Modulus (GPa) = 53.65814 59.98325 56.82069
# Shear Modulus (GPa) = 20.45776 22.06012 21.25894
#
# Velocity S-wave (km/s) = 3.39133 3.52164 3.45710
# Velocity P-wave (km/s) = 6.74542 7.08927 6.91948
#
# Compressibility (1/GPa) = 0.01863650
#
# Stress axis : x y z
#
# Youngs Moduli (GPa) = 75.62161 44.63751 81.61272
#
# Poissons Ratio (x) = 0.24270 0.32039
# Poissons Ratio (y) = 0.41116 0.42917
# Poissons Ratio (z) = 0.29687 0.23473
#
# Static dielectric constant tensor:
#      x y z
#    x 3.292030 0.000000 0.062610 
#    y 0.000000 3.375830 0.000000 
#    z 0.062610 0.000000 3.270680 
# 
# 
# High freq. dielectric constant tensor:
#      x y z
#    x 1.682270 0.000000 0.003220 
#    y 0.000000 1.688260 0.000000 
#    z 0.003220 0.000000 1.679340 
# 
# From -- ./inp_files/66508.got.cif
#   From: 2010.06.25/outbox.cif.g09.slc.cpg/sg10_34_cif.got.tgz:66508.got - 2010.06.27 22:07:45.
