data_PCOD8063896
_publ_section_title
;
Structure prediction by ZEFSAII (Michael W. Deem and Ramdas Pophale) SiO2 
 PCOD8063896
Probable space group: P 2/M
;
_chemical_formula_sum "Si O2"
_cell_formula_units_Z 32
_cell_length_a 22.957610
_cell_length_b 8.995787
_cell_length_c 15.230215
_cell_angle_alpha 90.000000
_cell_angle_beta 148.677653
_cell_angle_gamma 90.000000
_cell_volume 1635.128437
_symmetry_space_group_name_H-M "P 2/M"
_symmetry_group_IT_number 10
_symmetry_cell_setting 'monoclinic'
loop_
_space_group_symop_operation_xyz
x,y,z
-x,y,-z
-x,-y,-z
x,-y,z
loop_
_atom_site_type_symbol
_atom_site_label
_atom_site_fract_x
_atom_site_fract_y
_atom_site_fract_z
Si Si1 0.233978 0.677249 0.435756
Si Si2 0.877065 0.325140 0.375122
Si Si3 0.853570 0.168167 0.042875
Si Si4 0.183782 0.661835 0.176866
Si Si5 0.564621 0.336429 0.500631
Si Si6 0.540800 0.171338 0.299881
Si Si7 0.899033 0.828920 0.582692
Si Si8 0.283993 0.175752 0.969420
O O1 0.239546 0.500000 0.442839
O O2 0.186623 0.732626 0.279237
O O3 0.360902 0.733893 0.620684
O O4 0.150269 0.738155 0.399710
O O5 0.864160 0.500000 0.374061
O O6 0.851438 0.241067 0.432588
O O7 0.787263 0.270808 0.189731
O O8 0.000000 0.282766 0.500000
O O9 0.753269 0.224488 0.978873
O O10 0.967131 0.186653 0.244694
O O11 0.828785 0.000000 0.985241
O O12 0.874229 0.246037 0.975368
O O13 0.124296 0.500000 0.104202
O O14 0.309443 0.644104 0.306101
O O15 0.500000 0.276125 0.500000
O O16 0.521446 0.500000 0.411494
O O17 0.551014 0.204151 0.415302
O O18 0.564308 0.000000 0.309852
O O19 0.412955 0.214555 0.111305
O O20 0.860861 0.000000 0.540034
O O21 0.260298 0.000000 0.927782
#
# Coordination Sequence:
#
# PCOD8063896 Si02
#       8
#     4   4   4   4   4   4   4   4
#     4  10  22  41  60  81 116 157 199 242 287 339
#     4  11  23  39  62  92 119 148 188 232 285 348
#     4  10  21  35  55  85 118 152 191 237 289 341
#     4   9  19  33  51  77 111 154 195 237 284 332
#     4   9  17  30  48  73 109 152 195 236 286 339
#     4  10  20  34  56  84 113 150 195 237 284 341
#     4  11  23  40  63  86 114 153 193 238 291 345
#     4  10  21  38  59  87 122 154 187 235 292 346
#
# _framework density 19.570328
#
# number of rings (size 3 to 8) (size 9 to 14) (size 15 to 20)
#    0.000    2.000    1.250    3.000    0.000    6.250 
#    0.000    3.125    0.000    3.750    0.000    0.000 
#    0.000    0.000    0.000    0.000    0.000    0.000 
#
# Total GULP energy -396541.100568 kJ/mol
# GULP energy per Si atom -12391.909393 kJ/mol
# Density = 1.952578 g / cm^3
# Si number density = 19.570328 Si / 1000 Ang^3
#
#
#
# Elastic Constant Matrix: (Units=GPa)
#
#
# Indices 1 2 3 4 5 6 
#
# 1 85.9573 27.0522 14.8949 0.0000 -14.5420 0.0000
# 2 27.0522 68.3817 35.9059 0.0000 -6.2016 0.0000
# 3 14.8949 35.9059 74.6806 0.0000 -11.2910 0.0000
# 4 0.0000 0.0000 0.0000 28.5058 0.0000 -1.3673
# 5 -14.5420 -6.2016 -11.2910 0.0000 23.2952 0.0000
# 6 0.0000 0.0000 0.0000 -1.3673 0.0000 29.7276
#
#
#
# Elastic Compliance Matrix: (Units=1/GPa)
#
#
# Indices 1 2 3 4 5 6 
#
# 1 0.014581 -0.005551 0.000986 0.000000 0.008102 0.000000
# 2 -0.005551 0.021686 -0.009680 0.000000 -0.002384 0.000000
# 3 0.000986 -0.009680 0.018939 0.000000 0.007218 0.000000
# 4 0.000000 0.000000 0.000000 0.035158 0.000000 0.001617
# 5 0.008102 -0.002384 0.007218 0.000000 0.050849 0.000000
# 6 0.000000 0.000000 0.000000 0.001617 0.000000 0.033713
#
#
# Mechanical properties :
#
#
# Convention : Reuss Voigt Hill
#
# Bulk Modulus (GPa) = 37.43119 42.74729 40.08924
# Shear Modulus (GPa) = 23.54918 26.38348 24.96633
#
# Velocity S-wave (km/s) = 3.47264 3.67568 3.57560
# Velocity P-wave (km/s) = 5.93692 6.31700 6.12991
#
# Compressibility (1/GPa) = 0.02671569
#
# Stress axis : x y z
#
# Youngs Moduli (GPa) = 68.58473 46.11193 52.80079
#
# Poissons Ratio (x) = 0.25597 -0.05205
# Poissons Ratio (y) = 0.38071 0.51111
# Poissons Ratio (z) = -0.06761 0.44636
#
# Static dielectric constant tensor:
#      x y z
#    x 3.137130 0.000000 -0.163870 
#    y 0.000000 3.627910 0.000000 
#    z -0.163870 0.000000 3.277960 
# 
# 
# High freq. dielectric constant tensor:
#      x y z
#    x 1.762650 0.000000 0.007340 
#    y 0.000000 1.761710 0.000000 
#    z 0.007340 0.000000 1.751180 
# 
# From -- ./inp_files/71563.got.cif
#   From: 2010.06.25/outbox.cif.g09.slc.cpg/sg10_36_cif.got.tgz:71563.got - 2010.06.27 22:07:45.
