data_PCOD8063080
_publ_section_title
;
Structure prediction by ZEFSAII (Michael W. Deem and Ramdas Pophale) SiO2 
 PCOD8063080
Probable space group: P 2/M
;
_chemical_formula_sum "Si O2"
_cell_formula_units_Z 30
_cell_length_a 17.446335
_cell_length_b 26.458087
_cell_length_c 16.693256
_cell_angle_alpha 90.000000
_cell_angle_beta 162.861626
_cell_angle_gamma 90.000000
_cell_volume 2270.674893
_symmetry_space_group_name_H-M "P 2/M"
_symmetry_group_IT_number 10
_symmetry_cell_setting 'monoclinic'
loop_
_space_group_symop_operation_xyz
x,y,z
-x,y,-z
-x,-y,-z
x,-y,z
loop_
_atom_site_type_symbol
_atom_site_label
_atom_site_fract_x
_atom_site_fract_y
_atom_site_fract_z
Si Si1 0.759030 0.439698 0.029520
Si Si2 0.757463 0.677991 0.703608
Si Si3 0.038583 0.057130 0.943906
Si Si4 0.743290 0.409356 0.567852
Si Si5 0.543529 0.110582 0.448520
Si Si6 0.248954 0.500000 0.303193
Si Si7 0.249456 0.439980 0.794791
Si Si8 0.751375 0.789791 0.699818
O O1 0.773513 0.500000 0.032727
O O2 0.751294 0.423215 0.114050
O O3 0.006787 0.413259 0.238450
O O4 0.505835 0.417367 0.735650
O O5 0.500000 0.672816 0.500000
O O6 0.732152 0.645025 0.598462
O O7 0.818244 0.734803 0.730181
O O8 0.000000 0.659750 0.000000
O O9 0.263298 0.094515 0.132553
O O10 0.111588 0.000000 0.992814
O O11 0.000000 0.062687 0.000000
O O12 0.758971 0.072242 0.628113
O O13 0.753794 0.450376 0.647234
O O14 0.500000 0.106361 0.500000
O O15 0.657006 0.166994 0.542309
O O16 0.500000 0.500000 0.500000
O O17 0.000000 0.500000 0.000000
O O18 0.249974 0.500000 0.789414
O O19 0.000000 0.417511 0.500000
O O20 0.500000 0.417421 0.000000
O O21 0.500000 0.777799 0.500000
O O22 0.000000 0.810125 0.000000
#
# Coordination Sequence:
#
# PCOD8063080 Si02
#       8
#     4   4   4   4   4   2   4   4
#     4  11  20  33  46  63  83 100 117 139 173 213
#     4  10  20  33  44  55  70  91 123 160 191 219
#     4   9  15  20  27  41  61  80  96 118 153 203
#     4  12  21  33  45  60  78  99 120 151 184 220
#     4   9  14  21  31  43  57  76 101 128 162 203
#     4  12  22  32  44  56  72  98 126 150 180 220
#     4   9  17  29  46  65  82 100 118 135 156 195
#     4   9  16  26  39  49  59  78 108 146 180 207
#
# _framework density 13.211931
#
# number of rings (size 3 to 8) (size 9 to 14) (size 15 to 20)
#    0.000    2.000    1.333    5.600    0.000    3.733 
#    0.000    0.000    0.000    0.000    0.000    0.000 
#    0.000    0.000    0.000    0.000    0.000    0.000 
#
# Total GULP energy -371733.745316 kJ/mol
# GULP energy per Si atom -12391.124844 kJ/mol
# Density = 1.318186 g / cm^3
# Si number density = 13.211931 Si / 1000 Ang^3
#
#
#
# Elastic Constant Matrix: (Units=GPa)
#
#
# Indices 1 2 3 4 5 6 
#
# 1 66.1806 25.8461 43.4871 0.0000 4.8327 0.0000
# 2 25.8461 76.0472 28.8240 0.0000 0.2446 0.0000
# 3 43.4871 28.8240 117.2422 0.0000 7.6700 0.0000
# 4 0.0000 0.0000 0.0000 18.4559 0.0000 4.2391
# 5 4.8327 0.2446 7.6700 0.0000 22.2633 0.0000
# 6 0.0000 0.0000 0.0000 4.2391 0.0000 11.5214
#
#
#
# Elastic Compliance Matrix: (Units=1/GPa)
#
#
# Indices 1 2 3 4 5 6 
#
# 1 0.021521 -0.004785 -0.006654 0.000000 -0.002327 0.000000
# 2 -0.004785 0.015591 -0.002164 0.000000 0.001613 0.000000
# 3 -0.006654 -0.002164 0.011697 0.000000 -0.002562 0.000000
# 4 0.000000 0.000000 0.000000 0.059185 0.000000 -0.021776
# 5 -0.002327 0.001613 -0.002562 0.000000 0.046287 0.000000
# 6 0.000000 0.000000 0.000000 -0.021776 0.000000 0.094807
#
#
# Mechanical properties :
#
#
# Convention : Reuss Voigt Hill
#
# Bulk Modulus (GPa) = 46.28813 50.64269 48.46541
# Shear Modulus (GPa) = 17.63709 21.20232 19.41971
#
# Velocity S-wave (km/s) = 3.65764 4.01032 3.83804
# Velocity P-wave (km/s) = 7.27660 7.73678 7.51022
#
# Compressibility (1/GPa) = 0.02160381
#
# Stress axis : x y z
#
# Youngs Moduli (GPa) = 46.46616 64.14009 85.49229
#
# Poissons Ratio (x) = 0.30690 0.56886
# Poissons Ratio (y) = 0.22233 0.18498
# Poissons Ratio (z) = 0.30918 0.13878
#
# Static dielectric constant tensor:
#      x y z
#    x 2.338240 0.000000 0.177740 
#    y 0.000000 2.733520 0.000000 
#    z 0.177740 0.000000 2.947240 
# 
# 
# High freq. dielectric constant tensor:
#      x y z
#    x 1.442690 0.000000 0.025390 
#    y 0.000000 1.489550 0.000000 
#    z 0.025390 0.000000 1.528530 
# 
# From -- ./inp_files/68037.got.cif
#   From: 2010.06.25/outbox.cif.g09.slc.cpg/sg10_35_cif.got.tgz:68037.got - 2010.06.27 22:07:45.
