data_PCOD8063868
_publ_section_title
;
Structure prediction by ZEFSAII (Michael W. Deem and Ramdas Pophale) SiO2 
 PCOD8063868
Probable space group: P 2/M
;
_chemical_formula_sum "Si O2"
_cell_formula_units_Z 20
_cell_length_a 30.943240
_cell_length_b 7.482953
_cell_length_c 9.024005
_cell_angle_alpha 90.000000
_cell_angle_beta 28.437463
_cell_angle_gamma 90.000000
_cell_volume 995.008645
_symmetry_space_group_name_H-M "P 2/M"
_symmetry_group_IT_number 10
_symmetry_cell_setting 'monoclinic'
loop_
_space_group_symop_operation_xyz
x,y,z
-x,y,-z
-x,-y,-z
x,-y,z
loop_
_atom_site_type_symbol
_atom_site_label
_atom_site_fract_x
_atom_site_fract_y
_atom_site_fract_z
Si Si1 0.414175 0.198990 0.184694
Si Si2 0.583565 0.291188 0.148814
Si Si3 0.098060 0.500000 0.631322
Si Si4 0.096520 0.500000 0.284202
Si Si5 0.784766 0.211413 0.226010
Si Si6 0.783894 0.794723 0.573623
O O1 0.315762 0.283630 0.516648
O O2 0.412511 0.000000 0.256470
O O3 0.500000 0.303939 0.000000
O O4 0.426802 0.184985 0.971512
O O5 0.500000 0.226297 0.500000
O O6 0.578072 0.500000 0.131565
O O7 0.679528 0.242005 0.935039
O O8 0.087528 0.500000 0.487104
O O9 0.151356 0.676766 0.519757
O O10 0.000000 0.500000 0.000000
O O11 0.000000 0.500000 0.500000
O O12 0.145854 0.319311 0.083792
O O13 0.800239 0.255471 0.352423
O O14 0.796106 0.000000 0.162933
O O15 0.808565 0.000000 0.529719
#
# Coordination Sequence:
#
# PCOD8063868 Si02
#       6
#     4   4   2   2   4   4
#     4   9  19  35  55  84 120 161 203 243 293 348
#     4  10  20  34  55  87 124 160 204 247 293 352
#     4  12  26  44  65  92 125 152 199 252 304 370
#     4  12  26  42  65  90 117 158 193 246 310 358
#     4   9  20  40  64  90 120 158 203 248 298 356
#     4  10  21  41  67  90 121 164 204 250 305 357
#
# _framework density 20.100325999999999
#
# number of rings (size 3 to 8) (size 9 to 14) (size 15 to 20)
#    0.000    2.000    1.000    3.600    4.200    5.200 
#    0.000    2.000    0.000    0.000    0.000    0.000 
#    0.000    0.000    0.000    0.000    0.000    0.000 
#
# Total GULP energy -247941.075052 kJ/mol
# GULP energy per Si atom -12397.053753 kJ/mol
# Density = 2.005458 g / cm^3
# Si number density = 20.100326 Si / 1000 Ang^3
#
#
#
# Elastic Constant Matrix: (Units=GPa)
#
#
# Indices 1 2 3 4 5 6 
#
# 1 140.3953 43.7722 85.7639 0.0000 -24.7790 0.0000
# 2 43.7722 87.7305 49.1749 0.0000 -6.7235 0.0000
# 3 85.7639 49.1749 172.9119 0.0000 -11.8453 0.0000
# 4 0.0000 0.0000 0.0000 20.2673 0.0000 5.5439
# 5 -24.7790 -6.7235 -11.8453 0.0000 34.2997 0.0000
# 6 0.0000 0.0000 0.0000 5.5439 0.0000 33.4802
#
#
#
# Elastic Compliance Matrix: (Units=1/GPa)
#
#
# Indices 1 2 3 4 5 6 
#
# 1 0.012045 -0.002869 -0.004712 0.000000 0.006512 0.000000
# 2 -0.002869 0.014306 -0.002658 0.000000 -0.000187 0.000000
# 3 -0.004712 -0.002658 0.008816 0.000000 -0.000881 0.000000
# 4 0.000000 0.000000 0.000000 0.051681 0.000000 -0.008558
# 5 0.006512 -0.000187 -0.000881 0.000000 0.033519 0.000000
# 6 0.000000 0.000000 0.000000 -0.008558 0.000000 0.031286
#
#
# Mechanical properties :
#
#
# Convention : Reuss Voigt Hill
#
# Bulk Modulus (GPa) = 68.08389 84.27329 76.17859
# Shear Modulus (GPa) = 28.24409 32.43121 30.33765
#
# Velocity S-wave (km/s) = 3.75261 4.02116 3.88920
# Velocity P-wave (km/s) = 7.26097 7.97351 7.62557
#
# Compressibility (1/GPa) = 0.01468776
#
# Stress axis : x y z
#
# Youngs Moduli (GPa) = 83.01965 69.90171 113.42791
#
# Poissons Ratio (x) = 0.20058 0.53451
# Poissons Ratio (y) = 0.23822 0.30149
# Poissons Ratio (z) = 0.39121 0.18580
#
# Static dielectric constant tensor:
#      x y z
#    x 3.618910 0.000000 -0.167980 
#    y 0.000000 3.586210 0.000000 
#    z -0.167980 0.000000 3.658100 
# 
# 
# High freq. dielectric constant tensor:
#      x y z
#    x 1.774210 0.000000 -0.014610 
#    y 0.000000 1.790560 0.000000 
#    z -0.014610 0.000000 1.785700 
# 
# From -- ./inp_files/37817.got.cif
#   From: 2010.06.25/outbox.cif.g09.slc.cpg/sg10_19_cif.got.tgz:37817.got - 2010.06.27 22:07:45.
