data_PCOD8063585
_publ_section_title
;
Structure prediction by ZEFSAII (Michael W. Deem and Ramdas Pophale) SiO2 
 PCOD8063585
Probable space group: P 2/M
;
_chemical_formula_sum "Si O2"
_cell_formula_units_Z 32
_cell_length_a 24.491450
_cell_length_b 9.033858
_cell_length_c 25.677846
_cell_angle_alpha 90.000000
_cell_angle_beta 17.484687
_cell_angle_gamma 90.000000
_cell_volume 1706.946272
_symmetry_space_group_name_H-M "P 2/M"
_symmetry_group_IT_number 10
_symmetry_cell_setting 'monoclinic'
loop_
_space_group_symop_operation_xyz
x,y,z
-x,y,-z
-x,-y,-z
x,-y,z
loop_
_atom_site_type_symbol
_atom_site_label
_atom_site_fract_x
_atom_site_fract_y
_atom_site_fract_z
Si Si1 0.795550 0.160770 0.204450
Si Si2 0.198627 0.325273 0.301373
Si Si3 0.688376 0.177326 0.194252
Si Si4 0.076881 0.177326 0.805747
Si Si5 0.802072 0.170266 0.805846
Si Si6 0.586235 0.829734 0.805847
Si Si7 0.815462 0.175556 0.500000
Si Si8 0.306628 0.823332 0.500000
O O1 0.689496 0.241735 0.253120
O O2 0.804264 0.241735 0.253120
O O3 0.703987 0.000000 0.296013
O O4 0.000000 0.138385 0.000000
O O5 0.216275 0.500000 0.283725
O O6 0.240349 0.263461 0.206670
O O7 0.346310 0.263462 0.206671
O O8 0.000000 0.272681 0.500000
O O9 0.509080 0.235954 0.328221
O O10 0.689457 0.000000 0.196559
O O11 0.867150 0.231833 1.000000
O O12 0.165522 0.235954 0.671779
O O13 0.082576 0.000000 0.803440
O O14 0.981663 0.231780 0.671169
O O15 0.830822 0.000000 0.763056
O O16 0.631812 0.186748 1.000000
O O17 0.675997 0.768221 0.671171
O O18 0.643066 0.000000 0.763056
O O19 0.754545 0.242927 0.500000
O O20 0.811259 0.000000 0.499999
O O21 0.305561 0.000000 0.500000
#
# Coordination Sequence:
#
# PCOD8063585 Si02
#       8
#     4   4   4   4   4   4   4   4
#     4   7  10  17  27  39  58  85 117 158 211 265
#     4  11  22  35  54  79 103 124 147 184 233 275
#     4   8  13  20  29  42  62  88 121 165 216 266
#     4   8  13  20  29  42  62  88 121 165 216 266
#     4  10  20  34  53  73  94 126 159 185 225 277
#     4  10  20  34  53  73  94 126 159 185 225 277
#     4   9  18  31  43  59  85 112 147 193 226 262
#     4   9  16  23  33  49  67  94 131 173 222 260
#
# _framework density 18.746928
#
# number of rings (size 3 to 8) (size 9 to 14) (size 15 to 20)
#    0.000    3.000    1.250    2.250    0.000    4.000 
#    0.000    7.500    0.000    0.000    0.000    0.000 
#    0.000    0.000    0.000    0.000    0.000    0.000 
#
# Total GULP energy -396513.252189 kJ/mol
# GULP energy per Si atom -12391.039131 kJ/mol
# Density = 1.870426 g / cm^3
# Si number density = 18.746928 Si / 1000 Ang^3
#
#
#
# Elastic Constant Matrix: (Units=GPa)
#
#
# Indices 1 2 3 4 5 6 
#
# 1 181.1371 14.2675 86.1496 0.0000 5.1146 0.0000
# 2 14.2675 17.3536 14.8277 0.0000 -0.0518 0.0000
# 3 86.1496 14.8277 141.8835 0.0000 -1.4792 0.0000
# 4 0.0000 0.0000 0.0000 9.0211 0.0000 -1.0271
# 5 5.1146 -0.0518 -1.4792 0.0000 20.4829 0.0000
# 6 0.0000 0.0000 0.0000 -1.0271 0.0000 -2.0741
#
#
#
# Elastic Compliance Matrix: (Units=1/GPa)
#
#
# Indices 1 2 3 4 5 6 
#
# 1 0.007979 -0.002643 -0.004593 0.000000 -0.002331 0.000000
# 2 -0.002643 0.064152 -0.005095 0.000000 0.000454 0.000000
# 3 -0.004593 -0.005095 0.010389 0.000000 0.001884 0.000000
# 4 0.000000 0.000000 0.000000 0.104935 0.000000 -0.051963
# 5 -0.002331 0.000454 0.001884 0.000000 0.049540 0.000000
# 6 0.000000 0.000000 0.000000 -0.051963 0.000000 -0.456401
#
#
# Mechanical properties :
#
#
# Convention : Reuss Voigt Hill
#
# Bulk Modulus (GPa) = 17.28330 63.42930 40.35630
# Shear Modulus (GPa) = -28.49688 20.49462 -4.00113
#
# Velocity S-wave (km/s) = -3.90305 3.30998 -1.46250
# Velocity P-wave (km/s) = 3.32753 6.96534 4.32686
#
# Compressibility (1/GPa) = 0.05785933
#
# Stress axis : x y z
#
# Youngs Moduli (GPa) = 125.32835 15.58786 96.25687
#
# Poissons Ratio (x) = 0.04119 0.44210
# Poissons Ratio (y) = 0.33120 0.49043
# Poissons Ratio (z) = 0.57562 0.07942
#
# Static dielectric constant tensor:
#      x y z
#    x 3.761160 0.000000 0.013540 
#    y 0.000000 2.656270 0.000000 
#    z 0.013540 0.000000 3.614950 
# 
# 
# High freq. dielectric constant tensor:
#      x y z
#    x 1.733910 0.000000 -0.000370 
#    y 0.000000 1.639310 0.000000 
#    z -0.000370 0.000000 1.737900 
# 
# From -- ./inp_files/90565.got.cif
#   From: 2010.06.25/outbox.cif.g09.slc.cpg/sg10_46_cif.got.tgz:90565.got - 2010.06.27 22:07:45.
