data_PCOD8063846
_publ_section_title
;
Structure prediction by ZEFSAII (Michael W. Deem and Ramdas Pophale) SiO2 
 PCOD8063846
Probable space group: P 2/M
;
_chemical_formula_sum "Si O2"
_cell_formula_units_Z 32
_cell_length_a 21.795883
_cell_length_b 13.622903
_cell_length_c 16.648134
_cell_angle_alpha 90.000000
_cell_angle_beta 19.696956
_cell_angle_gamma 90.000000
_cell_volume 1666.087833
_symmetry_space_group_name_H-M "P 2/M"
_symmetry_group_IT_number 10
_symmetry_cell_setting 'monoclinic'
loop_
_space_group_symop_operation_xyz
x,y,z
-x,y,-z
-x,-y,-z
x,-y,z
loop_
_atom_site_type_symbol
_atom_site_label
_atom_site_fract_x
_atom_site_fract_y
_atom_site_fract_z
Si Si1 0.993859 0.764067 0.315428
Si Si2 0.289882 0.111793 0.239165
Si Si3 0.438728 0.606896 0.991425
Si Si4 0.296951 0.776477 0.074560
Si Si5 0.976769 0.111080 0.867524
Si Si6 0.349782 0.113237 0.618344
Si Si7 0.670774 0.212579 0.519470
Si Si8 0.802946 0.390640 0.447372
O O1 0.817133 0.819316 0.566950
O O2 0.086997 0.824749 0.129135
O O3 0.936184 0.658291 0.349817
O O4 0.142774 0.756248 0.200243
O O5 0.250120 0.136013 0.194171
O O6 0.228189 0.000000 0.329598
O O7 0.500000 0.127649 0.000000
O O8 0.348243 0.500000 0.118309
O O9 0.606940 0.594480 0.725820
O O10 0.500000 0.654441 0.000000
O O11 0.291528 0.677925 0.134145
O O12 0.491722 0.796913 0.794433
O O13 0.187426 0.128615 0.629297
O O14 0.948636 0.000000 0.875348
O O15 0.850238 0.134603 0.099909
O O16 0.500000 0.135324 0.500000
O O17 0.382646 0.191617 0.506665
O O18 0.365874 0.000000 0.568425
O O19 0.773280 0.317950 0.406956
O O20 0.877330 0.500000 0.330716
#
# Coordination Sequence:
#
# PCOD8063846 Si02
#       8
#     4   4   4   4   4   4   4   4
#     4  11  22  35  54  78 107 138 174 221 268 312
#     4  11  23  38  54  73 104 146 185 217 255 313
#     4   9  17  32  54  76 100 133 175 219 261 309
#     4  11  22  34  51  79 109 140 174 215 267 315
#     4  10  20  35  55  78 105 140 181 218 255 307
#     4  10  20  34  55  84 114 141 173 218 267 309
#     4  10  20  35  56  79 108 142 179 215 258 316
#     4   9  19  35  55  77 102 137 177 218 263 313
#
# _framework density 19.206669999999999
#
# number of rings (size 3 to 8) (size 9 to 14) (size 15 to 20)
#    0.000    1.875    0.000    5.625    0.000    5.000 
#    0.000    0.000    0.000   10.125    0.000    0.000 
#    0.000    0.000    0.000    0.000    0.000    0.000 
#
# Total GULP energy -396693.176252 kJ/mol
# GULP energy per Si atom -12396.661758 kJ/mol
# Density = 1.916295 g / cm^3
# Si number density = 19.206670 Si / 1000 Ang^3
#
#
#
# Elastic Constant Matrix: (Units=GPa)
#
#
# Indices 1 2 3 4 5 6 
#
# 1 130.7837 54.7709 16.0537 0.0000 -0.3846 0.0000
# 2 54.7709 115.3300 30.0493 0.0000 7.0566 0.0000
# 3 16.0537 30.0493 54.3498 0.0000 -0.1233 0.0000
# 4 0.0000 0.0000 0.0000 12.6926 0.0000 5.9422
# 5 -0.3846 7.0566 -0.1233 0.0000 30.7535 0.0000
# 6 0.0000 0.0000 0.0000 5.9422 0.0000 29.7390
#
#
#
# Elastic Compliance Matrix: (Units=1/GPa)
#
#
# Indices 1 2 3 4 5 6 
#
# 1 0.009591 -0.004543 -0.000319 0.000000 0.001161 0.000000
# 2 -0.004543 0.012454 -0.005550 0.000000 -0.002937 0.000000
# 3 -0.000319 -0.005550 0.021565 0.000000 0.001356 0.000000
# 4 0.000000 0.000000 0.000000 0.086917 0.000000 -0.017367
# 5 0.001161 -0.002937 0.001356 0.000000 0.033210 0.000000
# 6 0.000000 0.000000 0.000000 -0.017367 0.000000 0.037096
#
#
# Mechanical properties :
#
#
# Convention : Reuss Voigt Hill
#
# Bulk Modulus (GPa) = 43.88568 55.80127 49.84347
# Shear Modulus (GPa) = 21.80991 27.94299 24.87645
#
# Velocity S-wave (km/s) = 3.37343 3.81840 3.60279
# Velocity P-wave (km/s) = 6.17027 6.96824 6.58136
#
# Compressibility (1/GPa) = 0.02278648
#
# Stress axis : x y z
#
# Youngs Moduli (GPa) = 104.26113 80.29461 46.37071
#
# Poissons Ratio (x) = 0.36478 0.01478
# Poissons Ratio (y) = 0.47366 0.25738
# Poissons Ratio (z) = 0.03323 0.44567
#
# Static dielectric constant tensor:
#      x y z
#    x 3.565170 0.000000 0.092890 
#    y 0.000000 3.967210 0.000000 
#    z 0.092890 0.000000 3.466870 
# 
# 
# High freq. dielectric constant tensor:
#      x y z
#    x 1.749550 0.000000 0.000860 
#    y 0.000000 1.743690 0.000000 
#    z 0.000860 0.000000 1.735390 
# 
# From -- ./inp_files/70744.got.cif
#   From: 2010.06.25/outbox.cif.g09.slc.cpg/sg10_36_cif.got.tgz:70744.got - 2010.06.27 22:07:45.
