data_PCOD8063592
_publ_section_title
;
Structure prediction by ZEFSAII (Michael W. Deem and Ramdas Pophale) SiO2 
 PCOD8063592
Probable space group: P 2/M
;
_chemical_formula_sum "Si O2"
_cell_formula_units_Z 28
_cell_length_a 12.281209
_cell_length_b 8.830944
_cell_length_c 19.156372
_cell_angle_alpha 90.000000
_cell_angle_beta 131.131415
_cell_angle_gamma 90.000000
_cell_volume 1564.852708
_symmetry_space_group_name_H-M "P 2/M"
_symmetry_group_IT_number 10
_symmetry_cell_setting 'monoclinic'
loop_
_space_group_symop_operation_xyz
x,y,z
-x,y,-z
-x,-y,-z
x,-y,z
loop_
_atom_site_type_symbol
_atom_site_label
_atom_site_fract_x
_atom_site_fract_y
_atom_site_fract_z
Si Si1 0.081047 0.823715 0.191889
Si Si2 0.398577 0.321006 0.892473
Si Si3 0.897148 0.821574 0.397783
Si Si4 0.312245 0.676188 0.194070
Si Si5 0.906473 0.177330 0.246467
Si Si6 0.575302 0.820628 0.243877
Si Si7 0.863000 0.164197 0.989953
O O1 0.216734 0.730629 0.219590
O O2 0.047746 0.786059 0.258618
O O3 0.115912 0.000000 0.193729
O O4 0.927927 0.778647 0.090713
O O5 0.401023 0.500000 0.883591
O O6 0.235024 0.267468 0.838221
O O7 0.460491 0.246289 0.847715
O O8 0.500000 0.271002 0.000000
O O9 0.953181 0.776016 0.344369
O O10 0.732586 0.764350 0.335937
O O11 0.000000 0.745106 0.500000
O O12 0.900864 0.000000 0.409254
O O13 0.338113 0.500000 0.212819
O O14 0.465523 0.761148 0.256938
O O15 0.238767 0.711029 0.088114
O O16 0.866202 0.000000 0.225431
O O17 0.567637 0.000000 0.235246
O O18 0.782306 0.000000 0.963104
O O19 0.000000 0.137143 0.000000
#
# Coordination Sequence:
#
# PCOD8063592 Si02
#       7
#     4   4   4   4   4   4   4
#     4   9  18  32  48  69  98 133 174 209 241 291
#     4  10  21  34  47  70 103 135 166 207 252 291
#     4   8  15  31  56  82 101 118 154 211 263 302
#     4  11  21  31  46  70 101 134 170 210 251 292
#     4   9  18  32  52  77 100 131 169 204 248 303
#     4  10  20  34  53  74  98 132 170 205 249 303
#     4   8  15  28  43  61  88 128 172 206 235 275
#
# _framework density 17.893058
#
# number of rings (size 3 to 8) (size 9 to 14) (size 15 to 20)
#    0.000    2.714    0.000    3.857    2.000    4.286 
#    0.000    0.000    0.000   11.571    0.000    6.000 
#    0.000    0.000    0.000    0.000    0.000    0.000 
#
# Total GULP energy -346986.067890 kJ/mol
# GULP energy per Si atom -12392.359567 kJ/mol
# Density = 1.785233 g / cm^3
# Si number density = 17.893058 Si / 1000 Ang^3
#
#
#
# Elastic Constant Matrix: (Units=GPa)
#
#
# Indices 1 2 3 4 5 6 
#
# 1 127.5197 37.6871 55.0492 0.0000 -1.2582 0.0000
# 2 37.6871 68.6256 28.5517 0.0000 -0.0914 0.0000
# 3 55.0492 28.5517 114.8501 0.0000 -5.4133 0.0000
# 4 0.0000 0.0000 0.0000 7.5231 0.0000 1.0499
# 5 -1.2582 -0.0914 -5.4133 0.0000 16.7942 0.0000
# 6 0.0000 0.0000 0.0000 1.0499 0.0000 22.2989
#
#
#
# Elastic Compliance Matrix: (Units=1/GPa)
#
#
# Indices 1 2 3 4 5 6 
#
# 1 0.010902 -0.004241 -0.004197 0.000000 -0.000559 0.000000
# 2 -0.004241 0.017928 -0.002472 0.000000 -0.001017 0.000000
# 3 -0.004197 -0.002472 0.011493 0.000000 0.003377 0.000000
# 4 0.000000 0.000000 0.000000 0.133803 0.000000 -0.006300
# 5 -0.000559 -0.001017 0.003377 0.000000 0.060585 0.000000
# 6 0.000000 0.000000 0.000000 -0.006300 0.000000 0.045142
#
#
# Mechanical properties :
#
#
# Convention : Reuss Voigt Hill
#
# Bulk Modulus (GPa) = 54.05054 61.50792 57.77923
# Shear Modulus (GPa) = 16.24215 21.97039 19.10627
#
# Velocity S-wave (km/s) = 3.01613 3.50790 3.27127
# Velocity P-wave (km/s) = 6.51172 7.13142 6.82860
#
# Compressibility (1/GPa) = 0.01850120
#
# Stress axis : x y z
#
# Youngs Moduli (GPa) = 91.72722 55.77816 87.01311
#
# Poissons Ratio (x) = 0.23658 0.36523
# Poissons Ratio (y) = 0.38905 0.21509
# Poissons Ratio (z) = 0.38501 0.13788
#
# Static dielectric constant tensor:
#      x y z
#    x 3.450580 0.000000 -0.212120 
#    y 0.000000 3.097890 0.000000 
#    z -0.212120 0.000000 3.852860 
# 
# 
# High freq. dielectric constant tensor:
#      x y z
#    x 1.697210 0.000000 -0.001590 
#    y 0.000000 1.676710 0.000000 
#    z -0.001590 0.000000 1.658550 
# 
# From -- ./inp_files/83408.got.cif
#   From: 2010.06.25/outbox.cif.g09.slc.cpg/sg10_42_cif.got.tgz:83408.got - 2010.06.27 22:07:45.
