data_PCOD8063213
_publ_section_title
;
Structure prediction by ZEFSAII (Michael W. Deem and Ramdas Pophale) SiO2 
 PCOD8063213
Probable space group: P 2/M
;
_chemical_formula_sum "Si O2"
_cell_formula_units_Z 32
_cell_length_a 22.497552
_cell_length_b 8.759581
_cell_length_c 13.990547
_cell_angle_alpha 90.000000
_cell_angle_beta 39.001111
_cell_angle_gamma 90.000000
_cell_volume 1735.143889
_symmetry_space_group_name_H-M "P 2/M"
_symmetry_group_IT_number 10
_symmetry_cell_setting 'monoclinic'
loop_
_space_group_symop_operation_xyz
x,y,z
-x,y,-z
-x,-y,-z
x,-y,z
loop_
_atom_site_type_symbol
_atom_site_label
_atom_site_fract_x
_atom_site_fract_y
_atom_site_fract_z
Si Si1 0.888757 0.834544 0.135872
Si Si2 0.106246 0.819187 0.667104
Si Si3 0.537313 0.679958 0.353872
Si Si4 0.360286 0.819863 0.050390
Si Si5 0.104278 0.182617 0.079317
Si Si6 0.544334 0.320616 0.743136
Si Si7 0.727314 0.319283 0.021366
Si Si8 0.703697 0.179044 0.660524
O O1 0.862068 0.747384 0.268412
O O2 0.838138 0.000000 0.197282
O O3 0.864221 0.752478 0.065414
O O4 0.000000 0.859067 0.000000
O O5 0.185611 0.777791 0.490038
O O6 0.002852 0.761067 0.762940
O O7 0.098999 0.000000 0.692385
O O8 0.500000 0.754725 0.500000
O O9 0.541281 0.500000 0.361559
O O10 0.467338 0.724216 0.354127
O O11 0.642796 0.739365 0.196595
O O12 0.291278 0.738316 0.062155
O O13 0.327476 0.767358 0.196110
O O14 0.352198 0.000000 0.047277
O O15 0.467854 0.767820 0.902708
O O16 0.172672 0.253135 0.072094
O O17 0.110593 0.000000 0.073837
O O18 0.528039 0.500000 0.777448
O O19 0.646819 0.270191 0.650449
O O20 0.731356 0.500000 0.015183
O O21 0.685907 0.000000 0.667515
#
# Coordination Sequence:
#
# PCOD8063213 Si02
#       8
#     4   4   4   4   4   4   4   4
#     4   7  11  22  43  69  94 122 156 193 232 274
#     4   8  15  29  48  72 101 129 162 203 240 279
#     4   8  16  32  50  69  97 130 160 190 229 282
#     4  10  20  35  53  71  93 124 164 206 244 286
#     4   9  16  29  51  74  97 130 167 199 235 284
#     4  10  20  33  52  76 100 129 160 192 239 295
#     4  10  20  33  51  73  97 128 163 200 244 291
#     4  10  20  33  51  74  98 126 161 204 248 284
#
# _framework density 18.442273
#
# number of rings (size 3 to 8) (size 9 to 14) (size 15 to 20)
#    0.000    3.000    0.000    3.750    0.000    3.500 
#    0.000    1.250    0.000   19.875    0.000    0.000 
#    0.000    0.000    0.000    0.000    0.000    0.000 
#
# Total GULP energy -396502.712883 kJ/mol
# GULP energy per Si atom -12390.709778 kJ/mol
# Density = 1.840030 g / cm^3
# Si number density = 18.442273 Si / 1000 Ang^3
#
#
#
# Elastic Constant Matrix: (Units=GPa)
#
#
# Indices 1 2 3 4 5 6 
#
# 1 126.9091 24.0088 59.6127 0.0000 -4.8752 0.0000
# 2 24.0088 29.8712 19.5711 0.0000 0.5834 0.0000
# 3 59.6127 19.5711 119.6844 0.0000 8.7662 0.0000
# 4 0.0000 0.0000 0.0000 12.0609 0.0000 2.2348
# 5 -4.8752 0.5834 8.7662 0.0000 23.1711 0.0000
# 6 0.0000 0.0000 0.0000 2.2348 0.0000 20.5860
#
#
#
# Elastic Compliance Matrix: (Units=1/GPa)
#
#
# Indices 1 2 3 4 5 6 
#
# 1 0.011606 -0.006061 -0.005122 0.000000 0.004532 0.000000
# 2 -0.006061 0.040705 -0.003567 0.000000 -0.000950 0.000000
# 3 -0.005122 -0.003567 0.011892 0.000000 -0.005487 0.000000
# 4 0.000000 0.000000 0.000000 0.084614 0.000000 -0.009186
# 5 0.004532 -0.000950 -0.005487 0.000000 0.046211 0.000000
# 6 0.000000 0.000000 0.000000 -0.009186 0.000000 0.049574
#
#
# Mechanical properties :
#
#
# Convention : Reuss Voigt Hill
#
# Bulk Modulus (GPa) = 28.81714 53.64999 41.23356
# Shear Modulus (GPa) = 17.50273 22.71506 20.10890
#
# Velocity S-wave (km/s) = 3.08402 3.51334 3.30566
# Velocity P-wave (km/s) = 5.32363 6.75367 6.08083
#
# Compressibility (1/GPa) = 0.03470157
#
# Stress axis : x y z
#
# Youngs Moduli (GPa) = 86.16065 24.56717 84.09336
#
# Poissons Ratio (x) = 0.14891 0.43070
# Poissons Ratio (y) = 0.52225 0.30000
# Poissons Ratio (z) = 0.44129 0.08764
#
# Static dielectric constant tensor:
#      x y z
#    x 3.451540 0.000000 0.138150 
#    y 0.000000 3.010450 0.000000 
#    z 0.138150 0.000000 3.615420 
# 
# 
# High freq. dielectric constant tensor:
#      x y z
#    x 1.714160 0.000000 0.007370 
#    y 0.000000 1.677300 0.000000 
#    z 0.007370 0.000000 1.711950 
# 
# From -- ./inp_files/55259.got.cif
#   From: 2010.06.25/outbox.cif.g09.slc.cpg/sg10_28_cif.got.tgz:55259.got - 2010.06.27 22:07:45.
