data_PCOD8063776
_publ_section_title
;
Structure prediction by ZEFSAII (Michael W. Deem and Ramdas Pophale) SiO2 
 PCOD8063776
Probable space group: P 2/M
;
_chemical_formula_sum "Si O2"
_cell_formula_units_Z 28
_cell_length_a 20.215343
_cell_length_b 9.139715
_cell_length_c 14.509172
_cell_angle_alpha 90.000000
_cell_angle_beta 147.361516
_cell_angle_gamma 90.000000
_cell_volume 1445.826639
_symmetry_space_group_name_H-M "P 2/M"
_symmetry_group_IT_number 10
_symmetry_cell_setting 'monoclinic'
loop_
_space_group_symop_operation_xyz
x,y,z
-x,y,-z
-x,-y,-z
x,-y,z
loop_
_atom_site_type_symbol
_atom_site_label
_atom_site_fract_x
_atom_site_fract_y
_atom_site_fract_z
Si Si1 0.819627 0.331459 0.532110
Si Si2 0.693911 0.333790 0.572499
Si Si3 0.273074 0.167360 0.909950
Si Si4 0.637269 0.329493 0.157896
Si Si5 0.443343 0.170545 0.277348
Si Si6 0.066658 0.171788 0.809978
Si Si7 0.759656 0.668523 0.853283
O O1 0.859476 0.500000 0.567622
O O2 0.784912 0.294431 0.596218
O O3 0.703020 0.294862 0.331505
O O4 0.930913 0.229192 0.631559
O O5 0.643906 0.500000 0.503001
O O6 0.582272 0.221933 0.440314
O O7 0.770984 0.316662 0.756554
O O8 0.282760 0.262690 0.830182
O O9 0.147316 0.208049 0.814592
O O10 0.272455 0.000000 0.878063
O O11 0.386998 0.200933 0.110752
O O12 0.628724 0.500000 0.127519
O O13 0.500000 0.261683 0.000000
O O14 0.368065 0.258714 0.265876
O O15 0.435381 0.000000 0.293462
O O16 0.065882 0.000000 0.829465
O O17 0.123713 0.251021 0.965978
O O18 0.759797 0.500000 0.884897
#
# Coordination Sequence:
#
# PCOD8063776 Si02
#       7
#     4   4   4   4   4   4   4
#     4  10  22  39  57  80 111 145 184 229 274 324
#     4  10  21  36  55  80 111 148 187 227 274 327
#     4   9  20  37  56  79 109 145 181 221 271 325
#     4  10  21  37  59  86 112 140 177 222 271 322
#     4  10  20  34  54  83 116 147 182 226 276 328
#     4  10  22  40  58  80 110 144 185 228 274 327
#     4  10  20  35  57  82 109 145 186 228 275 325
#
# _framework density 19.366084000000001
#
# number of rings (size 3 to 8) (size 9 to 14) (size 15 to 20)
#    0.000    2.143    0.000    3.429    0.000   10.000 
#    0.000    5.714    0.000    0.000    0.000    0.000 
#    0.000    0.000    0.000    0.000    0.000    0.000 
#
# Total GULP energy -347325.696450 kJ/mol
# GULP energy per Si atom -12404.489159 kJ/mol
# Density = 1.932201 g / cm^3
# Si number density = 19.366084 Si / 1000 Ang^3
#
#
#
# Elastic Constant Matrix: (Units=GPa)
#
#
# Indices 1 2 3 4 5 6 
#
# 1 116.0733 53.1578 54.5382 0.0000 -10.7333 0.0000
# 2 53.1578 93.3833 50.6153 0.0000 -0.2952 0.0000
# 3 54.5382 50.6153 85.6026 0.0000 11.8494 0.0000
# 4 0.0000 0.0000 0.0000 34.3911 0.0000 4.1571
# 5 -10.7333 -0.2952 11.8494 0.0000 29.8550 0.0000
# 6 0.0000 0.0000 0.0000 4.1571 0.0000 19.3854
#
#
#
# Elastic Compliance Matrix: (Units=1/GPa)
#
#
# Indices 1 2 3 4 5 6 
#
# 1 0.015331 -0.004029 -0.008616 0.000000 0.008892 0.000000
# 2 -0.004029 0.017302 -0.007922 0.000000 0.001867 0.000000
# 3 -0.008616 -0.007922 0.023591 0.000000 -0.012539 0.000000
# 4 0.000000 0.000000 0.000000 0.029851 0.000000 -0.006401
# 5 0.008892 0.001867 -0.012539 0.000000 0.041687 0.000000
# 6 0.000000 0.000000 0.000000 -0.006401 0.000000 0.052958
#
#
# Mechanical properties :
#
#
# Convention : Reuss Voigt Hill
#
# Bulk Modulus (GPa) = 66.26834 67.96466 67.11650
# Shear Modulus (GPa) = 22.03781 25.84281 23.94031
#
# Velocity S-wave (km/s) = 3.37702 3.65696 3.51978
# Velocity P-wave (km/s) = 7.03554 7.28025 7.15894
#
# Compressibility (1/GPa) = 0.01509016
#
# Stress axis : x y z
#
# Youngs Moduli (GPa) = 65.22790 57.79833 42.38914
#
# Poissons Ratio (x) = 0.23286 0.36523
# Poissons Ratio (y) = 0.26279 0.33579
# Poissons Ratio (z) = 0.56201 0.45786
#
# Static dielectric constant tensor:
#      x y z
#    x 3.483770 0.000000 -0.051200 
#    y 0.000000 3.528730 0.000000 
#    z -0.051200 0.000000 3.476840 
# 
# 
# High freq. dielectric constant tensor:
#      x y z
#    x 1.753710 0.000000 -0.004860 
#    y 0.000000 1.755710 0.000000 
#    z -0.004860 0.000000 1.752300 
# 
# From -- ./inp_files/49552.got.cif
#   From: 2010.06.25/outbox.cif.g09.slc.cpg/sg10_25_cif.got.tgz:49552.got - 2010.06.27 22:07:45.
