data_PCOD8063109
_publ_section_title
;
Structure prediction by ZEFSAII (Michael W. Deem and Ramdas Pophale) SiO2 
 PCOD8063109
Probable space group: P 2/M
;
_chemical_formula_sum "Si O2"
_cell_formula_units_Z 28
_cell_length_a 17.920330
_cell_length_b 8.615873
_cell_length_c 25.694007
_cell_angle_alpha 90.000000
_cell_angle_beta 25.270893
_cell_angle_gamma 90.000000
_cell_volume 1693.564656
_symmetry_space_group_name_H-M "P 2/M"
_symmetry_group_IT_number 10
_symmetry_cell_setting 'monoclinic'
loop_
_space_group_symop_operation_xyz
x,y,z
-x,y,-z
-x,-y,-z
x,-y,z
loop_
_atom_site_type_symbol
_atom_site_label
_atom_site_fract_x
_atom_site_fract_y
_atom_site_fract_z
Si Si1 0.291560 0.681636 0.583695
Si Si2 0.054632 0.323993 0.381788
Si Si3 0.665421 0.181261 0.336093
Si Si4 0.729189 0.326268 0.664088
Si Si5 0.837168 0.180744 0.434798
Si Si6 0.819862 0.318672 0.139189
Si Si7 0.468493 0.683538 0.304922
O O1 0.278758 0.500000 0.602421
O O2 0.243975 0.772092 0.666665
O O3 0.486656 0.723392 0.441581
O O4 0.154472 0.730896 0.625662
O O5 0.099207 0.500000 0.336598
O O6 0.886671 0.324334 0.524148
O O7 0.011225 0.224139 0.357949
O O8 0.212860 0.246830 0.317292
O O9 0.795869 0.223097 0.207223
O O10 0.621217 0.000000 0.363852
O O11 0.683902 0.500000 0.709503
O O12 0.565653 0.257606 0.733770
O O13 0.658433 0.226444 0.576165
O O14 0.836720 0.000000 0.424005
O O15 0.822803 0.500000 0.151205
O O16 0.667088 0.279198 0.194393
O O17 0.000000 0.263522 0.000000
O O18 0.425854 0.500000 0.336108
#
# Coordination Sequence:
#
# PCOD8063109 Si02
#       7
#     4   4   4   4   4   4   4
#     4  11  20  32  49  66  88 119 152 185 223 272
#     4   8  13  23  37  54  79 112 147 178 213 260
#     4  11  21  33  48  68  91 115 148 190 234 271
#     4   7  11  21  38  56  75 108 150 183 212 256
#     4  11  19  26  39  63  91 116 146 182 221 267
#     4  10  20  33  49  68  91 122 160 194 224 264
#     4   9  16  28  44  59  82 117 154 188 223 263
#
# _framework density 16.533173999999999
#
# number of rings (size 3 to 8) (size 9 to 14) (size 15 to 20)
#    0.000    2.429    1.429    6.429    0.000    0.286 
#    0.000    5.714    0.000    0.000    0.000    0.000 
#    0.000    1.143    0.000   13.429    0.000    2.857 
#
# Total GULP energy -346906.912654 kJ/mol
# GULP energy per Si atom -12389.532595 kJ/mol
# Density = 1.649554 g / cm^3
# Si number density = 16.533174 Si / 1000 Ang^3
#
#
#
# Elastic Constant Matrix: (Units=GPa)
#
#
# Indices 1 2 3 4 5 6 
#
# 1 156.9264 23.4959 36.1023 0.0000 5.2177 0.0000
# 2 23.4959 60.5963 13.2724 0.0000 3.2424 0.0000
# 3 36.1023 13.2724 49.2982 0.0000 4.2790 0.0000
# 4 0.0000 0.0000 0.0000 9.6651 0.0000 2.7392
# 5 5.2177 3.2424 4.2790 0.0000 13.4776 0.0000
# 6 0.0000 0.0000 0.0000 2.7392 0.0000 12.0168
#
#
#
# Elastic Compliance Matrix: (Units=1/GPa)
#
#
# Indices 1 2 3 4 5 6 
#
# 1 0.007876 -0.001868 -0.005182 0.000000 -0.000955 0.000000
# 2 -0.001868 0.018083 -0.003276 0.000000 -0.002587 0.000000
# 3 -0.005182 -0.003276 0.025420 0.000000 -0.005276 0.000000
# 4 0.000000 0.000000 0.000000 0.110610 0.000000 -0.025213
# 5 -0.000955 -0.002587 -0.005276 0.000000 0.076864 0.000000
# 6 0.000000 0.000000 0.000000 -0.025213 0.000000 0.088964
#
#
# Mechanical properties :
#
#
# Convention : Reuss Voigt Hill
#
# Bulk Modulus (GPa) = 32.54492 45.84023 39.19257
# Shear Modulus (GPa) = 13.93879 19.96192 16.95036
#
# Velocity S-wave (km/s) = 2.90673 3.47852 3.20540
# Velocity P-wave (km/s) = 5.56712 6.62720 6.12016
#
# Compressibility (1/GPa) = 0.03072676
#
# Stress axis : x y z
#
# Youngs Moduli (GPa) = 126.96821 55.30100 39.33967
#
# Poissons Ratio (x) = 0.10329 0.20386
# Poissons Ratio (y) = 0.23715 0.12888
# Poissons Ratio (z) = 0.65796 0.18117
#
# Static dielectric constant tensor:
#      x y z
#    x 3.852340 0.000000 -0.043710 
#    y 0.000000 2.961200 0.000000 
#    z -0.043710 0.000000 2.551870 
# 
# 
# High freq. dielectric constant tensor:
#      x y z
#    x 1.668380 0.000000 0.004780 
#    y 0.000000 1.624760 0.000000 
#    z 0.004780 0.000000 1.552810 
# 
# From -- ./inp_files/89870.got.cif
#   From: 2010.06.25/outbox.cif.g09.slc.cpg/sg10_45_cif.got.tgz:89870.got - 2010.06.27 22:07:45.
