data_PCOD8063954
_publ_section_title
;
Structure prediction by ZEFSAII (Michael W. Deem and Ramdas Pophale) SiO2 
 PCOD8063954
Probable space group: P 2/M
;
_chemical_formula_sum "Si O2"
_cell_formula_units_Z 24
_cell_length_a 15.166827
_cell_length_b 17.681739
_cell_length_c 13.427648
_cell_angle_alpha 90.000000
_cell_angle_beta 19.402024
_cell_angle_gamma 90.000000
_cell_volume 1196.222676
_symmetry_space_group_name_H-M "P 2/M"
_symmetry_group_IT_number 10
_symmetry_cell_setting 'monoclinic'
loop_
_space_group_symop_operation_xyz
x,y,z
-x,y,-z
-x,-y,-z
x,-y,z
loop_
_atom_site_type_symbol
_atom_site_label
_atom_site_fract_x
_atom_site_fract_y
_atom_site_fract_z
Si Si1 0.860054 0.648332 0.750497
Si Si2 0.270896 0.816065 0.162676
Si Si3 0.061933 0.089778 0.824785
Si Si4 0.380739 0.910364 0.854944
Si Si5 0.276965 0.410013 0.665276
Si Si6 0.687896 0.412088 0.597355
O O1 0.786105 0.736182 0.828331
O O2 0.000000 0.621311 0.500000
O O3 0.070490 0.634940 0.613769
O O4 0.591518 0.600765 0.050166
O O5 0.000000 0.847395 0.500000
O O6 0.500000 0.806263 0.000000
O O7 0.366013 0.875442 0.979857
O O8 0.350799 0.116814 0.483873
O O9 0.041535 0.000000 0.851742
O O10 0.000000 0.123836 0.000000
O O11 0.854595 0.120288 0.964199
O O12 0.372167 0.000000 0.877479
O O13 0.500000 0.375987 0.500000
O O14 0.276542 0.500000 0.670696
O O15 0.336914 0.383287 0.489451
O O16 0.000000 0.377067 0.000000
O O17 0.763856 0.500000 0.522489
#
# Coordination Sequence:
#
# PCOD8063954 Si02
#       6
#     4   4   4   4   4   4
#     4  11  23  39  56  78 110 149 185 220 277 341
#     4  11  23  40  59  78 108 151 188 222 277 340
#     4   9  17  31  53  83 117 148 180 222 274 329
#     4  10  20  34  57  87 112 142 188 235 272 312
#     4   9  17  31  52  79 109 138 170 211 263 321
#     4  11  22  36  59  87 110 139 183 232 273 315
#
# _framework density 20.063154000000001
#
# number of rings (size 3 to 8) (size 9 to 14) (size 15 to 20)
#    0.000    1.833    0.000    5.500    0.000    7.333 
#    0.000    0.000    0.000   10.000    0.000    0.000 
#    0.000    0.000    0.000    0.000    0.000    0.000 
#
# Total GULP energy -297673.603270 kJ/mol
# GULP energy per Si atom -12403.066803 kJ/mol
# Density = 2.001749 g / cm^3
# Si number density = 20.063154 Si / 1000 Ang^3
#
#
#
# Elastic Constant Matrix: (Units=GPa)
#
#
# Indices 1 2 3 4 5 6 
#
# 1 157.2572 51.1153 60.1937 0.0000 -13.7437 0.0000
# 2 51.1153 40.4705 42.6053 0.0000 5.8233 0.0000
# 3 60.1937 42.6053 134.1091 0.0000 -4.2821 0.0000
# 4 0.0000 0.0000 0.0000 -0.1680 0.0000 -16.3233
# 5 -13.7437 5.8233 -4.2821 0.0000 45.4827 0.0000
# 6 0.0000 0.0000 0.0000 -16.3233 0.0000 -7.1803
#
#
#
# Elastic Compliance Matrix: (Units=1/GPa)
#
#
# Indices 1 2 3 4 5 6 
#
# 1 0.012092 -0.015873 -0.000204 0.000000 0.005667 0.000000
# 2 -0.015873 0.059601 -0.012244 0.000000 -0.013580 0.000000
# 3 -0.000204 -0.012244 0.011520 0.000000 0.002591 0.000000
# 4 0.000000 0.000000 0.000000 0.027071 0.000000 -0.061541
# 5 0.005667 -0.013580 0.002591 0.000000 0.025681 0.000000
# 6 0.000000 0.000000 0.000000 -0.061541 0.000000 0.000633
#
#
# Mechanical properties :
#
#
# Convention : Reuss Voigt Hill
#
# Bulk Modulus (GPa) = 37.63328 71.07393 54.35360
# Shear Modulus (GPa) = 24.74056 19.48838 22.11447
#
# Velocity S-wave (km/s) = 3.51541 3.12003 3.32361
# Velocity P-wave (km/s) = 5.93933 6.96286 6.47136
#
# Compressibility (1/GPa) = 0.02657223
#
# Stress axis : x y z
#
# Youngs Moduli (GPa) = 82.70183 16.77818 86.80221
#
# Poissons Ratio (x) = 0.26632 0.01767
# Poissons Ratio (y) = 1.31274 1.06279
# Poissons Ratio (z) = 0.01683 0.20543
#
# Static dielectric constant tensor:
#      x y z
#    x 3.843620 0.000000 -0.040010 
#    y 0.000000 3.179490 0.000000 
#    z -0.040010 0.000000 3.918980 
# 
# 
# High freq. dielectric constant tensor:
#      x y z
#    x 1.800730 0.000000 -0.003970 
#    y 0.000000 1.739200 0.000000 
#    z -0.003970 0.000000 1.803770 
# 
# From -- ./inp_files/52047.got.cif
#   From: 2010.06.25/outbox.cif.g09.slc.cpg/sg10_27_cif.got.tgz:52047.got - 2010.06.27 22:07:45.
