data_PCOD8063054
_publ_section_title
;
Structure prediction by ZEFSAII (Michael W. Deem and Ramdas Pophale) SiO2 
 PCOD8063054
Probable space group: P 2/M
;
_chemical_formula_sum "Si O2"
_cell_formula_units_Z 28
_cell_length_a 11.907138
_cell_length_b 13.362528
_cell_length_c 12.521112
_cell_angle_alpha 90.000000
_cell_angle_beta 46.166458
_cell_angle_gamma 90.000000
_cell_volume 1437.103041
_symmetry_space_group_name_H-M "P 2/M"
_symmetry_group_IT_number 10
_symmetry_cell_setting 'monoclinic'
loop_
_space_group_symop_operation_xyz
x,y,z
-x,y,-z
-x,-y,-z
x,-y,z
loop_
_atom_site_type_symbol
_atom_site_label
_atom_site_fract_x
_atom_site_fract_y
_atom_site_fract_z
Si Si1 0.104952 0.691664 0.531041
Si Si2 0.366750 0.618748 0.228533
Si Si3 0.032475 0.614083 0.803336
Si Si4 0.535104 0.884859 0.357859
Si Si5 0.150064 0.803335 0.831444
Si Si6 0.296433 0.618302 0.041010
Si Si7 0.188285 0.886918 0.572395
O O1 0.283056 0.672379 0.381591
O O2 0.081706 0.808123 0.578117
O O3 0.000000 0.660299 0.500000
O O4 0.074233 0.619481 0.651004
O O5 0.350316 0.500000 0.248318
O O6 0.293628 0.658909 0.164757
O O7 0.546155 0.653464 0.120202
O O8 0.054232 0.500000 0.828900
O O9 0.852947 0.653246 0.929374
O O10 0.135413 0.685581 0.810437
O O11 0.500000 0.848358 0.500000
O O12 0.684492 0.821013 0.214983
O O13 0.366835 0.870538 0.412563
O O14 0.587644 0.000000 0.319147
O O15 0.161936 0.869463 0.716085
O O16 0.000000 0.837338 0.000000
O O17 0.294119 0.500000 0.052168
O O18 0.134874 0.000000 0.581396
#
# Coordination Sequence:
#
# PCOD8063054 Si02
#       7
#     4   4   4   4   4   4   4
#     4  11  20  30  51  79 103 133 170 208 245 288
#     4   9  16  27  46  71  98 133 173 205 231 272
#     4  10  20  33  48  72 108 140 167 202 244 293
#     4   8  15  32  55  73  93 123 159 206 255 302
#     4  10  20  32  53  80  98 123 168 212 256 297
#     4   8  15  28  45  67  97 134 171 201 232 276
#     4   9  20  37  54  74 100 130 166 206 255 310
#
# _framework density 19.483640999999999
#
# number of rings (size 3 to 8) (size 9 to 14) (size 15 to 20)
#    0.000    2.714    1.429    2.571    0.000    3.429 
#    0.000    0.000    0.000   11.571    0.000    2.000 
#    0.000    0.000    0.000    0.000    0.000    0.000 
#
# Total GULP energy -346900.439202 kJ/mol
# GULP energy per Si atom -12389.301400 kJ/mol
# Density = 1.943930 g / cm^3
# Si number density = 19.483641 Si / 1000 Ang^3
#
#
#
# Elastic Constant Matrix: (Units=GPa)
#
#
# Indices 1 2 3 4 5 6 
#
# 1 30.0331 10.0283 18.5024 0.0000 -8.8967 0.0000
# 2 10.0283 70.5158 18.2633 0.0000 -11.1362 0.0000
# 3 18.5024 18.2633 110.6724 0.0000 -19.0776 0.0000
# 4 0.0000 0.0000 0.0000 14.7495 0.0000 -13.8299
# 5 -8.8967 -11.1362 -19.0776 0.0000 19.4159 0.0000
# 6 0.0000 0.0000 0.0000 -13.8299 0.0000 17.0883
#
#
#
# Elastic Compliance Matrix: (Units=1/GPa)
#
#
# Indices 1 2 3 4 5 6 
#
# 1 0.040569 -0.002648 -0.004097 0.000000 0.013045 0.000000
# 2 -0.002648 0.015910 -0.000986 0.000000 0.006943 0.000000
# 3 -0.004097 -0.000986 0.011392 0.000000 0.008751 0.000000
# 4 0.000000 0.000000 0.000000 0.281159 0.000000 0.227548
# 5 0.013045 0.006943 0.008751 0.000000 0.070062 0.000000
# 6 0.000000 0.000000 0.000000 0.227548 0.000000 0.242679
#
#
# Mechanical properties :
#
#
# Convention : Reuss Voigt Hill
#
# Bulk Modulus (GPa) = 19.08072 33.86769 26.47421
# Shear Modulus (GPa) = 7.19733 21.21256 14.20495
#
# Velocity S-wave (km/s) = 1.92407 3.30318 2.70306
# Velocity P-wave (km/s) = 3.84064 5.65406 4.83316
#
# Compressibility (1/GPa) = 0.05240892
#
# Stress axis : x y z
#
# Youngs Moduli (GPa) = 24.64925 62.85493 87.78347
#
# Poissons Ratio (x) = 0.16646 0.35962
# Poissons Ratio (y) = 0.06528 0.08654
# Poissons Ratio (z) = 0.10098 0.06197
#
# Static dielectric constant tensor:
#      x y z
#    x 3.532940 0.000000 -0.432260 
#    y 0.000000 3.259000 0.000000 
#    z -0.432260 0.000000 3.830620 
# 
# 
# High freq. dielectric constant tensor:
#      x y z
#    x 1.731690 0.000000 -0.019900 
#    y 0.000000 1.735740 0.000000 
#    z -0.019900 0.000000 1.762640 
# 
# From -- ./inp_files/67092.got.cif
#   From: 2010.06.25/outbox.cif.g09.slc.cpg/sg10_34_cif.got.tgz:67092.got - 2010.06.27 22:07:45.
