data_PCOD8063593
_publ_section_title
;
Structure prediction by ZEFSAII (Michael W. Deem and Ramdas Pophale) SiO2 
 PCOD8063593
Probable space group: P 2/M
;
_chemical_formula_sum "Si O2"
_cell_formula_units_Z 32
_cell_length_a 21.791953
_cell_length_b 9.035815
_cell_length_c 14.452174
_cell_angle_alpha 90.000000
_cell_angle_beta 35.753039
_cell_angle_gamma 90.000000
_cell_volume 1662.750681
_symmetry_space_group_name_H-M "P 2/M"
_symmetry_group_IT_number 10
_symmetry_cell_setting 'monoclinic'
loop_
_space_group_symop_operation_xyz
x,y,z
-x,y,-z
-x,-y,-z
x,-y,z
loop_
_atom_site_type_symbol
_atom_site_label
_atom_site_fract_x
_atom_site_fract_y
_atom_site_fract_z
Si Si1 0.178633 0.175178 0.617101
Si Si2 0.658396 0.174999 0.432865
Si Si3 0.954567 0.165423 0.457679
Si Si4 0.593780 0.831874 0.957225
Si Si5 0.950735 0.166236 0.847334
Si Si6 0.240177 0.328229 0.364359
Si Si7 0.447659 0.824076 0.784119
Si Si8 0.721146 0.177034 0.156551
O O1 0.234027 0.219097 0.645363
O O2 0.252657 0.242290 0.446146
O O3 0.058035 0.238177 0.759875
O O4 0.175788 0.000000 0.603278
O O5 0.555151 0.242555 0.608759
O O6 0.666914 0.233677 0.317547
O O7 0.646985 0.000000 0.446382
O O8 0.874671 0.295259 0.533299
O O9 0.000000 0.206792 0.500000
O O10 0.044873 0.168634 0.269501
O O11 0.902932 0.000000 0.521787
O O12 0.682438 0.726212 0.809689
O O13 0.635561 0.000000 0.914745
O O14 0.500000 0.823545 0.000000
O O15 0.561503 0.770967 0.098260
O O16 0.946089 0.000000 0.892051
O O17 0.840088 0.244750 0.008534
O O18 0.257299 0.500000 0.361725
O O19 0.348659 0.766016 0.844531
O O20 0.452748 0.000000 0.774328
O O21 0.727335 0.000000 0.145908
#
# Coordination Sequence:
#
# PCOD8063593 Si02
#       8
#     4   4   4   4   4   4   4   4
#     4   9  17  32  51  70  99 134 173 209 246 306
#     4   9  16  27  45  69  98 132 163 204 259 308
#     4   9  18  32  53  75 101 138 177 211 249 306
#     4  10  20  34  53  75 101 137 179 217 255 308
#     4   8  15  26  41  68  99 129 162 201 248 295
#     4  11  22  34  50  75 106 136 170 214 264 310
#     4   9  17  27  43  68 100 133 164 203 256 312
#     4   9  16  25  41  70 105 129 157 205 260 310
#
# _framework density 19.24522
#
# number of rings (size 3 to 8) (size 9 to 14) (size 15 to 20)
#    0.000    2.750    0.000    3.000    1.750    4.500 
#    0.000    2.500    0.000    0.000    0.000    7.875 
#    0.000    3.000    0.000    0.000    0.000    0.000 
#
# Total GULP energy -396530.164951 kJ/mol
# GULP energy per Si atom -12391.567655 kJ/mol
# Density = 1.920142 g / cm^3
# Si number density = 19.245220 Si / 1000 Ang^3
#
#
#
# Elastic Constant Matrix: (Units=GPa)
#
#
# Indices 1 2 3 4 5 6 
#
# 1 136.7396 13.2561 59.3802 0.0000 11.1941 0.0000
# 2 13.2561 32.4819 20.0765 0.0000 1.6937 0.0000
# 3 59.3802 20.0765 131.3139 0.0000 -3.0573 0.0000
# 4 0.0000 0.0000 0.0000 -187.8995 0.0000 15.7954
# 5 11.1941 1.6937 -3.0573 0.0000 29.2032 0.0000
# 6 0.0000 0.0000 0.0000 15.7954 0.0000 4.6874
#
#
#
# Elastic Compliance Matrix: (Units=1/GPa)
#
#
# Indices 1 2 3 4 5 6 
#
# 1 0.009606 -0.001065 -0.004276 0.000000 -0.004068 0.000000
# 2 -0.001065 0.034304 -0.004811 0.000000 -0.002085 0.000000
# 3 -0.004276 -0.004811 0.010354 0.000000 0.003002 0.000000
# 4 0.000000 0.000000 0.000000 -0.004147 0.000000 0.013975
# 5 -0.004068 -0.002085 0.003002 0.000000 0.036237 0.000000
# 6 0.000000 0.000000 0.000000 0.013975 0.000000 0.166245
#
#
# Mechanical properties :
#
#
# Convention : Reuss Voigt Hill
#
# Bulk Modulus (GPa) = 29.44723 53.99568 41.72145
# Shear Modulus (GPa) = 17.59172 -16.94695 0.32239
#
# Velocity S-wave (km/s) = 3.02666 -2.97068 0.40973
# Velocity P-wave (km/s) = 5.24867 4.04364 4.68506
#
# Compressibility (1/GPa) = 0.03395905
#
# Stress axis : x y z
#
# Youngs Moduli (GPa) = 104.09851 29.15133 96.57769
#
# Poissons Ratio (x) = 0.03106 0.41295
# Poissons Ratio (y) = 0.11092 0.46467
# Poissons Ratio (z) = 0.44510 0.14026
#
# Static dielectric constant tensor:
#      x y z
#    x 3.778870 0.000000 -0.031160 
#    y 0.000000 2.826510 0.000000 
#    z -0.031160 0.000000 3.895410 
# 
# 
# High freq. dielectric constant tensor:
#      x y z
#    x 1.759400 0.000000 0.001620 
#    y 0.000000 1.668630 0.000000 
#    z 0.001620 0.000000 1.756310 
# 
# From -- ./inp_files/71470.got.cif
#   From: 2010.06.25/outbox.cif.g09.slc.cpg/sg10_36_cif.got.tgz:71470.got - 2010.06.27 22:07:45.
