data_PCOD8063539
_publ_section_title
;
Structure prediction by ZEFSAII (Michael W. Deem and Ramdas Pophale) SiO2 
 PCOD8063539
Probable space group: P 2/M
;
_chemical_formula_sum "Si O2"
_cell_formula_units_Z 28
_cell_length_a 18.920706
_cell_length_b 8.830119
_cell_length_c 11.316507
_cell_angle_alpha 90.000000
_cell_angle_beta 127.614597
_cell_angle_gamma 90.000000
_cell_volume 1497.666239
_symmetry_space_group_name_H-M "P 2/M"
_symmetry_group_IT_number 10
_symmetry_cell_setting 'monoclinic'
loop_
_space_group_symop_operation_xyz
x,y,z
-x,y,-z
-x,-y,-z
x,-y,z
loop_
_atom_site_type_symbol
_atom_site_label
_atom_site_fract_x
_atom_site_fract_y
_atom_site_fract_z
Si Si1 0.208583 0.667888 0.973055
Si Si2 0.687558 0.170710 0.105600
Si Si3 0.657842 0.678087 0.319046
Si Si4 0.742974 0.821065 0.617767
Si Si5 0.375178 0.669932 0.316807
Si Si6 0.482182 0.826639 0.236150
Si Si7 0.899508 0.678606 0.920542
O O1 0.190621 0.500000 0.903551
O O2 0.293941 0.664563 0.143841
O O3 0.125549 0.722296 0.969575
O O4 0.225120 0.781540 0.881255
O O5 0.677559 0.283991 0.203726
O O6 0.700996 0.000000 0.165351
O O7 0.601359 0.183185 0.935956
O O8 0.662877 0.500000 0.343392
O O9 0.733388 0.758837 0.475280
O O10 0.560349 0.736389 0.253013
O O11 0.655881 0.762678 0.599957
O O12 0.836192 0.763638 0.764274
O O13 0.742779 0.000000 0.619350
O O14 0.402701 0.500000 0.382717
O O15 0.459213 0.751198 0.339588
O O16 0.511266 0.000000 0.286933
O O17 0.886191 0.500000 0.887192
O O18 0.000000 0.731728 0.000000
#
# Coordination Sequence:
#
# PCOD8063539 Si02
#       7
#     4   4   4   4   4   4   4
#     4   8  15  29  51  78 105 134 168 205 247 298
#     4  10  20  34  52  74 103 138 176 218 260 301
#     4  12  24  36  51  71 100 140 182 220 260 307
#     4  11  22  36  53  76 107 138 171 212 263 315
#     4   9  17  32  52  74 102 136 175 215 257 307
#     4  10  20  34  52  76 104 135 176 223 266 304
#     4   9  18  35  60  87 112 136 165 204 251 308
#
# _framework density 18.695754000000001
#
# number of rings (size 3 to 8) (size 9 to 14) (size 15 to 20)
#    0.000    2.143    0.000    5.143    0.000    7.714 
#    0.000    2.857    0.000    0.857    0.000    6.000 
#    0.000    0.000    0.000    0.000    0.000    0.000 
#
# Total GULP energy -347229.300120 kJ/mol
# GULP energy per Si atom -12401.046433 kJ/mol
# Density = 1.865320 g / cm^3
# Si number density = 18.695754 Si / 1000 Ang^3
#
#
#
# Elastic Constant Matrix: (Units=GPa)
#
#
# Indices 1 2 3 4 5 6 
#
# 1 114.9453 38.3478 23.3889 0.0000 7.8296 0.0000
# 2 38.3478 114.8286 30.2136 0.0000 1.7314 0.0000
# 3 23.3889 30.2136 31.0388 0.0000 0.6387 0.0000
# 4 0.0000 0.0000 0.0000 25.2858 0.0000 -7.3220
# 5 7.8296 1.7314 0.6387 0.0000 19.9904 0.0000
# 6 0.0000 0.0000 0.0000 -7.3220 0.0000 25.6851
#
#
#
# Elastic Compliance Matrix: (Units=1/GPa)
#
#
# Indices 1 2 3 4 5 6 
#
# 1 0.010879 -0.001934 -0.006235 0.000000 -0.003894 0.000000
# 2 -0.001934 0.012059 -0.010282 0.000000 0.000041 0.000000
# 3 -0.006235 -0.010282 0.046887 0.000000 0.001835 0.000000
# 4 0.000000 0.000000 0.000000 0.043106 0.000000 0.012288
# 5 -0.003894 0.000041 0.001835 0.000000 0.051487 0.000000
# 6 0.000000 0.000000 0.000000 0.012288 0.000000 0.042436
#
#
# Mechanical properties :
#
#
# Convention : Reuss Voigt Hill
#
# Bulk Modulus (GPa) = 30.37390 49.41258 39.89324
# Shear Modulus (GPa) = 19.62848 25.44975 22.53912
#
# Velocity S-wave (km/s) = 3.24372 3.69353 3.47590
# Velocity P-wave (km/s) = 5.50551 6.68407 6.12321
#
# Compressibility (1/GPa) = 0.03292300
#
# Stress axis : x y z
#
# Youngs Moduli (GPa) = 91.92097 82.92358 21.32771
#
# Poissons Ratio (x) = 0.16036 0.13298
# Poissons Ratio (y) = 0.17776 0.21930
# Poissons Ratio (z) = 0.57314 0.85265
#
# Static dielectric constant tensor:
#      x y z
#    x 3.633660 0.000000 -0.170620 
#    y 0.000000 3.567530 0.000000 
#    z -0.170620 0.000000 3.212080 
# 
# 
# High freq. dielectric constant tensor:
#      x y z
#    x 1.720950 0.000000 -0.016670 
#    y 0.000000 1.736410 0.000000 
#    z -0.016670 0.000000 1.700830 
# 
# From -- ./inp_files/54998.got.cif
#   From: 2010.06.25/outbox.cif.g09.slc.cpg/sg10_28_cif.got.tgz:54998.got - 2010.06.27 22:07:45.
