data_PCOD8063613
_publ_section_title
;
Structure prediction by ZEFSAII (Michael W. Deem and Ramdas Pophale) SiO2 
 PCOD8063613
Probable space group: P 2/M
;
_chemical_formula_sum "Si O2"
_cell_formula_units_Z 24
_cell_length_a 29.757045
_cell_length_b 8.860776
_cell_length_c 8.026558
_cell_angle_alpha 90.000000
_cell_angle_beta 35.430751
_cell_angle_gamma 90.000000
_cell_volume 1226.897050
_symmetry_space_group_name_H-M "P 2/M"
_symmetry_group_IT_number 10
_symmetry_cell_setting 'monoclinic'
loop_
_space_group_symop_operation_xyz
x,y,z
-x,y,-z
-x,-y,-z
x,-y,z
loop_
_atom_site_type_symbol
_atom_site_label
_atom_site_fract_x
_atom_site_fract_y
_atom_site_fract_z
Si Si1 0.009502 0.664886 0.781418
Si Si2 0.678435 0.827899 0.284205
Si Si3 0.412098 0.820065 0.758479
Si Si4 0.309319 0.820572 0.377336
Si Si5 0.148234 0.828524 0.221862
Si Si6 0.150682 0.324090 0.874754
O O1 0.024802 0.500000 0.648271
O O2 0.080051 0.782180 0.551930
O O3 0.000000 0.631643 0.000000
O O4 0.929825 0.738794 0.956243
O O5 0.626157 0.751725 0.296232
O O6 0.668826 0.757933 0.501382
O O7 0.651675 0.000000 0.380119
O O8 0.766948 0.815022 0.951170
O O9 0.500000 0.761898 0.500000
O O10 0.407024 0.000000 0.769064
O O11 0.369932 0.762742 0.054924
O O12 0.224982 0.761912 0.574971
O O13 0.305084 0.000000 0.398216
O O14 0.135680 0.000000 0.195895
O O15 0.144969 0.707377 0.086289
O O16 0.160694 0.500000 0.806200
#
# Coordination Sequence:
#
# PCOD8063613 Si02
#       6
#     4   4   4   4   4   4
#     4  10  22  36  49  72 105 138 175 215 255 305
#     4   8  16  30  46  72 105 132 167 210 254 306
#     4   9  17  29  49  77 106 135 165 206 263 316
#     4   9  18  32  52  76 104 135 170 216 260 305
#     4  10  20  34  53  76 102 134 173 217 261 304
#     4  10  20  35  54  73  99 137 175 213 257 306
#
# _framework density 19.561543
#
# number of rings (size 3 to 8) (size 9 to 14) (size 15 to 20)
#    0.000    2.667    0.000    2.500    2.333    4.333 
#    0.000    3.333    0.000    0.500    0.000    4.667 
#    0.000    0.000    0.000    0.000    0.000    0.000 
#
# Total GULP energy -297358.849429 kJ/mol
# GULP energy per Si atom -12389.952060 kJ/mol
# Density = 1.951702 g / cm^3
# Si number density = 19.561543 Si / 1000 Ang^3
#
#
#
# Elastic Constant Matrix: (Units=GPa)
#
#
# Indices 1 2 3 4 5 6 
#
# 1 120.3319 17.1231 64.3862 0.0000 -14.4380 0.0000
# 2 17.1231 24.9181 25.8027 0.0000 -3.7931 0.0000
# 3 64.3862 25.8027 145.4078 0.0000 -4.6404 0.0000
# 4 0.0000 0.0000 0.0000 13.7706 0.0000 0.5308
# 5 -14.4380 -3.7931 -4.6404 0.0000 30.0457 0.0000
# 6 0.0000 0.0000 0.0000 0.5308 0.0000 14.3289
#
#
#
# Elastic Compliance Matrix: (Units=1/GPa)
#
#
# Indices 1 2 3 4 5 6 
#
# 1 0.011669 -0.002601 -0.004559 0.000000 0.004575 0.000000
# 2 -0.002601 0.050469 -0.007678 0.000000 0.003936 0.000000
# 3 -0.004559 -0.007678 0.010208 0.000000 -0.001584 0.000000
# 4 0.000000 0.000000 0.000000 0.072722 0.000000 -0.002694
# 5 0.004575 0.003936 -0.001584 0.000000 0.035733 0.000000
# 6 0.000000 0.000000 0.000000 -0.002694 0.000000 0.069889
#
#
# Mechanical properties :
#
#
# Convention : Reuss Voigt Hill
#
# Bulk Modulus (GPa) = 23.43657 56.14243 39.78950
# Shear Modulus (GPa) = 16.97270 23.85209 20.41240
#
# Velocity S-wave (km/s) = 2.94880 3.49569 3.23382
# Velocity P-wave (km/s) = 4.85807 6.71236 5.85904
#
# Compressibility (1/GPa) = 0.04266835
#
# Stress axis : x y z
#
# Youngs Moduli (GPa) = 85.69710 19.81418 97.96102
#
# Poissons Ratio (x) = 0.05153 0.44665
# Poissons Ratio (y) = 0.22289 0.75219
# Poissons Ratio (z) = 0.39073 0.15214
#
# Static dielectric constant tensor:
#      x y z
#    x 4.169260 0.000000 -0.516540 
#    y 0.000000 3.217600 0.000000 
#    z -0.516540 0.000000 4.180560 
# 
# 
# High freq. dielectric constant tensor:
#      x y z
#    x 1.763100 0.000000 -0.003370 
#    y 0.000000 1.717550 0.000000 
#    z -0.003370 0.000000 1.763300 
# 
# From -- ./inp_files/33508.got.cif
#   From: 2010.06.25/outbox.cif.g09.slc.cpg/sg10_17_cif.got.tgz:33508.got - 2010.06.27 22:07:45.
