data_PCOD8063366
_publ_section_title
;
Structure prediction by ZEFSAII (Michael W. Deem and Ramdas Pophale) SiO2 
 PCOD8063366
Probable space group: P 2/M
;
_chemical_formula_sum "Si O2"
_cell_formula_units_Z 32
_cell_length_a 30.899530
_cell_length_b 8.874714
_cell_length_c 13.170148
_cell_angle_alpha 90.000000
_cell_angle_beta 153.420574
_cell_angle_gamma 90.000000
_cell_volume 1615.956788
_symmetry_space_group_name_H-M "P 2/M"
_symmetry_group_IT_number 10
_symmetry_cell_setting 'monoclinic'
loop_
_space_group_symop_operation_xyz
x,y,z
-x,y,-z
-x,-y,-z
x,-y,z
loop_
_atom_site_type_symbol
_atom_site_label
_atom_site_fract_x
_atom_site_fract_y
_atom_site_fract_z
Si Si1 0.132011 0.678642 0.069180
Si Si2 0.396886 0.179524 0.325849
Si Si3 0.070078 0.820378 0.357579
Si Si4 0.656071 0.665543 0.125373
Si Si5 0.832109 0.326757 0.626398
Si Si6 0.746476 0.825418 0.140684
Si Si7 0.542776 0.670238 0.193087
Si Si8 0.685683 0.177100 0.633421
O O1 0.130060 0.500000 0.057092
O O2 0.154847 0.733574 0.231896
O O3 0.210784 0.741980 0.155382
O O4 0.030305 0.746715 0.820598
O O5 0.500000 0.243817 0.500000
O O6 0.374444 0.231758 0.393656
O O7 0.400163 0.000000 0.324813
O O8 0.306553 0.244627 0.069410
O O9 0.100736 0.767291 0.309422
O O10 0.147803 0.761560 0.605715
O O11 0.062377 0.000000 0.340801
O O12 0.685304 0.500000 0.143128
O O13 0.718949 0.693422 0.359677
O O14 0.675711 0.796453 0.086635
O O15 0.542981 0.668981 0.906485
O O16 0.865818 0.500000 0.690078
O O17 0.757896 0.000000 0.145942
O O18 0.583274 0.500000 0.260359
O O19 0.627126 0.776661 0.410143
O O20 0.500000 0.738690 0.000000
O O21 0.702863 0.000000 0.671784
#
# Coordination Sequence:
#
# PCOD8063366 Si02
#       8
#     4   4   4   4   4   4   4   4
#     4  11  22  37  55  74 106 150 186 219 267 327
#     4   9  18  35  59  83 107 137 173 216 271 332
#     4  10  20  33  53  82 111 139 178 228 272 312
#     4   9  17  30  50  76 104 134 173 218 258 307
#     4   9  18  33  53  77 106 145 185 215 257 319
#     4   9  18  34  55  78 105 136 171 216 272 326
#     4  10  20  35  53  74 107 149 182 209 254 319
#     4  11  23  37  56  82 108 137 180 231 274 315
#
# _framework density 19.802509000000001
#
# number of rings (size 3 to 8) (size 9 to 14) (size 15 to 20)
#    0.000    2.250    0.000    3.000    0.000    6.750 
#    0.000    4.375    0.000    7.125    0.000    0.000 
#    0.000    0.000    0.000    0.000    0.000    0.000 
#
# Total GULP energy -396668.464513 kJ/mol
# GULP energy per Si atom -12395.889516 kJ/mol
# Density = 1.975744 g / cm^3
# Si number density = 19.802509 Si / 1000 Ang^3
#
#
#
# Elastic Constant Matrix: (Units=GPa)
#
#
# Indices 1 2 3 4 5 6 
#
# 1 93.8410 28.9085 54.6575 0.0000 7.7255 0.0000
# 2 28.9085 47.5800 33.7102 0.0000 6.0225 0.0000
# 3 54.6575 33.7102 118.8261 0.0000 0.7574 0.0000
# 4 0.0000 0.0000 0.0000 20.7290 0.0000 7.0019
# 5 7.7255 6.0225 0.7574 0.0000 35.3750 0.0000
# 6 0.0000 0.0000 0.0000 7.0019 0.0000 25.2105
#
#
#
# Elastic Compliance Matrix: (Units=1/GPa)
#
#
# Indices 1 2 3 4 5 6 
#
# 1 0.015835 -0.005209 -0.005791 0.000000 -0.002447 0.000000
# 2 -0.005209 0.028694 -0.005721 0.000000 -0.003625 0.000000
# 3 -0.005791 -0.005721 0.012690 0.000000 0.001967 0.000000
# 4 0.000000 0.000000 0.000000 0.053236 0.000000 -0.014786
# 5 -0.002447 -0.003625 0.001967 0.000000 0.029378 0.000000
# 6 0.000000 0.000000 0.000000 -0.014786 0.000000 0.043773
#
#
# Mechanical properties :
#
#
# Convention : Reuss Voigt Hill
#
# Bulk Modulus (GPa) = 42.05573 54.97774 48.51673
# Shear Modulus (GPa) = 22.22487 25.79430 24.00958
#
# Velocity S-wave (km/s) = 3.35375 3.61304 3.48581
# Velocity P-wave (km/s) = 6.02333 6.72523 6.38393
#
# Compressibility (1/GPa) = 0.02377797
#
# Stress axis : x y z
#
# Youngs Moduli (GPa) = 63.15098 34.84998 78.80359
#
# Poissons Ratio (x) = 0.18152 0.45631
# Poissons Ratio (y) = 0.32893 0.45087
# Poissons Ratio (z) = 0.36568 0.19939
#
# Static dielectric constant tensor:
#      x y z
#    x 3.486320 0.000000 -0.000410 
#    y 0.000000 3.409110 0.000000 
#    z -0.000410 0.000000 3.928190 
# 
# 
# High freq. dielectric constant tensor:
#      x y z
#    x 1.753470 0.000000 0.008040 
#    y 0.000000 1.750200 0.000000 
#    z 0.008040 0.000000 1.784760 
# 
# From -- ./inp_files/58339.got.cif
#   From: 2010.06.25/outbox.cif.g09.slc.cpg/sg10_30_cif.got.tgz:58339.got - 2010.06.27 22:07:45.
