data_PCOD8063224
_publ_section_title
;
Structure prediction by ZEFSAII (Michael W. Deem and Ramdas Pophale) SiO2 
 PCOD8063224
Probable space group: P 2/M
;
_chemical_formula_sum "Si O2"
_cell_formula_units_Z 32
_cell_length_a 23.888371
_cell_length_b 9.730302
_cell_length_c 18.673052
_cell_angle_alpha 90.000000
_cell_angle_beta 23.546119
_cell_angle_gamma 90.000000
_cell_volume 1733.927480
_symmetry_space_group_name_H-M "P 2/M"
_symmetry_group_IT_number 10
_symmetry_cell_setting 'monoclinic'
loop_
_space_group_symop_operation_xyz
x,y,z
-x,y,-z
-x,-y,-z
x,-y,z
loop_
_atom_site_type_symbol
_atom_site_label
_atom_site_fract_x
_atom_site_fract_y
_atom_site_fract_z
Si Si1 0.370539 0.649644 0.822008
Si Si2 0.365523 0.654716 0.996910
Si Si3 0.842654 0.838982 0.002554
Si Si4 0.067415 0.838955 0.624207
Si Si5 0.318511 0.661889 0.374619
Si Si6 0.893126 0.158511 0.689089
Si Si7 0.688303 0.654931 0.452683
Si Si8 0.156905 0.849627 0.837430
O O1 0.311478 0.500000 0.867442
O O2 0.361970 0.662228 0.916396
O O3 0.530174 0.662783 0.610142
O O4 0.286867 0.771354 0.884840
O O5 0.331952 0.500000 0.062812
O O6 0.522865 0.696515 0.837705
O O7 0.247096 0.756708 0.165462
O O8 0.987410 0.803480 0.792101
O O9 0.816520 0.000000 0.030256
O O10 0.843136 0.783821 0.083108
O O11 0.209973 0.750260 0.454493
O O12 0.966857 0.794290 0.676508
O O13 0.106024 0.000000 0.573037
O O14 0.288699 0.500000 0.399608
O O15 0.300059 0.705417 0.479072
O O16 0.000000 0.185215 0.500000
O O17 0.848302 0.000000 0.747014
O O18 0.746114 0.500000 0.378719
O O19 0.775517 0.750677 0.298961
O O20 0.232145 0.000000 0.748658
O O21 0.000000 0.874020 0.000000
#
# Coordination Sequence:
#
# PCOD8063224 Si02
#       8
#     4   4   4   4   4   4   4   4
#     4   9  18  33  53  76 101 133 172 216 263 311
#     4   9  18  35  57  81 109 141 179 218 261 316
#     4  10  20  33  51  75 102 134 177 222 262 312
#     4  10  20  35  55  81 109 138 178 222 265 318
#     4   9  19  35  56  81 108 141 182 225 263 310
#     4  10  21  37  58  84 112 141 175 217 264 317
#     4   9  19  35  52  73 103 136 175 219 263 313
#     4  10  21  35  49  68  99 137 175 218 267 314
#
# _framework density 18.455214000000002
#
# number of rings (size 3 to 8) (size 9 to 14) (size 15 to 20)
#    0.000    2.500    1.250    2.250    0.000    5.000 
#    0.000    5.625    0.000    3.750    0.000    0.000 
#    0.000    0.000    0.000    0.000    0.000    0.000 
#
# Total GULP energy -396701.008830 kJ/mol
# GULP energy per Si atom -12396.906526 kJ/mol
# Density = 1.841321 g / cm^3
# Si number density = 18.455214 Si / 1000 Ang^3
#
#
#
# Elastic Constant Matrix: (Units=GPa)
#
#
# Indices 1 2 3 4 5 6 
#
# 1 35.0060 24.7007 26.4581 0.0000 -8.2282 0.0000
# 2 24.7007 65.8348 52.9942 0.0000 -3.2594 0.0000
# 3 26.4581 52.9942 89.0596 0.0000 -0.4213 0.0000
# 4 0.0000 0.0000 0.0000 45.9056 0.0000 -1.6764
# 5 -8.2282 -3.2594 -0.4213 0.0000 22.1201 0.0000
# 6 0.0000 0.0000 0.0000 -1.6764 0.0000 31.3250
#
#
#
# Elastic Compliance Matrix: (Units=1/GPa)
#
#
# Indices 1 2 3 4 5 6 
#
# 1 0.044729 -0.010366 -0.007049 0.000000 0.014977 0.000000
# 2 -0.010366 0.031908 -0.015904 0.000000 0.000543 0.000000
# 3 -0.007049 -0.015904 0.022765 0.000000 -0.004532 0.000000
# 4 0.000000 0.000000 0.000000 0.021827 0.000000 0.001168
# 5 0.014977 0.000543 -0.004532 0.000000 0.050772 0.000000
# 6 0.000000 0.000000 0.000000 0.001168 0.000000 0.031986
#
#
# Mechanical properties :
#
#
# Convention : Reuss Voigt Hill
#
# Bulk Modulus (GPa) = 30.52258 44.24514 37.38386
# Shear Modulus (GPa) = 17.75898 25.58663 21.67281
#
# Velocity S-wave (km/s) = 3.10542 3.72750 3.43059
# Velocity P-wave (km/s) = 5.42520 6.52320 5.99937
#
# Compressibility (1/GPa) = 0.03276263
#
# Stress axis : x y z
#
# Youngs Moduli (GPa) = 22.35674 31.33989 43.92721
#
# Poissons Ratio (x) = 0.32488 0.30964
# Poissons Ratio (y) = 0.23176 0.69864
# Poissons Ratio (z) = 0.15759 0.49844
#
# Static dielectric constant tensor:
#      x y z
#    x 3.344420 0.000000 -0.152580 
#    y 0.000000 3.452820 0.000000 
#    z -0.152580 0.000000 3.498900 
# 
# 
# High freq. dielectric constant tensor:
#      x y z
#    x 1.704840 0.000000 -0.004570 
#    y 0.000000 1.713660 0.000000 
#    z -0.004570 0.000000 1.713560 
# 
# From -- ./inp_files/86781.got.cif
#   From: 2010.06.25/outbox.cif.g09.slc.cpg/sg10_44_cif.got.tgz:86781.got - 2010.06.27 22:07:45.
