data_PCOD8063786
_publ_section_title
;
Structure prediction by ZEFSAII (Michael W. Deem and Ramdas Pophale) SiO2 
 PCOD8063786
Probable space group: P 2/M
;
_chemical_formula_sum "Si O2"
_cell_formula_units_Z 24
_cell_length_a 11.594200
_cell_length_b 15.662800
_cell_length_c 14.932214
_cell_angle_alpha 90.000000
_cell_angle_beta 151.442333
_cell_angle_gamma 90.000000
_cell_volume 1296.287656
_symmetry_space_group_name_H-M "P 2/M"
_symmetry_group_IT_number 10
_symmetry_cell_setting 'monoclinic'
loop_
_space_group_symop_operation_xyz
x,y,z
-x,y,-z
-x,-y,-z
x,-y,z
loop_
_atom_site_type_symbol
_atom_site_label
_atom_site_fract_x
_atom_site_fract_y
_atom_site_fract_z
Si Si1 0.667223 0.095636 0.428960
Si Si2 0.695695 0.407648 0.557851
Si Si3 0.616301 0.263326 0.726674
Si Si4 0.154387 0.851095 0.826463
Si Si5 0.652679 0.904918 0.218292
Si Si6 0.028593 0.707173 0.873350
O O1 0.471462 0.166470 0.321065
O O2 0.753963 0.114407 0.386081
O O3 0.899804 0.099240 0.651927
O O4 0.553793 0.000000 0.358621
O O5 0.500000 0.420984 0.500000
O O6 0.725505 0.500000 0.528216
O O7 0.607082 0.329461 0.434370
O O8 0.953233 0.384053 0.779461
O O9 0.785304 0.256791 0.754484
O O10 0.760169 0.299382 0.910303
O O11 0.243681 0.838218 0.784065
O O12 0.114123 0.761768 0.847329
O O13 0.359705 0.901915 0.021169
O O14 0.731723 0.000000 0.241489
#
# Coordination Sequence:
#
# PCOD8063786 Si02
#       6
#     4   4   4   4   4   4
#     4  11  21  34  52  76 106 143 182 219 259 306
#     4   9  18  34  58  82 105 133 170 217 267 318
#     4  10  20  36  52  78 113 141 171 214 260 317
#     4  11  19  33  53  74 101 141 174 221 265 297
#     4  10  21  35  50  75 103 133 186 233 260 298
#     4  10  20  34  55  76 110 140 173 211 264 320
#
# _framework density 18.514409000000001
#
# number of rings (size 3 to 8) (size 9 to 14) (size 15 to 20)
#    0.000    1.833    3.333    2.500    0.000    2.000 
#    0.000    8.333    0.000    0.000    0.000    4.667 
#    0.000    0.000    0.000    0.000    0.000    0.000 
#
# Total GULP energy -297367.779636 kJ/mol
# GULP energy per Si atom -12390.324151 kJ/mol
# Density = 1.847227 g / cm^3
# Si number density = 18.514409 Si / 1000 Ang^3
#
#
#
# Elastic Constant Matrix: (Units=GPa)
#
#
# Indices 1 2 3 4 5 6 
#
# 1 57.6725 38.1151 9.8741 0.0000 -5.6403 0.0000
# 2 38.1151 119.5719 35.3605 0.0000 -4.2296 0.0000
# 3 9.8741 35.3605 95.9698 0.0000 -2.7907 0.0000
# 4 0.0000 0.0000 0.0000 14.8692 0.0000 -12.5486
# 5 -5.6403 -4.2296 -2.7907 0.0000 18.0240 0.0000
# 6 0.0000 0.0000 0.0000 -12.5486 0.0000 -10.2363
#
#
#
# Elastic Compliance Matrix: (Units=1/GPa)
#
#
# Indices 1 2 3 4 5 6 
#
# 1 0.022494 -0.007116 0.000466 0.000000 0.005442 0.000000
# 2 -0.007116 0.011687 -0.003575 0.000000 -0.000038 0.000000
# 3 0.000466 -0.003575 0.011722 0.000000 0.001122 0.000000
# 4 0.000000 0.000000 0.000000 0.033055 0.000000 -0.040522
# 5 0.005442 -0.000038 0.001122 0.000000 0.057349 0.000000
# 6 0.000000 0.000000 0.000000 -0.040522 0.000000 -0.048016
#
#
# Mechanical properties :
#
#
# Convention : Reuss Voigt Hill
#
# Bulk Modulus (GPa) = 39.28776 48.87929 44.08353
# Shear Modulus (GPa) = 42.65232 17.18902 29.92067
#
# Velocity S-wave (km/s) = 4.80493 3.05029 4.02440
# Velocity P-wave (km/s) = 7.21452 6.23408 6.74215
#
# Compressibility (1/GPa) = 0.02545322
#
# Stress axis : x y z
#
# Youngs Moduli (GPa) = 44.45559 85.56287 85.30996
#
# Poissons Ratio (x) = 0.60883 -0.03972
# Poissons Ratio (y) = 0.31633 0.30500
# Poissons Ratio (z) = -0.02070 0.30591
#
# Static dielectric constant tensor:
#      x y z
#    x 3.174310 0.000000 -0.084620 
#    y 0.000000 3.436380 0.000000 
#    z -0.084620 0.000000 3.754690 
# 
# 
# High freq. dielectric constant tensor:
#      x y z
#    x 1.684010 0.000000 -0.008970 
#    y 0.000000 1.694120 0.000000 
#    z -0.008970 0.000000 1.742070 
# 
# From -- ./inp_files/51688.got.cif
#   From: 2010.06.25/outbox.cif.g09.slc.cpg/sg10_26_cif.got.tgz:51688.got - 2010.06.27 22:07:45.
