data_PCOD8063808
_publ_section_title
;
Structure prediction by ZEFSAII (Michael W. Deem and Ramdas Pophale) SiO2 
 PCOD8063808
Probable space group: P 2/M
;
_chemical_formula_sum "Si O2"
_cell_formula_units_Z 28
_cell_length_a 22.977219
_cell_length_b 8.852011
_cell_length_c 20.112122
_cell_angle_alpha 90.000000
_cell_angle_beta 20.097127
_cell_angle_gamma 90.000000
_cell_volume 1405.615023
_symmetry_space_group_name_H-M "P 2/M"
_symmetry_group_IT_number 10
_symmetry_cell_setting 'monoclinic'
loop_
_space_group_symop_operation_xyz
x,y,z
-x,y,-z
-x,-y,-z
x,-y,z
loop_
_atom_site_type_symbol
_atom_site_label
_atom_site_fract_x
_atom_site_fract_y
_atom_site_fract_z
Si Si1 0.126800 0.821116 0.030899
Si Si2 0.525976 0.834522 0.042171
Si Si3 0.535345 0.326541 0.385048
Si Si4 0.298523 0.174586 0.402861
Si Si5 0.090489 0.832979 0.338248
Si Si6 0.745231 0.827035 0.402751
Si Si7 0.043733 0.674644 0.251952
O O1 0.942906 0.769596 0.197197
O O2 0.147970 0.765938 0.084286
O O3 0.134699 0.000000 0.022344
O O4 0.288041 0.759001 0.818117
O O5 0.719237 0.853623 0.846955
O O6 0.440322 0.000000 0.124996
O O7 0.500000 0.743257 0.000000
O O8 0.442070 0.764055 0.198349
O O9 0.500000 0.305700 0.500000
O O10 0.560428 0.500000 0.337833
O O11 0.367361 0.266569 0.528000
O O12 0.352991 0.188424 0.421336
O O13 0.151641 0.292739 0.548421
O O14 0.242987 0.000000 0.449584
O O15 0.000000 0.760545 0.500000
O O16 0.086542 0.722668 0.280468
O O17 0.012441 0.000000 0.405651
O O18 0.747602 0.000000 0.376028
O O19 0.085781 0.500000 0.197651
#
# Coordination Sequence:
#
# PCOD8063808 Si02
#       7
#     4   4   4   4   4   4   4
#     4  10  22  42  67  92 121 160 210 259 303 358
#     4   9  17  30  52  80 108 142 189 243 291 340
#     4  11  25  42  62  93 132 168 201 246 308 377
#     4   9  18  35  57  82 110 147 196 245 295 350
#     4  10  20  34  55  81 110 150 197 245 296 351
#     4   9  20  38  62  91 120 159 209 262 307 355
#     4  11  22  36  56  84 116 151 190 240 305 365
#
# _framework density 19.920107000000002
#
# number of rings (size 3 to 8) (size 9 to 14) (size 15 to 20)
#    0.000    2.143    0.000    3.857    2.000    7.143 
#    0.000    3.571    0.000    1.714    0.000    0.000 
#    0.000    0.000    0.000    0.000    0.000    0.000 
#
# Total GULP energy -346907.239983 kJ/mol
# GULP energy per Si atom -12389.544285 kJ/mol
# Density = 1.987477 g / cm^3
# Si number density = 19.920107 Si / 1000 Ang^3
#
#
#
# Elastic Constant Matrix: (Units=GPa)
#
#
# Indices 1 2 3 4 5 6 
#
# 1 120.7567 52.2066 43.8919 0.0000 1.0836 0.0000
# 2 52.2066 87.7149 44.2959 0.0000 -1.9558 0.0000
# 3 43.8919 44.2959 113.4187 0.0000 13.2656 0.0000
# 4 0.0000 0.0000 0.0000 21.9608 0.0000 2.1511
# 5 1.0836 -1.9558 13.2656 0.0000 25.9725 0.0000
# 6 0.0000 0.0000 0.0000 2.1511 0.0000 24.4792
#
#
#
# Elastic Compliance Matrix: (Units=1/GPa)
#
#
# Indices 1 2 3 4 5 6 
#
# 1 0.011588 -0.005746 -0.002269 0.000000 0.000243 0.000000
# 2 -0.005746 0.017484 -0.005091 0.000000 0.004157 0.000000
# 3 -0.002269 -0.005091 0.012461 0.000000 -0.006653 0.000000
# 4 0.000000 0.000000 0.000000 0.045931 0.000000 -0.004036
# 5 0.000243 0.004157 -0.006653 0.000000 0.042203 0.000000
# 6 0.000000 0.000000 0.000000 -0.004036 0.000000 0.041206
#
#
# Mechanical properties :
#
#
# Convention : Reuss Voigt Hill
#
# Bulk Modulus (GPa) = 65.26511 66.96437 66.11474
# Shear Modulus (GPa) = 24.72906 26.58221 25.65563
#
# Velocity S-wave (km/s) = 3.52719 3.65696 3.59266
# Velocity P-wave (km/s) = 7.03012 7.17779 7.10434
#
# Compressibility (1/GPa) = 0.01532212
#
# Stress axis : x y z
#
# Youngs Moduli (GPa) = 86.29947 57.19533 80.24806
#
# Poissons Ratio (x) = 0.32862 0.18206
# Poissons Ratio (y) = 0.49585 0.40855
# Poissons Ratio (z) = 0.19579 0.29118
#
# Static dielectric constant tensor:
#      x y z
#    x 3.520520 0.000000 0.159100 
#    y 0.000000 4.252870 0.000000 
#    z 0.159100 0.000000 3.756860 
# 
# 
# High freq. dielectric constant tensor:
#      x y z
#    x 1.783590 0.000000 0.009210 
#    y 0.000000 1.748280 0.000000 
#    z 0.009210 0.000000 1.784630 
# 
# From -- ./inp_files/86465.got.cif
#   From: 2010.06.25/outbox.cif.g09.slc.cpg/sg10_44_cif.got.tgz:86465.got - 2010.06.27 22:07:45.
