data_PCOD8063908
_publ_section_title
;
Structure prediction by ZEFSAII (Michael W. Deem and Ramdas Pophale) SiO2 
 PCOD8063908
Probable space group: P 2/M
;
_chemical_formula_sum "Si O2"
_cell_formula_units_Z 22
_cell_length_a 10.926072
_cell_length_b 13.588367
_cell_length_c 14.349350
_cell_angle_alpha 90.000000
_cell_angle_beta 148.221508
_cell_angle_gamma 90.000000
_cell_volume 1121.953074
_symmetry_space_group_name_H-M "P 2/M"
_symmetry_group_IT_number 10
_symmetry_cell_setting 'monoclinic'
loop_
_space_group_symop_operation_xyz
x,y,z
-x,y,-z
-x,-y,-z
x,-y,z
loop_
_atom_site_type_symbol
_atom_site_label
_atom_site_fract_x
_atom_site_fract_y
_atom_site_fract_z
Si Si1 0.256778 0.886233 0.175232
Si Si2 0.862501 0.730047 0.591097
Si Si3 0.455883 0.242024 0.777761
Si Si4 0.857031 0.890303 0.313390
Si Si5 0.500000 0.202304 0.500000
Si Si6 0.709778 0.388927 0.063892
O O1 0.424123 0.836479 0.210260
O O2 0.344160 0.868266 0.335957
O O3 0.257614 0.000000 0.150954
O O4 0.000000 0.841214 0.000000
O O5 0.747384 0.706105 0.415353
O O6 0.668550 0.729191 0.546656
O O7 0.986474 0.837896 0.664995
O O8 0.052361 0.646896 0.734556
O O9 0.360246 0.181930 0.805743
O O10 0.641993 0.322764 0.931106
O O11 0.000000 0.902272 0.500000
O O12 0.781771 0.000000 0.229899
O O13 0.750008 0.500000 0.054975
O O14 0.500000 0.384028 0.000000
#
# Coordination Sequence:
#
# PCOD8063908 Si02
#       6
#     4   4   4   4   2   4
#     4  10  20  34  56  85 120 159 196 231 271 333
#     4  10  21  38  58  84 117 152 189 233 283 342
#     4  10  20  37  58  82 118 151 187 233 290 341
#     4   9  17  31  53  81 113 149 183 222 273 332
#     4  10  21  36  59  82 120 160 193 230 275 334
#     4  11  23  39  61  86 112 142 188 248 300 347
#
# _framework density 19.608663
#
# number of rings (size 3 to 8) (size 9 to 14) (size 15 to 20)
#    0.000    2.000    1.818    1.909    0.000    5.818 
#    0.000    5.000    0.000   10.364    0.000    0.000 
#    0.000    0.000    0.000    0.000    0.000    0.000 
#
# Total GULP energy -272793.098615 kJ/mol
# GULP energy per Si atom -12399.686301 kJ/mol
# Density = 1.956403 g / cm^3
# Si number density = 19.608663 Si / 1000 Ang^3
#
#
#
# Elastic Constant Matrix: (Units=GPa)
#
#
# Indices 1 2 3 4 5 6 
#
# 1 84.3871 15.4152 22.8349 0.0000 8.4758 0.0000
# 2 15.4152 96.2681 42.7520 0.0000 0.1189 0.0000
# 3 22.8349 42.7520 122.1693 0.0000 7.4039 0.0000
# 4 0.0000 0.0000 0.0000 14.5475 0.0000 -3.5306
# 5 8.4758 0.1189 7.4039 0.0000 26.0614 0.0000
# 6 0.0000 0.0000 0.0000 -3.5306 0.0000 1.0007
#
#
#
# Elastic Compliance Matrix: (Units=1/GPa)
#
#
# Indices 1 2 3 4 5 6 
#
# 1 0.012929 -0.001293 -0.001740 0.000000 -0.003705 0.000000
# 2 -0.001293 0.012465 -0.004215 0.000000 0.001561 0.000000
# 3 -0.001740 -0.004215 0.010124 0.000000 -0.002291 0.000000
# 4 0.000000 0.000000 0.000000 0.478187 0.000000 1.687073
# 5 -0.003705 0.001561 -0.002291 0.000000 0.040220 0.000000
# 6 0.000000 0.000000 0.000000 1.687073 0.000000 6.951362
#
#
# Mechanical properties :
#
#
# Convention : Reuss Voigt Hill
#
# Bulk Modulus (GPa) = 47.56697 51.64765 49.60731
# Shear Modulus (GPa) = 0.66429 23.11009 11.88719
#
# Velocity S-wave (km/s) = 0.58268 3.43675 2.46483
# Velocity P-wave (km/s) = 4.97629 6.49189 5.78395
#
# Compressibility (1/GPa) = 0.02102299
#
# Stress axis : x y z
#
# Youngs Moduli (GPa) = 77.34423 80.22748 98.77247
#
# Poissons Ratio (x) = 0.10375 0.17182
# Poissons Ratio (y) = 0.10002 0.41630
# Poissons Ratio (z) = 0.13454 0.33814
#
# Static dielectric constant tensor:
#      x y z
#    x 3.505680 0.000000 0.032940 
#    y 0.000000 3.493720 0.000000 
#    z 0.032940 0.000000 4.041890 
# 
# 
# High freq. dielectric constant tensor:
#      x y z
#    x 1.758840 0.000000 0.008490 
#    y 0.000000 1.740460 0.000000 
#    z 0.008490 0.000000 1.772410 
# 
# From -- ./inp_files/64972.got.cif
#   From: 2010.06.25/outbox.cif.g09.slc.cpg/sg10_33_cif.got.tgz:64972.got - 2010.06.27 22:07:45.
