data_PCOD8063726
_publ_section_title
;
Structure prediction by ZEFSAII (Michael W. Deem and Ramdas Pophale) SiO2 
 PCOD8063726
Probable space group: P 2/M
;
_chemical_formula_sum "Si O2"
_cell_formula_units_Z 32
_cell_length_a 12.390727
_cell_length_b 8.786016
_cell_length_c 33.066008
_cell_angle_alpha 90.000000
_cell_angle_beta 28.339660
_cell_angle_gamma 90.000000
_cell_volume 1708.785475
_symmetry_space_group_name_H-M "P 2/M"
_symmetry_group_IT_number 10
_symmetry_cell_setting 'monoclinic'
loop_
_space_group_symop_operation_xyz
x,y,z
-x,y,-z
-x,-y,-z
x,-y,z
loop_
_atom_site_type_symbol
_atom_site_label
_atom_site_fract_x
_atom_site_fract_y
_atom_site_fract_z
Si Si1 0.303726 0.824279 0.009367
Si Si2 0.522973 0.179062 0.307518
Si Si3 0.014868 0.320938 0.823908
Si Si4 0.199917 0.675112 0.963615
Si Si5 0.181603 0.670736 0.475557
Si Si6 0.829766 0.178915 0.644731
Si Si7 0.296527 0.323676 0.229859
Si Si8 0.812412 0.177886 0.816304
O O1 0.208934 0.723646 0.077099
O O2 0.260786 0.000000 0.034051
O O3 0.173895 0.781897 0.011036
O O4 0.568701 0.787438 0.916770
O O5 0.764750 0.261897 0.224801
O O6 0.397570 0.231013 0.390052
O O7 0.378050 0.229025 0.315938
O O8 0.562255 0.000000 0.295992
O O9 0.027383 0.500000 0.814296
O O10 0.002906 0.243536 0.783620
O O11 0.178073 0.500000 0.984710
O O12 0.435606 0.704068 0.863082
O O13 0.000000 0.724479 0.000000
O O14 0.262539 0.500000 0.459295
O O15 0.000000 0.670201 0.500000
O O16 0.066383 0.744955 0.552879
O O17 0.782549 0.229228 0.705622
O O18 0.863772 0.000000 0.631210
O O19 0.237738 0.500000 0.255525
O O20 0.164293 0.262719 0.234159
O O21 0.850692 0.000000 0.796516
#
# Coordination Sequence:
#
# PCOD8063726 Si02
#       8
#     4   4   4   4   4   4   4   4
#     4  10  21  36  54  77 103 139 183 226 271 322
#     4  10  21  36  54  81 114 145 178 219 270 323
#     4  12  24  36  55  80 108 141 181 229 275 321
#     4   9  19  34  50  73 106 144 178 219 270 319
#     4   9  17  32  54  80 110 143 177 216 266 320
#     4  10  20  34  55  82 112 145 181 219 263 320
#     4  10  20  34  54  79 108 141 182 224 266 318
#     4  10  21  39  58  76 104 141 184 229 274 321
#
# _framework density 18.726752000000001
#
# number of rings (size 3 to 8) (size 9 to 14) (size 15 to 20)
#    0.000    2.000    0.000    3.750    1.750    6.750 
#    0.000    0.000    0.000    0.750    0.000    5.250 
#    0.000    0.000    0.000    0.000    0.000    0.000 
#
# Total GULP energy -396923.431607 kJ/mol
# GULP energy per Si atom -12403.857238 kJ/mol
# Density = 1.868413 g / cm^3
# Si number density = 18.726752 Si / 1000 Ang^3
#
#
#
# Elastic Constant Matrix: (Units=GPa)
#
#
# Indices 1 2 3 4 5 6 
#
# 1 66.3184 16.9672 22.8279 0.0000 11.4976 0.0000
# 2 16.9672 64.2177 16.7329 0.0000 1.5761 0.0000
# 3 22.8279 16.7329 57.1308 0.0000 15.4358 0.0000
# 4 0.0000 0.0000 0.0000 32.5893 0.0000 5.3828
# 5 11.4976 1.5761 15.4358 0.0000 18.7957 0.0000
# 6 0.0000 0.0000 0.0000 5.3828 0.0000 31.1066
#
#
#
# Elastic Compliance Matrix: (Units=1/GPa)
#
#
# Indices 1 2 3 4 5 6 
#
# 1 0.018847 -0.003644 -0.004409 0.000000 -0.007602 0.000000
# 2 -0.003644 0.017733 -0.005061 0.000000 0.004899 0.000000
# 3 -0.004409 -0.005061 0.025580 0.000000 -0.017886 0.000000
# 4 0.000000 0.000000 0.000000 0.031588 0.000000 -0.005466
# 5 -0.007602 0.004899 -0.017886 0.000000 0.072132 0.000000
# 6 0.000000 0.000000 0.000000 -0.005466 0.000000 0.033093
#
#
# Mechanical properties :
#
#
# Convention : Reuss Voigt Hill
#
# Bulk Modulus (GPa) = 27.83109 33.41365 30.62237
# Shear Modulus (GPa) = 21.08100 25.24092 23.16096
#
# Velocity S-wave (km/s) = 3.35881 3.67530 3.52061
# Velocity P-wave (km/s) = 5.47139 5.99098 5.73707
#
# Compressibility (1/GPa) = 0.03593104
#
# Stress axis : x y z
#
# Youngs Moduli (GPa) = 53.05924 56.39069 39.09230
#
# Poissons Ratio (x) = 0.20549 0.17237
# Poissons Ratio (y) = 0.19335 0.19786
# Poissons Ratio (z) = 0.23396 0.28541
#
# Static dielectric constant tensor:
#      x y z
#    x 3.381110 0.000000 0.040230 
#    y 0.000000 3.509630 0.000000 
#    z 0.040230 0.000000 3.366380 
# 
# 
# High freq. dielectric constant tensor:
#      x y z
#    x 1.714500 0.000000 0.009080 
#    y 0.000000 1.740450 0.000000 
#    z 0.009080 0.000000 1.714510 
# 
# From -- ./inp_files/58342.got.cif
#   From: 2010.06.25/outbox.cif.g09.slc.cpg/sg10_30_cif.got.tgz:58342.got - 2010.06.27 22:07:45.
