data_PCOD8063698
_publ_section_title
;
Structure prediction by ZEFSAII (Michael W. Deem and Ramdas Pophale) SiO2 
 PCOD8063698
Probable space group: P 2/M
;
_chemical_formula_sum "Si O2"
_cell_formula_units_Z 28
_cell_length_a 9.409078
_cell_length_b 16.083909
_cell_length_c 11.323805
_cell_angle_alpha 90.000000
_cell_angle_beta 58.406986
_cell_angle_gamma 90.000000
_cell_volume 1459.701357
_symmetry_space_group_name_H-M "P 2/M"
_symmetry_group_IT_number 10
_symmetry_cell_setting 'monoclinic'
loop_
_space_group_symop_operation_xyz
x,y,z
-x,y,-z
-x,-y,-z
x,-y,z
loop_
_atom_site_type_symbol
_atom_site_label
_atom_site_fract_x
_atom_site_fract_y
_atom_site_fract_z
Si Si1 0.279845 0.325921 0.882200
Si Si2 0.902593 0.171369 0.150047
Si Si3 0.125060 0.669464 0.543239
Si Si4 0.663710 0.500000 0.255710
Si Si5 0.139156 0.268695 0.185908
Si Si6 0.557725 0.904497 0.344963
Si Si7 0.290263 0.500000 0.484359
Si Si8 0.619240 0.239669 0.699733
O O1 0.166527 0.262636 0.856852
O O2 0.256183 0.419605 0.843621
O O3 0.473193 0.305323 0.782917
O O4 0.233946 0.317932 0.040635
O O5 0.755702 0.111423 0.255558
O O6 0.046509 0.183824 0.185796
O O7 0.000000 0.127813 0.000000
O O8 0.186850 0.578289 0.486001
O O9 0.282421 0.732533 0.462829
O O10 0.000000 0.702362 0.500000
O O11 0.018364 0.672790 0.709285
O O12 0.463342 0.500000 0.337608
O O13 0.701626 0.500000 0.378014
O O14 0.266757 0.242023 0.232981
O O15 0.500000 0.878993 0.500000
O O16 0.458154 0.851455 0.289821
O O17 0.519486 0.000000 0.333042
#
# Coordination Sequence:
#
# PCOD8063698 Si02
#       8
#     4   4   4   2   4   4   2   4
#     4  10  20  37  55  81 111 149 193 235 281 327
#     4   9  19  36  58  80 111 147 185 228 277 335
#     4  10  20  34  54  76 107 147 188 234 282 330
#     4  11  22  33  55  78 110 148 192 239 275 323
#     4  10  20  35  57  82 109 147 189 235 280 328
#     4  10  21  37  60  88 115 143 180 226 274 333
#     4  11  21  35  50  79 112 144 195 237 276 324
#     4  10  20  37  59  80 111 149 190 224 280 339
#
# _framework density 19.182005
#
# number of rings (size 3 to 8) (size 9 to 14) (size 15 to 20)
#    0.000    2.000    1.429    2.357    0.000    2.000 
#    0.000    6.786    0.000   16.714    0.000    0.000 
#    0.000    0.000    0.000    0.000    0.000    0.000 
#
# Total GULP energy -346970.167442 kJ/mol
# GULP energy per Si atom -12391.791694 kJ/mol
# Density = 1.913835 g / cm^3
# Si number density = 19.182005 Si / 1000 Ang^3
#
#
#
# Elastic Constant Matrix: (Units=GPa)
#
#
# Indices 1 2 3 4 5 6 
#
# 1 75.0523 17.5837 27.1539 0.0000 -8.4176 0.0000
# 2 17.5837 75.5095 30.9604 0.0000 -1.2559 0.0000
# 3 27.1539 30.9604 118.0239 0.0000 -18.4730 0.0000
# 4 0.0000 0.0000 0.0000 18.4071 0.0000 -2.0037
# 5 -8.4176 -1.2559 -18.4730 0.0000 31.0203 0.0000
# 6 0.0000 0.0000 0.0000 -2.0037 0.0000 19.1679
#
#
#
# Elastic Compliance Matrix: (Units=1/GPa)
#
#
# Indices 1 2 3 4 5 6 
#
# 1 0.015064 -0.002474 -0.002418 0.000000 0.002548 0.000000
# 2 -0.002474 0.015347 -0.003821 0.000000 -0.002325 0.000000
# 3 -0.002418 -0.003821 0.010923 0.000000 0.005694 0.000000
# 4 0.000000 0.000000 0.000000 0.054952 0.000000 0.005744
# 5 0.002548 -0.002325 0.005694 0.000000 0.036225 0.000000
# 6 0.000000 0.000000 0.000000 0.005744 0.000000 0.052771
#
#
# Mechanical properties :
#
#
# Convention : Reuss Voigt Hill
#
# Bulk Modulus (GPa) = 41.82617 46.66462 44.24540
# Shear Modulus (GPa) = 23.73296 26.57825 25.15561
#
# Velocity S-wave (km/s) = 3.52127 3.72638 3.62528
# Velocity P-wave (km/s) = 6.19554 6.54940 6.37493
#
# Compressibility (1/GPa) = 0.02390848
#
# Stress axis : x y z
#
# Youngs Moduli (GPa) = 66.38213 65.15759 91.55316
#
# Poissons Ratio (x) = 0.16121 0.22138
# Poissons Ratio (y) = 0.16424 0.34980
# Poissons Ratio (z) = 0.16052 0.24895
#
# Static dielectric constant tensor:
#      x y z
#    x 3.528460 0.000000 -0.218440 
#    y 0.000000 3.185390 0.000000 
#    z -0.218440 0.000000 3.969520 
# 
# 
# High freq. dielectric constant tensor:
#      x y z
#    x 1.751290 0.000000 -0.016420 
#    y 0.000000 1.717130 0.000000 
#    z -0.016420 0.000000 1.764560 
# 
# From -- ./inp_files/42915.got.cif
#   From: 2010.06.25/outbox.cif.g09.slc.cpg/sg10_22_cif.got.tgz:42915.got - 2010.06.27 22:07:45.
