data_PCOD8063720
_publ_section_title
;
Structure prediction by ZEFSAII (Michael W. Deem and Ramdas Pophale) SiO2 
 PCOD8063720
Probable space group: P 2/M
;
_chemical_formula_sum "Si O2"
_cell_formula_units_Z 28
_cell_length_a 29.758161
_cell_length_b 8.988440
_cell_length_c 9.501156
_cell_angle_alpha 90.000000
_cell_angle_beta 142.958297
_cell_angle_gamma 90.000000
_cell_volume 1530.907858
_symmetry_space_group_name_H-M "P 2/M"
_symmetry_group_IT_number 10
_symmetry_cell_setting 'monoclinic'
loop_
_space_group_symop_operation_xyz
x,y,z
-x,y,-z
-x,-y,-z
x,-y,z
loop_
_atom_site_type_symbol
_atom_site_label
_atom_site_fract_x
_atom_site_fract_y
_atom_site_fract_z
Si Si1 0.351275 0.174298 0.791540
Si Si2 0.351276 0.825703 0.464835
Si Si3 0.777469 0.672487 0.357920
Si Si4 0.071116 0.171185 0.590687
Si Si5 0.500000 0.332287 0.832736
Si Si6 0.777469 0.672487 0.029426
Si Si7 0.071116 0.171185 0.264895
O O1 0.339127 0.213699 0.597816
O O2 0.281838 0.234762 0.703518
O O3 0.359031 0.000000 0.835223
O O4 0.426360 0.249725 0.039294
O O5 0.426360 0.750275 0.592505
O O6 0.281839 0.765237 0.205674
O O7 0.359031 0.000000 0.459932
O O8 0.770302 0.500000 0.378827
O O9 0.859151 0.728564 0.606320
O O10 0.763355 0.702142 0.158388
O O11 0.051667 0.192680 0.379169
O O12 0.000000 0.227127 0.500000
O O13 0.090230 0.000000 0.673550
O O14 0.140850 0.271435 0.810567
O O15 0.500000 0.500000 0.774188
O O16 0.500000 0.328562 0.000000
O O17 0.770302 0.500000 0.972686
O O18 0.090231 0.000000 0.277604
O O19 0.000000 0.227126 0.000000
#
# Coordination Sequence:
#
# PCOD8063720 Si02
#       7
#     4   4   4   4   4   4   4
#     4  10  20  34  54  79 105 135 173 214 255 303
#     4  10  20  34  54  79 105 135 173 214 255 303
#     4  10  21  36  53  75 105 139 173 211 257 306
#     4   9  18  33  52  73  99 132 169 209 253 302
#     4   9  17  31  52  77 106 137 168 208 258 305
#     4  10  21  36  53  75 105 139 173 211 257 306
#     4   9  18  33  52  73  99 132 169 209 253 302
#
# _framework density 18.289801000000001
#
# number of rings (size 3 to 8) (size 9 to 14) (size 15 to 20)
#    0.000    2.429    0.000    2.143    0.000    6.857 
#    0.000    3.571    0.000    4.286    0.000    0.000 
#    0.000    0.000    0.000    0.000    0.000    0.000 
#
# Total GULP energy -347291.544564 kJ/mol
# GULP energy per Si atom -12403.269449 kJ/mol
# Density = 1.824817 g / cm^3
# Si number density = 18.289801 Si / 1000 Ang^3
#
#
#
# Elastic Constant Matrix: (Units=GPa)
#
#
# Indices 1 2 3 4 5 6 
#
# 1 92.1787 44.6204 46.9525 0.0000 26.5178 0.0000
# 2 44.6204 91.8866 50.6217 0.0000 10.4226 0.0000
# 3 46.9525 50.6217 119.2388 0.0000 20.4835 0.0000
# 4 0.0000 0.0000 0.0000 23.9437 0.0000 -0.2567
# 5 26.5178 10.4226 20.4835 0.0000 19.7633 0.0000
# 6 0.0000 0.0000 0.0000 -0.2567 0.0000 24.0910
#
#
#
# Elastic Compliance Matrix: (Units=1/GPa)
#
#
# Indices 1 2 3 4 5 6 
#
# 1 0.022039 -0.007133 -0.001480 0.000000 -0.024275 0.000000
# 2 -0.007133 0.016551 -0.005308 0.000000 0.006344 0.000000
# 3 -0.001480 -0.005308 0.012653 0.000000 -0.008330 0.000000
# 4 0.000000 0.000000 0.000000 0.041769 0.000000 0.000445
# 5 -0.024275 0.006344 -0.008330 0.000000 0.088459 0.000000
# 6 0.000000 0.000000 0.000000 0.000445 0.000000 0.041514
#
#
# Mechanical properties :
#
#
# Convention : Reuss Voigt Hill
#
# Bulk Modulus (GPa) = 42.73060 65.29926 54.01493
# Shear Modulus (GPa) = 19.33279 24.30023 21.81651
#
# Velocity S-wave (km/s) = 3.25472 3.64898 3.45747
# Velocity P-wave (km/s) = 6.12683 7.31666 6.74802
#
# Compressibility (1/GPa) = 0.02340243
#
# Stress axis : x y z
#
# Youngs Moduli (GPa) = 45.37489 60.41759 79.02981
#
# Poissons Ratio (x) = 0.43098 0.11693
# Poissons Ratio (y) = 0.32368 0.41946
# Poissons Ratio (z) = 0.06713 0.32067
#
# Static dielectric constant tensor:
#      x y z
#    x 3.303400 0.000000 0.154240 
#    y 0.000000 3.493080 0.000000 
#    z 0.154240 0.000000 3.392190 
# 
# 
# High freq. dielectric constant tensor:
#      x y z
#    x 1.698920 0.000000 0.017060 
#    y 0.000000 1.719440 0.000000 
#    z 0.017060 0.000000 1.708740 
# 
# From -- ./inp_files/36772.got.cif
#   From: 2010.06.25/outbox.cif.g09.slc.cpg/sg10_19_cif.got.tgz:36772.got - 2010.06.27 22:07:45.
