data_PCOD8063317
_publ_section_title
;
Structure prediction by ZEFSAII (Michael W. Deem and Ramdas Pophale) SiO2 
 PCOD8063317
Probable space group: P 2/M
;
_chemical_formula_sum "Si O2"
_cell_formula_units_Z 28
_cell_length_a 14.799720
_cell_length_b 21.536123
_cell_length_c 8.757488
_cell_angle_alpha 90.000000
_cell_angle_beta 30.989300
_cell_angle_gamma 90.000000
_cell_volume 1437.159267
_symmetry_space_group_name_H-M "P 2/M"
_symmetry_group_IT_number 10
_symmetry_cell_setting 'monoclinic'
loop_
_space_group_symop_operation_xyz
x,y,z
-x,y,-z
-x,-y,-z
x,-y,z
loop_
_atom_site_type_symbol
_atom_site_label
_atom_site_fract_x
_atom_site_fract_y
_atom_site_fract_z
Si Si1 0.520547 0.069709 0.805443
Si Si2 0.191138 0.429033 0.295505
Si Si3 0.176969 0.111450 0.173335
Si Si4 0.826582 0.072307 0.154770
Si Si5 0.309852 0.666730 0.340623
Si Si6 0.455464 0.655536 0.738809
Si Si7 0.803519 0.749509 0.748584
O O1 0.667125 0.101024 0.485630
O O2 0.588331 0.000000 0.738414
O O3 0.500000 0.103849 0.000000
O O4 0.336982 0.067043 0.983542
O O5 0.235982 0.500000 0.267839
O O6 0.187166 0.389907 0.460202
O O7 0.000000 0.422160 0.500000
O O8 0.343599 0.403068 0.962652
O O9 0.214412 0.177683 0.196544
O O10 0.000000 0.082529 0.500000
O O11 0.158871 0.114397 0.017147
O O12 0.796180 0.000000 0.154248
O O13 0.000000 0.081264 0.000000
O O14 0.350043 0.666722 0.463760
O O15 0.238381 0.731356 0.368659
O O16 0.500000 0.651944 0.000000
O O17 0.500000 0.644336 0.500000
O O18 0.334852 0.716268 0.938987
O O19 0.000000 0.726407 0.500000
#
# Coordination Sequence:
#
# PCOD8063317 Si02
#       7
#     4   4   4   4   4   4   4
#     4  10  21  36  55  79 106 140 178 217 264 320
#     4   9  17  32  54  76 103 144 183 213 257 320
#     4  11  22  35  55  81 106 138 180 226 274 324
#     4  10  21  38  57  79 111 145 178 220 272 330
#     4   8  16  32  54  73  99 137 176 212 254 313
#     4  10  20  33  52  80 107 134 174 223 272 310
#     4   9  19  37  54  72 100 137 176 213 257 317
#
# _framework density 19.482880000000002
#
# number of rings (size 3 to 8) (size 9 to 14) (size 15 to 20)
#    0.000    2.714    0.000    3.429    0.000    9.143 
#    0.000    5.714    0.000    1.714    0.000    0.000 
#    0.000    0.000    0.000    0.000    0.000    0.000 
#
# Total GULP energy -346921.518181 kJ/mol
# GULP energy per Si atom -12390.054221 kJ/mol
# Density = 1.943854 g / cm^3
# Si number density = 19.482880 Si / 1000 Ang^3
#
#
#
# Elastic Constant Matrix: (Units=GPa)
#
#
# Indices 1 2 3 4 5 6 
#
# 1 159.4649 35.6197 61.2957 0.0000 7.4271 0.0000
# 2 35.6197 63.8291 13.6683 0.0000 0.7773 0.0000
# 3 61.2957 13.6683 116.4113 0.0000 3.8734 0.0000
# 4 0.0000 0.0000 0.0000 13.9664 0.0000 -9.0722
# 5 7.4271 0.7773 3.8734 0.0000 38.4848 0.0000
# 6 0.0000 0.0000 0.0000 -9.0722 0.0000 13.9663
#
#
#
# Elastic Compliance Matrix: (Units=1/GPa)
#
#
# Indices 1 2 3 4 5 6 
#
# 1 0.008811 -0.004019 -0.004128 0.000000 -0.001204 0.000000
# 2 -0.004019 0.017904 0.000000 0.000000 0.000414 0.000000
# 3 -0.004128 0.000000 0.010773 0.000000 -0.000288 0.000000
# 4 0.000000 0.000000 0.000000 0.123865 0.000000 0.080460
# 5 -0.001204 0.000414 -0.000288 0.000000 0.026237 0.000000
# 6 0.000000 0.000000 0.000000 0.080460 0.000000 0.123866
#
#
# Mechanical properties :
#
#
# Convention : Reuss Voigt Hill
#
# Bulk Modulus (GPa) = 47.17790 62.31918 54.74854
# Shear Modulus (GPa) = 14.93359 28.55826 21.74593
#
# Velocity S-wave (km/s) = 2.77157 3.83275 3.34452
# Velocity P-wave (km/s) = 5.87450 7.18628 6.56325
#
# Compressibility (1/GPa) = 0.02119636
#
# Stress axis : x y z
#
# Youngs Moduli (GPa) = 113.49110 55.85231 92.82296
#
# Poissons Ratio (x) = 0.22445 0.38314
# Poissons Ratio (y) = 0.45607 0.00000
# Poissons Ratio (z) = 0.46845 0.00000
#
# Static dielectric constant tensor:
#      x y z
#    x 4.583030 0.000000 -0.156550 
#    y 0.000000 3.338120 0.000000 
#    z -0.156550 0.000000 3.496580 
# 
# 
# High freq. dielectric constant tensor:
#      x y z
#    x 1.773550 0.000000 -0.018390 
#    y 0.000000 1.736660 0.000000 
#    z -0.018390 0.000000 1.744180 
# 
# From -- ./inp_files/30415.got.cif
#   From: 2010.06.25/outbox.cif.g09.slc.cpg/sg10_16_cif.got.tgz:30415.got - 2010.06.27 22:07:45.
