data_PCOD8063995
_publ_section_title
;
Structure prediction by ZEFSAII (Michael W. Deem and Ramdas Pophale) SiO2 
 PCOD8063995
Probable space group: P 2/M
;
_chemical_formula_sum "Si O2"
_cell_formula_units_Z 24
_cell_length_a 14.381075
_cell_length_b 7.898778
_cell_length_c 14.446957
_cell_angle_alpha 90.000000
_cell_angle_beta 42.092149
_cell_angle_gamma 90.000000
_cell_volume 1100.051504
_symmetry_space_group_name_H-M "P 2/M"
_symmetry_group_IT_number 10
_symmetry_cell_setting 'monoclinic'
loop_
_space_group_symop_operation_xyz
x,y,z
-x,y,-z
-x,-y,-z
x,-y,z
loop_
_atom_site_type_symbol
_atom_site_label
_atom_site_fract_x
_atom_site_fract_y
_atom_site_fract_z
Si Si1 0.850917 0.806076 0.094686
Si Si2 0.854622 0.000000 0.555061
Si Si3 0.146537 0.698204 0.586928
Si Si4 0.343174 0.798453 0.602401
Si Si5 0.568936 0.681000 0.048284
Si Si6 0.137835 0.692441 0.111779
Si Si7 0.566467 0.000000 0.847587
O O1 0.737605 0.727170 0.247590
O O2 0.862847 0.000000 0.115093
O O3 0.810200 0.790001 0.017836
O O4 0.000000 0.716049 0.000000
O O5 0.834448 0.826457 0.512475
O O6 0.000000 0.000000 0.500000
O O7 0.732678 0.000000 0.722346
O O8 0.134566 0.500000 0.563343
O O9 0.275212 0.715685 0.561634
O O10 0.004176 0.763895 0.740566
O O11 0.500000 0.735002 0.500000
O O12 0.337328 0.000000 0.595649
O O13 0.548291 0.500000 0.116037
O O14 0.493670 0.832681 0.160061
O O15 0.500000 0.667914 0.000000
O O16 0.733730 0.714753 0.912092
O O17 0.110693 0.500000 0.103908
O O18 0.500000 0.000000 0.000000
#
# Coordination Sequence:
#
# PCOD8063995 Si02
#       7
#     4   2   4   4   4   4   2
#     4  10  20  34  60  95 127 172 221 271 328 392
#     4  12  30  48  73 104 140 183 228 290 345 413
#     4  11  25  45  72 102 138 184 234 284 346 417
#     4  10  21  41  66  96 142 185 228 284 347 409
#     4   9  20  39  64  95 133 168 217 280 333 390
#     4  10  22  38  64 100 135 179 228 281 338 401
#     4  10  24  44  68  99 123 170 223 263 337 409
#
# _framework density 21.817159
#
# number of rings (size 3 to 8) (size 9 to 14) (size 15 to 20)
#    0.000    1.833    2.500    0.000    7.000    3.667 
#    0.000    1.667    0.000    0.000    0.000    0.000 
#    0.000    0.000    0.000    0.000    0.000    0.000 
#
# Total GULP energy -297399.326282 kJ/mol
# GULP energy per Si atom -12391.638595 kJ/mol
# Density = 2.176750 g / cm^3
# Si number density = 21.817159 Si / 1000 Ang^3
#
#
#
# Elastic Constant Matrix: (Units=GPa)
#
#
# Indices 1 2 3 4 5 6 
#
# 1 141.2857 28.0815 62.5555 0.0000 -27.2920 0.0000
# 2 28.0815 114.3904 42.1121 0.0000 -10.6871 0.0000
# 3 62.5555 42.1121 151.1904 0.0000 -22.5933 0.0000
# 4 0.0000 0.0000 0.0000 14.9608 0.0000 -8.7852
# 5 -27.2920 -10.6871 -22.5933 0.0000 43.2251 0.0000
# 6 0.0000 0.0000 0.0000 -8.7852 0.0000 19.0574
#
#
#
# Elastic Compliance Matrix: (Units=1/GPa)
#
#
# Indices 1 2 3 4 5 6 
#
# 1 0.009382 -0.000797 -0.003042 0.000000 0.004137 0.000000
# 2 -0.000797 0.009855 -0.002306 0.000000 0.000728 0.000000
# 3 -0.003042 -0.002306 0.008833 0.000000 0.002126 0.000000
# 4 0.000000 0.000000 0.000000 0.091652 0.000000 0.042250
# 5 0.004137 0.000728 0.002126 0.000000 0.027038 0.000000
# 6 0.000000 0.000000 0.000000 0.042250 0.000000 0.071950
#
#
# Mechanical properties :
#
#
# Convention : Reuss Voigt Hill
#
# Bulk Modulus (GPa) = 63.37309 74.70720 69.04015
# Shear Modulus (GPa) = 21.16321 33.72315 27.44318
#
# Velocity S-wave (km/s) = 3.11790 3.93583 3.55050
# Velocity P-wave (km/s) = 6.48631 7.41425 6.96575
#
# Compressibility (1/GPa) = 0.01577957
#
# Stress axis : x y z
#
# Youngs Moduli (GPa) = 106.58573 101.47429 113.21407
#
# Poissons Ratio (x) = 0.08087 0.34436
# Poissons Ratio (y) = 0.08494 0.26112
# Poissons Ratio (z) = 0.32420 0.23404
#
# Static dielectric constant tensor:
#      x y z
#    x 3.905930 0.000000 -0.387120 
#    y 0.000000 6.236820 0.000000 
#    z -0.387120 0.000000 3.991650 
# 
# 
# High freq. dielectric constant tensor:
#      x y z
#    x 1.853480 0.000000 -0.025420 
#    y 0.000000 1.864250 0.000000 
#    z -0.025420 0.000000 1.840910 
# 
# From -- ./inp_files/66368.got.cif
#   From: 2010.06.25/outbox.cif.g09.slc.cpg/sg10_34_cif.got.tgz:66368.got - 2010.06.27 22:07:45.
