data_PCOD8063486
_publ_section_title
;
Structure prediction by ZEFSAII (Michael W. Deem and Ramdas Pophale) SiO2 
 PCOD8063486
Probable space group: P 2/M
;
_chemical_formula_sum "Si O2"
_cell_formula_units_Z 24
_cell_length_a 23.328061
_cell_length_b 9.036513
_cell_length_c 10.274767
_cell_angle_alpha 90.000000
_cell_angle_beta 140.777597
_cell_angle_gamma 90.000000
_cell_volume 1369.609762
_symmetry_space_group_name_H-M "P 2/M"
_symmetry_group_IT_number 10
_symmetry_cell_setting 'monoclinic'
loop_
_space_group_symop_operation_xyz
x,y,z
-x,y,-z
-x,-y,-z
x,-y,z
loop_
_atom_site_type_symbol
_atom_site_label
_atom_site_fract_x
_atom_site_fract_y
_atom_site_fract_z
Si Si1 0.569515 0.825528 0.726724
Si Si2 0.229775 0.173749 0.637669
Si Si3 0.040104 0.826538 0.208349
Si Si4 0.571587 0.823332 0.022859
Si Si5 0.774655 0.173702 0.079405
Si Si6 0.943113 0.674832 0.274998
O O1 0.500000 0.753804 0.500000
O O2 0.550096 0.765086 0.838739
O O3 0.555807 0.000000 0.707019
O O4 0.671293 0.787723 0.859358
O O5 0.147332 0.215564 0.396681
O O6 0.207251 0.233126 0.742444
O O7 0.241546 0.000000 0.673463
O O8 0.327203 0.233871 0.758640
O O9 0.989270 0.734168 0.227051
O O10 0.026400 0.000000 0.212556
O O11 0.000000 0.779269 0.000000
O O12 0.566844 0.000000 0.017654
O O13 0.500000 0.755590 0.000000
O O14 0.841551 0.260934 0.101645
O O15 0.794402 0.000000 0.100085
O O16 0.938298 0.500000 0.259563
O O17 0.000000 0.729802 0.500000
#
# Coordination Sequence:
#
# PCOD8063486 Si02
#       6
#     4   4   4   4   4   4
#     4   8  14  25  41  66  96 122 151 191 241 290
#     4   8  14  26  44  65  93 126 157 190 234 289
#     4  10  20  34  51  73 101 130 162 201 248 295
#     4   8  13  22  37  58  88 124 151 179 228 283
#     4   9  16  29  51  72  96 130 161 198 247 289
#     4  11  22  34  51  74  98 128 171 211 245 291
#
# _framework density 17.523240999999999
#
# number of rings (size 3 to 8) (size 9 to 14) (size 15 to 20)
#    0.000    3.000    1.667    2.500    0.000    1.000 
#    3.000    0.000    0.000    0.500    0.000    0.000 
#    0.000    4.000    0.000    0.000    0.000    0.000 
#
# Total GULP energy -297435.987604 kJ/mol
# GULP energy per Si atom -12393.166150 kJ/mol
# Density = 1.748336 g / cm^3
# Si number density = 17.523241 Si / 1000 Ang^3
#
#
#
# Elastic Constant Matrix: (Units=GPa)
#
#
# Indices 1 2 3 4 5 6 
#
# 1 146.3492 32.0892 71.3001 0.0000 13.2720 0.0000
# 2 32.0892 28.5719 26.1284 0.0000 0.6142 0.0000
# 3 71.3001 26.1284 148.6338 0.0000 10.1392 0.0000
# 4 0.0000 0.0000 0.0000 7.9605 0.0000 -4.9583
# 5 13.2720 0.6142 10.1392 0.0000 22.8319 0.0000
# 6 0.0000 0.0000 0.0000 -4.9583 0.0000 4.6047
#
#
#
# Elastic Compliance Matrix: (Units=1/GPa)
#
#
# Indices 1 2 3 4 5 6 
#
# 1 0.010842 -0.009066 -0.003294 0.000000 -0.004596 0.000000
# 2 -0.009066 0.049392 -0.004746 0.000000 0.006049 0.000000
# 3 -0.003294 -0.004746 0.009284 0.000000 -0.002081 0.000000
# 4 0.000000 0.000000 0.000000 0.381458 0.000000 0.410749
# 5 -0.004596 0.006049 -0.002081 0.000000 0.047231 0.000000
# 6 0.000000 0.000000 0.000000 0.410749 0.000000 0.659460
#
#
# Mechanical properties :
#
#
# Convention : Reuss Voigt Hill
#
# Bulk Modulus (GPa) = 28.32366 64.73223 46.52795
# Shear Modulus (GPa) = 4.15403 20.01524 12.08464
#
# Velocity S-wave (km/s) = 1.54134 3.38333 2.62894
# Velocity P-wave (km/s) = 4.40071 7.23073 5.98539
#
# Compressibility (1/GPa) = 0.03530618
#
# Stress axis : x y z
#
# Youngs Moduli (GPa) = 92.23054 20.24620 107.70880
#
# Poissons Ratio (x) = 0.18356 0.35478
# Poissons Ratio (y) = 0.83618 0.51121
# Poissons Ratio (z) = 0.30379 0.09609
#
# Static dielectric constant tensor:
#      x y z
#    x 3.421380 0.000000 0.239640 
#    y 0.000000 2.685690 0.000000 
#    z 0.239640 0.000000 3.758980 
# 
# 
# High freq. dielectric constant tensor:
#      x y z
#    x 1.679850 0.000000 0.015220 
#    y 0.000000 1.618460 0.000000 
#    z 0.015220 0.000000 1.677390 
# 
# From -- ./inp_files/33960.got.cif
#   From: 2010.06.25/outbox.cif.g09.slc.cpg/sg10_17_cif.got.tgz:33960.got - 2010.06.27 22:07:45.
