data_PCOD8063375
_publ_section_title
;
Structure prediction by ZEFSAII (Michael W. Deem and Ramdas Pophale) SiO2 
 PCOD8063375
Probable space group: P 2/M
;
_chemical_formula_sum "Si O2"
_cell_formula_units_Z 28
_cell_length_a 19.439399
_cell_length_b 8.596197
_cell_length_c 15.205980
_cell_angle_alpha 90.000000
_cell_angle_beta 143.756224
_cell_angle_gamma 90.000000
_cell_volume 1502.291552
_symmetry_space_group_name_H-M "P 2/M"
_symmetry_group_IT_number 10
_symmetry_cell_setting 'monoclinic'
loop_
_space_group_symop_operation_xyz
x,y,z
-x,y,-z
-x,-y,-z
x,-y,z
loop_
_atom_site_type_symbol
_atom_site_label
_atom_site_fract_x
_atom_site_fract_y
_atom_site_fract_z
Si Si1 0.863969 0.671078 0.343504
Si Si2 0.131187 0.681270 0.153603
Si Si3 0.747678 0.180861 0.886559
Si Si4 0.510328 0.318428 0.611833
Si Si5 0.093120 0.820324 0.785733
Si Si6 0.842565 0.316986 0.514248
Si Si7 0.282000 0.180396 0.454758
O O1 0.813946 0.500000 0.268672
O O2 0.839731 0.785669 0.236977
O O3 0.810125 0.731779 0.380284
O O4 0.000000 0.657213 0.500000
O O5 0.140222 0.500000 0.186538
O O6 0.209978 0.715413 0.150758
O O7 0.173406 0.780146 0.280208
O O8 0.000000 0.733904 0.000000
O O9 0.613071 0.221791 0.764413
O O10 0.762386 0.000000 0.878618
O O11 0.820074 0.227068 0.047146
O O12 0.500000 0.265141 0.500000
O O13 0.538102 0.500000 0.647473
O O14 0.391933 0.282314 0.540390
O O15 0.976139 0.721346 0.675433
O O16 0.058563 0.000000 0.753461
O O17 0.825510 0.500000 0.511256
O O18 0.753719 0.221926 0.482954
O O19 0.313837 0.000000 0.480333
#
# Coordination Sequence:
#
# PCOD8063375 Si02
#       7
#     4   4   4   4   4   4   4
#     4   8  16  31  52  78 109 147 184 220 265 321
#     4  11  23  37  54  78 109 145 181 219 266 320
#     4  11  23  37  55  80 110 143 181 225 273 321
#     4  11  23  40  61  80 102 139 189 230 269 322
#     4  10  20  33  53  84 117 146 180 223 273 327
#     4  10  20  35  55  81 114 148 185 224 267 324
#     4  12  24  37  57  81 109 142 179 226 277 324
#
# _framework density 18.638192
#
# number of rings (size 3 to 8) (size 9 to 14) (size 15 to 20)
#    0.000    1.571    1.429    5.143    0.000    9.429 
#    0.000    0.000    0.000    0.857    0.000    6.000 
#    0.000    0.000    0.000    0.000    0.000    0.000 
#
# Total GULP energy -347282.805217 kJ/mol
# GULP energy per Si atom -12402.957329 kJ/mol
# Density = 1.859577 g / cm^3
# Si number density = 18.638192 Si / 1000 Ang^3
#
#
#
# Elastic Constant Matrix: (Units=GPa)
#
#
# Indices 1 2 3 4 5 6 
#
# 1 109.2792 11.7530 22.3621 0.0000 -8.2677 0.0000
# 2 11.7530 53.3908 10.1876 0.0000 -6.1425 0.0000
# 3 22.3621 10.1876 34.1760 0.0000 4.7461 0.0000
# 4 0.0000 0.0000 0.0000 26.6032 0.0000 -1.2933
# 5 -8.2677 -6.1425 4.7461 0.0000 29.1813 0.0000
# 6 0.0000 0.0000 0.0000 -1.2933 0.0000 29.3541
#
#
#
# Elastic Compliance Matrix: (Units=1/GPa)
#
#
# Indices 1 2 3 4 5 6 
#
# 1 0.011108 -0.000476 -0.007724 0.000000 0.004303 0.000000
# 2 -0.000476 0.020702 -0.006595 0.000000 0.005295 0.000000
# 3 -0.007724 -0.006595 0.037627 0.000000 -0.009696 0.000000
# 4 0.000000 0.000000 0.000000 0.037670 0.000000 0.001660
# 5 0.004303 0.005295 -0.009696 0.000000 0.038179 0.000000
# 6 0.000000 0.000000 0.000000 0.001660 0.000000 0.034140
#
#
# Mechanical properties :
#
#
# Convention : Reuss Voigt Hill
#
# Bulk Modulus (GPa) = 25.09612 31.71683 28.40648
# Shear Modulus (GPa) = 22.49220 27.19727 24.84474
#
# Velocity S-wave (km/s) = 3.47764 3.82412 3.65499
# Velocity P-wave (km/s) = 5.44238 6.04588 5.75205
#
# Compressibility (1/GPa) = 0.03984680
#
# Stress axis : x y z
#
# Youngs Moduli (GPa) = 90.02323 48.30383 26.57689
#
# Poissons Ratio (x) = 0.02301 0.20528
# Poissons Ratio (y) = 0.04289 0.17527
# Poissons Ratio (z) = 0.69534 0.31856
#
# Static dielectric constant tensor:
#      x y z
#    x 3.639090 0.000000 -0.231450 
#    y 0.000000 3.414220 0.000000 
#    z -0.231450 0.000000 3.384870 
# 
# 
# High freq. dielectric constant tensor:
#      x y z
#    x 1.725210 0.000000 -0.011910 
#    y 0.000000 1.732180 0.000000 
#    z -0.011910 0.000000 1.700680 
# 
# From -- ./inp_files/68668.got.cif
#   From: 2010.06.25/outbox.cif.g09.slc.cpg/sg10_35_cif.got.tgz:68668.got - 2010.06.27 22:07:45.
