data_PCOD8063257
_publ_section_title
;
Structure prediction by ZEFSAII (Michael W. Deem and Ramdas Pophale) SiO2 
 PCOD8063257
Probable space group: P 2/M
;
_chemical_formula_sum "Si O2"
_cell_formula_units_Z 32
_cell_length_a 22.647905
_cell_length_b 9.101163
_cell_length_c 11.477858
_cell_angle_alpha 90.000000
_cell_angle_beta 132.331867
_cell_angle_gamma 90.000000
_cell_volume 1748.964609
_symmetry_space_group_name_H-M "P 2/M"
_symmetry_group_IT_number 10
_symmetry_cell_setting 'monoclinic'
loop_
_space_group_symop_operation_xyz
x,y,z
-x,y,-z
-x,-y,-z
x,-y,z
loop_
_atom_site_type_symbol
_atom_site_label
_atom_site_fract_x
_atom_site_fract_y
_atom_site_fract_z
Si Si1 0.305902 0.831685 0.038891
Si Si2 0.892643 0.666706 0.579926
Si Si3 0.789766 0.172761 0.862633
Si Si4 0.394239 0.325992 0.761332
Si Si5 0.856576 0.828149 0.299109
Si Si6 0.567871 0.326507 0.933506
Si Si7 0.757840 0.671921 0.582283
Si Si8 0.924803 0.330404 0.176179
O O1 0.234415 0.792429 0.855558
O O2 0.330287 0.000000 0.060713
O O3 0.278467 0.792540 0.133002
O O4 0.384033 0.739023 0.111127
O O5 0.876600 0.500000 0.515129
O O6 0.870699 0.778239 0.448882
O O7 0.838759 0.703424 0.619691
O O8 0.983644 0.686529 0.741071
O O9 0.759008 0.236122 0.701241
O O10 0.806122 0.000000 0.875109
O O11 0.872357 0.248936 0.009527
O O12 0.391031 0.500000 0.763537
O O13 0.475171 0.276833 0.802334
O O14 0.316926 0.266073 0.591327
O O15 0.395292 0.266723 0.895578
O O16 0.915578 0.741336 0.291326
O O17 0.875390 0.000000 0.310560
O O18 0.574968 0.500000 0.936100
O O19 0.748060 0.500000 0.598432
O O20 0.898630 0.500000 0.148044
#
# Coordination Sequence:
#
# PCOD8063257 Si02
#       8
#     4   4   4   4   4   4   4   4
#     4   9  19  34  50  72 102 133 168 210 251 296
#     4  10  21  34  52  79 105 132 170 214 258 307
#     4  10  22  39  54  71  99 135 176 217 256 303
#     4   8  16  31  52  80 109 132 159 202 251 299
#     4  10  20  33  51  77 109 140 170 207 253 306
#     4   9  16  30  55  82 105 131 164 201 246 302
#     4  10  20  36  55  74 101 136 173 213 257 303
#     4  10  20  35  54  76 103 134 170 213 260 305
#
# _framework density 18.29654
#
# number of rings (size 3 to 8) (size 9 to 14) (size 15 to 20)
#    0.000    2.500    0.000    3.750    0.000    7.500 
#    0.000    5.625    0.000    3.750    0.000    0.000 
#    0.000    0.000    0.000    0.000    0.000    0.000 
#
# Total GULP energy -396831.935360 kJ/mol
# GULP energy per Si atom -12400.997980 kJ/mol
# Density = 1.825490 g / cm^3
# Si number density = 18.296540 Si / 1000 Ang^3
#
#
#
# Elastic Constant Matrix: (Units=GPa)
#
#
# Indices 1 2 3 4 5 6 
#
# 1 130.2290 51.4762 59.8631 0.0000 13.4532 0.0000
# 2 51.4762 75.0318 40.2972 0.0000 2.0112 0.0000
# 3 59.8631 40.2972 79.4485 0.0000 -3.6700 0.0000
# 4 0.0000 0.0000 0.0000 26.1205 0.0000 -7.3977
# 5 13.4532 2.0112 -3.6700 0.0000 24.0148 0.0000
# 6 0.0000 0.0000 0.0000 -7.3977 0.0000 16.2354
#
#
#
# Elastic Compliance Matrix: (Units=1/GPa)
#
#
# Indices 1 2 3 4 5 6 
#
# 1 0.014757 -0.005053 -0.008982 0.000000 -0.009216 0.000000
# 2 -0.005053 0.020261 -0.006462 0.000000 0.000146 0.000000
# 3 -0.008982 -0.006462 0.023052 0.000000 0.009096 0.000000
# 4 0.000000 0.000000 0.000000 0.043957 0.000000 0.020029
# 5 -0.009216 0.000146 0.009096 0.000000 0.048182 0.000000
# 6 0.000000 0.000000 0.000000 0.020029 0.000000 0.070720
#
#
# Mechanical properties :
#
#
# Convention : Reuss Voigt Hill
#
# Bulk Modulus (GPa) = 58.56285 65.33136 61.94710
# Shear Modulus (GPa) = 18.68347 22.14566 20.41456
#
# Velocity S-wave (km/s) = 3.19901 3.48282 3.34392
# Velocity P-wave (km/s) = 6.76180 7.20818 6.98855
#
# Compressibility (1/GPa) = 0.01707567
#
# Stress axis : x y z
#
# Youngs Moduli (GPa) = 67.76425 49.35491 43.37934
#
# Poissons Ratio (x) = 0.24940 0.38963
# Poissons Ratio (y) = 0.34243 0.28034
# Poissons Ratio (z) = 0.60865 0.31896
#
# Static dielectric constant tensor:
#      x y z
#    x 3.401550 0.000000 0.115120 
#    y 0.000000 3.242750 0.000000 
#    z 0.115120 0.000000 3.374140 
# 
# 
# High freq. dielectric constant tensor:
#      x y z
#    x 1.713000 0.000000 0.007240 
#    y 0.000000 1.699200 0.000000 
#    z 0.007240 0.000000 1.699200 
# 
# From -- ./inp_files/55337.got.cif
#   From: 2010.06.25/outbox.cif.g09.slc.cpg/sg10_28_cif.got.tgz:55337.got - 2010.06.27 22:07:45.
