data_PCOD8063171
_publ_section_title
;
Structure prediction by ZEFSAII (Michael W. Deem and Ramdas Pophale) SiO2 
 PCOD8063171
Probable space group: P 2/M
;
_chemical_formula_sum "Si O2"
_cell_formula_units_Z 28
_cell_length_a 20.551736
_cell_length_b 8.883860
_cell_length_c 14.734336
_cell_angle_alpha 90.000000
_cell_angle_beta 147.271993
_cell_angle_gamma 90.000000
_cell_volume 1454.448269
_symmetry_space_group_name_H-M "P 2/M"
_symmetry_group_IT_number 10
_symmetry_cell_setting 'monoclinic'
loop_
_space_group_symop_operation_xyz
x,y,z
-x,y,-z
-x,-y,-z
x,-y,z
loop_
_atom_site_type_symbol
_atom_site_label
_atom_site_fract_x
_atom_site_fract_y
_atom_site_fract_z
Si Si1 0.229229 0.322385 0.099322
Si Si2 0.434516 0.678451 0.206040
Si Si3 0.700862 0.322126 0.495179
Si Si4 0.137371 0.177913 0.168794
Si Si5 0.264386 0.679236 0.851984
Si Si6 0.791764 0.678171 0.409256
Si Si7 0.058448 0.321489 0.739967
O O1 0.226237 0.500000 0.114089
O O2 0.355873 0.274566 0.201323
O O3 0.217927 0.237290 0.180638
O O4 0.120219 0.269701 0.906465
O O5 0.436990 0.500000 0.200934
O O6 0.570714 0.738425 0.375747
O O7 0.374144 0.742529 0.042274
O O8 0.715157 0.500000 0.526442
O O9 0.807118 0.241172 0.673579
O O10 0.712012 0.277853 0.402298
O O11 0.142687 0.000000 0.176744
O O12 0.000000 0.235935 0.000000
O O13 0.270079 0.500000 0.859448
O O14 0.270812 0.741228 0.756215
O O15 0.138336 0.733068 0.748473
O O16 0.804456 0.500000 0.415758
O O17 0.925451 0.748834 0.576596
O O18 0.052628 0.500000 0.733281
#
# Coordination Sequence:
#
# PCOD8063171 Si02
#       7
#     4   4   4   4   4   4   4
#     4   9  17  32  54  74  97 131 165 198 239 288
#     4   8  16  30  47  72 103 132 162 198 240 281
#     4  10  20  33  50  73 101 131 166 203 236 282
#     4  11  24  39  53  72  97 123 155 200 254 301
#     4   8  13  22  38  64 101 134 157 193 242 282
#     4   9  15  22  38  67  99 131 164 197 235 279
#     4   8  13  22  39  66  97 127 161 199 239 282
#
# _framework density 19.251284999999999
#
# number of rings (size 3 to 8) (size 9 to 14) (size 15 to 20)
#    0.000    3.000    0.000    3.429    0.000    5.143 
#    0.000    6.429    0.000    0.000    0.000    6.000 
#    0.000   14.857    0.000    0.000    0.000    0.000 
#
# Total GULP energy -347038.012795 kJ/mol
# GULP energy per Si atom -12394.214743 kJ/mol
# Density = 1.920747 g / cm^3
# Si number density = 19.251285 Si / 1000 Ang^3
#
#
#
# Elastic Constant Matrix: (Units=GPa)
#
#
# Indices 1 2 3 4 5 6 
#
# 1 115.3240 21.6085 47.3806 0.0000 -2.7814 0.0000
# 2 21.6085 21.9542 17.9692 0.0000 0.0127 0.0000
# 3 47.3806 17.9692 93.9643 0.0000 11.7715 0.0000
# 4 0.0000 0.0000 0.0000 8.6955 0.0000 4.8172
# 5 -2.7814 0.0127 11.7715 0.0000 35.7919 0.0000
# 6 0.0000 0.0000 0.0000 4.8172 0.0000 -0.0823
#
#
#
# Elastic Compliance Matrix: (Units=1/GPa)
#
#
# Indices 1 2 3 4 5 6 
#
# 1 0.012284 -0.008010 -0.004988 0.000000 0.002598 0.000000
# 2 -0.008010 0.059653 -0.007602 0.000000 0.001856 0.000000
# 3 -0.004988 -0.007602 0.015289 0.000000 -0.005413 0.000000
# 4 0.000000 0.000000 0.000000 0.003441 0.000000 0.201379
# 5 0.002598 0.001856 -0.005413 0.000000 0.029921 0.000000
# 6 0.000000 0.000000 0.000000 0.201379 0.000000 -0.363509
#
#
# Mechanical properties :
#
#
# Convention : Reuss Voigt Hill
#
# Bulk Modulus (GPa) = 21.72555 45.01767 33.37161
# Shear Modulus (GPa) = -26.82691 18.49998 -4.16346
#
# Velocity S-wave (km/s) = -3.73703 3.10332 -1.47221
# Velocity P-wave (km/s) = 2.70384 6.02294 3.80559
#
# Compressibility (1/GPa) = 0.04602876
#
# Stress axis : x y z
#
# Youngs Moduli (GPa) = 81.40770 16.76348 65.40556
#
# Poissons Ratio (x) = 0.13427 0.32623
# Poissons Ratio (y) = 0.65204 0.49719
# Poissons Ratio (z) = 0.40604 0.12743
#
# Static dielectric constant tensor:
#      x y z
#    x 3.710050 0.000000 0.070910 
#    y 0.000000 2.798340 0.000000 
#    z 0.070910 0.000000 3.850050 
# 
# 
# High freq. dielectric constant tensor:
#      x y z
#    x 1.759370 0.000000 -0.002920 
#    y 0.000000 1.670410 0.000000 
#    z -0.002920 0.000000 1.755350 
# 
# From -- ./inp_files/49337.got.cif
#   From: 2010.06.25/outbox.cif.g09.slc.cpg/sg10_25_cif.got.tgz:49337.got - 2010.06.27 22:07:45.
