data_PCOD8063040
_publ_section_title
;
Structure prediction by ZEFSAII (Michael W. Deem and Ramdas Pophale) SiO2 
 PCOD8063040
Probable space group: P 2/M
;
_chemical_formula_sum "Si O2"
_cell_formula_units_Z 28
_cell_length_a 12.577087
_cell_length_b 8.848717
_cell_length_c 13.887758
_cell_angle_alpha 90.000000
_cell_angle_beta 75.257700
_cell_angle_gamma 90.000000
_cell_volume 1494.703249
_symmetry_space_group_name_H-M "P 2/M"
_symmetry_group_IT_number 10
_symmetry_cell_setting 'monoclinic'
loop_
_space_group_symop_operation_xyz
x,y,z
-x,y,-z
-x,-y,-z
x,-y,z
loop_
_atom_site_type_symbol
_atom_site_label
_atom_site_fract_x
_atom_site_fract_y
_atom_site_fract_z
Si Si1 0.168262 0.826441 0.796213
Si Si2 0.828071 0.326172 0.003218
Si Si3 0.254376 0.678257 0.266458
Si Si4 0.623276 0.820095 0.375822
Si Si5 0.614471 0.674627 0.943868
Si Si6 0.069511 0.173280 0.202245
Si Si7 0.394662 0.320421 0.415614
O O1 0.275684 0.770178 0.714590
O O2 0.061485 0.805915 0.752462
O O3 0.182460 0.000000 0.824189
O O4 0.148677 0.729006 0.895392
O O5 0.862370 0.500000 0.986589
O O6 0.698991 0.302816 0.011816
O O7 0.900451 0.237318 0.909413
O O8 0.243364 0.500000 0.257491
O O9 0.335610 0.745388 0.165482
O O10 0.132984 0.745707 0.275888
O O11 0.302177 0.724072 0.358944
O O12 0.645455 0.749355 0.475181
O O13 0.511379 0.751432 0.357375
O O14 0.613009 0.000000 0.387596
O O15 0.590618 0.500000 0.927724
O O16 0.500000 0.755590 0.000000
O O17 0.104365 0.000000 0.196096
O O18 0.409101 0.500000 0.421080
#
# Coordination Sequence:
#
# PCOD8063040 Si02
#       7
#     4   4   4   4   4   4   4
#     4  10  22  37  53  76 107 143 181 222 264 309
#     4  10  20  32  52  79 107 142 180 217 263 313
#     4   9  19  34  54  78 105 137 174 217 265 317
#     4  10  21  37  56  79 108 139 178 222 263 314
#     4   8  15  28  46  71 103 134 166 204 250 307
#     4  10  20  36  55  75 106 145 181 217 261 314
#     4  10  20  36  58  82 109 137 172 217 274 326
#
# _framework density 18.732814999999999
#
# number of rings (size 3 to 8) (size 9 to 14) (size 15 to 20)
#    0.000    2.429    0.000    3.857    2.000    5.143 
#    0.000    0.714    0.000    6.429    0.000    0.000 
#    0.000    0.000    0.000    0.000    0.000    0.000 
#
# Total GULP energy -347151.090340 kJ/mol
# GULP energy per Si atom -12398.253226 kJ/mol
# Density = 1.869018 g / cm^3
# Si number density = 18.732815 Si / 1000 Ang^3
#
#
#
# Elastic Constant Matrix: (Units=GPa)
#
#
# Indices 1 2 3 4 5 6 
#
# 1 108.9913 41.2395 49.4794 0.0000 11.2573 0.0000
# 2 41.2395 70.0131 30.3478 0.0000 8.8520 0.0000
# 3 49.4794 30.3478 65.3917 0.0000 12.6831 0.0000
# 4 0.0000 0.0000 0.0000 18.0846 0.0000 2.2857
# 5 11.2573 8.8520 12.6831 0.0000 32.1932 0.0000
# 6 0.0000 0.0000 0.0000 2.2857 0.0000 26.4056
#
#
#
# Elastic Compliance Matrix: (Units=1/GPa)
#
#
# Indices 1 2 3 4 5 6 
#
# 1 0.015252 -0.004965 -0.009167 0.000000 -0.000357 0.000000
# 2 -0.004965 0.019591 -0.005010 0.000000 -0.001677 0.000000
# 3 -0.009167 -0.005010 0.025623 0.000000 -0.005511 0.000000
# 4 0.000000 0.000000 0.000000 0.055907 0.000000 -0.004839
# 5 -0.000357 -0.001677 -0.005511 0.000000 0.033820 0.000000
# 6 0.000000 0.000000 0.000000 -0.004839 0.000000 0.038290
#
#
# Mechanical properties :
#
#
# Convention : Reuss Voigt Hill
#
# Bulk Modulus (GPa) = 45.08224 54.05884 49.57054
# Shear Modulus (GPa) = 21.35270 23.55864 22.45567
#
# Velocity S-wave (km/s) = 3.37984 3.55013 3.46603
# Velocity P-wave (km/s) = 6.27290 6.76203 6.52205
#
# Compressibility (1/GPa) = 0.02218168
#
# Stress axis : x y z
#
# Youngs Moduli (GPa) = 65.56362 51.04304 39.02723
#
# Poissons Ratio (x) = 0.25344 0.35778
# Poissons Ratio (y) = 0.32554 0.19552
# Poissons Ratio (z) = 0.60105 0.25572
#
# Static dielectric constant tensor:
#      x y z
#    x 3.666910 0.000000 -0.051910 
#    y 0.000000 3.358080 0.000000 
#    z -0.051910 0.000000 3.336800 
# 
# 
# High freq. dielectric constant tensor:
#      x y z
#    x 1.739850 0.000000 0.002500 
#    y 0.000000 1.720720 0.000000 
#    z 0.002500 0.000000 1.707780 
# 
# From -- ./inp_files/63404.got.cif
#   From: 2010.06.25/outbox.cif.g09.slc.cpg/sg10_32_cif.got.tgz:63404.got - 2010.06.27 22:07:45.
