data_PCOD8063113
_publ_section_title
;
Structure prediction by ZEFSAII (Michael W. Deem and Ramdas Pophale) SiO2 
 PCOD8063113
Probable space group: P 2/M
;
_chemical_formula_sum "Si O2"
_cell_formula_units_Z 32
_cell_length_a 9.624520
_cell_length_b 15.053141
_cell_length_c 25.504090
_cell_angle_alpha 90.000000
_cell_angle_beta 29.451629
_cell_angle_gamma 90.000000
_cell_volume 1816.796070
_symmetry_space_group_name_H-M "P 2/M"
_symmetry_group_IT_number 10
_symmetry_cell_setting 'monoclinic'
loop_
_space_group_symop_operation_xyz
x,y,z
-x,y,-z
-x,-y,-z
x,-y,z
loop_
_atom_site_type_symbol
_atom_site_label
_atom_site_fract_x
_atom_site_fract_y
_atom_site_fract_z
Si Si1 0.368959 0.098709 0.129524
Si Si2 0.174828 0.605021 0.101535
Si Si3 0.455963 0.748424 0.860341
Si Si4 0.123544 0.397915 0.298132
Si Si5 0.071373 0.098878 0.123832
Si Si6 0.251035 0.601878 0.671753
Si Si7 0.865778 0.605997 0.490350
Si Si8 0.077035 0.742923 0.890741
O O1 0.357113 0.166390 0.182861
O O2 0.118062 0.117762 0.170368
O O3 0.339692 0.000000 0.163283
O O4 0.646613 0.105050 0.003012
O O5 0.173877 0.500000 0.091372
O O6 0.013080 0.636083 0.207075
O O7 0.995810 0.650113 0.113686
O O8 0.500000 0.639773 0.000000
O O9 0.634199 0.658866 0.810061
O O10 0.366848 0.744634 0.828508
O O11 0.181624 0.756242 0.985472
O O12 0.225720 0.500000 0.262771
O O13 0.830602 0.386145 0.362300
O O14 0.062788 0.364279 0.377022
O O15 0.874009 0.177003 0.166632
O O16 0.938283 0.000000 0.160414
O O17 0.293723 0.500000 0.672508
O O18 0.551505 0.648070 0.586413
O O19 0.852591 0.500000 0.494871
O O20 0.000000 0.643039 0.500000
#
# Coordination Sequence:
#
# PCOD8063113 Si02
#       8
#     4   4   4   4   4   4   4   4
#     4   8  15  29  48  67  91 122 160 202 242 291
#     4  10  21  33  48  69  96 136 178 202 228 278
#     4  10  21  32  43  70  99 132 165 196 250 289
#     4  10  20  33  49  68  97 128 162 204 244 291
#     4   8  15  28  48  69  87 121 164 202 246 288
#     4   9  18  32  50  69  89 123 168 207 246 284
#     4   9  18  32  51  71  91 119 159 210 261 295
#     4  10  21  31  45  66  99 133 166 205 235 287
#
# _framework density 17.613423000000001
#
# number of rings (size 3 to 8) (size 9 to 14) (size 15 to 20)
#    0.000    2.750    0.000    1.875    7.000    4.000 
#    0.000    3.750    0.000    0.000    0.000    0.000 
#    0.000    3.500    0.000    0.000    0.000    0.125 
#
# Total GULP energy -396433.765106 kJ/mol
# GULP energy per Si atom -12388.555160 kJ/mol
# Density = 1.757333 g / cm^3
# Si number density = 17.613423 Si / 1000 Ang^3
#
#
#
# Elastic Constant Matrix: (Units=GPa)
#
#
# Indices 1 2 3 4 5 6 
#
# 1 120.1535 51.6207 23.1072 0.0000 -4.0365 0.0000
# 2 51.6207 85.2752 23.2498 0.0000 -4.8382 0.0000
# 3 23.1072 23.2498 42.6526 0.0000 -5.7894 0.0000
# 4 0.0000 0.0000 0.0000 5.3854 0.0000 1.6118
# 5 -4.0365 -4.8382 -5.7894 0.0000 18.0302 0.0000
# 6 0.0000 0.0000 0.0000 1.6118 0.0000 27.5682
#
#
#
# Elastic Compliance Matrix: (Units=1/GPa)
#
#
# Indices 1 2 3 4 5 6 
#
# 1 0.011540 -0.006203 -0.002871 0.000000 -0.000003 0.000000
# 2 -0.006203 0.017139 -0.005799 0.000000 0.001348 0.000000
# 3 -0.002871 -0.005799 0.029133 0.000000 0.007156 0.000000
# 4 0.000000 0.000000 0.000000 0.188995 0.000000 -0.011050
# 5 -0.000003 0.001348 0.007156 0.000000 0.058121 0.000000
# 6 0.000000 0.000000 0.000000 -0.011050 0.000000 0.036920
#
#
# Mechanical properties :
#
#
# Convention : Reuss Voigt Hill
#
# Bulk Modulus (GPa) = 35.63026 49.33742 42.48384
# Shear Modulus (GPa) = 13.12515 20.20366 16.66441
#
# Velocity S-wave (km/s) = 2.73276 3.39050 3.07924
# Velocity P-wave (km/s) = 5.49820 6.58782 6.06752
#
# Compressibility (1/GPa) = 0.02806603
#
# Stress axis : x y z
#
# Youngs Moduli (GPa) = 86.65818 58.34583 34.32557
#
# Poissons Ratio (x) = 0.36191 0.09854
# Poissons Ratio (y) = 0.53753 0.19906
# Poissons Ratio (z) = 0.24878 0.33835
#
# Static dielectric constant tensor:
#      x y z
#    x 3.713300 0.000000 -0.055160 
#    y 0.000000 3.196020 0.000000 
#    z -0.055160 0.000000 2.996930 
# 
# 
# High freq. dielectric constant tensor:
#      x y z
#    x 1.696030 0.000000 -0.003740 
#    y 0.000000 1.652670 0.000000 
#    z -0.003740 0.000000 1.633610 
# 
# From -- ./inp_files/35098.got.cif
#   From: 2010.06.25/outbox.cif.g09.slc.cpg/sg10_18_cif.got.tgz:35098.got - 2010.06.27 22:07:45.
