data_PCOD8063900
_publ_section_title
;
Structure prediction by ZEFSAII (Michael W. Deem and Ramdas Pophale) SiO2 
 PCOD8063900
Probable space group: P 2/M
;
_chemical_formula_sum "Si O2"
_cell_formula_units_Z 26
_cell_length_a 12.199451
_cell_length_b 13.277820
_cell_length_c 10.291040
_cell_angle_alpha 90.000000
_cell_angle_beta 56.210727
_cell_angle_gamma 90.000000
_cell_volume 1385.395134
_symmetry_space_group_name_H-M "P 2/M"
_symmetry_group_IT_number 10
_symmetry_cell_setting 'monoclinic'
loop_
_space_group_symop_operation_xyz
x,y,z
-x,y,-z
-x,-y,-z
x,-y,z
loop_
_atom_site_type_symbol
_atom_site_label
_atom_site_fract_x
_atom_site_fract_y
_atom_site_fract_z
Si Si1 0.220041 0.389076 0.483757
Si Si2 0.783085 0.181876 0.808171
Si Si3 0.548365 0.000000 0.321651
Si Si4 0.352963 0.796467 0.849163
Si Si5 0.578054 0.319013 0.833275
Si Si6 0.618777 0.000000 0.819671
Si Si7 0.641862 0.383796 0.347906
Si Si8 0.000000 0.252365 0.500000
O O1 0.162606 0.500000 0.500296
O O2 0.368288 0.385437 0.321286
O O3 0.244871 0.368031 0.619081
O O4 0.111924 0.314535 0.499796
O O5 0.712860 0.283892 0.810711
O O6 0.933943 0.185010 0.657721
O O7 0.711380 0.093699 0.780723
O O8 0.769323 0.176811 0.973857
O O9 0.500000 0.000000 0.500000
O O10 0.631137 0.896692 0.248411
O O11 0.429457 0.000000 0.297088
O O12 0.486221 0.774558 0.845030
O O13 0.322075 0.694966 0.789334
O O14 0.500000 0.379022 0.000000
O O15 0.500000 0.000000 0.000000
O O16 0.500000 0.355492 0.500000
O O17 0.643079 0.500000 0.295834
#
# Coordination Sequence:
#
# PCOD8063900 Si02
#       8
#     4   4   2   4   4   2   4   2
#     4  10  20  36  56  77 111 156 199 249 298 352
#     4  10  20  35  59  80 114 157 196 242 286 347
#     4  12  24  30  56  98 126 157 181 232 311 366
#     4  11  19  35  55  88 122 148 192 244 302 363
#     4   9  17  29  51  81 111 144 181 242 306 346
#     4  12  18  39  62  89 120 154 193 246 307 366
#     4  10  20  34  56  84 118 155 190 245 314 367
#     4  10  23  39  56  82 108 156 210 243 283 342
#
# _framework density 18.767208
#
# number of rings (size 3 to 8) (size 9 to 14) (size 15 to 20)
#    0.000    1.692    4.615    1.154    0.000    0.615 
#    0.000    7.692    0.000    2.769    0.000    3.231 
#    0.000    0.000    0.000    0.000    0.000    0.000 
#
# Total GULP energy -322125.800067 kJ/mol
# GULP energy per Si atom -12389.453849 kJ/mol
# Density = 1.872449 g / cm^3
# Si number density = 18.767208 Si / 1000 Ang^3
#
#
#
# Elastic Constant Matrix: (Units=GPa)
#
#
# Indices 1 2 3 4 5 6 
#
# 1 58.8769 31.6500 50.4263 0.0000 -4.2002 0.0000
# 2 31.6500 92.8364 61.1036 0.0000 3.2435 0.0000
# 3 50.4263 61.1036 167.5798 0.0000 -0.1108 0.0000
# 4 0.0000 0.0000 0.0000 19.4571 0.0000 17.1271
# 5 -4.2002 3.2435 -0.1108 0.0000 30.4984 0.0000
# 6 0.0000 0.0000 0.0000 17.1271 0.0000 39.3636
#
#
#
# Elastic Compliance Matrix: (Units=1/GPa)
#
#
# Indices 1 2 3 4 5 6 
#
# 1 0.024718 -0.004828 -0.005675 0.000000 0.003897 0.000000
# 2 -0.004828 0.015187 -0.004086 0.000000 -0.002295 0.000000
# 3 -0.005675 -0.004086 0.009165 0.000000 -0.000314 0.000000
# 4 0.000000 0.000000 0.000000 0.083298 0.000000 -0.036243
# 5 0.003897 -0.002295 -0.000314 0.000000 0.033568 0.000000
# 6 0.000000 0.000000 0.000000 -0.036243 0.000000 0.041174
#
#
# Mechanical properties :
#
#
# Convention : Reuss Voigt Hill
#
# Bulk Modulus (GPa) = 50.27211 67.29476 58.78343
# Shear Modulus (GPa) = 20.58290 29.60469 25.09379
#
# Velocity S-wave (km/s) = 3.31531 3.97605 3.66062
# Velocity P-wave (km/s) = 6.44208 7.55077 7.01835
#
# Compressibility (1/GPa) = 0.01989174
#
# Stress axis : x y z
#
# Youngs Moduli (GPa) = 40.45563 65.84401 109.11348
#
# Poissons Ratio (x) = 0.31789 0.61922
# Poissons Ratio (y) = 0.19532 0.44588
# Poissons Ratio (z) = 0.22959 0.26907
#
# Static dielectric constant tensor:
#      x y z
#    x 3.220160 0.000000 0.006690 
#    y 0.000000 3.347530 0.000000 
#    z 0.006690 0.000000 3.770770 
# 
# 
# High freq. dielectric constant tensor:
#      x y z
#    x 1.697360 0.000000 0.013280 
#    y 0.000000 1.725910 0.000000 
#    z 0.013280 0.000000 1.732890 
# 
# From -- ./inp_files/24850.got.cif
#   From: 2010.06.25/outbox.cif.g09.slc.cpg/sg10_13_cif.got.tgz:24850.got - 2010.06.27 22:07:45.
