data_PCOD8063660
_publ_section_title
;
Structure prediction by ZEFSAII (Michael W. Deem and Ramdas Pophale) SiO2 
 PCOD8063660
Probable space group: P 2/M
;
_chemical_formula_sum "Si O2"
_cell_formula_units_Z 32
_cell_length_a 9.797876
_cell_length_b 8.620319
_cell_length_c 27.230784
_cell_angle_alpha 90.000000
_cell_angle_beta 136.022948
_cell_angle_gamma 90.000000
_cell_volume 1597.005822
_symmetry_space_group_name_H-M "P 2/M"
_symmetry_group_IT_number 10
_symmetry_cell_setting 'monoclinic'
loop_
_space_group_symop_operation_xyz
x,y,z
-x,y,-z
-x,-y,-z
x,-y,z
loop_
_atom_site_type_symbol
_atom_site_label
_atom_site_fract_x
_atom_site_fract_y
_atom_site_fract_z
Si Si1 0.965673 0.183756 0.936059
Si Si2 0.144869 0.315664 0.336679
Si Si3 0.138662 0.684887 0.444331
Si Si4 0.234040 0.683145 0.818842
Si Si5 0.278564 0.183756 0.936059
Si Si6 0.541331 0.316855 0.818844
Si Si7 0.298154 0.684336 0.663322
Si Si8 0.544481 0.685003 0.397240
O O1 0.749248 0.235533 0.864306
O O2 0.130614 0.248671 0.940307
O O3 0.976560 0.000000 0.939098
O O4 0.000000 0.249868 0.000000
O O5 0.134521 0.500000 0.335150
O O6 0.182491 0.253287 0.401146
O O7 0.327576 0.253580 0.352697
O O8 0.942575 0.253681 0.261053
O O9 0.147346 0.500000 0.448673
O O10 0.296657 0.754690 0.523329
O O11 0.922094 0.746714 0.401145
O O12 0.218855 0.500000 0.822913
O O13 0.207974 0.764466 0.864305
O O14 0.439709 0.726367 0.844855
O O15 0.279834 0.000000 0.939097
O O16 0.500000 0.249867 0.000000
O O17 0.572802 0.500000 0.822916
O O18 0.398365 0.253682 0.738948
O O19 0.293920 0.500000 0.664851
O O20 0.416786 0.746418 0.647303
O O21 0.554746 0.500000 0.402372
#
# Coordination Sequence:
#
# PCOD8063660 Si02
#       8
#     4   4   4   4   4   4   4   4
#     4  10  22  40  61  83 106 134 171 215 261 310
#     4   9  16  26  39  62  97 135 173 212 256 304
#     4   9  14  24  38  56  90 135 176 212 253 305
#     4  10  20  34  53  78 111 147 178 213 260 313
#     4  10  22  40  61  83 106 134 171 215 261 310
#     4  10  20  34  53  78 111 147 178 213 260 313
#     4   9  16  26  39  62  97 135 173 212 256 304
#     4   9  16  22  36  60  90 133 178 214 255 305
#
# _framework density 20.037499
#
# number of rings (size 3 to 8) (size 9 to 14) (size 15 to 20)
#    0.000    2.500    1.250    1.500    1.750    5.500 
#    0.000    0.000    0.000    0.000    0.000    0.000 
#    0.000    6.000    0.000    0.000    0.000    0.000 
#
# Total GULP energy -396646.680987 kJ/mol
# GULP energy per Si atom -12395.208781 kJ/mol
# Density = 1.999189 g / cm^3
# Si number density = 20.037499 Si / 1000 Ang^3
#
#
#
# Elastic Constant Matrix: (Units=GPa)
#
#
# Indices 1 2 3 4 5 6 
#
# 1 182.5227 10.3276 56.7739 0.0000 -2.8275 0.0000
# 2 10.3276 3.7780 6.2292 0.0000 -0.2969 0.0000
# 3 56.7739 6.2292 107.2445 0.0000 -2.6188 0.0000
# 4 0.0000 0.0000 0.0000 -9.6626 0.0000 -1.9404
# 5 -2.8275 -0.2969 -2.6188 0.0000 43.3488 0.0000
# 6 0.0000 0.0000 0.0000 -1.9404 0.0000 17.1607
#
#
#
# Elastic Compliance Matrix: (Units=1/GPa)
#
#
# Indices 1 2 3 4 5 6 
#
# 1 0.007248 -0.014907 -0.002966 0.000000 0.000191 0.000000
# 2 -0.014907 0.323423 -0.010880 0.000000 0.000585 0.000000
# 3 -0.002966 -0.010880 0.011537 0.000000 0.000429 0.000000
# 4 0.000000 0.000000 0.000000 -0.101194 0.000000 -0.011442
# 5 0.000191 0.000585 0.000429 0.000000 0.023111 0.000000
# 6 0.000000 0.000000 0.000000 -0.011442 0.000000 0.056979
#
#
# Mechanical properties :
#
#
# Convention : Reuss Voigt Hill
#
# Bulk Modulus (GPa) = 3.51244 48.91184 26.21214
# Shear Modulus (GPa) = 10.55939 24.85034 17.70487
#
# Velocity S-wave (km/s) = 2.29810 3.52546 2.97574
# Velocity P-wave (km/s) = 2.96621 6.40585 4.99166
#
# Compressibility (1/GPa) = 0.28470230
#
# Stress axis : x y z
#
# Youngs Moduli (GPa) = 137.97074 3.09192 86.67539
#
# Poissons Ratio (x) = 0.04609 0.25712
# Poissons Ratio (y) = 2.05671 0.94302
# Poissons Ratio (z) = 0.40928 0.03364
#
# Static dielectric constant tensor:
#      x y z
#    x 4.004070 0.000000 -0.013380 
#    y 0.000000 2.917620 0.000000 
#    z -0.013380 0.000000 3.819030 
# 
# 
# High freq. dielectric constant tensor:
#      x y z
#    x 1.802540 0.000000 -0.000610 
#    y 0.000000 1.706740 0.000000 
#    z -0.000610 0.000000 1.794060 
# 
# From -- ./inp_files/74816.got.cif
#   From: 2010.06.25/outbox.cif.g09.slc.cpg/sg10_38_cif.got.tgz:74816.got - 2010.06.27 22:07:45.
