data_PCOD8063766
_publ_section_title
;
Structure prediction by ZEFSAII (Michael W. Deem and Ramdas Pophale) SiO2 
 PCOD8063766
Probable space group: P 2/M
;
_chemical_formula_sum "Si O2"
_cell_formula_units_Z 32
_cell_length_a 18.543894
_cell_length_b 8.693557
_cell_length_c 11.743923
_cell_angle_alpha 90.000000
_cell_angle_beta 127.658755
_cell_angle_gamma 90.000000
_cell_volume 1498.829673
_symmetry_space_group_name_H-M "P 2/M"
_symmetry_group_IT_number 10
_symmetry_cell_setting 'monoclinic'
loop_
_space_group_symop_operation_xyz
x,y,z
-x,y,-z
-x,-y,-z
x,-y,z
loop_
_atom_site_type_symbol
_atom_site_label
_atom_site_fract_x
_atom_site_fract_y
_atom_site_fract_z
Si Si1 0.766993 0.324170 0.335016
Si Si2 0.514740 0.318787 0.387799
Si Si3 0.650750 0.166001 0.897127
Si Si4 0.038664 0.681756 0.873794
Si Si5 0.165975 0.182102 0.826991
Si Si6 0.869191 0.181824 0.822067
Si Si7 0.598455 0.167780 0.100287
Si Si8 0.282071 0.681906 0.465723
O O1 0.793187 0.500000 0.338234
O O2 0.821874 0.223134 0.295721
O O3 0.659339 0.297538 0.216875
O O4 0.777453 0.277881 0.478022
O O5 0.500000 0.250707 0.500000
O O6 0.516784 0.500000 0.393868
O O7 0.426470 0.273779 0.229302
O O8 0.611854 0.260024 0.429640
O O9 0.652711 0.000000 0.834121
O O10 0.752578 0.238830 0.008024
O O11 0.630513 0.129948 0.006707
O O12 0.024327 0.500000 0.864852
O O13 0.075925 0.732597 0.785926
O O14 0.941776 0.763911 0.797584
O O15 0.109247 0.735357 0.038477
O O16 0.154371 0.000000 0.824074
O O17 0.767941 0.231526 0.686123
O O18 0.874567 0.000000 0.844703
O O19 0.598695 0.000000 0.165479
O O20 0.500000 0.243929 0.000000
O O21 0.280278 0.500000 0.442057
#
# Coordination Sequence:
#
# PCOD8063766 Si02
#       8
#     4   4   4   4   4   4   4   4
#     4  10  20  34  54  82 114 154 199 244 298 355
#     4  10  22  37  53  78 112 154 201 246 293 346
#     4   9  19  33  50  76 109 145 187 237 287 336
#     4  11  22  40  66  93 122 153 191 241 297 352
#     4  10  21  38  60  88 122 155 196 249 297 351
#     4  11  23  40  64  93 121 155 197 241 293 352
#     4   9  17  30  49  72 102 142 189 240 292 343
#     4  10  22  40  58  82 121 160 200 248 297 353
#
# _framework density 21.349992
#
# number of rings (size 3 to 8) (size 9 to 14) (size 15 to 20)
#    0.000    2.000    0.000    5.250    1.750    4.500 
#    0.000    0.625    0.000    3.750    0.000    0.000 
#    0.000    0.000    0.000    0.000    0.000    0.000 
#
# Total GULP energy -396455.254361 kJ/mol
# GULP energy per Si atom -12389.226699 kJ/mol
# Density = 2.130140 g / cm^3
# Si number density = 21.349992 Si / 1000 Ang^3
#
#
#
# Elastic Constant Matrix: (Units=GPa)
#
#
# Indices 1 2 3 4 5 6 
#
# 1 75.5800 13.3189 -3.2610 0.0000 -0.8381 0.0000
# 2 13.3189 46.2035 8.6783 0.0000 -5.7667 0.0000
# 3 -3.2610 8.6783 51.3752 0.0000 -4.3398 0.0000
# 4 0.0000 0.0000 0.0000 25.1778 0.0000 7.1488
# 5 -0.8381 -5.7667 -4.3398 0.0000 14.2773 0.0000
# 6 0.0000 0.0000 0.0000 7.1488 0.0000 26.4725
#
#
#
# Elastic Compliance Matrix: (Units=1/GPa)
#
#
# Indices 1 2 3 4 5 6 
#
# 1 0.014073 -0.004416 0.001599 0.000000 -0.000471 0.000000
# 2 -0.004416 0.024687 -0.003726 0.000000 0.008580 0.000000
# 3 0.001599 -0.003726 0.020605 0.000000 0.004852 0.000000
# 4 0.000000 0.000000 0.000000 0.043016 0.000000 -0.011616
# 5 -0.000471 0.008580 0.004852 0.000000 0.074954 0.000000
# 6 0.000000 0.000000 0.000000 -0.011616 0.000000 0.040912
#
#
# Mechanical properties :
#
#
# Convention : Reuss Voigt Hill
#
# Bulk Modulus (GPa) = 21.60724 23.40346 22.50535
# Shear Modulus (GPa) = 20.26271 23.48035 21.87153
#
# Velocity S-wave (km/s) = 3.08405 3.31989 3.20414
# Velocity P-wave (km/s) = 4.77747 5.06766 4.92471
#
# Compressibility (1/GPa) = 0.04628079
#
# Stress axis : x y z
#
# Youngs Moduli (GPa) = 71.05804 40.50718 48.53094
#
# Poissons Ratio (x) = 0.17888 -0.07762
# Poissons Ratio (y) = 0.31379 0.18081
# Poissons Ratio (z) = -0.11365 0.15092
#
# Static dielectric constant tensor:
#      x y z
#    x 3.882960 0.000000 -0.142130 
#    y 0.000000 3.766210 0.000000 
#    z -0.142130 0.000000 3.606380 
# 
# 
# High freq. dielectric constant tensor:
#      x y z
#    x 1.846410 0.000000 -0.001700 
#    y 0.000000 1.828980 0.000000 
#    z -0.001700 0.000000 1.818220 
# 
# From -- ./inp_files/55394.got.cif
#   From: 2010.06.25/outbox.cif.g09.slc.cpg/sg10_28_cif.got.tgz:55394.got - 2010.06.27 22:07:45.
