data_PCOD8063370
_publ_section_title
;
Structure prediction by ZEFSAII (Michael W. Deem and Ramdas Pophale) SiO2 
 PCOD8063370
Probable space group: P 2/M
;
_chemical_formula_sum "Si O2"
_cell_formula_units_Z 32
_cell_length_a 21.563981
_cell_length_b 9.011349
_cell_length_c 14.700760
_cell_angle_alpha 90.000000
_cell_angle_beta 34.306773
_cell_angle_gamma 90.000000
_cell_volume 1610.081217
_symmetry_space_group_name_H-M "P 2/M"
_symmetry_group_IT_number 10
_symmetry_cell_setting 'monoclinic'
loop_
_space_group_symop_operation_xyz
x,y,z
-x,y,-z
-x,-y,-z
x,-y,z
loop_
_atom_site_type_symbol
_atom_site_label
_atom_site_fract_x
_atom_site_fract_y
_atom_site_fract_z
Si Si1 0.710084 0.675159 0.212328
Si Si2 0.730781 0.325550 0.858924
Si Si3 0.952875 0.667413 0.898983
Si Si4 0.956738 0.668121 0.681975
Si Si5 0.391495 0.173016 0.837814
Si Si6 0.824137 0.175203 0.582622
Si Si7 0.365836 0.827801 0.522166
Si Si8 0.170662 0.174761 0.630600
O O1 0.694001 0.500000 0.219509
O O2 0.678748 0.751854 0.156253
O O3 0.632943 0.735702 0.385966
O O4 0.836873 0.714363 0.084949
O O5 0.707685 0.500000 0.882092
O O6 0.846788 0.285411 0.763925
O O7 0.732063 0.255822 0.756010
O O8 0.635463 0.247972 0.032951
O O9 0.983589 0.500000 0.887928
O O10 0.932839 0.686182 0.816671
O O11 0.054373 0.766403 0.810496
O O12 0.991791 0.500000 0.615195
O O13 0.054657 0.775285 0.531039
O O14 0.520273 0.199510 0.666567
O O15 0.361604 0.000000 0.876944
O O16 0.807625 0.230187 0.498703
O O17 0.811241 0.000000 0.608175
O O18 0.269481 0.767066 0.573572
O O19 0.348790 0.000000 0.567361
O O20 0.164099 0.000000 0.639726
#
# Coordination Sequence:
#
# PCOD8063370 Si02
#       8
#     4   4   4   4   4   4   4   4
#     4  11  22  38  60  88 118 147 182 230 288 344
#     4  11  21  35  55  81 114 150 185 227 284 340
#     4   9  18  34  55  82 116 149 182 224 278 337
#     4   9  17  32  51  75 112 152 181 217 276 337
#     4  11  23  39  60  84 113 147 189 238 283 333
#     4  10  20  33  53  83 112 145 189 231 275 332
#     4  10  23  42  60  81 110 150 194 237 284 331
#     4   9  20  39  59  80 113 152 192 234 277 329
#
# _framework density 19.874773999999999
#
# number of rings (size 3 to 8) (size 9 to 14) (size 15 to 20)
#    0.000    2.000    1.250    2.250    0.000    7.500 
#    0.000    3.125    0.000    3.750    0.000    0.000 
#    0.000    0.000    0.000    0.000    0.000    0.000 
#
# Total GULP energy -396873.170992 kJ/mol
# GULP energy per Si atom -12402.286593 kJ/mol
# Density = 1.982954 g / cm^3
# Si number density = 19.874774 Si / 1000 Ang^3
#
#
#
# Elastic Constant Matrix: (Units=GPa)
#
#
# Indices 1 2 3 4 5 6 
#
# 1 41.2390 17.8722 13.9747 0.0000 -11.5749 0.0000
# 2 17.8722 77.5658 45.8144 0.0000 -1.4583 0.0000
# 3 13.9747 45.8144 98.0889 0.0000 4.9662 0.0000
# 4 0.0000 0.0000 0.0000 35.2886 0.0000 4.7404
# 5 -11.5749 -1.4583 4.9662 0.0000 21.5310 0.0000
# 6 0.0000 0.0000 0.0000 4.7404 0.0000 3.3748
#
#
#
# Elastic Compliance Matrix: (Units=1/GPa)
#
#
# Indices 1 2 3 4 5 6 
#
# 1 0.032631 -0.005389 -0.003037 0.000000 0.017878 0.000000
# 2 -0.005389 0.018909 -0.008077 0.000000 0.000247 0.000000
# 3 -0.003037 -0.008077 0.014682 0.000000 -0.005566 0.000000
# 4 0.000000 0.000000 0.000000 0.034928 0.000000 -0.049061
# 5 0.017878 0.000247 -0.005566 0.000000 0.057356 0.000000
# 6 0.000000 0.000000 0.000000 -0.049061 0.000000 0.365221
#
#
# Mechanical properties :
#
#
# Convention : Reuss Voigt Hill
#
# Bulk Modulus (GPa) = 30.10497 41.35737 35.73117
# Shear Modulus (GPa) = 8.80584 21.32105 15.06344
#
# Velocity S-wave (km/s) = 2.10720 3.27887 2.75602
# Velocity P-wave (km/s) = 4.59354 5.93201 5.30516
#
# Compressibility (1/GPa) = 0.03321711
#
# Stress axis : x y z
#
# Youngs Moduli (GPa) = 30.64531 52.88491 68.11203
#
# Poissons Ratio (x) = 0.28498 0.20688
# Poissons Ratio (y) = 0.16514 0.55011
# Poissons Ratio (z) = 0.09308 0.42713
#
# Static dielectric constant tensor:
#      x y z
#    x 3.555940 0.000000 0.089960 
#    y 0.000000 3.576740 0.000000 
#    z 0.089960 0.000000 3.786620 
# 
# 
# High freq. dielectric constant tensor:
#      x y z
#    x 1.758990 0.000000 0.009690 
#    y 0.000000 1.773250 0.000000 
#    z 0.009690 0.000000 1.782920 
# 
# From -- ./inp_files/71446.got.cif
#   From: 2010.06.25/outbox.cif.g09.slc.cpg/sg10_36_cif.got.tgz:71446.got - 2010.06.27 22:07:45.
