data_PCOD8063893
_publ_section_title
;
Structure prediction by ZEFSAII (Michael W. Deem and Ramdas Pophale) SiO2 
 PCOD8063893
Probable space group: P 2/M
;
_chemical_formula_sum "Si O2"
_cell_formula_units_Z 32
_cell_length_a 27.423457
_cell_length_b 9.223310
_cell_length_c 10.864453
_cell_angle_alpha 90.000000
_cell_angle_beta 35.817432
_cell_angle_gamma 90.000000
_cell_volume 1608.142253
_symmetry_space_group_name_H-M "P 2/M"
_symmetry_group_IT_number 10
_symmetry_cell_setting 'monoclinic'
loop_
_space_group_symop_operation_xyz
x,y,z
-x,y,-z
-x,-y,-z
x,-y,z
loop_
_atom_site_type_symbol
_atom_site_label
_atom_site_fract_x
_atom_site_fract_y
_atom_site_fract_z
Si Si1 0.371973 0.835978 0.702194
Si Si2 0.784242 0.834245 0.130451
Si Si3 0.534915 0.829378 0.723344
Si Si4 0.675792 0.663666 0.542625
Si Si5 0.359080 0.829333 0.996460
Si Si6 0.032365 0.827945 0.301843
Si Si7 0.941967 0.170529 0.235451
Si Si8 0.772628 0.335895 0.592571
O O1 0.274219 0.824992 0.869556
O O2 0.428346 0.764482 0.480358
O O3 0.386065 0.767124 0.807420
O O4 0.403058 0.000000 0.646688
O O5 0.745871 0.741369 0.318359
O O6 0.792217 0.000000 0.161196
O O7 0.873881 0.770525 0.909709
O O8 0.586219 0.746092 0.724250
O O9 0.436111 0.798516 0.931828
O O10 0.554373 0.000000 0.697497
O O11 0.663602 0.500000 0.519946
O O12 0.707782 0.666673 0.614758
O O13 0.338666 0.000000 0.032581
O O14 0.274534 0.747296 0.202237
O O15 0.000000 0.764772 0.500000
O O16 0.979446 0.777067 0.290535
O O17 0.031428 0.000000 0.311041
O O18 0.856877 0.254557 0.385497
O O19 0.923883 0.000000 0.275674
O O20 0.000000 0.209566 0.000000
O O21 0.793546 0.500000 0.589674
#
# Coordination Sequence:
#
# PCOD8063893 Si02
#       8
#     4   4   4   4   4   4   4   4
#     4   8  15  29  54  84 111 140 175 218 271 328
#     4   9  17  32  57  84 108 137 176 224 274 327
#     4   9  18  34  57  84 110 139 180 229 278 329
#     4  10  21  37  55  75 104 145 189 227 269 325
#     4  10  20  34  56  84 112 143 181 227 276 327
#     4   9  18  31  54  87 116 140 174 227 286 336
#     4  10  21  38  62  88 111 142 190 240 281 333
#     4  11  25  40  54  77 111 151 188 226 275 330
#
# _framework density 19.898737000000001
#
# number of rings (size 3 to 8) (size 9 to 14) (size 15 to 20)
#    0.000    2.500    0.000    2.625    1.750    5.750 
#    0.000    5.625    0.000    4.500    0.000    0.000 
#    0.000    0.000    0.000    0.000    0.000    0.000 
#
# Total GULP energy -396642.851965 kJ/mol
# GULP energy per Si atom -12395.089124 kJ/mol
# Density = 1.985345 g / cm^3
# Si number density = 19.898737 Si / 1000 Ang^3
#
#
#
# Elastic Constant Matrix: (Units=GPa)
#
#
# Indices 1 2 3 4 5 6 
#
# 1 77.1261 25.4257 19.3325 0.0000 0.9402 0.0000
# 2 25.4257 65.5540 31.4738 0.0000 -8.2823 0.0000
# 3 19.3325 31.4738 75.3882 0.0000 -12.3927 0.0000
# 4 0.0000 0.0000 0.0000 9.0187 0.0000 -6.8348
# 5 0.9402 -8.2823 -12.3927 0.0000 31.8317 0.0000
# 6 0.0000 0.0000 0.0000 -6.8348 0.0000 8.5305
#
#
#
# Elastic Compliance Matrix: (Units=1/GPa)
#
#
# Indices 1 2 3 4 5 6 
#
# 1 0.015261 -0.005210 -0.002174 0.000000 -0.002653 0.000000
# 2 -0.005210 0.020977 -0.006943 0.000000 0.002909 0.000000
# 3 -0.002174 -0.006943 0.017558 0.000000 0.005093 0.000000
# 4 0.000000 0.000000 0.000000 0.282281 0.000000 0.226167
# 5 -0.002653 0.002909 0.005093 0.000000 0.034233 0.000000
# 6 0.000000 0.000000 0.000000 0.226167 0.000000 0.298433
#
#
# Mechanical properties :
#
#
# Convention : Reuss Voigt Hill
#
# Bulk Modulus (GPa) = 39.77738 41.17025 40.47381
# Shear Modulus (GPa) = 7.08437 19.33192 13.20815
#
# Velocity S-wave (km/s) = 1.88890 3.12030 2.57916
# Velocity P-wave (km/s) = 4.97901 5.80659 5.40865
#
# Compressibility (1/GPa) = 0.02513992
#
# Stress axis : x y z
#
# Youngs Moduli (GPa) = 65.52741 47.67235 56.95320
#
# Poissons Ratio (x) = 0.24839 0.12384
# Poissons Ratio (y) = 0.34142 0.39544
# Poissons Ratio (z) = 0.14248 0.33100
#
# Static dielectric constant tensor:
#      x y z
#    x 3.762970 0.000000 -0.007880 
#    y 0.000000 3.342030 0.000000 
#    z -0.007880 0.000000 3.677920 
# 
# 
# High freq. dielectric constant tensor:
#      x y z
#    x 1.783430 0.000000 -0.005130 
#    y 0.000000 1.733640 0.000000 
#    z -0.005130 0.000000 1.780810 
# 
# From -- ./inp_files/58144.got.cif
#   From: 2010.06.25/outbox.cif.g09.slc.cpg/sg10_30_cif.got.tgz:58144.got - 2010.06.27 22:07:45.
