data_PCOD8063455
_publ_section_title
;
Structure prediction by ZEFSAII (Michael W. Deem and Ramdas Pophale) SiO2 
 PCOD8063455
Probable space group: P 2/M
;
_chemical_formula_sum "Si O2"
_cell_formula_units_Z 32
_cell_length_a 20.963501
_cell_length_b 9.490706
_cell_length_c 11.317512
_cell_angle_alpha 90.000000
_cell_angle_beta 127.129986
_cell_angle_gamma 90.000000
_cell_volume 1795.220092
_symmetry_space_group_name_H-M "P 2/M"
_symmetry_group_IT_number 10
_symmetry_cell_setting 'monoclinic'
loop_
_space_group_symop_operation_xyz
x,y,z
-x,y,-z
-x,-y,-z
x,-y,z
loop_
_atom_site_type_symbol
_atom_site_label
_atom_site_fract_x
_atom_site_fract_y
_atom_site_fract_z
Si Si1 0.219790 0.338554 0.148022
Si Si2 0.093171 0.165910 0.602915
Si Si3 0.911796 0.838563 0.886019
Si Si4 0.691486 0.335165 0.523192
Si Si5 0.452107 0.333971 0.781929
Si Si6 0.778419 0.664573 0.119573
Si Si7 0.175879 0.838716 0.450787
Si Si8 0.383289 0.332665 0.950370
O O1 0.196544 0.500000 0.143764
O O2 0.142172 0.247121 0.084408
O O3 0.289449 0.293995 0.319594
O O4 0.247021 0.312002 0.045078
O O5 0.141497 0.249568 0.758333
O O6 0.132491 0.208905 0.522141
O O7 0.000000 0.211786 0.500000
O O8 0.100524 0.000000 0.636390
O O9 0.888520 0.817735 0.724277
O O10 0.906435 0.000000 0.920075
O O11 0.000000 0.777806 0.000000
O O12 0.704362 0.500000 0.514350
O O13 0.599042 0.292028 0.391806
O O14 0.747781 0.257161 0.491688
O O15 0.458000 0.500000 0.803363
O O16 0.403585 0.277776 0.842032
O O17 0.543748 0.277495 0.882471
O O18 0.794519 0.500000 0.163656
O O19 0.702750 0.728285 0.106934
O O20 0.204900 0.000000 0.490639
O O21 0.376569 0.500000 0.951435
#
# Coordination Sequence:
#
# PCOD8063455 Si02
#       8
#     4   4   4   4   4   4   4   4
#     4   9  19  32  45  68  99 128 157 196 241 281
#     4  10  22  36  51  70  94 124 157 198 243 285
#     4   9  18  31  51  71  87 116 159 200 235 281
#     4   9  16  29  49  71  95 126 161 195 235 281
#     4   8  13  23  44  71  95 121 159 201 235 275
#     4  10  20  34  50  69  99 132 161 195 238 288
#     4   9  18  32  47  69  95 117 151 197 242 283
#     4   8  14  25  43  70  98 124 157 197 238 277
#
# _framework density 17.825113000000002
#
# number of rings (size 3 to 8) (size 9 to 14) (size 15 to 20)
#    0.000    3.000    0.000    1.500    1.750    2.500 
#    0.000    0.625    0.000    4.500    0.000    3.500 
#    0.000    5.000    0.000    0.000    0.000    0.000 
#
# Total GULP energy -396584.738984 kJ/mol
# GULP energy per Si atom -12393.273093 kJ/mol
# Density = 1.778454 g / cm^3
# Si number density = 17.825113 Si / 1000 Ang^3
#
#
#
# Elastic Constant Matrix: (Units=GPa)
#
#
# Indices 1 2 3 4 5 6 
#
# 1 70.6417 21.4210 47.6433 0.0000 9.3518 0.0000
# 2 21.4210 29.5102 29.1222 0.0000 4.0093 0.0000
# 3 47.6433 29.1222 113.3904 0.0000 22.4476 0.0000
# 4 0.0000 0.0000 0.0000 10.5964 0.0000 -10.9122
# 5 9.3518 4.0093 22.4476 0.0000 31.2713 0.0000
# 6 0.0000 0.0000 0.0000 -10.9122 0.0000 8.8276
#
#
#
# Elastic Compliance Matrix: (Units=1/GPa)
#
#
# Indices 1 2 3 4 5 6 
#
# 1 0.021377 -0.008954 -0.006579 0.000000 -0.000522 0.000000
# 2 -0.008954 0.049380 -0.009555 0.000000 0.003205 0.000000
# 3 -0.006579 -0.009555 0.015626 0.000000 -0.008024 0.000000
# 4 0.000000 0.000000 0.000000 -0.345714 0.000000 -0.427351
# 5 -0.000522 0.003205 -0.008024 0.000000 0.037484 0.000000
# 6 0.000000 0.000000 0.000000 -0.427351 0.000000 -0.414984
#
#
# Mechanical properties :
#
#
# Convention : Reuss Voigt Hill
#
# Bulk Modulus (GPa) = 27.61852 45.54615 36.58233
# Shear Modulus (GPa) = -8.70190 17.82945 4.56378
#
# Velocity S-wave (km/s) = -2.21188 3.16609 1.60183
# Velocity P-wave (km/s) = 3.00076 6.24281 4.89782
#
# Compressibility (1/GPa) = 0.03620759
#
# Stress axis : x y z
#
# Youngs Moduli (GPa) = 46.77830 20.25131 63.99638
#
# Poissons Ratio (x) = 0.18133 0.42104
# Poissons Ratio (y) = 0.41885 0.61146
# Poissons Ratio (z) = 0.30776 0.19349
#
# Static dielectric constant tensor:
#      x y z
#    x 3.294030 0.000000 0.132510 
#    y 0.000000 3.027280 0.000000 
#    z 0.132510 0.000000 3.580470 
# 
# 
# High freq. dielectric constant tensor:
#      x y z
#    x 1.673710 0.000000 0.005940 
#    y 0.000000 1.654820 0.000000 
#    z 0.005940 0.000000 1.705490 
# 
# From -- ./inp_files/55348.got.cif
#   From: 2010.06.25/outbox.cif.g09.slc.cpg/sg10_28_cif.got.tgz:55348.got - 2010.06.27 22:07:45.
