data_PCOD8063292
_publ_section_title
;
Structure prediction by ZEFSAII (Michael W. Deem and Ramdas Pophale) SiO2 
 PCOD8063292
Probable space group: P 2/M
;
_chemical_formula_sum "Si O2"
_cell_formula_units_Z 32
_cell_length_a 19.594961
_cell_length_b 9.062841
_cell_length_c 14.184089
_cell_angle_alpha 90.000000
_cell_angle_beta 46.318221
_cell_angle_gamma 90.000000
_cell_volume 1821.632287
_symmetry_space_group_name_H-M "P 2/M"
_symmetry_group_IT_number 10
_symmetry_cell_setting 'monoclinic'
loop_
_space_group_symop_operation_xyz
x,y,z
-x,y,-z
-x,-y,-z
x,-y,z
loop_
_atom_site_type_symbol
_atom_site_label
_atom_site_fract_x
_atom_site_fract_y
_atom_site_fract_z
Si Si1 0.957116 0.333399 0.233649
Si Si2 0.858577 0.326866 0.849639
Si Si3 0.893709 0.826025 0.623048
Si Si4 0.348009 0.672838 0.462408
Si Si5 0.805047 0.326363 0.246390
Si Si6 0.803404 0.665653 0.542523
Si Si7 0.521780 0.174376 0.373158
Si Si8 0.713274 0.329550 0.144479
O O1 0.983905 0.500000 0.181169
O O2 0.903855 0.259185 0.193703
O O3 0.886551 0.324682 0.388168
O O4 0.055225 0.256819 0.170670
O O5 0.876089 0.500000 0.814354
O O6 0.852817 0.244977 0.756429
O O7 0.760974 0.299800 0.998127
O O8 0.823143 0.779866 0.607054
O O9 0.000000 0.769355 0.500000
O O10 0.892152 0.000000 0.636015
O O11 0.369033 0.500000 0.453565
O O12 0.284234 0.734201 0.609552
O O13 0.295694 0.705928 0.413273
O O14 0.446113 0.759917 0.372270
O O15 0.810053 0.500000 0.262806
O O16 0.791277 0.289047 0.149999
O O17 0.798679 0.500000 0.588756
O O18 0.500000 0.230903 0.500000
O O19 0.623449 0.227105 0.241614
O O20 0.518344 0.000000 0.371093
O O21 0.682709 0.500000 0.185199
#
# Coordination Sequence:
#
# PCOD8063292 Si02
#       8
#     4   4   4   4   4   4   4   4
#     4   8  14  26  46  74 105 134 166 206 253 301
#     4  10  20  33  52  77 104 138 177 217 261 305
#     4  11  22  34  51  76 105 141 178 213 256 304
#     4   9  17  31  54  80 103 131 169 216 265 305
#     4   8  14  26  46  74 105 134 166 206 253 301
#     4   9  17  31  54  80 103 131 169 216 265 305
#     4  11  22  34  51  76 105 141 178 213 256 304
#     4  10  20  33  52  77 104 138 177 217 261 305
#
# _framework density 17.566662000000001
#
# number of rings (size 3 to 8) (size 9 to 14) (size 15 to 20)
#    0.000    2.500    2.500    2.250    0.000    2.500 
#    0.000    2.500    0.000    1.500    0.000    7.000 
#    0.000    0.000    0.000    0.000    0.000    0.000 
#
# Total GULP energy -396653.150243 kJ/mol
# GULP energy per Si atom -12395.410945 kJ/mol
# Density = 1.752668 g / cm^3
# Si number density = 17.566662 Si / 1000 Ang^3
#
#
#
# Elastic Constant Matrix: (Units=GPa)
#
#
# Indices 1 2 3 4 5 6 
#
# 1 107.8704 40.5982 45.0247 0.0000 -1.7191 0.0000
# 2 40.5982 50.1416 32.4466 0.0000 0.7320 0.0000
# 3 45.0247 32.4466 71.2108 0.0000 4.1947 0.0000
# 4 0.0000 0.0000 0.0000 18.8346 0.0000 -1.0286
# 5 -1.7191 0.7320 4.1947 0.0000 25.1874 0.0000
# 6 0.0000 0.0000 0.0000 -1.0286 0.0000 15.5459
#
#
#
# Elastic Compliance Matrix: (Units=1/GPa)
#
#
# Indices 1 2 3 4 5 6 
#
# 1 0.014827 -0.008348 -0.005701 0.000000 0.002204 0.000000
# 2 -0.008348 0.033028 -0.009776 0.000000 0.000098 0.000000
# 3 -0.005701 -0.009776 0.022327 0.000000 -0.003823 0.000000
# 4 0.000000 0.000000 0.000000 0.053286 0.000000 0.003526
# 5 0.002204 0.000098 -0.003823 0.000000 0.040487 0.000000
# 6 0.000000 0.000000 0.000000 0.003526 0.000000 0.064559
#
#
# Mechanical properties :
#
#
# Convention : Reuss Voigt Hill
#
# Bulk Modulus (GPa) = 44.38299 51.70687 48.04493
# Shear Modulus (GPa) = 17.62589 19.32380 18.47484
#
# Velocity S-wave (km/s) = 3.17104 3.32026 3.24651
# Velocity P-wave (km/s) = 6.22315 6.64811 6.43914
#
# Compressibility (1/GPa) = 0.02253116
#
# Stress axis : x y z
#
# Youngs Moduli (GPa) = 67.44507 30.27775 44.78907
#
# Poissons Ratio (x) = 0.25276 0.25533
# Poissons Ratio (y) = 0.56304 0.43787
# Poissons Ratio (z) = 0.38448 0.29600
#
# Static dielectric constant tensor:
#      x y z
#    x 3.439040 0.000000 -0.037080 
#    y 0.000000 2.925540 0.000000 
#    z -0.037080 0.000000 3.001230 
# 
# 
# High freq. dielectric constant tensor:
#      x y z
#    x 1.688970 0.000000 -0.002910 
#    y 0.000000 1.644340 0.000000 
#    z -0.002910 0.000000 1.653840 
# 
# From -- ./inp_files/66069.got.cif
#   From: 2010.06.25/outbox.cif.g09.slc.cpg/sg10_34_cif.got.tgz:66069.got - 2010.06.27 22:07:45.
