data_PCOD8063137
_publ_section_title
;
Structure prediction by ZEFSAII (Michael W. Deem and Ramdas Pophale) SiO2 
 PCOD8063137
Probable space group: P 2/M
;
_chemical_formula_sum "Si O2"
_cell_formula_units_Z 28
_cell_length_a 18.627322
_cell_length_b 8.956521
_cell_length_c 14.830650
_cell_angle_alpha 90.000000
_cell_angle_beta 141.926781
_cell_angle_gamma 90.000000
_cell_volume 1525.813158
_symmetry_space_group_name_H-M "P 2/M"
_symmetry_group_IT_number 10
_symmetry_cell_setting 'monoclinic'
loop_
_space_group_symop_operation_xyz
x,y,z
-x,y,-z
-x,-y,-z
x,-y,z
loop_
_atom_site_type_symbol
_atom_site_label
_atom_site_fract_x
_atom_site_fract_y
_atom_site_fract_z
Si Si1 0.584130 0.823030 0.274382
Si Si2 0.659553 0.324606 0.987880
Si Si3 0.722813 0.325844 0.253393
Si Si4 0.061165 0.335255 0.428537
Si Si5 0.766047 0.666635 0.567878
Si Si6 0.954374 0.174126 0.858687
Si Si7 0.880023 0.827166 0.143039
O O1 0.454249 0.762820 0.154449
O O2 0.640061 0.769195 0.236133
O O3 0.653336 0.763236 0.430203
O O4 0.584764 0.000000 0.276921
O O5 0.639418 0.500000 0.956518
O O6 0.692502 0.280785 0.122323
O O7 0.763320 0.270360 0.025800
O O8 0.697789 0.500000 0.248410
O O9 0.860835 0.290779 0.406936
O O10 0.004514 0.500000 0.385439
O O11 0.151165 0.338756 0.436004
O O12 0.959558 0.217506 0.307971
O O13 0.727198 0.500000 0.557446
O O14 0.834317 0.741059 0.718592
O O15 0.052974 0.210595 0.882700
O O16 0.924949 0.000000 0.830959
O O17 0.000000 0.230931 0.000000
O O18 0.848107 0.000000 0.120202
#
# Coordination Sequence:
#
# PCOD8063137 Si02
#       7
#     4   4   4   4   4   4   4
#     4  11  21  33  51  74 101 133 172 215 254 292
#     4  11  22  35  50  68  98 139 176 211 252 297
#     4   9  19  34  51  71  96 132 177 217 252 293
#     4   8  15  30  49  68  94 129 167 205 246 294
#     4   9  17  31  52  77 103 132 167 204 245 295
#     4   9  18  34  57  83 108 132 159 198 251 306
#     4  10  20  33  49  73 103 132 165 204 250 303
#
# _framework density 18.35087
#
# number of rings (size 3 to 8) (size 9 to 14) (size 15 to 20)
#    0.000    2.429    0.000    3.857    0.000    7.714 
#    0.000    2.857    0.000    0.857    0.000    6.000 
#    0.000    0.000    0.000    0.000    0.000    0.000 
#
# Total GULP energy -347207.688588 kJ/mol
# GULP energy per Si atom -12400.274592 kJ/mol
# Density = 1.830910 g / cm^3
# Si number density = 18.350870 Si / 1000 Ang^3
#
#
#
# Elastic Constant Matrix: (Units=GPa)
#
#
# Indices 1 2 3 4 5 6 
#
# 1 46.2772 38.8286 50.2499 0.0000 3.6592 0.0000
# 2 38.8286 108.4673 69.6625 0.0000 6.9941 0.0000
# 3 50.2499 69.6625 141.5382 0.0000 -7.7142 0.0000
# 4 0.0000 0.0000 0.0000 35.1105 0.0000 6.0901
# 5 3.6592 6.9941 -7.7142 0.0000 22.2968 0.0000
# 6 0.0000 0.0000 0.0000 6.0901 0.0000 23.0835
#
#
#
# Elastic Compliance Matrix: (Units=1/GPa)
#
#
# Indices 1 2 3 4 5 6 
#
# 1 0.040278 -0.006400 -0.011620 0.000000 -0.008623 0.000000
# 2 -0.006400 0.015539 -0.005692 0.000000 -0.005793 0.000000
# 3 -0.011620 -0.005692 0.014466 0.000000 0.008697 0.000000
# 4 0.000000 0.000000 0.000000 0.029847 0.000000 -0.007875
# 5 -0.008623 -0.005793 0.008697 0.000000 0.051091 0.000000
# 6 0.000000 0.000000 0.000000 -0.007875 0.000000 0.045399
#
#
# Mechanical properties :
#
#
# Convention : Reuss Voigt Hill
#
# Bulk Modulus (GPa) = 43.74379 68.19607 55.96993
# Shear Modulus (GPa) = 19.86784 25.26762 22.56773
#
# Velocity S-wave (km/s) = 3.29396 3.71471 3.51064
# Velocity P-wave (km/s) = 6.19323 7.45934 6.85557
#
# Compressibility (1/GPa) = 0.02286039
#
# Stress axis : x y z
#
# Youngs Moduli (GPa) = 24.82768 64.35227 69.12715
#
# Poissons Ratio (x) = 0.41183 0.80325
# Poissons Ratio (y) = 0.15889 0.39347
# Poissons Ratio (z) = 0.28849 0.36629
#
# Static dielectric constant tensor:
#      x y z
#    x 3.065560 0.000000 0.035600 
#    y 0.000000 3.440330 0.000000 
#    z 0.035600 0.000000 3.648320 
# 
# 
# High freq. dielectric constant tensor:
#      x y z
#    x 1.673460 0.000000 0.009860 
#    y 0.000000 1.715650 0.000000 
#    z 0.009860 0.000000 1.718970 
# 
# From -- ./inp_files/48797.got.cif
#   From: 2010.06.25/outbox.cif.g09.slc.cpg/sg10_25_cif.got.tgz:48797.got - 2010.06.27 22:07:45.
