data_PCOD8063144
_publ_section_title
;
Structure prediction by ZEFSAII (Michael W. Deem and Ramdas Pophale) SiO2 
 PCOD8063144
Probable space group: P 2/M
;
_chemical_formula_sum "Si O2"
_cell_formula_units_Z 32
_cell_length_a 15.379224
_cell_length_b 8.958176
_cell_length_c 25.490576
_cell_angle_alpha 90.000000
_cell_angle_beta 149.745475
_cell_angle_gamma 90.000000
_cell_volume 1769.408871
_symmetry_space_group_name_H-M "P 2/M"
_symmetry_group_IT_number 10
_symmetry_cell_setting 'monoclinic'
loop_
_space_group_symop_operation_xyz
x,y,z
-x,y,-z
-x,-y,-z
x,-y,z
loop_
_atom_site_type_symbol
_atom_site_label
_atom_site_fract_x
_atom_site_fract_y
_atom_site_fract_z
Si Si1 0.065172 0.671681 0.951017
Si Si2 0.725214 0.671487 0.837709
Si Si3 0.886302 0.329249 0.225883
Si Si4 0.553056 0.673609 0.119959
Si Si5 0.241419 0.826087 0.685476
Si Si6 0.194916 0.824802 0.917398
Si Si7 0.629024 0.172689 0.362568
Si Si8 0.923561 0.324997 0.571167
O O1 0.090753 0.500000 0.947555
O O2 0.092563 0.778011 0.915935
O O3 0.873224 0.698345 0.872014
O O4 0.203743 0.714263 0.067867
O O5 0.664514 0.500000 0.805459
O O6 0.568407 0.777395 0.741011
O O7 0.903204 0.500000 0.216292
O O8 0.697931 0.299262 0.151872
O O9 0.915847 0.223203 0.191274
O O10 0.030507 0.289918 0.344424
O O11 0.524983 0.500000 0.116761
O O12 0.606382 0.749890 0.202194
O O13 0.377531 0.743326 0.007754
O O14 0.280593 0.795420 0.645540
O O15 0.056025 0.756890 0.601468
O O16 0.237405 0.000000 0.697056
O O17 0.224099 0.000000 0.933006
O O18 0.731581 0.265535 0.460208
O O19 0.635967 0.000000 0.381329
O O20 0.938219 0.500000 0.567592
#
# Coordination Sequence:
#
# PCOD8063144 Si02
#       8
#     4   4   4   4   4   4   4   4
#     4   9  19  37  58  79 105 135 168 209 253 301
#     4   9  19  36  58  81 103 133 172 209 250 302
#     4   9  20  37  53  71  98 135 177 218 257 296
#     4  10  20  34  52  74 103 140 178 214 252 298
#     4  10  20  33  49  75 110 141 171 209 256 307
#     4  12  23  32  50  79 106 136 171 208 257 311
#     4  11  22  33  50  77 108 140 170 208 259 308
#     4  10  21  36  54  74  99 137 181 219 254 296
#
# _framework density 18.085134
#
# number of rings (size 3 to 8) (size 9 to 14) (size 15 to 20)
#    0.000    2.000    0.000    5.625    0.000   11.000 
#    0.000    1.250    0.000    0.750    0.000    5.250 
#    0.000    0.000    0.000    0.000    0.000    0.000 
#
# Total GULP energy -396927.839840 kJ/mol
# GULP energy per Si atom -12403.994995 kJ/mol
# Density = 1.804397 g / cm^3
# Si number density = 18.085134 Si / 1000 Ang^3
#
#
#
# Elastic Constant Matrix: (Units=GPa)
#
#
# Indices 1 2 3 4 5 6 
#
# 1 74.1105 49.9214 46.0496 0.0000 -12.2712 0.0000
# 2 49.9214 103.7032 55.8924 0.0000 -11.8042 0.0000
# 3 46.0496 55.8924 111.4914 0.0000 -5.8493 0.0000
# 4 0.0000 0.0000 0.0000 27.3818 0.0000 -1.6347
# 5 -12.2712 -11.8042 -5.8493 0.0000 20.9580 0.0000
# 6 0.0000 0.0000 0.0000 -1.6347 0.0000 23.1814
#
#
#
# Elastic Compliance Matrix: (Units=1/GPa)
#
#
# Indices 1 2 3 4 5 6 
#
# 1 0.023106 -0.007266 -0.005486 0.000000 0.007905 0.000000
# 2 -0.007266 0.016199 -0.004936 0.000000 0.003491 0.000000
# 3 -0.005486 -0.004936 0.013595 0.000000 -0.002198 0.000000
# 4 0.000000 0.000000 0.000000 0.036675 0.000000 0.002586
# 5 0.007905 0.003491 -0.002198 0.000000 0.053696 0.000000
# 6 0.000000 0.000000 0.000000 0.002586 0.000000 0.043320
#
#
# Mechanical properties :
#
#
# Convention : Reuss Voigt Hill
#
# Bulk Modulus (GPa) = 57.07161 65.89241 61.48201
# Shear Modulus (GPa) = 21.94832 23.46701 22.70766
#
# Velocity S-wave (km/s) = 3.48747 3.60611 3.54729
# Velocity P-wave (km/s) = 6.91681 7.33842 7.13073
#
# Compressibility (1/GPa) = 0.01752185
#
# Stress axis : x y z
#
# Youngs Moduli (GPa) = 43.27943 61.73346 73.55909
#
# Poissons Ratio (x) = 0.44857 0.40355
# Poissons Ratio (y) = 0.31448 0.36311
# Poissons Ratio (z) = 0.23743 0.30473
#
# Static dielectric constant tensor:
#      x y z
#    x 3.149250 0.000000 -0.103170 
#    y 0.000000 3.386950 0.000000 
#    z -0.103170 0.000000 3.380280 
# 
# 
# High freq. dielectric constant tensor:
#      x y z
#    x 1.681560 0.000000 -0.009280 
#    y 0.000000 1.707530 0.000000 
#    z -0.009280 0.000000 1.700290 
# 
# From -- ./inp_files/66605.got.cif
#   From: 2010.06.25/outbox.cif.g09.slc.cpg/sg10_34_cif.got.tgz:66605.got - 2010.06.27 22:07:45.
