data_PCOD8063887
_publ_section_title
;
Structure prediction by ZEFSAII (Michael W. Deem and Ramdas Pophale) SiO2 
 PCOD8063887
Probable space group: P 2/M
;
_chemical_formula_sum "Si O2"
_cell_formula_units_Z 28
_cell_length_a 12.496672
_cell_length_b 8.951313
_cell_length_c 15.578758
_cell_angle_alpha 90.000000
_cell_angle_beta 55.863219
_cell_angle_gamma 90.000000
_cell_volume 1442.404399
_symmetry_space_group_name_H-M "P 2/M"
_symmetry_group_IT_number 10
_symmetry_cell_setting 'monoclinic'
loop_
_space_group_symop_operation_xyz
x,y,z
-x,y,-z
-x,-y,-z
x,-y,z
loop_
_atom_site_type_symbol
_atom_site_label
_atom_site_fract_x
_atom_site_fract_y
_atom_site_fract_z
Si Si1 0.522206 0.826536 0.724528
Si Si2 0.007983 0.672136 0.356852
Si Si3 0.415884 0.826669 0.957140
Si Si4 0.210704 0.328143 0.408399
Si Si5 0.049798 0.823759 0.791134
Si Si6 0.169987 0.673607 0.011308
Si Si7 0.725166 0.674026 0.223856
O O1 0.497903 0.790958 0.835301
O O2 0.665449 0.775544 0.636423
O O3 0.419458 0.739148 0.711889
O O4 0.507074 0.000000 0.710753
O O5 0.016163 0.500000 0.324052
O O6 0.878525 0.699928 0.469157
O O7 0.008448 0.777145 0.274062
O O8 0.132452 0.715289 0.357725
O O9 0.376241 0.000000 0.979669
O O10 0.500000 0.776694 0.000000
O O11 0.286419 0.729018 0.019197
O O12 0.254555 0.500000 0.383754
O O13 0.192682 0.754572 0.738760
O O14 0.959188 0.762708 0.907893
O O15 0.058442 0.000000 0.793438
O O16 0.144574 0.500000 0.039437
O O17 0.204914 0.707570 0.897579
O O18 0.717309 0.500000 0.248257
#
# Coordination Sequence:
#
# PCOD8063887 Si02
#       7
#     4   4   4   4   4   4   4
#     4  10  20  34  56  83 114 149 183 225 280 334
#     4   9  20  39  60  84 112 145 186 231 276 329
#     4   9  19  34  50  76 115 150 183 224 271 327
#     4   9  19  38  62  84 111 146 185 229 278 331
#     4  12  24  36  56  84 115 147 184 232 285 332
#     4  10  21  36  55  80 109 148 192 230 271 325
#     4  10  21  39  59  80 110 149 193 233 272 327
#
# _framework density 19.412033000000001
#
# number of rings (size 3 to 8) (size 9 to 14) (size 15 to 20)
#    0.000    2.143    0.000    3.857    2.000    5.429 
#    0.000    2.143    0.000    4.286    0.000    0.000 
#    0.000    0.000    0.000    0.000    0.000    0.000 
#
# Total GULP energy -347327.527578 kJ/mol
# GULP energy per Si atom -12404.554556 kJ/mol
# Density = 1.936785 g / cm^3
# Si number density = 19.412033 Si / 1000 Ang^3
#
#
#
# Elastic Constant Matrix: (Units=GPa)
#
#
# Indices 1 2 3 4 5 6 
#
# 1 103.7130 49.9076 24.3567 0.0000 -15.2628 0.0000
# 2 49.9076 106.7375 26.3559 0.0000 -9.5703 0.0000
# 3 24.3567 26.3559 38.9036 0.0000 -11.5353 0.0000
# 4 0.0000 0.0000 0.0000 21.1211 0.0000 -2.8997
# 5 -15.2628 -9.5703 -11.5353 0.0000 28.6393 0.0000
# 6 0.0000 0.0000 0.0000 -2.8997 0.0000 37.7118
#
#
#
# Elastic Compliance Matrix: (Units=1/GPa)
#
#
# Indices 1 2 3 4 5 6 
#
# 1 0.013560 -0.005018 -0.003912 0.000000 0.003974 0.000000
# 2 -0.005018 0.013123 -0.005952 0.000000 -0.000686 0.000000
# 3 -0.003912 -0.005952 0.035180 0.000000 0.010096 0.000000
# 4 0.000000 0.000000 0.000000 0.047851 0.000000 0.003679
# 5 0.003974 -0.000686 0.010096 0.000000 0.040872 0.000000
# 6 0.000000 0.000000 0.000000 0.003679 0.000000 0.026800
#
#
# Mechanical properties :
#
#
# Convention : Reuss Voigt Hill
#
# Bulk Modulus (GPa) = 31.15397 50.06607 40.61002
# Shear Modulus (GPa) = 22.95148 27.41001 25.18075
#
# Velocity S-wave (km/s) = 3.44224 3.76175 3.60553
# Velocity P-wave (km/s) = 5.64644 6.68692 6.18859
#
# Compressibility (1/GPa) = 0.03209864
#
# Stress axis : x y z
#
# Youngs Moduli (GPa) = 73.74446 76.19977 28.42547
#
# Poissons Ratio (x) = 0.38239 0.11119
# Poissons Ratio (y) = 0.37007 0.16920
# Poissons Ratio (z) = 0.28847 0.45357
#
# Static dielectric constant tensor:
#      x y z
#    x 3.630170 0.000000 -0.031560 
#    y 0.000000 3.471980 0.000000 
#    z -0.031560 0.000000 3.321800 
# 
# 
# High freq. dielectric constant tensor:
#      x y z
#    x 1.767000 0.000000 -0.004190 
#    y 0.000000 1.757510 0.000000 
#    z -0.004190 0.000000 1.736310 
# 
# From -- ./inp_files/49482.got.cif
#   From: 2010.06.25/outbox.cif.g09.slc.cpg/sg10_25_cif.got.tgz:49482.got - 2010.06.27 22:07:45.
