data_PCOD8063060
_publ_section_title
;
Structure prediction by ZEFSAII (Michael W. Deem and Ramdas Pophale) SiO2 
 PCOD8063060
Probable space group: P 2/M
;
_chemical_formula_sum "Si O2"
_cell_formula_units_Z 30
_cell_length_a 14.710120
_cell_length_b 16.969391
_cell_length_c 5.210186
_cell_angle_alpha 90.000000
_cell_angle_beta 81.180166
_cell_angle_gamma 90.000000
_cell_volume 1285.197055
_symmetry_space_group_name_H-M "P 2/M"
_symmetry_group_IT_number 10
_symmetry_cell_setting 'monoclinic'
loop_
_space_group_symop_operation_xyz
x,y,z
-x,y,-z
-x,-y,-z
x,-y,z
loop_
_atom_site_type_symbol
_atom_site_label
_atom_site_fract_x
_atom_site_fract_y
_atom_site_fract_z
Si Si1 0.573657 0.781167 0.268887
Si Si2 0.042311 0.691613 0.733416
Si Si3 0.240185 0.088020 0.633547
Si Si4 0.645790 0.911077 0.907257
Si Si5 0.039910 0.867467 0.731291
Si Si6 0.500000 0.359682 0.000000
Si Si7 0.257044 0.681117 0.713629
Si Si8 0.692741 0.411609 0.806112
O O1 0.500000 0.818675 0.500000
O O2 0.574940 0.843118 0.030177
O O3 0.679001 0.761478 0.324950
O O4 0.533860 0.696276 0.214293
O O5 0.998607 0.779215 0.751274
O O6 0.151887 0.698963 0.694482
O O7 0.000000 0.647879 0.500000
O O8 0.000000 0.646711 0.000000
O O9 0.277808 0.088659 0.904696
O O10 0.149569 0.140308 0.670107
O O11 0.210736 0.000000 0.566497
O O12 0.314831 0.115946 0.387063
O O13 0.602383 0.000000 0.907206
O O14 0.000000 0.912663 0.500000
O O15 0.000000 0.912080 0.000000
O O16 0.417372 0.415197 0.122434
O O17 0.288916 0.619744 0.486010
O O18 0.262645 0.643780 0.995789
O O19 0.732201 0.500000 0.815363
#
# Coordination Sequence:
#
# PCOD8063060 Si02
#       8
#     4   4   4   4   4   2   4   4
#     4  11  23  40  63  93 132 161 215 267 313 379
#     4  10  21  38  61  90 123 159 208 262 309 365
#     4  10  21  38  55  78 113 157 209 256 311 381
#     4  10  23  39  59  82 116 168 213 255 308 361
#     4  10  20  32  53  84 114 148 195 256 326 377
#     4  10  23  40  61  98 128 168 206 254 315 376
#     4  11  23  40  66  95 126 170 208 254 315 368
#     4  11  23  41  65  94 132 166 204 250 308 381
#
# _framework density 23.342721999999998
#
# number of rings (size 3 to 8) (size 9 to 14) (size 15 to 20)
#    0.000    1.600    1.333    3.000    1.867    5.067 
#    0.000    2.333    0.000    8.000    0.000    0.000 
#    0.000    0.000    0.000    0.000    0.000    0.000 
#
# Total GULP energy -371798.584735 kJ/mol
# GULP energy per Si atom -12393.286158 kJ/mol
# Density = 2.328959 g / cm^3
# Si number density = 23.342722 Si / 1000 Ang^3
#
#
#
# Elastic Constant Matrix: (Units=GPa)
#
#
# Indices 1 2 3 4 5 6 
#
# 1 124.0838 -7.9270 26.9674 0.0000 -5.4506 0.0000
# 2 -7.9270 73.0141 8.6304 0.0000 -6.7808 0.0000
# 3 26.9674 8.6304 123.0305 0.0000 -4.4865 0.0000
# 4 0.0000 0.0000 0.0000 46.3827 0.0000 3.9241
# 5 -5.4506 -6.7808 -4.4865 0.0000 39.5792 0.0000
# 6 0.0000 0.0000 0.0000 3.9241 0.0000 11.3164
#
#
#
# Elastic Compliance Matrix: (Units=1/GPa)
#
#
# Indices 1 2 3 4 5 6 
#
# 1 0.008613 0.001274 -0.001934 0.000000 0.001185 0.000000
# 2 0.001274 0.014204 -0.001185 0.000000 0.002475 0.000000
# 3 -0.001934 -0.001185 0.008654 0.000000 0.000512 0.000000
# 4 0.000000 0.000000 0.000000 0.022211 0.000000 -0.007702
# 5 0.001185 0.002475 0.000512 0.000000 0.025911 0.000000
# 6 0.000000 0.000000 0.000000 -0.007702 0.000000 0.091038
#
#
# Mechanical properties :
#
#
# Convention : Reuss Voigt Hill
#
# Bulk Modulus (GPa) = 35.99768 41.71887 38.85827
# Shear Modulus (GPa) = 27.23575 38.95283 33.09429
#
# Velocity S-wave (km/s) = 3.41952 4.08945 3.76940
# Velocity P-wave (km/s) = 5.57186 6.34108 5.96887
#
# Compressibility (1/GPa) = 0.02777957
#
# Stress axis : x y z
#
# Youngs Moduli (GPa) = 116.10599 70.40172 115.55629
#
# Poissons Ratio (x) = -0.08967 0.22349
# Poissons Ratio (y) = -0.14789 0.13697
# Poissons Ratio (z) = 0.22455 0.08345
#
# Static dielectric constant tensor:
#      x y z
#    x 4.068790 0.000000 0.097280 
#    y 0.000000 3.940800 0.000000 
#    z 0.097280 0.000000 4.562790 
# 
# 
# High freq. dielectric constant tensor:
#      x y z
#    x 1.922170 0.000000 0.007030 
#    y 0.000000 1.897520 0.000000 
#    z 0.007030 0.000000 1.939540 
# 
# From -- ./inp_files/9787.got.cif
#   From: 2010.06.25/outbox.cif.g09.slc.cpg/sg10_5_cif.got.tgz:9787.got - 2010.06.27 22:07:45.
