data_PCOD8063806
_publ_section_title
;
Structure prediction by ZEFSAII (Michael W. Deem and Ramdas Pophale) SiO2 
 PCOD8063806
Probable space group: P 2/M
;
_chemical_formula_sum "Si O2"
_cell_formula_units_Z 28
_cell_length_a 10.165225
_cell_length_b 9.104594
_cell_length_c 27.745039
_cell_angle_alpha 90.000000
_cell_angle_beta 34.752819
_cell_angle_gamma 90.000000
_cell_volume 1463.747305
_symmetry_space_group_name_H-M "P 2/M"
_symmetry_group_IT_number 10
_symmetry_cell_setting 'monoclinic'
loop_
_space_group_symop_operation_xyz
x,y,z
-x,y,-z
-x,-y,-z
x,-y,z
loop_
_atom_site_type_symbol
_atom_site_label
_atom_site_fract_x
_atom_site_fract_y
_atom_site_fract_z
Si Si1 0.145689 0.826398 0.332310
Si Si2 0.144183 0.328272 0.503255
Si Si3 0.009156 0.666212 0.053989
Si Si4 0.105989 0.327992 0.242688
Si Si5 0.655607 0.330412 0.319284
Si Si6 0.507694 0.325611 0.051577
Si Si7 0.362974 0.827269 0.773960
O O1 0.144110 0.761034 0.279681
O O2 0.380040 0.779104 0.288643
O O3 0.934875 0.760917 0.426232
O O4 0.118555 0.000000 0.336977
O O5 0.106111 0.500000 0.524608
O O6 0.410819 0.287680 0.415757
O O7 0.000000 0.277013 0.500000
O O8 0.974484 0.500000 0.083733
O O9 0.808827 0.768116 0.134105
O O10 0.000000 0.670451 0.000000
O O11 0.255958 0.729825 0.995742
O O12 0.142223 0.500000 0.242533
O O13 0.290691 0.269037 0.147986
O O14 0.850447 0.295558 0.299946
O O15 0.660470 0.500000 0.302270
O O16 0.705300 0.237311 0.256941
O O17 0.497835 0.500000 0.052767
O O18 0.500000 0.259674 0.000000
O O19 0.338541 0.000000 0.778691
#
# Coordination Sequence:
#
# PCOD8063806 Si02
#       7
#     4   4   4   4   4   4   4
#     4  11  24  39  57  83 119 158 192 231 283 346
#     4  10  20  37  62  89 115 146 189 240 288 335
#     4  10  20  34  55  81 108 143 190 239 284 332
#     4  10  21  38  61  87 116 150 190 239 289 338
#     4  10  21  38  62  89 113 144 190 240 285 336
#     4   9  17  32  55  82 110 142 183 233 285 333
#     4  11  23  37  56  83 115 153 192 233 284 342
#
# _framework density 19.128983999999999
#
# number of rings (size 3 to 8) (size 9 to 14) (size 15 to 20)
#    0.000    1.857    1.429    2.571    0.000    7.429 
#    0.000    3.571    0.000    1.714    0.000    0.000 
#    0.000    0.000    0.000    0.000    0.000    0.000 
#
# Total GULP energy -347329.872219 kJ/mol
# GULP energy per Si atom -12404.638294 kJ/mol
# Density = 1.908545 g / cm^3
# Si number density = 19.128984 Si / 1000 Ang^3
#
#
#
# Elastic Constant Matrix: (Units=GPa)
#
#
# Indices 1 2 3 4 5 6 
#
# 1 81.6947 32.5935 27.6186 0.0000 9.2273 0.0000
# 2 32.5935 49.8523 38.0887 0.0000 2.7141 0.0000
# 3 27.6186 38.0887 117.1613 0.0000 7.5227 0.0000
# 4 0.0000 0.0000 0.0000 13.0346 0.0000 -4.4505
# 5 9.2273 2.7141 7.5227 0.0000 36.1262 0.0000
# 6 0.0000 0.0000 0.0000 -4.4505 0.0000 19.3963
#
#
#
# Elastic Compliance Matrix: (Units=1/GPa)
#
#
# Indices 1 2 3 4 5 6 
#
# 1 0.017003 -0.010691 -0.000309 0.000000 -0.003475 0.000000
# 2 -0.010691 0.033412 -0.008469 0.000000 0.001984 0.000000
# 3 -0.000309 -0.008469 0.011469 0.000000 -0.001673 0.000000
# 4 0.000000 0.000000 0.000000 0.083240 0.000000 0.019099
# 5 -0.003475 0.001984 -0.001673 0.000000 0.028768 0.000000
# 6 0.000000 0.000000 0.000000 0.019099 0.000000 0.055939
#
#
# Mechanical properties :
#
#
# Convention : Reuss Voigt Hill
#
# Bulk Modulus (GPa) = 43.58348 49.47887 46.53117
# Shear Modulus (GPa) = 18.08852 23.73858 20.91355
#
# Velocity S-wave (km/s) = 3.07841 3.52657 3.31008
# Velocity P-wave (km/s) = 5.95558 6.51953 6.24393
#
# Compressibility (1/GPa) = 0.02294447
#
# Stress axis : x y z
#
# Youngs Moduli (GPa) = 58.81235 29.92946 87.19220
#
# Poissons Ratio (x) = 0.31998 0.02698
# Poissons Ratio (y) = 0.62877 0.73845
# Poissons Ratio (z) = 0.01820 0.25348
#
# Static dielectric constant tensor:
#      x y z
#    x 3.567390 0.000000 -0.123440 
#    y 0.000000 3.289060 0.000000 
#    z -0.123440 0.000000 3.665050 
# 
# 
# High freq. dielectric constant tensor:
#      x y z
#    x 1.753430 0.000000 -0.002160 
#    y 0.000000 1.719730 0.000000 
#    z -0.002160 0.000000 1.759240 
# 
# From -- ./inp_files/74346.got.cif
#   From: 2010.06.25/outbox.cif.g09.slc.cpg/sg10_38_cif.got.tgz:74346.got - 2010.06.27 22:07:45.
