data_PCOD8063088
_publ_section_title
;
Structure prediction by ZEFSAII (Michael W. Deem and Ramdas Pophale) SiO2 
 PCOD8063088
Probable space group: P 2/M
;
_chemical_formula_sum "Si O2"
_cell_formula_units_Z 32
_cell_length_a 25.494517
_cell_length_b 8.449353
_cell_length_c 24.250307
_cell_angle_alpha 90.000000
_cell_angle_beta 17.973884
_cell_angle_gamma 90.000000
_cell_volume 1611.981784
_symmetry_space_group_name_H-M "P 2/M"
_symmetry_group_IT_number 10
_symmetry_cell_setting 'monoclinic'
loop_
_space_group_symop_operation_xyz
x,y,z
-x,y,-z
-x,-y,-z
x,-y,z
loop_
_atom_site_type_symbol
_atom_site_label
_atom_site_fract_x
_atom_site_fract_y
_atom_site_fract_z
Si Si1 0.191701 0.311552 0.808299
Si Si2 0.687380 0.811850 0.929431
Si Si3 0.312619 0.811850 0.304193
Si Si4 0.000001 0.188097 0.311376
Si Si5 1.000000 0.688096 0.188622
Si Si6 0.312620 0.311849 0.570568
Si Si7 0.687381 0.311849 0.195808
Si Si8 0.808298 0.811551 0.691702
O O1 0.194429 0.500000 0.805571
O O2 0.283866 0.246641 0.661295
O O3 0.283866 0.246641 0.770973
O O4 0.000000 0.248176 0.000000
O O5 0.716134 0.746640 0.838705
O O6 0.831936 0.745115 0.825875
O O7 0.699433 0.000000 0.916412
O O8 0.499999 0.756386 0.136969
O O9 0.168063 0.745114 0.489747
O O10 0.283865 0.746640 0.270974
O O11 0.300566 0.000000 0.315279
O O12 0.000000 0.250010 0.250000
O O13 1.000000 0.000000 0.311630
O O14 0.000000 0.500000 0.188361
O O15 0.831935 0.754889 0.325875
O O16 0.168064 0.754889 0.989746
O O17 0.300569 0.500000 0.583585
O O18 0.500001 0.256384 0.363032
O O19 0.699432 0.500000 0.184723
O O20 0.000000 0.748178 0.500000
O O21 0.805568 0.000000 0.694432
#
# Coordination Sequence:
#
# PCOD8063088 Si02
#       8
#     4   4   4   4   4   4   4   4
#     4   9  13  21  39  64  93 118 140 176 230 280
#     4   9  16  26  42  65  92 119 146 182 229 274
#     4   9  16  26  42  65  92 119 146 182 229 274
#     4  10  20  33  47  65  91 122 157 190 220 260
#     4  10  20  33  47  65  91 122 157 190 220 260
#     4   9  16  26  42  65  92 119 146 182 229 274
#     4   9  16  26  42  65  92 119 146 182 229 274
#     4   9  13  21  39  64  93 118 140 176 230 280
#
# _framework density 19.85134
#
# number of rings (size 3 to 8) (size 9 to 14) (size 15 to 20)
#    0.000    2.750    2.500    0.750    0.000    4.000 
#    0.000    0.000    0.000    0.000    0.000    3.500 
#    0.000    4.000    0.000    0.000    0.000    0.000 
#
# Total GULP energy -396596.857687 kJ/mol
# GULP energy per Si atom -12393.651803 kJ/mol
# Density = 1.980616 g / cm^3
# Si number density = 19.851340 Si / 1000 Ang^3
#
#
#
# Elastic Constant Matrix: (Units=GPa)
#
#
# Indices 1 2 3 4 5 6 
#
# 1 177.1704 5.5679 111.4926 0.0000 6.0391 0.0000
# 2 5.5679 3.0379 7.5843 0.0000 -0.5737 0.0000
# 3 111.4926 7.5843 208.2641 0.0000 -14.8942 0.0000
# 4 0.0000 0.0000 0.0000 5.6016 0.0000 3.7716
# 5 6.0391 -0.5737 -14.8942 0.0000 28.1916 0.0000
# 6 0.0000 0.0000 0.0000 3.7716 0.0000 18.8493
#
#
#
# Elastic Compliance Matrix: (Units=1/GPa)
#
#
# Indices 1 2 3 4 5 6 
#
# 1 0.009140 -0.005044 -0.005048 0.000000 -0.004727 0.000000
# 2 -0.005044 0.364886 -0.010371 0.000000 0.003027 0.000000
# 3 -0.005048 -0.010371 0.008256 0.000000 0.005232 0.000000
# 4 0.000000 0.000000 0.000000 0.206317 0.000000 -0.041283
# 5 -0.004727 0.003027 0.005232 0.000000 0.039310 0.000000
# 6 0.000000 0.000000 0.000000 -0.041283 0.000000 0.061313
#
#
# Mechanical properties :
#
#
# Convention : Reuss Voigt Hill
#
# Bulk Modulus (GPa) = 2.92949 70.86244 36.89596
# Shear Modulus (GPa) = 5.92464 28.11701 17.02083
#
# Velocity S-wave (km/s) = 1.72945 3.76756 2.93134
# Velocity P-wave (km/s) = 2.33814 7.39595 5.48484
#
# Compressibility (1/GPa) = 0.34135685
#
# Stress axis : x y z
#
# Youngs Moduli (GPa) = 109.40427 2.74058 121.12888
#
# Poissons Ratio (x) = 0.01382 0.61142
# Poissons Ratio (y) = 0.55182 1.25626
# Poissons Ratio (z) = 0.55224 0.02842
#
# Static dielectric constant tensor:
#      x y z
#    x 3.849430 0.000000 -0.054220 
#    y 0.000000 2.732390 0.000000 
#    z -0.054220 0.000000 4.039900 
# 
# 
# High freq. dielectric constant tensor:
#      x y z
#    x 1.776900 0.000000 -0.004980 
#    y 0.000000 1.683250 0.000000 
#    z -0.004980 0.000000 1.794380 
# 
# From -- ./inp_files/90552.got.cif
#   From: 2010.06.25/outbox.cif.g09.slc.cpg/sg10_46_cif.got.tgz:90552.got - 2010.06.27 22:07:45.
