data_PCOD8063001
_publ_section_title
;
Structure prediction by ZEFSAII (Michael W. Deem and Ramdas Pophale) SiO2 
 PCOD8063001
Probable space group: P 2/M
;
_chemical_formula_sum "Si O2"
_cell_formula_units_Z 32
_cell_length_a 16.390010
_cell_length_b 8.982552
_cell_length_c 15.542854
_cell_angle_alpha 90.000000
_cell_angle_beta 128.979336
_cell_angle_gamma 90.000000
_cell_volume 1778.849109
_symmetry_space_group_name_H-M "P 2/M"
_symmetry_group_IT_number 10
_symmetry_cell_setting 'monoclinic'
loop_
_space_group_symop_operation_xyz
x,y,z
-x,y,-z
-x,-y,-z
x,-y,z
loop_
_atom_site_type_symbol
_atom_site_label
_atom_site_fract_x
_atom_site_fract_y
_atom_site_fract_z
Si Si1 0.137969 0.175226 0.760653
Si Si2 0.878726 0.162532 0.439116
Si Si3 0.441722 0.827091 0.652546
Si Si4 0.264364 0.826117 0.396343
Si Si5 0.545494 0.327648 0.164494
Si Si6 0.661190 0.672105 0.066894
Si Si7 0.916339 0.675888 0.631308
Si Si8 0.589964 0.667781 0.630497
O O1 0.171264 0.216679 0.684144
O O2 0.234756 0.230829 0.883119
O O3 0.032395 0.258386 0.718690
O O4 0.119210 0.000000 0.759104
O O5 0.862415 0.280698 0.504252
O O6 0.000000 0.141351 0.500000
O O7 0.832968 0.000000 0.437481
O O8 0.341934 0.792299 0.526999
O O9 0.414470 0.772156 0.730095
O O10 0.545014 0.741501 0.687316
O O11 0.468841 0.000000 0.670726
O O12 0.154758 0.742753 0.340069
O O13 0.311640 0.761996 0.339096
O O14 0.243557 0.000000 0.370627
O O15 0.563129 0.500000 0.199125
O O16 0.611107 0.281084 0.124597
O O17 0.422395 0.296951 0.064104
O O18 0.693507 0.500000 0.090195
O O19 0.921136 0.500000 0.641940
O O20 0.500000 0.670061 0.500000
O O21 0.626403 0.500000 0.675199
#
# Coordination Sequence:
#
# PCOD8063001 Si02
#       8
#     4   4   4   4   4   4   4   4
#     4  10  20  33  49  67  93 128 163 203 250 292
#     4   8  16  30  43  59  88 122 156 196 239 280
#     4  10  20  32  50  74 100 132 166 199 244 296
#     4  10  20  33  48  70 104 135 162 200 244 289
#     4   9  19  35  52  72  99 128 163 208 251 291
#     4   9  19  35  52  71  97 129 165 208 253 290
#     4  11  21  31  46  69  95 127 168 203 237 289
#     4   9  17  31  50  72  98 128 163 200 241 290
#
# _framework density 17.989159000000001
#
# number of rings (size 3 to 8) (size 9 to 14) (size 15 to 20)
#    0.000    2.500    0.000    4.125    1.750    6.750 
#    0.000    1.250    0.000    0.000    0.000    0.875 
#    0.000    7.000    0.000    0.000    0.000    0.000 
#
# Total GULP energy -396757.190114 kJ/mol
# GULP energy per Si atom -12398.662191 kJ/mol
# Density = 1.794822 g / cm^3
# Si number density = 17.989159 Si / 1000 Ang^3
#
#
#
# Elastic Constant Matrix: (Units=GPa)
#
#
# Indices 1 2 3 4 5 6 
#
# 1 78.2383 45.6715 5.2879 0.0000 8.2889 0.0000
# 2 45.6715 109.2706 17.5805 0.0000 9.4265 0.0000
# 3 5.2879 17.5805 30.2621 0.0000 6.7811 0.0000
# 4 0.0000 0.0000 0.0000 20.9487 0.0000 -0.3187
# 5 8.2889 9.4265 6.7811 0.0000 23.4113 0.0000
# 6 0.0000 0.0000 0.0000 -0.3187 0.0000 28.5454
#
#
#
# Elastic Compliance Matrix: (Units=1/GPa)
#
#
# Indices 1 2 3 4 5 6 
#
# 1 0.017256 -0.007211 0.002024 0.000000 -0.003792 0.000000
# 2 -0.007211 0.013250 -0.006218 0.000000 -0.000981 0.000000
# 3 0.002024 -0.006218 0.038395 0.000000 -0.009334 0.000000
# 4 0.000000 0.000000 0.000000 0.047744 0.000000 0.000533
# 5 -0.003792 -0.000981 -0.009334 0.000000 0.047156 0.000000
# 6 0.000000 0.000000 0.000000 0.000533 0.000000 0.035038
#
#
# Mechanical properties :
#
#
# Convention : Reuss Voigt Hill
#
# Bulk Modulus (GPa) = 21.69626 39.42785 30.56205
# Shear Modulus (GPa) = 21.09596 24.52982 22.81289
#
# Velocity S-wave (km/s) = 3.42819 3.69669 3.56497
# Velocity P-wave (km/s) = 5.26848 6.33923 5.82850
#
# Compressibility (1/GPa) = 0.04609089
#
# Stress axis : x y z
#
# Youngs Moduli (GPa) = 57.95182 75.46898 26.04519
#
# Poissons Ratio (x) = 0.54419 -0.05270
# Poissons Ratio (y) = 0.41787 0.16195
# Poissons Ratio (z) = -0.11727 0.46926
#
# Static dielectric constant tensor:
#      x y z
#    x 3.301430 0.000000 0.011720 
#    y 0.000000 3.320130 0.000000 
#    z 0.011720 0.000000 3.116970 
# 
# 
# High freq. dielectric constant tensor:
#      x y z
#    x 1.692340 0.000000 0.008540 
#    y 0.000000 1.704340 0.000000 
#    z 0.008540 0.000000 1.652210 
# 
# From -- ./inp_files/66569.got.cif
#   From: 2010.06.25/outbox.cif.g09.slc.cpg/sg10_34_cif.got.tgz:66569.got - 2010.06.27 22:07:45.
