data_PCOD8063495
_publ_section_title
;
Structure prediction by ZEFSAII (Michael W. Deem and Ramdas Pophale) SiO2 
 PCOD8063495
Probable space group: P 2/M
;
_chemical_formula_sum "Si O2"
_cell_formula_units_Z 32
_cell_length_a 22.189534
_cell_length_b 8.909024
_cell_length_c 28.331106
_cell_angle_alpha 90.000000
_cell_angle_beta 18.602061
_cell_angle_gamma 90.000000
_cell_volume 1786.584407
_symmetry_space_group_name_H-M "P 2/M"
_symmetry_group_IT_number 10
_symmetry_cell_setting 'monoclinic'
loop_
_space_group_symop_operation_xyz
x,y,z
-x,y,-z
-x,-y,-z
x,-y,z
loop_
_atom_site_type_symbol
_atom_site_label
_atom_site_fract_x
_atom_site_fract_y
_atom_site_fract_z
Si Si1 0.507052 0.678609 0.295025
Si Si2 0.521472 0.675662 0.931463
Si Si3 0.220842 0.824261 0.834841
Si Si4 0.517469 0.176407 0.186025
Si Si5 0.789278 0.824188 0.663018
Si Si6 0.212359 0.677167 0.085292
Si Si7 0.793809 0.324079 0.407729
Si Si8 0.479074 0.676836 0.569178
O O1 0.524720 0.500000 0.281041
O O2 0.689003 0.742981 0.186848
O O3 0.492970 0.741749 0.253441
O O4 0.318234 0.732513 0.462828
O O5 0.559005 0.500000 0.904897
O O6 0.704653 0.749534 0.772413
O O7 0.500000 0.741011 0.000000
O O8 0.333481 0.715958 0.041779
O O9 0.305609 0.761283 0.722943
O O10 0.263517 0.000000 0.806434
O O11 0.000000 0.788781 0.000000
O O12 0.333836 0.217580 0.291428
O O13 0.539367 0.000000 0.177753
O O14 0.704114 0.238398 0.022023
O O15 0.000000 0.760685 0.500000
O O16 0.791154 0.000000 0.670612
O O17 0.212442 0.500000 0.074549
O O18 0.003344 0.745324 0.249081
O O19 0.819499 0.500000 0.392496
O O20 0.674802 0.280669 0.449659
O O21 0.500000 0.731859 0.500000
O O22 0.437790 0.500000 0.603072
#
# Coordination Sequence:
#
# PCOD8063495 Si02
#       8
#     4   4   4   4   4   4   4   4
#     4  10  20  35  55  77 101 132 170 208 251 302
#     4   9  18  31  48  72  99 127 162 206 252 295
#     4  10  21  36  53  76 106 136 168 208 252 297
#     4  10  20  34  51  74 104 133 167 211 252 295
#     4   9  19  35  52  71  99 136 173 207 247 298
#     4   9  17  32  51  70  97 131 165 202 247 298
#     4   8  16  31  50  72  96 124 162 205 243 287
#     4   9  18  33  52  74 100 131 169 208 246 293
#
# _framework density 17.911270999999999
#
# number of rings (size 3 to 8) (size 9 to 14) (size 15 to 20)
#    0.000    2.750    0.000    1.875    0.000    4.250 
#    0.000    5.625    0.000    0.000    0.000    0.000 
#    0.000    0.000    0.000    0.000    0.000    0.000 
#
# Total GULP energy -396804.368567 kJ/mol
# GULP energy per Si atom -12400.136518 kJ/mol
# Density = 1.787050 g / cm^3
# Si number density = 17.911271 Si / 1000 Ang^3
#
#
#
# Elastic Constant Matrix: (Units=GPa)
#
#
# Indices 1 2 3 4 5 6 
#
# 1 139.4846 45.3791 88.9382 0.0000 25.0064 0.0000
# 2 45.3791 55.2126 50.6375 0.0000 5.0814 0.0000
# 3 88.9382 50.6375 173.2679 0.0000 -0.1246 0.0000
# 4 0.0000 0.0000 0.0000 214.5985 0.0000 82.2729
# 5 25.0064 5.0814 -0.1246 0.0000 23.9092 0.0000
# 6 0.0000 0.0000 0.0000 82.2729 0.0000 56.6428
#
#
#
# Elastic Compliance Matrix: (Units=1/GPa)
#
#
# Indices 1 2 3 4 5 6 
#
# 1 0.015988 -0.005701 -0.006552 0.000000 -0.015545 0.000000
# 2 -0.005701 0.027467 -0.005101 0.000000 0.000099 0.000000
# 3 -0.006552 -0.005101 0.010631 0.000000 0.007992 0.000000
# 4 0.000000 0.000000 0.000000 0.010515 0.000000 -0.015274
# 5 -0.015545 0.000099 0.007992 0.000000 0.058103 0.000000
# 6 0.000000 0.000000 0.000000 -0.015274 0.000000 0.039839
#
#
# Mechanical properties :
#
#
# Convention : Reuss Voigt Hill
#
# Bulk Modulus (GPa) = 51.60375 81.98609 66.79492
# Shear Modulus (GPa) = 24.54464 71.23078 47.88771
#
# Velocity S-wave (km/s) = 3.70583 6.31308 5.17630
# Velocity P-wave (km/s) = 6.86908 9.95052 8.54977
#
# Compressibility (1/GPa) = 0.01937844
#
# Stress axis : x y z
#
# Youngs Moduli (GPa) = 62.54527 36.40795 94.06614
#
# Poissons Ratio (x) = 0.20757 0.61630
# Poissons Ratio (y) = 0.35659 0.47979
# Poissons Ratio (z) = 0.40978 0.18570
#
# Static dielectric constant tensor:
#      x y z
#    x 3.415260 0.000000 -0.015800 
#    y 0.000000 3.189810 0.000000 
#    z -0.015800 0.000000 3.586150 
# 
# 
# High freq. dielectric constant tensor:
#      x y z
#    x 1.694950 0.000000 0.003280 
#    y 0.000000 1.682390 0.000000 
#    z 0.003280 0.000000 1.699270 
# 
# From -- ./inp_files/93569.got.cif
#   From: 2010.06.25/outbox.cif.g09.slc.cpg/sg10_47_cif.got.tgz:93569.got - 2010.06.27 22:07:45.
