data_PCOD8063246
_publ_section_title
;
Structure prediction by ZEFSAII (Michael W. Deem and Ramdas Pophale) SiO2 
 PCOD8063246
Probable space group: P 2/M
;
_chemical_formula_sum "Si O2"
_cell_formula_units_Z 28
_cell_length_a 11.961810
_cell_length_b 20.473327
_cell_length_c 17.553839
_cell_angle_alpha 90.000000
_cell_angle_beta 159.465191
_cell_angle_gamma 90.000000
_cell_volume 1507.952872
_symmetry_space_group_name_H-M "P 2/M"
_symmetry_group_IT_number 10
_symmetry_cell_setting 'monoclinic'
loop_
_space_group_symop_operation_xyz
x,y,z
-x,y,-z
-x,-y,-z
x,-y,z
loop_
_atom_site_type_symbol
_atom_site_label
_atom_site_fract_x
_atom_site_fract_y
_atom_site_fract_z
Si Si1 0.691171 0.600022 0.854983
Si Si2 0.464147 0.173570 0.892476
Si Si3 0.755358 0.144952 0.450994
Si Si4 0.263261 0.075563 0.032392
Si Si5 0.391032 0.500000 0.555508
Si Si6 0.992578 0.500000 0.154012
Si Si7 0.577245 0.072338 0.637125
Si Si8 0.656483 0.273727 0.308380
O O1 0.422791 0.562632 0.632379
O O2 0.556689 0.668288 0.796913
O O3 0.000000 0.611122 0.000000
O O4 0.787222 0.562262 0.994349
O O5 0.730798 0.119291 0.040982
O O6 0.507188 0.236973 0.867069
O O7 0.126130 0.136558 0.668588
O O8 0.500000 0.200008 0.000000
O O9 0.567198 0.097054 0.274838
O O10 0.651891 0.125260 0.469962
O O11 0.679294 0.221483 0.391354
O O12 0.276252 0.000000 0.016979
O O13 0.950253 0.090734 0.883114
O O14 0.070347 0.500000 0.296078
O O15 0.679420 0.500000 0.681410
O O16 0.500000 0.071177 0.500000
O O17 0.517806 0.000000 0.634655
O O18 0.000000 0.300210 0.500000
#
# Coordination Sequence:
#
# PCOD8063246 Si02
#       8
#     4   4   4   4   2   2   4   4
#     4   9  17  32  57  84 108 142 179 213 256 307
#     4  10  21  37  53  71  99 137 178 218 264 314
#     4  10  20  35  53  70  99 140 177 210 260 322
#     4  10  20  33  52  76  99 129 170 218 271 322
#     4   8  15  31  56  82 117 143 166 219 257 300
#     4   8  15  31  54  84 116 140 172 212 260 302
#     4  10  20  33  51  77 105 130 164 220 280 319
#     4   9  20  37  52  72 105 142 173 213 261 305
#
# _framework density 18.56822
#
# number of rings (size 3 to 8) (size 9 to 14) (size 15 to 20)
#    0.000    2.571    0.000    3.857    0.000    5.429 
#    5.143    1.429    3.143    0.857    0.000    0.000 
#    0.000    0.000    0.000    0.000    0.000    0.000 
#
# Total GULP energy -346936.552599 kJ/mol
# GULP energy per Si atom -12390.591164 kJ/mol
# Density = 1.852596 g / cm^3
# Si number density = 18.568220 Si / 1000 Ang^3
#
#
#
# Elastic Constant Matrix: (Units=GPa)
#
#
# Indices 1 2 3 4 5 6 
#
# 1 92.9022 62.7055 32.8315 0.0000 -5.5541 0.0000
# 2 62.7055 120.8848 37.8254 0.0000 10.6913 0.0000
# 3 32.8315 37.8254 65.8604 0.0000 -11.5861 0.0000
# 4 0.0000 0.0000 0.0000 19.3445 0.0000 6.0270
# 5 -5.5541 10.6913 -11.5861 0.0000 25.4447 0.0000
# 6 0.0000 0.0000 0.0000 6.0270 0.0000 19.6014
#
#
#
# Elastic Compliance Matrix: (Units=1/GPa)
#
#
# Indices 1 2 3 4 5 6 
#
# 1 0.018375 -0.009301 -0.002636 0.000000 0.006719 0.000000
# 2 -0.009301 0.016294 -0.006831 0.000000 -0.011987 0.000000
# 3 -0.002636 -0.006831 0.022638 0.000000 0.012603 0.000000
# 4 0.000000 0.000000 0.000000 0.057171 0.000000 -0.017579
# 5 0.006719 -0.011987 0.012603 0.000000 0.051543 0.000000
# 6 0.000000 0.000000 0.000000 -0.017579 0.000000 0.056422
#
#
# Mechanical properties :
#
#
# Convention : Reuss Voigt Hill
#
# Bulk Modulus (GPa) = 50.57710 60.70803 55.64257
# Shear Modulus (GPa) = 18.75690 22.63047 20.69369
#
# Velocity S-wave (km/s) = 3.18175 3.49488 3.34199
# Velocity P-wave (km/s) = 6.38715 7.00365 6.70250
#
# Compressibility (1/GPa) = 0.01977179
#
# Stress axis : x y z
#
# Youngs Moduli (GPa) = 54.42163 61.37105 44.17384
#
# Poissons Ratio (x) = 0.57080 0.11646
# Poissons Ratio (y) = 0.50616 0.30173
# Poissons Ratio (z) = 0.14348 0.41920
#
# Static dielectric constant tensor:
#      x y z
#    x 3.823980 0.000000 0.022140 
#    y 0.000000 3.261450 0.000000 
#    z 0.022140 0.000000 3.732300 
# 
# 
# High freq. dielectric constant tensor:
#      x y z
#    x 1.720080 0.000000 -0.006770 
#    y 0.000000 1.702220 0.000000 
#    z -0.006770 0.000000 1.718150 
# 
# From -- ./inp_files/77229.got.cif
#   From: 2010.06.25/outbox.cif.g09.slc.cpg/sg10_39_cif.got.tgz:77229.got - 2010.06.27 22:07:45.
