data_PCOD8063718
_publ_section_title
;
Structure prediction by ZEFSAII (Michael W. Deem and Ramdas Pophale) SiO2 
 PCOD8063718
Probable space group: P 2/M
;
_chemical_formula_sum "Si O2"
_cell_formula_units_Z 32
_cell_length_a 17.367299
_cell_length_b 8.973740
_cell_length_c 27.751444
_cell_angle_alpha 90.000000
_cell_angle_beta 23.456712
_cell_angle_gamma 90.000000
_cell_volume 1721.613394
_symmetry_space_group_name_H-M "P 2/M"
_symmetry_group_IT_number 10
_symmetry_cell_setting 'monoclinic'
loop_
_space_group_symop_operation_xyz
x,y,z
-x,y,-z
-x,-y,-z
x,-y,z
loop_
_atom_site_type_symbol
_atom_site_label
_atom_site_fract_x
_atom_site_fract_y
_atom_site_fract_z
Si Si1 0.609492 0.824372 0.839314
Si Si2 0.801892 0.672437 0.478388
Si Si3 0.809098 0.336801 0.078176
Si Si4 0.012055 0.824397 0.880920
Si Si5 0.629431 0.674556 0.276525
Si Si6 0.211474 0.324027 0.071371
Si Si7 0.977405 0.824694 0.566879
Si Si8 0.165887 0.326637 0.207937
O O1 0.412687 0.743689 0.937017
O O2 0.768383 0.779196 0.708119
O O3 0.676482 0.767578 0.853249
O O4 0.575182 0.000000 0.861261
O O5 0.809031 0.500000 0.488071
O O6 0.587908 0.716410 0.582750
O O7 0.852965 0.759760 0.497564
O O8 0.950485 0.711076 0.350269
O O9 0.760368 0.500000 0.083766
O O10 0.644549 0.285118 0.210582
O O11 0.842615 0.219323 0.016187
O O12 0.000000 0.350278 0.000000
O O13 0.222887 0.769934 0.776435
O O14 0.014496 0.000000 0.873379
O O15 0.964192 0.747370 0.857685
O O16 0.677191 0.500000 0.256892
O O17 0.212101 0.500000 0.063693
O O18 0.176921 0.278287 0.146388
O O19 0.000000 0.759899 0.500000
O O20 0.003976 0.000000 0.551680
O O21 0.216973 0.500000 0.185656
#
# Coordination Sequence:
#
# PCOD8063718 Si02
#       8
#     4   4   4   4   4   4   4   4
#     4  10  20  34  54  79 105 134 168 208 254 304
#     4   9  18  34  56  79 101 130 173 215 249 297
#     4   8  15  30  50  71  98 131 164 199 244 296
#     4  11  22  34  50  75 105 135 171 214 256 300
#     4   9  18  34  55  77 103 136 171 208 252 302
#     4  11  22  36  54  74 101 136 171 212 260 305
#     4   9  19  35  52  75 110 143 168 201 248 300
#     4   9  19  36  56  77 100 131 171 211 254 306
#
# _framework density 18.587216000000002
#
# number of rings (size 3 to 8) (size 9 to 14) (size 15 to 20)
#    0.000    2.500    0.000    3.000    0.000    7.000 
#    0.000    3.125    0.000    3.750    0.000    0.000 
#    0.000    0.000    0.000    0.000    0.000    0.000 
#
# Total GULP energy -396788.703376 kJ/mol
# GULP energy per Si atom -12399.646980 kJ/mol
# Density = 1.854491 g / cm^3
# Si number density = 18.587216 Si / 1000 Ang^3
#
#
#
# Elastic Constant Matrix: (Units=GPa)
#
#
# Indices 1 2 3 4 5 6 
#
# 1 109.0322 48.3895 47.8861 0.0000 6.3020 0.0000
# 2 48.3895 75.9234 32.9602 0.0000 0.4489 0.0000
# 3 47.8861 32.9602 84.5622 0.0000 -5.9201 0.0000
# 4 0.0000 0.0000 0.0000 22.4221 0.0000 -3.9621
# 5 6.3020 0.4489 -5.9201 0.0000 26.0528 0.0000
# 6 0.0000 0.0000 0.0000 -3.9621 0.0000 21.5807
#
#
#
# Elastic Compliance Matrix: (Units=1/GPa)
#
#
# Indices 1 2 3 4 5 6 
#
# 1 0.015344 -0.007011 -0.006308 0.000000 -0.005024 0.000000
# 2 -0.007011 0.019132 -0.003446 0.000000 0.000583 0.000000
# 3 -0.006308 -0.003446 0.017124 0.000000 0.005476 0.000000
# 4 0.000000 0.000000 0.000000 0.046094 0.000000 0.008463
# 5 -0.005024 0.000583 0.005476 0.000000 0.040833 0.000000
# 6 0.000000 0.000000 0.000000 0.008463 0.000000 0.047891
#
#
# Mechanical properties :
#
#
# Convention : Reuss Voigt Hill
#
# Bulk Modulus (GPa) = 55.34041 58.66549 57.00295
# Shear Modulus (GPa) = 22.12643 23.36325 22.74484
#
# Velocity S-wave (km/s) = 3.45398 3.54920 3.50191
# Velocity P-wave (km/s) = 6.76348 6.95892 6.86189
#
# Compressibility (1/GPa) = 0.01806998
#
# Stress axis : x y z
#
# Youngs Moduli (GPa) = 65.17151 52.26734 58.39648
#
# Poissons Ratio (x) = 0.36647 0.36837
# Poissons Ratio (y) = 0.45694 0.20124
# Poissons Ratio (z) = 0.41110 0.18012
#
# Static dielectric constant tensor:
#      x y z
#    x 3.344800 0.000000 0.132630 
#    y 0.000000 3.327640 0.000000 
#    z 0.132630 0.000000 3.691190 
# 
# 
# High freq. dielectric constant tensor:
#      x y z
#    x 1.710180 0.000000 0.002140 
#    y 0.000000 1.716660 0.000000 
#    z 0.002140 0.000000 1.721230 
# 
# From -- ./inp_files/89504.got.cif
#   From: 2010.06.25/outbox.cif.g09.slc.cpg/sg10_45_cif.got.tgz:89504.got - 2010.06.27 22:07:45.
