data_PCOD8063778
_publ_section_title
;
Structure prediction by ZEFSAII (Michael W. Deem and Ramdas Pophale) SiO2 
 PCOD8063778
Probable space group: P 2/M
;
_chemical_formula_sum "Si O2"
_cell_formula_units_Z 28
_cell_length_a 13.017847
_cell_length_b 8.922193
_cell_length_c 14.371860
_cell_angle_alpha 90.000000
_cell_angle_beta 123.611313
_cell_angle_gamma 90.000000
_cell_volume 1390.178945
_symmetry_space_group_name_H-M "P 2/M"
_symmetry_group_IT_number 10
_symmetry_cell_setting 'monoclinic'
loop_
_space_group_symop_operation_xyz
x,y,z
-x,y,-z
-x,-y,-z
x,-y,z
loop_
_atom_site_type_symbol
_atom_site_label
_atom_site_fract_x
_atom_site_fract_y
_atom_site_fract_z
Si Si1 0.432587 0.326130 0.821613
Si Si2 0.795385 0.827326 0.608227
Si Si3 0.768640 0.177077 0.165573
Si Si4 0.427995 0.828137 0.633833
Si Si5 0.708676 0.826290 0.764816
Si Si6 0.279357 0.674042 0.041830
Si Si7 0.014727 0.324721 0.614814
O O1 0.402799 0.500000 0.821066
O O2 0.364926 0.235217 0.868832
O O3 0.382042 0.274593 0.695918
O O4 0.576733 0.290694 0.900430
O O5 0.660388 0.799491 0.497678
O O6 0.788030 0.786546 0.713512
O O7 0.892070 0.718369 0.608736
O O8 0.836163 0.000000 0.614696
O O9 0.870403 0.233523 0.288447
O O10 0.770522 0.000000 0.163018
O O11 0.796352 0.240272 0.076295
O O12 0.566280 0.784167 0.673068
O O13 0.421724 0.000000 0.664332
O O14 0.762900 0.732367 0.878249
O O15 0.720440 0.000000 0.796325
O O16 0.248729 0.500000 0.019413
O O17 0.040549 0.500000 0.640058
O O18 0.000000 0.280072 0.500000
#
# Coordination Sequence:
#
# PCOD8063778 Si02
#       7
#     4   4   4   4   4   4   4
#     4  10  20  34  54  83 118 151 183 225 277 331
#     4  10  20  35  57  84 114 149 189 232 276 324
#     4  12  24  38  59  83 109 145 188 233 279 329
#     4   9  17  31  54  84 117 152 187 225 273 328
#     4   9  18  34  56  84 117 150 186 228 274 326
#     4  10  21  37  57  83 116 150 184 226 276 330
#     4  11  25  43  61  82 111 146 184 228 277 330
#
# _framework density 20.141293000000001
#
# number of rings (size 3 to 8) (size 9 to 14) (size 15 to 20)
#    0.000    1.857    0.000    4.286    0.000    9.714 
#    0.000    0.714    0.000    8.571    0.000    0.000 
#    0.000    0.000    0.000    0.000    0.000    0.000 
#
# Total GULP energy -347324.707328 kJ/mol
# GULP energy per Si atom -12404.453833 kJ/mol
# Density = 2.009545 g / cm^3
# Si number density = 20.141293 Si / 1000 Ang^3
#
#
#
# Elastic Constant Matrix: (Units=GPa)
#
#
# Indices 1 2 3 4 5 6 
#
# 1 80.4926 37.2910 33.3771 0.0000 -22.7481 0.0000
# 2 37.2910 109.1873 60.8317 0.0000 -16.2797 0.0000
# 3 33.3771 60.8317 114.1649 0.0000 -27.4055 0.0000
# 4 0.0000 0.0000 0.0000 29.5833 0.0000 -0.7900
# 5 -22.7481 -16.2797 -27.4055 0.0000 28.6538 0.0000
# 6 0.0000 0.0000 0.0000 -0.7900 0.0000 29.8360
#
#
#
# Elastic Compliance Matrix: (Units=1/GPa)
#
#
# Indices 1 2 3 4 5 6 
#
# 1 0.017703 -0.004247 -0.000153 0.000000 0.011495 0.000000
# 2 -0.004247 0.014066 -0.006677 0.000000 -0.001766 0.000000
# 3 -0.000153 -0.006677 0.014826 0.000000 0.010265 0.000000
# 4 0.000000 0.000000 0.000000 0.033827 0.000000 0.000896
# 5 0.011495 -0.001766 0.010265 0.000000 0.052839 0.000000
# 6 0.000000 0.000000 0.000000 0.000896 0.000000 0.033540
#
#
# Mechanical properties :
#
#
# Convention : Reuss Voigt Hill
#
# Bulk Modulus (GPa) = 40.91652 62.98269 51.94961
# Shear Modulus (GPa) = 25.36748 29.10429 27.23589
#
# Velocity S-wave (km/s) = 3.55276 3.80545 3.68127
# Velocity P-wave (km/s) = 6.09822 7.11666 6.62704
#
# Compressibility (1/GPa) = 0.02444000
#
# Stress axis : x y z
#
# Youngs Moduli (GPa) = 56.48686 71.09471 67.44878
#
# Poissons Ratio (x) = 0.30193 0.01035
# Poissons Ratio (y) = 0.23989 0.45037
# Poissons Ratio (z) = 0.00867 0.47472
#
# Static dielectric constant tensor:
#      x y z
#    x 3.560920 0.000000 -0.171930 
#    y 0.000000 3.640160 0.000000 
#    z -0.171930 0.000000 3.713360 
# 
# 
# High freq. dielectric constant tensor:
#      x y z
#    x 1.773250 0.000000 -0.015080 
#    y 0.000000 1.785490 0.000000 
#    z -0.015080 0.000000 1.791910 
# 
# From -- ./inp_files/63668.got.cif
#   From: 2010.06.25/outbox.cif.g09.slc.cpg/sg10_32_cif.got.tgz:63668.got - 2010.06.27 22:07:45.
