data_PCOD8063359
_publ_section_title
;
Structure prediction by ZEFSAII (Michael W. Deem and Ramdas Pophale) SiO2 
 PCOD8063359
Probable space group: P 2/M
;
_chemical_formula_sum "Si O2"
_cell_formula_units_Z 32
_cell_length_a 8.065122
_cell_length_b 23.969368
_cell_length_c 7.768751
_cell_angle_alpha 90.000000
_cell_angle_beta 89.999769
_cell_angle_gamma 90.000000
_cell_volume 1501.822914
_symmetry_space_group_name_H-M "P 2/M"
_symmetry_group_IT_number 10
_symmetry_cell_setting 'monoclinic'
loop_
_space_group_symop_operation_xyz
x,y,z
-x,y,-z
-x,-y,-z
x,-y,z
loop_
_atom_site_type_symbol
_atom_site_label
_atom_site_fract_x
_atom_site_fract_y
_atom_site_fract_z
Si Si1 0.688527 0.759619 0.702479
Si Si2 0.804177 0.638808 0.307415
Si Si3 0.688527 0.759618 0.297521
Si Si4 0.499999 0.063700 0.205481
Si Si5 0.195823 0.361192 0.307413
Si Si6 0.197908 0.437126 0.999999
Si Si7 0.180339 0.126196 0.196986
Si Si8 0.819660 0.873804 0.196986
O O1 0.709554 0.766213 0.500000
O O2 0.500000 0.766640 0.762624
O O3 0.753099 0.699454 0.762352
O O4 0.795476 0.807394 0.792381
O O5 0.753098 0.699453 0.237649
O O6 0.730277 0.627804 0.500001
O O7 0.734480 0.593400 0.172245
O O8 1.000000 0.635159 0.316332
O O9 0.795476 0.807394 0.207618
O O10 0.334938 0.093360 0.284432
O O11 0.665059 0.093360 0.284431
O O12 0.500000 0.000000 0.266626
O O13 0.500000 0.069425 0.000000
O O14 0.265520 0.406600 0.172243
O O15 0.266941 0.500000 1.000000
O O16 0.000000 0.436227 0.000000
O O17 0.999999 0.111053 0.281197
O O18 0.173529 0.107828 0.000000
#
# Coordination Sequence:
#
# PCOD8063359 Si02
#       8
#     4   4   4   4   4   4   4   4
#     4  10  20  34  53  77 107 141 177 224 285 342
#     4   9  18  32  50  75 106 140 181 230 285 342
#     4  10  20  34  53  77 107 141 177 224 285 342
#     4   9  18  34  53  77 113 149 185 230 275 326
#     4   9  18  32  50  75 106 140 181 230 285 342
#     4   9  18  32  51  77 107 141 185 234 281 335
#     4  10  20  33  53  81 109 142 184 229 281 335
#     4  10  20  33  53  81 109 142 184 229 281 335
#
# _framework density 21.307438000000001
#
# number of rings (size 3 to 8) (size 9 to 14) (size 15 to 20)
#    0.000    2.500    1.250    0.750    1.750    2.500 
#    0.000    5.000    0.000    3.000    0.000    5.250 
#    0.000    0.000    0.000    0.000    0.000    0.000 
#
# Total GULP energy -396652.530714 kJ/mol
# GULP energy per Si atom -12395.391585 kJ/mol
# Density = 2.125894 g / cm^3
# Si number density = 21.307438 Si / 1000 Ang^3
#
#
#
# Elastic Constant Matrix: (Units=GPa)
#
#
# Indices 1 2 3 4 5 6 
#
# 1 113.1845 64.5337 30.9882 0.0000 0.0006 0.0000
# 2 64.5337 166.9497 37.5625 0.0000 0.0006 0.0000
# 3 30.9882 37.5625 53.3662 0.0000 0.0006 0.0000
# 4 0.0000 0.0000 0.0000 2.5329 0.0000 -0.0006
# 5 0.0006 0.0006 0.0006 0.0000 9.8199 0.0000
# 6 0.0000 0.0000 0.0000 -0.0006 0.0000 27.2265
#
#
#
# Elastic Compliance Matrix: (Units=1/GPa)
#
#
# Indices 1 2 3 4 5 6 
#
# 1 0.012165 -0.003699 -0.004461 0.000000 0.000000 0.000000
# 2 -0.003699 0.008242 -0.003653 0.000000 0.000000 0.000000
# 3 -0.004461 -0.003653 0.023900 0.000000 -0.000001 0.000000
# 4 0.000000 0.000000 0.000000 0.394809 0.000000 0.000009
# 5 0.000000 0.000000 -0.000001 0.000000 0.101834 0.000000
# 6 0.000000 0.000000 0.000000 0.000009 0.000000 0.036729
#
#
# Mechanical properties :
#
#
# Convention : Reuss Voigt Hill
#
# Bulk Modulus (GPa) = 48.35195 66.62991 57.49093
# Shear Modulus (GPa) = 8.22101 21.27693 14.74897
#
# Velocity S-wave (km/s) = 1.96638 3.16344 2.63382
# Velocity P-wave (km/s) = 5.28179 6.68444 6.02408
#
# Compressibility (1/GPa) = 0.02068169
#
# Stress axis : x y z
#
# Youngs Moduli (GPa) = 82.20083 121.33674 41.84124
#
# Poissons Ratio (x) = 0.44881 0.18664
# Poissons Ratio (y) = 0.30405 0.15285
# Poissons Ratio (z) = 0.36666 0.44325
#
# Static dielectric constant tensor:
#      x y z
#    x 4.006870 0.000000 0.000010 
#    y 0.000000 3.830080 0.000000 
#    z 0.000010 0.000000 3.855200 
# 
# 
# High freq. dielectric constant tensor:
#      x y z
#    x 1.830180 0.000000 0.000000 
#    y 0.000000 1.826390 0.000000 
#    z 0.000000 0.000000 1.814490 
# 
# From -- ./inp_files/20566.got.cif
#   From: 2010.06.25/outbox.cif.g09.slc.cpg/sg10_11_cif.got.tgz:20566.got - 2010.06.27 22:07:45.
