data_PCOD8063145
_publ_section_title
;
Structure prediction by ZEFSAII (Michael W. Deem and Ramdas Pophale) SiO2 
 PCOD8063145
Probable space group: P 2/M
;
_chemical_formula_sum "Si O2"
_cell_formula_units_Z 32
_cell_length_a 28.783442
_cell_length_b 9.233817
_cell_length_c 12.216213
_cell_angle_alpha 90.000000
_cell_angle_beta 145.793769
_cell_angle_gamma 90.000000
_cell_volume 1825.285559
_symmetry_space_group_name_H-M "P 2/M"
_symmetry_group_IT_number 10
_symmetry_cell_setting 'monoclinic'
loop_
_space_group_symop_operation_xyz
x,y,z
-x,y,-z
-x,-y,-z
x,-y,z
loop_
_atom_site_type_symbol
_atom_site_label
_atom_site_fract_x
_atom_site_fract_y
_atom_site_fract_z
Si Si1 0.513467 0.832453 0.703142
Si Si2 0.990155 0.830442 0.817190
Si Si3 0.135123 0.171373 0.253399
Si Si4 0.220923 0.671354 0.069860
Si Si5 0.464779 0.329304 0.815254
Si Si6 0.948733 0.830561 0.293670
Si Si7 0.367580 0.831804 0.257295
Si Si8 0.723464 0.329745 0.579874
O O1 0.519213 0.741378 0.825414
O O2 0.433577 0.785108 0.477773
O O3 0.595161 0.802497 0.790419
O O4 0.507299 0.000000 0.722274
O O5 0.904848 0.778021 0.708005
O O6 0.993009 0.787508 0.695565
O O7 0.993344 0.000000 0.842522
O O8 0.072077 0.770861 0.037058
O O9 0.221960 0.251209 0.406099
O O10 0.150950 0.000000 0.278434
O O11 0.217611 0.500000 0.051076
O O12 0.286779 0.734043 0.112313
O O13 0.246546 0.719333 0.241749
O O14 0.133196 0.736755 0.867802
O O15 0.473047 0.500000 0.818218
O O16 0.370233 0.278102 0.620053
O O17 0.500000 0.276161 0.000000
O O18 0.000000 0.788849 0.500000
O O19 0.925069 0.000000 0.244323
O O20 0.344188 0.000000 0.225131
O O21 0.732411 0.500000 0.580729
#
# Coordination Sequence:
#
# PCOD8063145 Si02
#       8
#     4   4   4   4   4   4   4   4
#     4   9  18  33  54  80 107 134 172 222 268 310
#     4   8  15  29  49  75 100 125 165 205 246 300
#     4   9  16  29  52  75  97 127 163 210 253 292
#     4  11  21  33  52  79 107 135 173 219 257 304
#     4  10  21  37  54  73 106 147 178 210 259 320
#     4  10  20  35  55  76 103 139 172 208 259 315
#     4   9  18  33  54  80 107 135 170 219 272 313
#     4  10  20  33  49  76 105 130 170 215 255 300
#
# _framework density 17.531504000000002
#
# number of rings (size 3 to 8) (size 9 to 14) (size 15 to 20)
#    0.000    2.500    2.500    1.875    0.000    2.000 
#    0.000    4.375    0.000    4.500    0.000    0.000 
#    0.000    0.000    0.000    0.000    0.000    0.000 
#
# Total GULP energy -396764.559724 kJ/mol
# GULP energy per Si atom -12398.892491 kJ/mol
# Density = 1.749160 g / cm^3
# Si number density = 17.531504 Si / 1000 Ang^3
#
#
#
# Elastic Constant Matrix: (Units=GPa)
#
#
# Indices 1 2 3 4 5 6 
#
# 1 148.7251 50.7581 65.9070 0.0000 -1.7088 0.0000
# 2 50.7581 47.7126 39.6092 0.0000 3.2805 0.0000
# 3 65.9070 39.6092 97.6711 0.0000 -4.0048 0.0000
# 4 0.0000 0.0000 0.0000 21.7741 0.0000 2.7848
# 5 -1.7088 3.2805 -4.0048 0.0000 29.3367 0.0000
# 6 0.0000 0.0000 0.0000 2.7848 0.0000 18.2320
#
#
#
# Elastic Compliance Matrix: (Units=1/GPa)
#
#
# Indices 1 2 3 4 5 6 
#
# 1 0.011663 -0.009029 -0.004162 0.000000 0.001121 0.000000
# 2 -0.009029 0.039431 -0.010157 0.000000 -0.006322 0.000000
# 3 -0.004162 -0.010157 0.017300 0.000000 0.003255 0.000000
# 4 0.000000 0.000000 0.000000 0.046841 0.000000 -0.007155
# 5 0.001121 -0.006322 0.003255 0.000000 0.035304 0.000000
# 6 0.000000 0.000000 0.000000 -0.007155 0.000000 0.055941
#
#
# Mechanical properties :
#
#
# Convention : Reuss Voigt Hill
#
# Bulk Modulus (GPa) = 46.09083 67.40639 56.74861
# Shear Modulus (GPa) = 19.20067 23.05755 21.12911
#
# Velocity S-wave (km/s) = 3.31298 3.63051 3.47538
# Velocity P-wave (km/s) = 6.40171 7.49042 6.96736
#
# Compressibility (1/GPa) = 0.02169629
#
# Stress axis : x y z
#
# Youngs Moduli (GPa) = 85.74430 25.36100 57.80429
#
# Poissons Ratio (x) = 0.22898 0.24060
# Poissons Ratio (y) = 0.77415 0.58714
# Poissons Ratio (z) = 0.35690 0.25760
#
# Static dielectric constant tensor:
#      x y z
#    x 3.513360 0.000000 0.011810 
#    y 0.000000 3.013340 0.000000 
#    z 0.011810 0.000000 3.056460 
# 
# 
# High freq. dielectric constant tensor:
#      x y z
#    x 1.692260 0.000000 0.006530 
#    y 0.000000 1.659870 0.000000 
#    z 0.006530 0.000000 1.651670 
# 
# From -- ./inp_files/52727.got.cif
#   From: 2010.06.25/outbox.cif.g09.slc.cpg/sg10_27_cif.got.tgz:52727.got - 2010.06.27 22:07:45.
