data_PCOD8063107
_publ_section_title
;
Structure prediction by ZEFSAII (Michael W. Deem and Ramdas Pophale) SiO2 
 PCOD8063107
Probable space group: P 2/M
;
_chemical_formula_sum "Si O2"
_cell_formula_units_Z 32
_cell_length_a 14.458385
_cell_length_b 9.083705
_cell_length_c 22.667081
_cell_angle_alpha 90.000000
_cell_angle_beta 37.061483
_cell_angle_gamma 90.000000
_cell_volume 1794.151800
_symmetry_space_group_name_H-M "P 2/M"
_symmetry_group_IT_number 10
_symmetry_cell_setting 'monoclinic'
loop_
_space_group_symop_operation_xyz
x,y,z
-x,y,-z
-x,-y,-z
x,-y,z
loop_
_atom_site_type_symbol
_atom_site_label
_atom_site_fract_x
_atom_site_fract_y
_atom_site_fract_z
Si Si1 0.430371 0.323608 0.678226
Si Si2 0.783105 0.669830 0.767373
Si Si3 0.138619 0.826838 0.388355
Si Si4 0.167260 0.674574 0.127457
Si Si5 0.833684 0.324522 0.272567
Si Si6 0.521015 0.173333 0.750283
Si Si7 0.438646 0.670604 0.907292
Si Si8 0.359794 0.659363 0.527591
O O1 0.437443 0.500000 0.680278
O O2 0.268781 0.272710 0.730832
O O3 0.441816 0.248858 0.735158
O O4 0.573261 0.262154 0.565333
O O5 0.828998 0.500000 0.737712
O O6 0.874062 0.754591 0.669683
O O7 0.830882 0.735988 0.806608
O O8 0.601112 0.692289 0.855915
O O9 0.299475 0.782509 0.337094
O O10 0.000000 0.768595 0.500000
O O11 0.126663 0.000000 0.385108
O O12 0.182009 0.500000 0.123839
O O13 0.009889 0.724840 0.175223
O O14 0.309280 0.734774 0.017078
O O15 0.819442 0.500000 0.285437
O O16 0.770944 0.256554 0.367391
O O17 0.429520 0.233319 0.853058
O O18 0.499369 0.000000 0.756981
O O19 0.409243 0.500000 0.906184
O O20 0.500000 0.633949 0.500000
O O21 0.295321 0.500000 0.540393
#
# Coordination Sequence:
#
# PCOD8063107 Si02
#       8
#     4   4   4   4   4   4   4   4
#     4   9  16  28  48  70  92 122 157 189 223 268
#     4   9  17  29  48  74  98 119 148 188 232 275
#     4   9  19  35  50  66  94 128 156 184 222 270
#     4   9  16  27  46  71  96 120 148 189 237 276
#     4   8  14  25  43  70  98 120 149 189 228 269
#     4  10  20  33  49  67  89 121 158 192 227 269
#     4   9  17  31  49  68  92 121 153 189 230 277
#     4   7  11  21  38  61  88 114 140 175 218 261
#
# _framework density 17.835726000000001
#
# number of rings (size 3 to 8) (size 9 to 14) (size 15 to 20)
#    0.000    3.250    0.000    2.250    0.000    3.250 
#    0.000    2.500    0.000   11.625    0.000    0.000 
#    0.000    0.000    0.000    0.000    0.000    0.000 
#
# Total GULP energy -396502.021266 kJ/mol
# GULP energy per Si atom -12390.688165 kJ/mol
# Density = 1.779513 g / cm^3
# Si number density = 17.835726 Si / 1000 Ang^3
#
#
#
# Elastic Constant Matrix: (Units=GPa)
#
#
# Indices 1 2 3 4 5 6 
#
# 1 109.6328 28.6050 68.9499 0.0000 17.6205 0.0000
# 2 28.6050 28.6250 29.8182 0.0000 5.8355 0.0000
# 3 68.9499 29.8182 148.5903 0.0000 6.8291 0.0000
# 4 0.0000 0.0000 0.0000 11.6329 0.0000 -4.9494
# 5 17.6205 5.8355 6.8291 0.0000 26.6656 0.0000
# 6 0.0000 0.0000 0.0000 -4.9494 0.0000 4.8679
#
#
#
# Elastic Compliance Matrix: (Units=1/GPa)
#
#
# Indices 1 2 3 4 5 6 
#
# 1 0.015929 -0.008967 -0.005260 0.000000 -0.007216 0.000000
# 2 -0.008967 0.050742 -0.005852 0.000000 -0.003680 0.000000
# 3 -0.005260 -0.005852 0.010247 0.000000 0.002132 0.000000
# 4 0.000000 0.000000 0.000000 0.151500 0.000000 0.154036
# 5 -0.007216 -0.003680 0.002132 0.000000 0.042529 0.000000
# 6 0.000000 0.000000 0.000000 0.154036 0.000000 0.362042
#
#
# Mechanical properties :
#
#
# Convention : Reuss Voigt Hill
#
# Bulk Modulus (GPa) = 27.20471 60.17714 43.69093
# Shear Modulus (GPa) = 7.29497 19.26495 13.27996
#
# Velocity S-wave (km/s) = 2.02459 3.29010 2.73164
# Velocity P-wave (km/s) = 4.55536 6.94593 5.87355
#
# Compressibility (1/GPa) = 0.03675834
#
# Stress axis : x y z
#
# Youngs Moduli (GPa) = 62.77740 19.70753 97.58640
#
# Poissons Ratio (x) = 0.17672 0.51335
# Poissons Ratio (y) = 0.56294 0.57112
# Poissons Ratio (z) = 0.33024 0.11534
#
# Static dielectric constant tensor:
#      x y z
#    x 3.257060 0.000000 -0.001720 
#    y 0.000000 2.850480 0.000000 
#    z -0.001720 0.000000 3.592790 
# 
# 
# High freq. dielectric constant tensor:
#      x y z
#    x 1.682580 0.000000 0.004170 
#    y 0.000000 1.638730 0.000000 
#    z 0.004170 0.000000 1.697620 
# 
# From -- ./inp_files/84701.got.cif
#   From: 2010.06.25/outbox.cif.g09.slc.cpg/sg10_43_cif.got.tgz:84701.got - 2010.06.27 22:07:45.
