data_PCOD8063671
_publ_section_title
;
Structure prediction by ZEFSAII (Michael W. Deem and Ramdas Pophale) SiO2 
 PCOD8063671
Probable space group: P 2/M
;
_chemical_formula_sum "Si O2"
_cell_formula_units_Z 32
_cell_length_a 28.379738
_cell_length_b 9.399957
_cell_length_c 12.326686
_cell_angle_alpha 90.000000
_cell_angle_beta 149.560729
_cell_angle_gamma 90.000000
_cell_volume 1665.969490
_symmetry_space_group_name_H-M "P 2/M"
_symmetry_group_IT_number 10
_symmetry_cell_setting 'monoclinic'
loop_
_space_group_symop_operation_xyz
x,y,z
-x,y,-z
-x,-y,-z
x,-y,z
loop_
_atom_site_type_symbol
_atom_site_label
_atom_site_fract_x
_atom_site_fract_y
_atom_site_fract_z
Si Si1 0.534971 0.661567 0.186888
Si Si2 0.341140 0.660758 0.887029
Si Si3 0.174359 0.830844 0.958390
Si Si4 0.287375 0.836545 0.395149
Si Si5 0.002774 0.339907 0.341985
Si Si6 0.788061 0.333893 0.172156
Si Si7 0.944811 0.338715 0.787753
Si Si8 0.227294 0.836827 0.511284
O O1 0.569877 0.500000 0.239856
O O2 0.618092 0.750509 0.403482
O O3 0.500000 0.719833 0.000000
O O4 0.452977 0.668307 0.114689
O O5 0.307475 0.500000 0.795232
O O6 0.290355 0.712462 0.896161
O O7 0.318040 0.761022 0.739067
O O8 0.231232 0.762323 0.971766
O O9 0.069758 0.767193 0.746984
O O10 0.167754 0.000000 0.933259
O O11 0.227669 0.784338 0.173685
O O12 0.222998 0.816176 0.373342
O O13 0.316253 0.000000 0.437755
O O14 0.980280 0.500000 0.338349
O O15 0.108836 0.299229 0.579274
O O16 0.989302 0.330103 0.185939
O O17 0.777695 0.500000 0.122320
O O18 0.909658 0.500000 0.737174
O O19 0.858168 0.236817 0.598131
O O20 0.000000 0.280041 0.000000
O O21 0.228410 0.000000 0.547604
#
# Coordination Sequence:
#
# PCOD8063671 Si02
#       8
#     4   4   4   4   4   4   4   4
#     4  10  20  35  62  93 115 143 188 237 282 337
#     4  10  20  38  60  86 117 144 180 234 288 336
#     4  11  24  40  57  81 115 153 197 242 281 329
#     4  10  23  40  56  81 120 158 187 229 289 344
#     4  10  20  36  58  84 112 149 193 236 287 339
#     4  10  21  39  61  82 113 152 191 236 286 339
#     4  10  20  34  53  79 113 153 191 230 282 340
#     4  11  21  33  54  82 114 151 187 225 280 340
#
# _framework density 19.208036
#
# number of rings (size 3 to 8) (size 9 to 14) (size 15 to 20)
#    0.000    1.750    2.500    1.875    0.000    5.500 
#    0.000    0.625    0.000    3.750    0.000    0.000 
#    0.000    0.000    0.000    0.000    0.000    0.000 
#
# Total GULP energy -396795.334910 kJ/mol
# GULP energy per Si atom -12399.854216 kJ/mol
# Density = 1.916432 g / cm^3
# Si number density = 19.208036 Si / 1000 Ang^3
#
#
#
# Elastic Constant Matrix: (Units=GPa)
#
#
# Indices 1 2 3 4 5 6 
#
# 1 109.1889 39.6493 35.2044 0.0000 -2.2566 0.0000
# 2 39.6493 78.2806 34.6386 0.0000 0.4930 0.0000
# 3 35.2044 34.6386 57.6595 0.0000 1.9990 0.0000
# 4 0.0000 0.0000 0.0000 22.2026 0.0000 -12.6551
# 5 -2.2566 0.4930 1.9990 0.0000 31.8959 0.0000
# 6 0.0000 0.0000 0.0000 -12.6551 0.0000 14.8191
#
#
#
# Elastic Compliance Matrix: (Units=1/GPa)
#
#
# Indices 1 2 3 4 5 6 
#
# 1 0.012284 -0.003939 -0.005177 0.000000 0.001254 0.000000
# 2 -0.003939 0.018668 -0.008809 0.000000 -0.000015 0.000000
# 3 -0.005177 -0.008809 0.025860 0.000000 -0.001851 0.000000
# 4 0.000000 0.000000 0.000000 0.087754 0.000000 0.074940
# 5 0.001254 -0.000015 -0.001851 0.000000 0.031557 0.000000
# 6 0.000000 0.000000 0.000000 0.074940 0.000000 0.131477
#
#
# Mechanical properties :
#
#
# Convention : Reuss Voigt Hill
#
# Bulk Modulus (GPa) = 47.70635 51.56817 49.63726
# Shear Modulus (GPa) = 14.26787 22.82595 18.54691
#
# Velocity S-wave (km/s) = 2.72841 3.45099 3.11075
# Velocity P-wave (km/s) = 5.90052 6.54099 6.22900
#
# Compressibility (1/GPa) = 0.02096157
#
# Stress axis : x y z
#
# Youngs Moduli (GPa) = 81.40742 53.56870 38.66921
#
# Poissons Ratio (x) = 0.21100 0.20020
# Poissons Ratio (y) = 0.32065 0.34064
# Poissons Ratio (z) = 0.42147 0.47189
#
# Static dielectric constant tensor:
#      x y z
#    x 3.620790 0.000000 -0.085450 
#    y 0.000000 3.443090 0.000000 
#    z -0.085450 0.000000 3.392620 
# 
# 
# High freq. dielectric constant tensor:
#      x y z
#    x 1.754640 0.000000 -0.002880 
#    y 0.000000 1.741590 0.000000 
#    z -0.002880 0.000000 1.730090 
# 
# From -- ./inp_files/58256.got.cif
#   From: 2010.06.25/outbox.cif.g09.slc.cpg/sg10_30_cif.got.tgz:58256.got - 2010.06.27 22:07:45.
