data_PCOD8063537
_publ_section_title
;
Structure prediction by ZEFSAII (Michael W. Deem and Ramdas Pophale) SiO2 
 PCOD8063537
Probable space group: P 2/M
;
_chemical_formula_sum "Si O2"
_cell_formula_units_Z 32
_cell_length_a 18.668625
_cell_length_b 14.120391
_cell_length_c 23.220130
_cell_angle_alpha 90.000000
_cell_angle_beta 18.085895
_cell_angle_gamma 90.000000
_cell_volume 1900.223859
_symmetry_space_group_name_H-M "P 2/M"
_symmetry_group_IT_number 10
_symmetry_cell_setting 'monoclinic'
loop_
_space_group_symop_operation_xyz
x,y,z
-x,y,-z
-x,-y,-z
x,-y,z
loop_
_atom_site_type_symbol
_atom_site_label
_atom_site_fract_x
_atom_site_fract_y
_atom_site_fract_z
Si Si1 0.196438 0.609696 0.495404
Si Si2 0.621961 0.105975 0.287842
Si Si3 0.807378 0.388332 0.192621
Si Si4 0.429091 0.390301 0.879070
Si Si5 0.017250 0.105975 0.892554
Si Si6 0.371678 0.293089 0.469893
Si Si7 0.677153 0.387566 0.911425
Si Si8 0.005396 0.293090 0.153032
O O1 0.202474 0.500000 0.509326
O O2 0.309888 0.623046 0.345059
O O3 0.356568 0.667513 0.417054
O O4 0.933815 0.648037 0.698093
O O5 0.418223 0.180624 0.433938
O O6 0.743735 0.124109 0.256264
O O7 0.516880 0.000000 0.366368
O O8 0.807430 0.119513 0.096285
O O9 0.785463 0.500000 0.214529
O O10 0.566566 0.346700 0.356525
O O11 0.874219 0.346714 0.202696
O O12 0.000000 0.356364 0.000000
O O13 0.355299 0.500000 0.932906
O O14 0.406207 0.351968 0.961890
O O15 0.262085 0.332489 0.964295
O O16 0.990431 0.180627 0.861736
O O17 0.016118 0.000000 0.867134
O O18 0.127450 0.313045 0.686276
O O19 0.668960 0.500000 0.915524
O O20 0.500000 0.344721 0.000000
#
# Coordination Sequence:
#
# PCOD8063537 Si02
#       8
#     4   4   4   4   4   4   4   4
#     4  10  20  34  52  74 103 138 171 207 251 297
#     4   9  18  33  51  68  90 125 169 214 257 300
#     4  11  23  35  46  63  90 131 179 215 246 293
#     4  10  20  34  52  74 103 138 171 207 251 297
#     4   9  18  33  51  68  90 125 169 214 257 300
#     4  12  22  32  48  71  99 132 170 212 254 296
#     4   9  18  34  54  77 104 131 164 205 248 303
#     4  12  22  32  48  71  99 132 170 212 254 296
#
# _framework density 16.840121
#
# number of rings (size 3 to 8) (size 9 to 14) (size 15 to 20)
#    0.000    1.750    2.500    4.125    0.000    5.000 
#    0.000    3.750    0.000    0.000    0.000    0.000 
#    0.000    2.000    0.000    5.250    0.000    0.250 
#
# Total GULP energy -396816.714817 kJ/mol
# GULP energy per Si atom -12400.522338 kJ/mol
# Density = 1.680179 g / cm^3
# Si number density = 16.840121 Si / 1000 Ang^3
#
#
#
# Elastic Constant Matrix: (Units=GPa)
#
#
# Indices 1 2 3 4 5 6 
#
# 1 91.8698 28.0527 43.1291 0.0000 -4.5911 0.0000
# 2 28.0527 69.6197 27.3757 0.0000 -0.2639 0.0000
# 3 43.1291 27.3757 99.6232 0.0000 7.6361 0.0000
# 4 0.0000 0.0000 0.0000 17.7548 0.0000 5.5264
# 5 -4.5911 -0.2639 7.6361 0.0000 23.2795 0.0000
# 6 0.0000 0.0000 0.0000 5.5264 0.0000 3.6235
#
#
#
# Elastic Compliance Matrix: (Units=1/GPa)
#
#
# Indices 1 2 3 4 5 6 
#
# 1 0.015009 -0.003732 -0.005843 0.000000 0.004834 0.000000
# 2 -0.003732 0.017096 -0.003119 0.000000 0.000481 0.000000
# 3 -0.005843 -0.003119 0.013864 0.000000 -0.005735 0.000000
# 4 0.000000 0.000000 0.000000 0.107222 0.000000 -0.163528
# 5 0.004834 0.000481 -0.005735 0.000000 0.045796 0.000000
# 6 0.000000 0.000000 0.000000 -0.163528 0.000000 0.525374
#
#
# Mechanical properties :
#
#
# Convention : Reuss Voigt Hill
#
# Bulk Modulus (GPa) = 48.58775 50.91420 49.75097
# Shear Modulus (GPa) = 6.60843 19.76860 13.18852
#
# Velocity S-wave (km/s) = 1.98311 3.42994 2.80154
# Velocity P-wave (km/s) = 5.84454 6.78126 6.33025
#
# Compressibility (1/GPa) = 0.02058132
#
# Stress axis : x y z
#
# Youngs Moduli (GPa) = 66.62634 58.49401 72.12935
#
# Poissons Ratio (x) = 0.21830 0.42144
# Poissons Ratio (y) = 0.24865 0.22497
# Poissons Ratio (z) = 0.38928 0.18244
#
# Static dielectric constant tensor:
#      x y z
#    x 3.030350 0.000000 0.089690 
#    y 0.000000 3.145980 0.000000 
#    z 0.089690 0.000000 3.259460 
# 
# 
# High freq. dielectric constant tensor:
#      x y z
#    x 1.620670 0.000000 0.015470 
#    y 0.000000 1.629930 0.000000 
#    z 0.015470 0.000000 1.660180 
# 
# From -- ./inp_files/82808.got.cif
#   From: 2010.06.25/outbox.cif.g09.slc.cpg/sg10_42_cif.got.tgz:82808.got - 2010.06.27 22:07:45.
