data_PCOD8063512
_publ_section_title
;
Structure prediction by ZEFSAII (Michael W. Deem and Ramdas Pophale) SiO2 
 PCOD8063512
Probable space group: P 2/M
;
_chemical_formula_sum "Si O2"
_cell_formula_units_Z 28
_cell_length_a 14.393543
_cell_length_b 9.639084
_cell_length_c 13.120162
_cell_angle_alpha 90.000000
_cell_angle_beta 57.105207
_cell_angle_gamma 90.000000
_cell_volume 1528.448844
_symmetry_space_group_name_H-M "P 2/M"
_symmetry_group_IT_number 10
_symmetry_cell_setting 'monoclinic'
loop_
_space_group_symop_operation_xyz
x,y,z
-x,y,-z
-x,-y,-z
x,-y,z
loop_
_atom_site_type_symbol
_atom_site_label
_atom_site_fract_x
_atom_site_fract_y
_atom_site_fract_z
Si Si1 0.370890 0.343150 0.434203
Si Si2 0.395795 0.341928 0.789212
Si Si3 0.795505 0.160844 0.572938
Si Si4 0.828615 0.835823 0.778775
Si Si5 0.937912 0.838490 0.291409
Si Si6 0.601517 0.164031 0.012475
Si Si7 0.235330 0.339497 0.710637
O O1 0.335053 0.500000 0.429650
O O2 0.502581 0.325847 0.350074
O O3 0.316342 0.243523 0.383233
O O4 0.328938 0.302130 0.571579
O O5 0.389292 0.500000 0.833800
O O6 0.413046 0.238165 0.871433
O O7 0.285098 0.303950 0.791984
O O8 0.840587 0.214046 0.654807
O O9 0.887685 0.190223 0.433001
O O10 0.762641 0.000000 0.597197
O O11 0.935135 0.785140 0.779946
O O12 0.827844 0.000000 0.780460
O O13 0.715265 0.779547 0.895168
O O14 0.874008 0.752303 0.242797
O O15 0.929158 0.000000 0.267691
O O16 0.604577 0.000000 0.029645
O O17 0.500000 0.205222 0.000000
O O18 0.201012 0.500000 0.724215
#
# Coordination Sequence:
#
# PCOD8063512 Si02
#       7
#     4   4   4   4   4   4   4
#     4   9  17  30  49  73 100 128 157 193 242 295
#     4  10  20  34  52  72  96 129 165 199 238 285
#     4   9  16  28  49  75 100 126 158 197 239 285
#     4   9  17  31  50  71  98 131 162 194 239 290
#     4   9  17  30  50  75  99 125 160 199 238 284
#     4  10  21  36  53  73  98 128 161 198 239 283
#     4   9  18  33  51  72  99 128 158 196 243 290
#
# _framework density 18.319226
#
# number of rings (size 3 to 8) (size 9 to 14) (size 15 to 20)
#    0.000    2.714    0.000    1.714    0.000    6.000 
#    0.000    2.857    0.000   12.000    0.000    0.000 
#    0.000    0.000    0.000    0.000    0.000    0.000 
#
# Total GULP energy -347154.042879 kJ/mol
# GULP energy per Si atom -12398.358674 kJ/mol
# Density = 1.827753 g / cm^3
# Si number density = 18.319226 Si / 1000 Ang^3
#
#
#
# Elastic Constant Matrix: (Units=GPa)
#
#
# Indices 1 2 3 4 5 6 
#
# 1 151.9136 56.0788 49.7289 0.0000 -5.2752 0.0000
# 2 56.0788 52.1328 26.2665 0.0000 2.3911 0.0000
# 3 49.7289 26.2665 57.8794 0.0000 -5.0090 0.0000
# 4 0.0000 0.0000 0.0000 18.8028 0.0000 6.6325
# 5 -5.2752 2.3911 -5.0090 0.0000 30.1323 0.0000
# 6 0.0000 0.0000 0.0000 6.6325 0.0000 21.1724
#
#
#
# Elastic Compliance Matrix: (Units=1/GPa)
#
#
# Indices 1 2 3 4 5 6 
#
# 1 0.012430 -0.010599 -0.005690 0.000000 0.002071 0.000000
# 2 -0.010599 0.034366 -0.006987 0.000000 -0.005744 0.000000
# 3 -0.005690 -0.006987 0.025668 0.000000 0.003825 0.000000
# 4 0.000000 0.000000 0.000000 0.059790 0.000000 -0.018730
# 5 0.002071 -0.005744 0.003825 0.000000 0.034641 0.000000
# 6 0.000000 0.000000 0.000000 -0.018730 0.000000 0.053099
#
#
# Mechanical properties :
#
#
# Convention : Reuss Voigt Hill
#
# Bulk Modulus (GPa) = 38.59150 58.45271 48.52210
# Shear Modulus (GPa) = 18.16964 22.67827 20.42396
#
# Velocity S-wave (km/s) = 3.15276 3.52227 3.34262
# Velocity P-wave (km/s) = 5.86217 6.96555 6.43754
#
# Compressibility (1/GPa) = 0.02591244
#
# Stress axis : x y z
#
# Youngs Moduli (GPa) = 80.45160 29.09825 38.95870
#
# Poissons Ratio (x) = 0.30840 0.22169
# Poissons Ratio (y) = 0.85267 0.27220
# Poissons Ratio (z) = 0.45780 0.20331
#
# Static dielectric constant tensor:
#      x y z
#    x 3.556580 0.000000 -0.137630 
#    y 0.000000 3.222890 0.000000 
#    z -0.137630 0.000000 3.284920 
# 
# 
# High freq. dielectric constant tensor:
#      x y z
#    x 1.717850 0.000000 -0.005030 
#    y 0.000000 1.688560 0.000000 
#    z -0.005030 0.000000 1.693840 
# 
# From -- ./inp_files/45971.got.cif
#   From: 2010.06.25/outbox.cif.g09.slc.cpg/sg10_23_cif.got.tgz:45971.got - 2010.06.27 22:07:45.
