data_PCOD8063514
_publ_section_title
;
Structure prediction by ZEFSAII (Michael W. Deem and Ramdas Pophale) SiO2 
 PCOD8063514
Probable space group: P 2/M
;
_chemical_formula_sum "Si O2"
_cell_formula_units_Z 24
_cell_length_a 12.182961
_cell_length_b 8.668928
_cell_length_c 14.300077
_cell_angle_alpha 90.000000
_cell_angle_beta 111.171308
_cell_angle_gamma 90.000000
_cell_volume 1408.340570
_symmetry_space_group_name_H-M "P 2/M"
_symmetry_group_IT_number 10
_symmetry_cell_setting 'monoclinic'
loop_
_space_group_symop_operation_xyz
x,y,z
-x,y,-z
-x,-y,-z
x,-y,z
loop_
_atom_site_type_symbol
_atom_site_label
_atom_site_fract_x
_atom_site_fract_y
_atom_site_fract_z
Si Si1 0.061280 0.180806 0.650223
Si Si2 0.406663 0.820277 0.547976
Si Si3 0.618588 0.829453 0.976937
Si Si4 0.547498 0.820183 0.227485
Si Si5 0.752250 0.678265 0.172609
Si Si6 0.161851 0.319306 0.496860
O O1 0.129762 0.227567 0.765603
O O2 0.142165 0.226384 0.586768
O O3 0.937197 0.270175 0.608519
O O4 0.036651 0.000000 0.641005
O O5 0.500000 0.764848 0.500000
O O6 0.463079 0.784521 0.666388
O O7 0.288801 0.722897 0.494883
O O8 0.376116 0.000000 0.527326
O O9 0.578352 0.777231 0.860037
O O10 0.674859 0.000000 0.991982
O O11 0.500000 0.829991 0.000000
O O12 0.713499 0.716919 0.054127
O O13 0.650716 0.718678 0.215217
O O14 0.577273 0.000000 0.217003
O O15 0.782118 0.500000 0.189117
O O16 0.152478 0.500000 0.514800
#
# Coordination Sequence:
#
# PCOD8063514 Si02
#       6
#     4   4   4   4   4   4
#     4  11  20  32  50  69  95 130 161 194 239 295
#     4  10  20  34  52  72  96 132 172 202 233 280
#     4   8  15  27  42  62  90 126 160 191 233 287
#     4   9  17  30  46  64  93 129 163 199 236 280
#     4  11  19  27  43  70  98 125 155 195 241 290
#     4  11  21  33  48  71  98 125 160 202 245 286
#
# _framework density 17.041333000000002
#
# number of rings (size 3 to 8) (size 9 to 14) (size 15 to 20)
#    0.000    2.000    1.667    6.500    0.000    3.333 
#    0.000    0.000    0.000    0.000    0.000    1.167 
#    0.000    9.333    0.000    0.000    0.000    0.000 
#
# Total GULP energy -297562.799321 kJ/mol
# GULP energy per Si atom -12398.449972 kJ/mol
# Density = 1.700255 g / cm^3
# Si number density = 17.041333 Si / 1000 Ang^3
#
#
#
# Elastic Constant Matrix: (Units=GPa)
#
#
# Indices 1 2 3 4 5 6 
#
# 1 71.1225 21.5781 44.6640 0.0000 9.3328 0.0000
# 2 21.5781 76.3487 25.1383 0.0000 7.0461 0.0000
# 3 44.6640 25.1383 113.4946 0.0000 21.4311 0.0000
# 4 0.0000 0.0000 0.0000 18.0180 0.0000 7.1763
# 5 9.3328 7.0461 21.4311 0.0000 23.6759 0.0000
# 6 0.0000 0.0000 0.0000 7.1763 0.0000 16.4556
#
#
#
# Elastic Compliance Matrix: (Units=1/GPa)
#
#
# Indices 1 2 3 4 5 6 
#
# 1 0.019379 -0.003183 -0.006824 0.000000 -0.000515 0.000000
# 2 -0.003183 0.014705 -0.001707 0.000000 -0.001577 0.000000
# 3 -0.006824 -0.001707 0.013594 0.000000 -0.009107 0.000000
# 4 0.000000 0.000000 0.000000 0.067166 0.000000 -0.029291
# 5 -0.000515 -0.001577 -0.009107 0.000000 0.051153 0.000000
# 6 0.000000 0.000000 0.000000 -0.029291 0.000000 0.073544
#
#
# Mechanical properties :
#
#
# Convention : Reuss Voigt Hill
#
# Bulk Modulus (GPa) = 41.23567 49.30294 45.26931
# Shear Modulus (GPa) = 18.44669 22.93559 20.69114
#
# Velocity S-wave (km/s) = 3.29366 3.67260 3.48828
# Velocity P-wave (km/s) = 6.22207 6.85407 6.54570
#
# Compressibility (1/GPa) = 0.02425085
#
# Stress axis : x y z
#
# Youngs Moduli (GPa) = 51.60274 68.00520 73.56022
#
# Poissons Ratio (x) = 0.21643 0.50198
# Poissons Ratio (y) = 0.16423 0.12556
# Poissons Ratio (z) = 0.35214 0.11607
#
# Static dielectric constant tensor:
#      x y z
#    x 2.815480 0.000000 0.316050 
#    y 0.000000 3.140860 0.000000 
#    z 0.316050 0.000000 3.590860 
# 
# 
# High freq. dielectric constant tensor:
#      x y z
#    x 1.601040 0.000000 0.035900 
#    y 0.000000 1.660680 0.000000 
#    z 0.035900 0.000000 1.664120 
# 
# From -- ./inp_files/54594.got.cif
#   From: 2010.06.25/outbox.cif.g09.slc.cpg/sg10_28_cif.got.tgz:54594.got - 2010.06.27 22:07:45.
