data_PCOD8063394
_publ_section_title
;
Structure prediction by ZEFSAII (Michael W. Deem and Ramdas Pophale) SiO2 
 PCOD8063394
Probable space group: P 2/M
;
_chemical_formula_sum "Si O2"
_cell_formula_units_Z 28
_cell_length_a 15.071439
_cell_length_b 8.691807
_cell_length_c 10.544101
_cell_angle_alpha 90.000000
_cell_angle_beta 63.807264
_cell_angle_gamma 90.000000
_cell_volume 1239.421309
_symmetry_space_group_name_H-M "P 2/M"
_symmetry_group_IT_number 10
_symmetry_cell_setting 'monoclinic'
loop_
_space_group_symop_operation_xyz
x,y,z
-x,y,-z
-x,-y,-z
x,-y,z
loop_
_atom_site_type_symbol
_atom_site_label
_atom_site_fract_x
_atom_site_fract_y
_atom_site_fract_z
Si Si1 0.174291 0.172669 0.793790
Si Si2 0.083629 0.670578 0.524971
Si Si3 0.720381 0.682933 0.502316
Si Si4 0.984588 0.670881 0.852691
Si Si5 0.576948 0.681746 0.059625
Si Si6 0.220967 0.171198 0.042938
Si Si7 0.484896 0.819244 0.364975
O O1 0.245388 0.271361 0.659789
O O2 0.236897 0.164505 0.882269
O O3 0.065023 0.246908 0.898664
O O4 0.156523 0.000000 0.749987
O O5 0.088785 0.500000 0.460957
O O6 0.194694 0.737560 0.450306
O O7 0.000000 0.766640 0.500000
O O8 0.057569 0.663330 0.687944
O O9 0.701713 0.500000 0.519178
O O10 0.625625 0.776274 0.605929
O O11 0.956678 0.500000 0.918764
O O12 0.886926 0.756190 0.864870
O O13 0.573121 0.500000 0.067131
O O14 0.688360 0.734321 0.952180
O O15 0.554370 0.744287 0.214878
O O16 0.500000 0.742305 0.000000
O O17 0.221524 0.000000 0.100946
O O18 0.500000 0.755822 0.500000
O O19 0.503277 0.000000 0.350483
#
# Coordination Sequence:
#
# PCOD8063394 Si02
#       7
#     4   4   4   4   4   4   4
#     4  10  20  35  55  83 120 156 192 239 298 362
#     4   8  16  32  52  76 108 143 180 225 277 336
#     4  10  20  34  57  87 115 149 194 245 300 353
#     4  10  20  33  54  84 114 149 193 239 291 354
#     4  11  26  46  66  90 121 160 209 262 313 368
#     4  11  23  38  58  83 114 155 196 240 300 364
#     4  11  24  42  65  93 124 160 203 253 312 373
#
# _framework density 22.591187000000001
#
# number of rings (size 3 to 8) (size 9 to 14) (size 15 to 20)
#    0.000    1.857    0.000    4.714    0.000   10.857 
#    0.000    2.857    0.000   14.571    0.000    0.000 
#    0.000    0.000    0.000    0.000    0.000    0.000 
#
# Total GULP energy -346941.039991 kJ/mol
# GULP energy per Si atom -12390.751428 kJ/mol
# Density = 2.253977 g / cm^3
# Si number density = 22.591187 Si / 1000 Ang^3
#
#
#
# Elastic Constant Matrix: (Units=GPa)
#
#
# Indices 1 2 3 4 5 6 
#
# 1 147.4978 35.5213 9.5030 0.0000 -12.5110 0.0000
# 2 35.5213 89.8282 13.6219 0.0000 -4.6960 0.0000
# 3 9.5030 13.6219 38.1136 0.0000 -10.5699 0.0000
# 4 0.0000 0.0000 0.0000 16.2581 0.0000 -9.2311
# 5 -12.5110 -4.6960 -10.5699 0.0000 36.1045 0.0000
# 6 0.0000 0.0000 0.0000 -9.2311 0.0000 30.4789
#
#
#
# Elastic Compliance Matrix: (Units=1/GPa)
#
#
# Indices 1 2 3 4 5 6 
#
# 1 0.007678 -0.002879 -0.000274 0.000000 0.002206 0.000000
# 2 -0.002879 0.012854 -0.004015 0.000000 -0.000501 0.000000
# 3 -0.000274 -0.004015 0.030006 0.000000 0.008167 0.000000
# 4 0.000000 0.000000 0.000000 0.074282 0.000000 0.022498
# 5 0.002206 -0.000501 0.008167 0.000000 0.030788 0.000000
# 6 0.000000 0.000000 0.000000 0.022498 0.000000 0.039623
#
#
# Mechanical properties :
#
#
# Convention : Reuss Voigt Hill
#
# Bulk Modulus (GPa) = 27.62332 43.63690 35.63011
# Shear Modulus (GPa) = 22.55985 31.02119 26.79052
#
# Velocity S-wave (km/s) = 3.16351 3.70963 3.44740
# Velocity P-wave (km/s) = 5.05942 6.14055 5.62601
#
# Compressibility (1/GPa) = 0.03620130
#
# Stress axis : x y z
#
# Youngs Moduli (GPa) = 130.24373 77.79926 33.32718
#
# Poissons Ratio (x) = 0.22401 0.00912
# Poissons Ratio (y) = 0.37501 0.13381
# Poissons Ratio (z) = 0.03562 0.31237
#
# Static dielectric constant tensor:
#      x y z
#    x 4.460030 0.000000 -0.016680 
#    y 0.000000 4.032530 0.000000 
#    z -0.016680 0.000000 3.956070 
# 
# 
# High freq. dielectric constant tensor:
#      x y z
#    x 1.912380 0.000000 -0.010960 
#    y 0.000000 1.874310 0.000000 
#    z -0.010960 0.000000 1.881730 
# 
# From -- ./inp_files/49637.got.cif
#   From: 2010.06.25/outbox.cif.g09.slc.cpg/sg10_25_cif.got.tgz:49637.got - 2010.06.27 22:07:45.
