data_PCOD8063305
_publ_section_title
;
Structure prediction by ZEFSAII (Michael W. Deem and Ramdas Pophale) SiO2 
 PCOD8063305
Probable space group: P 2/M
;
_chemical_formula_sum "Si O2"
_cell_formula_units_Z 20
_cell_length_a 15.250905
_cell_length_b 16.688457
_cell_length_c 8.662608
_cell_angle_alpha 90.000000
_cell_angle_beta 28.719211
_cell_angle_gamma 90.000000
_cell_volume 1059.423829
_symmetry_space_group_name_H-M "P 2/M"
_symmetry_group_IT_number 10
_symmetry_cell_setting 'monoclinic'
loop_
_space_group_symop_operation_xyz
x,y,z
-x,y,-z
-x,-y,-z
x,-y,z
loop_
_atom_site_type_symbol
_atom_site_label
_atom_site_fract_x
_atom_site_fract_y
_atom_site_fract_z
Si Si1 0.815066 0.091512 0.207820
Si Si2 0.500438 0.200328 0.818698
Si Si3 0.797877 0.500000 0.236417
Si Si4 0.499473 0.384995 0.817317
Si Si5 0.323578 0.087404 0.884044
Si Si6 0.208868 0.500000 0.122798
O O1 0.675668 0.156256 0.484638
O O2 0.842890 0.100352 0.978966
O O3 0.754860 0.000000 0.342065
O O4 0.000000 0.116170 0.000000
O O5 0.498650 0.292417 0.771828
O O6 0.325374 0.155859 0.012352
O O7 0.500000 0.190134 0.000000
O O8 0.686673 0.421941 0.462999
O O9 0.800727 0.500000 0.047121
O O10 0.000000 0.500000 0.000000
O O11 0.500000 0.398846 0.000000
O O12 0.318927 0.423156 0.018215
O O13 0.500000 0.091008 0.500000
O O14 0.310482 0.000000 0.984958
O O15 0.000000 0.500000 0.500000
#
# Coordination Sequence:
#
# PCOD8063305 Si02
#       6
#     4   4   2   4   4   2
#     4   9  18  33  52  74 103 141 183 224 265 312
#     4  10  20  33  52  78 106 137 173 218 268 315
#     4  11  22  37  60  84 106 143 182 215 272 332
#     4  10  21  38  56  81 114 142 180 228 270 325
#     4   8  15  29  49  71  98 136 175 209 252 307
#     4  11  22  39  62  84 108 141 178 223 276 328
#
# _framework density 18.878184999999998
#
# number of rings (size 3 to 8) (size 9 to 14) (size 15 to 20)
#    0.000    2.400    0.000    5.400    0.000    7.200 
#    0.000    5.000    0.000    3.600    0.000    0.000 
#    0.000    0.000    0.000    0.000    0.000    0.000 
#
# Total GULP energy -247801.674852 kJ/mol
# GULP energy per Si atom -12390.083743 kJ/mol
# Density = 1.883522 g / cm^3
# Si number density = 18.878185 Si / 1000 Ang^3
#
#
#
# Elastic Constant Matrix: (Units=GPa)
#
#
# Indices 1 2 3 4 5 6 
#
# 1 160.1112 87.0328 54.3569 0.0000 -14.3705 0.0000
# 2 87.0328 178.1780 52.3825 0.0000 2.4454 0.0000
# 3 54.3569 52.3825 82.7336 0.0000 -8.9971 0.0000
# 4 0.0000 0.0000 0.0000 22.1186 0.0000 6.7932
# 5 -14.3705 2.4454 -8.9971 0.0000 35.1550 0.0000
# 6 0.0000 0.0000 0.0000 6.7932 0.0000 31.9438
#
#
#
# Elastic Compliance Matrix: (Units=1/GPa)
#
#
# Indices 1 2 3 4 5 6 
#
# 1 0.009858 -0.003764 -0.003731 0.000000 0.003337 0.000000
# 2 -0.003764 0.008427 -0.003182 0.000000 -0.002939 0.000000
# 3 -0.003731 -0.003182 0.016881 0.000000 0.003017 0.000000
# 4 0.000000 0.000000 0.000000 0.048370 0.000000 -0.010286
# 5 0.003337 -0.002939 0.003017 0.000000 0.030786 0.000000
# 6 0.000000 0.000000 0.000000 -0.010286 0.000000 0.033492
#
#
# Mechanical properties :
#
#
# Convention : Reuss Voigt Hill
#
# Bulk Modulus (GPa) = 72.40102 89.84080 81.12091
# Shear Modulus (GPa) = 28.77353 32.99353 30.88353
#
# Velocity S-wave (km/s) = 3.90829 4.18509 4.04906
# Velocity P-wave (km/s) = 7.66820 8.42890 8.05753
#
# Compressibility (1/GPa) = 0.01381196
#
# Stress axis : x y z
#
# Youngs Moduli (GPa) = 101.44302 118.66891 59.23943
#
# Poissons Ratio (x) = 0.44669 0.22099
# Poissons Ratio (y) = 0.38185 0.18850
# Poissons Ratio (z) = 0.37843 0.37760
#
# Static dielectric constant tensor:
#      x y z
#    x 4.561360 0.000000 -0.205550 
#    y 0.000000 3.623810 0.000000 
#    z -0.205550 0.000000 3.186230 
# 
# 
# High freq. dielectric constant tensor:
#      x y z
#    x 1.762680 0.000000 -0.004640 
#    y 0.000000 1.737000 0.000000 
#    z -0.004640 0.000000 1.698420 
# 
# From -- ./inp_files/29967.got.cif
#   From: 2010.06.25/outbox.cif.g09.slc.cpg/sg10_15_cif.got.tgz:29967.got - 2010.06.27 22:07:45.
