data_PCOD8063911
_publ_section_title
;
Structure prediction by ZEFSAII (Michael W. Deem and Ramdas Pophale) SiO2 
 PCOD8063911
Probable space group: P 2/M
;
_chemical_formula_sum "Si O2"
_cell_formula_units_Z 18
_cell_length_a 13.131079
_cell_length_b 16.556880
_cell_length_c 10.138281
_cell_angle_alpha 90.000000
_cell_angle_beta 159.181257
_cell_angle_gamma 90.000000
_cell_volume 783.386789
_symmetry_space_group_name_H-M "P 2/M"
_symmetry_group_IT_number 10
_symmetry_cell_setting 'monoclinic'
loop_
_space_group_symop_operation_xyz
x,y,z
-x,y,-z
-x,-y,-z
x,-y,z
loop_
_atom_site_type_symbol
_atom_site_label
_atom_site_fract_x
_atom_site_fract_y
_atom_site_fract_z
Si Si1 0.166550 0.500000 0.566780
Si Si2 0.258982 0.333498 0.599091
Si Si3 0.337873 0.254430 0.433949
Si Si4 0.837539 0.165601 0.434168
Si Si5 0.756507 0.087229 0.597737
O O1 0.083449 0.418298 0.384388
O O2 0.000000 0.500000 0.500000
O O3 0.500000 0.500000 0.000000
O O4 0.400339 0.317767 0.626625
O O5 0.059706 0.256074 0.396451
O O6 0.500000 0.343666 0.000000
O O7 0.500000 0.284119 0.500000
O O8 0.446651 0.164004 0.610334
O O9 0.000000 0.250561 0.000000
O O10 0.900476 0.103447 0.628769
O O11 0.000000 0.136410 0.500000
O O12 0.500000 0.168217 0.000000
O O13 0.592044 0.000000 0.394029
O O14 0.000000 0.079662 0.000000
#
# Coordination Sequence:
#
# PCOD8063911 Si02
#       5
#     2   4   4   4   4
#     4  10  20  34  56  86 114 142 181 228 271 318
#     4   9  20  37  59  84 111 145 186 226 270 325
#     4  10  22  39  58  81 112 147 183 226 276 326
#     4  10  21  37  57  81 110 144 182 226 275 325
#     4   9  20  37  57  81 110 145 185 227 273 327
#
# _framework density 22.977156000000001
#
# number of rings (size 3 to 8) (size 9 to 14) (size 15 to 20)
#    0.000    2.444    0.000    0.667    0.000   20.889 
#    0.000    5.556    0.000    0.000    0.000    0.000 
#    0.000    0.000    0.000    0.000    0.000    0.000 
#
# Total GULP energy -223030.066738 kJ/mol
# GULP energy per Si atom -12390.559263 kJ/mol
# Density = 2.292486 g / cm^3
# Si number density = 22.977156 Si / 1000 Ang^3
#
#
#
# Elastic Constant Matrix: (Units=GPa)
#
#
# Indices 1 2 3 4 5 6 
#
# 1 220.4847 67.5363 40.8975 0.0000 -24.0741 0.0000
# 2 67.5363 183.3000 24.9661 0.0000 -22.9270 0.0000
# 3 40.8975 24.9661 29.2353 0.0000 -10.4566 0.0000
# 4 0.0000 0.0000 0.0000 -12.5551 0.0000 8.8221
# 5 -24.0741 -22.9270 -10.4566 0.0000 40.4964 0.0000
# 6 0.0000 0.0000 0.0000 8.8221 0.0000 17.3088
#
#
#
# Elastic Compliance Matrix: (Units=1/GPa)
#
#
# Indices 1 2 3 4 5 6 
#
# 1 0.006432 -0.001191 -0.007552 0.000000 0.001199 0.000000
# 2 -0.001191 0.006604 -0.003183 0.000000 0.002209 0.000000
# 3 -0.007552 -0.003183 0.049840 0.000000 0.006578 0.000000
# 4 0.000000 0.000000 0.000000 -0.058646 0.000000 0.029891
# 5 0.001199 0.002209 0.006578 0.000000 0.028356 0.000000
# 6 0.000000 0.000000 0.000000 0.029891 0.000000 0.042539
#
#
# Mechanical properties :
#
#
# Convention : Reuss Voigt Hill
#
# Bulk Modulus (GPa) = 25.62499 77.75775 51.69137
# Shear Modulus (GPa) = 44.64830 29.02468 36.83649
#
# Velocity S-wave (km/s) = 4.41291 3.55800 4.00832
# Velocity P-wave (km/s) = 6.09439 7.12699 6.63082
#
# Compressibility (1/GPa) = 0.03902440
#
# Stress axis : x y z
#
# Youngs Moduli (GPa) = 155.47147 151.41563 20.06404
#
# Poissons Ratio (x) = 0.18038 0.15151
# Poissons Ratio (y) = 0.18521 0.06387
# Poissons Ratio (z) = 1.17405 0.48201
#
# Static dielectric constant tensor:
#      x y z
#    x 4.265590 0.000000 -0.381140 
#    y 0.000000 5.635890 0.000000 
#    z -0.381140 0.000000 3.738310 
# 
# 
# High freq. dielectric constant tensor:
#      x y z
#    x 1.910370 0.000000 -0.024080 
#    y 0.000000 1.911870 0.000000 
#    z -0.024080 0.000000 1.871160 
# 
# From -- ./inp_files/7090.got.cif
#   From: 2010.06.25/outbox.cif.g09.slc.cpg/sg10_4_cif.got.tgz:7090.got - 2010.06.27 22:07:45.
