data_PCOD8063410
_publ_section_title
;
Structure prediction by ZEFSAII (Michael W. Deem and Ramdas Pophale) SiO2 
 PCOD8063410
Probable space group: P 2/M
;
_chemical_formula_sum "Si O2"
_cell_formula_units_Z 20
_cell_length_a 8.777829
_cell_length_b 7.833721
_cell_length_c 19.682140
_cell_angle_alpha 90.000000
_cell_angle_beta 131.815385
_cell_angle_gamma 90.000000
_cell_volume 1008.688115
_symmetry_space_group_name_H-M "P 2/M"
_symmetry_group_IT_number 10
_symmetry_cell_setting 'monoclinic'
loop_
_space_group_symop_operation_xyz
x,y,z
-x,y,-z
-x,-y,-z
x,-y,z
loop_
_atom_site_type_symbol
_atom_site_label
_atom_site_fract_x
_atom_site_fract_y
_atom_site_fract_z
Si Si1 0.279783 0.189931 0.261711
Si Si2 0.456033 0.300823 0.911918
Si Si3 0.977767 0.692505 0.278332
Si Si4 0.664567 0.000000 0.398491
Si Si5 0.011418 0.000000 0.391022
Si Si6 0.206048 0.197235 0.091491
O O1 0.256008 0.277446 0.180287
O O2 0.169174 0.307147 0.284014
O O3 0.178267 0.000000 0.233852
O O4 0.521915 0.169751 0.351109
O O5 0.502710 0.500000 0.924671
O O6 0.224452 0.256900 0.823521
O O7 0.604229 0.214288 0.902098
O O8 0.500000 0.225789 0.000000
O O9 0.959136 0.500000 0.302832
O O10 0.012619 0.827396 0.348136
O O11 0.814061 0.000000 0.379216
O O12 0.781377 0.000000 0.504199
O O13 0.164242 0.000000 0.091807
O O14 0.000000 0.284050 0.000000
#
# Coordination Sequence:
#
# PCOD8063410 Si02
#       6
#     4   4   4   2   2   4
#     4   9  19  37  57  84 119 152 194 236 294 354
#     4  10  22  37  53  81 118 157 200 239 292 350
#     4  11  23  38  62  91 119 158 199 243 297 351
#     4   9  21  39  66  87 112 165 191 235 315 349
#     4  11  21  43  66  85 122 151 195 253 293 357
#     4  10  20  33  55  86 117 151 200 242 285 348
#
# _framework density 19.827734
#
# number of rings (size 3 to 8) (size 9 to 14) (size 15 to 20)
#    0.600    1.400    1.000    2.400    1.400    3.200 
#    0.000    5.000    0.000    0.000    0.000    0.000 
#    0.000    0.000    0.000    0.000    0.000    0.000 
#
# Total GULP energy -247938.786384 kJ/mol
# GULP energy per Si atom -12396.939319 kJ/mol
# Density = 1.978261 g / cm^3
# Si number density = 19.827734 Si / 1000 Ang^3
#
#
#
# Elastic Constant Matrix: (Units=GPa)
#
#
# Indices 1 2 3 4 5 6 
#
# 1 125.4381 31.7382 78.3122 0.0000 3.0555 0.0000
# 2 31.7382 62.7020 50.8563 0.0000 -7.3843 0.0000
# 3 78.3122 50.8563 177.4501 0.0000 1.2883 0.0000
# 4 0.0000 0.0000 0.0000 6.6918 0.0000 0.8536
# 5 3.0555 -7.3843 1.2883 0.0000 38.7148 0.0000
# 6 0.0000 0.0000 0.0000 0.8536 0.0000 11.3300
#
#
#
# Elastic Compliance Matrix: (Units=1/GPa)
#
#
# Indices 1 2 3 4 5 6 
#
# 1 0.011279 -0.002372 -0.004289 0.000000 -0.001200 0.000000
# 2 -0.002372 0.021970 -0.005283 0.000000 0.004553 0.000000
# 3 -0.004289 -0.005283 0.009049 0.000000 -0.000970 0.000000
# 4 0.000000 0.000000 0.000000 0.150886 0.000000 -0.011367
# 5 -0.001200 0.004553 -0.000970 0.000000 0.026825 0.000000
# 6 0.000000 0.000000 0.000000 -0.011367 0.000000 0.089118
#
#
# Mechanical properties :
#
#
# Convention : Reuss Voigt Hill
#
# Bulk Modulus (GPa) = 54.31534 76.37817 65.34676
# Shear Modulus (GPa) = 14.74262 24.99288 19.86775
#
# Velocity S-wave (km/s) = 2.72974 3.55421 3.16890
# Velocity P-wave (km/s) = 6.11461 7.44632 6.81308
#
# Compressibility (1/GPa) = 0.01841100
#
# Stress axis : x y z
#
# Youngs Moduli (GPa) = 88.65873 45.51662 110.50374
#
# Poissons Ratio (x) = 0.10794 0.47399
# Poissons Ratio (y) = 0.21026 0.58378
# Poissons Ratio (z) = 0.38029 0.24046
#
# Static dielectric constant tensor:
#      x y z
#    x 3.527270 0.000000 0.003570 
#    y 0.000000 3.284900 0.000000 
#    z 0.003570 0.000000 3.762440 
# 
# 
# High freq. dielectric constant tensor:
#      x y z
#    x 1.783580 0.000000 -0.001040 
#    y 0.000000 1.747510 0.000000 
#    z -0.001040 0.000000 1.774110 
# 
# From -- ./inp_files/74480.got.cif
#   From: 2010.06.25/outbox.cif.g09.slc.cpg/sg10_38_cif.got.tgz:74480.got - 2010.06.27 22:07:45.
