data_PCOD8063521
_publ_section_title
;
Structure prediction by ZEFSAII (Michael W. Deem and Ramdas Pophale) SiO2 
 PCOD8063521
Probable space group: P 2/M
;
_chemical_formula_sum "Si O2"
_cell_formula_units_Z 28
_cell_length_a 15.912105
_cell_length_b 18.176435
_cell_length_c 9.333682
_cell_angle_alpha 90.000000
_cell_angle_beta 148.367577
_cell_angle_gamma 90.000000
_cell_volume 1415.820437
_symmetry_space_group_name_H-M "P 2/M"
_symmetry_group_IT_number 10
_symmetry_cell_setting 'monoclinic'
loop_
_space_group_symop_operation_xyz
x,y,z
-x,y,-z
-x,-y,-z
x,-y,z
loop_
_atom_site_type_symbol
_atom_site_label
_atom_site_fract_x
_atom_site_fract_y
_atom_site_fract_z
Si Si1 0.014092 0.086696 0.684696
Si Si2 0.158664 0.841090 0.318457
Si Si3 0.354473 0.583580 0.207194
Si Si4 0.670714 0.086715 0.683485
Si Si5 0.007151 0.413686 0.676928
Si Si6 0.451996 0.583332 0.777948
Si Si7 0.153026 0.669730 0.319617
O O1 0.000000 0.114471 0.500000
O O2 0.867964 0.122283 0.564137
O O3 0.990161 0.000000 0.658287
O O4 0.188197 0.109771 0.000721
O O5 0.304058 0.875643 0.436321
O O6 0.190005 0.755317 0.385711
O O7 0.000000 0.858047 0.000000
O O8 0.500000 0.625517 0.500000
O O9 0.348267 0.500000 0.255476
O O10 0.388779 0.585385 0.087279
O O11 0.179931 0.617320 0.982688
O O12 0.500000 0.112973 0.500000
O O13 0.670904 0.000000 0.657729
O O14 0.983197 0.500000 0.675813
O O15 0.000000 0.398157 0.500000
O O16 0.874851 0.365026 0.563777
O O17 0.389897 0.500000 0.709408
O O18 0.312541 0.629278 0.494228
O O19 0.500000 0.618660 0.000000
O O20 0.000000 0.651760 0.000000
#
# Coordination Sequence:
#
# PCOD8063521 Si02
#       7
#     4   4   4   4   4   4   4
#     4   9  17  32  56  82 107 140 181 221 262 311
#     4   9  19  35  52  76 111 146 179 214 264 327
#     4   9  17  30  48  69  91 116 152 200 250 296
#     4   9  17  33  58  83 107 140 182 224 265 312
#     4  10  20  34  52  73  96 126 168 216 262 308
#     4  10  20  35  53  72  97 130 169 213 261 312
#     4  11  22  35  52  76 104 136 175 216 261 316
#
# _framework density 19.776519
#
# number of rings (size 3 to 8) (size 9 to 14) (size 15 to 20)
#    0.000    2.429    0.000    2.571    0.000    6.857 
#    0.000    7.143    0.000    3.429    0.000    0.000 
#    0.000    0.000    0.000    0.000    0.000    0.000 
#
# Total GULP energy -347068.481145 kJ/mol
# GULP energy per Si atom -12395.302898 kJ/mol
# Density = 1.973151 g / cm^3
# Si number density = 19.776519 Si / 1000 Ang^3
#
#
#
# Elastic Constant Matrix: (Units=GPa)
#
#
# Indices 1 2 3 4 5 6 
#
# 1 125.6460 41.0665 25.7577 0.0000 -0.1483 0.0000
# 2 41.0665 57.9577 21.7949 0.0000 -0.5187 0.0000
# 3 25.7577 21.7949 61.1358 0.0000 1.4705 0.0000
# 4 0.0000 0.0000 0.0000 18.0191 0.0000 -0.3998
# 5 -0.1483 -0.5187 1.4705 0.0000 33.8063 0.0000
# 6 0.0000 0.0000 0.0000 -0.3998 0.0000 14.5333
#
#
#
# Elastic Compliance Matrix: (Units=1/GPa)
#
#
# Indices 1 2 3 4 5 6 
#
# 1 0.010578 -0.006719 -0.002062 0.000000 0.000033 0.000000
# 2 -0.006719 0.024206 -0.005813 0.000000 0.000595 0.000000
# 3 -0.002062 -0.005813 0.019321 0.000000 -0.000939 0.000000
# 4 0.000000 0.000000 0.000000 0.055531 0.000000 0.001527
# 5 0.000033 0.000595 -0.000939 0.000000 0.029630 0.000000
# 6 0.000000 0.000000 0.000000 0.001527 0.000000 0.068850
#
#
# Mechanical properties :
#
#
# Convention : Reuss Voigt Hill
#
# Bulk Modulus (GPa) = 40.13425 46.88641 43.51033
# Shear Modulus (GPa) = 20.35756 23.67976 22.01866
#
# Velocity S-wave (km/s) = 3.21188 3.46405 3.34035
# Velocity P-wave (km/s) = 5.83891 6.30549 6.07668
#
# Compressibility (1/GPa) = 0.02491637
#
# Stress axis : x y z
#
# Youngs Moduli (GPa) = 94.53795 41.31169 51.75807
#
# Poissons Ratio (x) = 0.27758 0.10672
# Poissons Ratio (y) = 0.63523 0.30086
# Poissons Ratio (z) = 0.19494 0.24014
#
# Static dielectric constant tensor:
#      x y z
#    x 3.757050 0.000000 0.039950 
#    y 0.000000 3.235210 0.000000 
#    z 0.039950 0.000000 3.699060 
# 
# 
# High freq. dielectric constant tensor:
#      x y z
#    x 1.788410 0.000000 0.000390 
#    y 0.000000 1.732540 0.000000 
#    z 0.000390 0.000000 1.760600 
# 
# From -- ./inp_files/30201.got.cif
#   From: 2010.06.25/outbox.cif.g09.slc.cpg/sg10_16_cif.got.tgz:30201.got - 2010.06.27 22:07:45.
