data_PCOD8063494
_publ_section_title
;
Structure prediction by ZEFSAII (Michael W. Deem and Ramdas Pophale) SiO2 
 PCOD8063494
Probable space group: P 2/M
;
_chemical_formula_sum "Si O2"
_cell_formula_units_Z 28
_cell_length_a 14.967490
_cell_length_b 8.842192
_cell_length_c 18.993504
_cell_angle_alpha 90.000000
_cell_angle_beta 142.312724
_cell_angle_gamma 90.000000
_cell_volume 1536.755796
_symmetry_space_group_name_H-M "P 2/M"
_symmetry_group_IT_number 10
_symmetry_cell_setting 'monoclinic'
loop_
_space_group_symop_operation_xyz
x,y,z
-x,y,-z
-x,-y,-z
x,-y,z
loop_
_atom_site_type_symbol
_atom_site_label
_atom_site_fract_x
_atom_site_fract_y
_atom_site_fract_z
Si Si1 0.332489 0.823532 0.675868
Si Si2 0.794301 0.321332 0.264987
Si Si3 0.377536 0.320991 0.115644
Si Si4 0.941166 0.677953 0.036516
Si Si5 0.031687 0.167129 0.225264
Si Si6 0.298737 0.829963 0.929380
Si Si7 0.094003 0.176280 0.413626
O O1 0.262085 0.728919 0.694613
O O2 0.494989 0.762116 0.761438
O O3 0.240681 0.792589 0.548150
O O4 0.334667 0.000000 0.696854
O O5 0.782031 0.500000 0.249284
O O6 0.691592 0.245174 0.141488
O O7 0.963074 0.273590 0.364347
O O8 0.396453 0.500000 0.131733
O O9 0.224333 0.266053 0.053803
O O10 0.390416 0.269016 0.042309
O O11 0.946118 0.500000 0.036297
O O12 0.047489 0.727002 0.166879
O O13 0.000000 0.748089 0.000000
O O14 0.867558 0.168386 0.150616
O O15 0.126412 0.222339 0.351959
O O16 0.079733 0.000000 0.231377
O O17 0.362891 0.000000 0.966438
O O18 0.046677 0.000000 0.387365
#
# Coordination Sequence:
#
# PCOD8063494 Si02
#       7
#     4   4   4   4   4   4   4
#     4  11  22  35  50  68  97 137 173 205 247 295
#     4  11  21  32  49  74 100 128 170 217 252 283
#     4  10  20  34  51  74 102 128 161 205 250 296
#     4   9  18  33  54  79 104 127 151 188 243 303
#     4   8  15  29  50  75  98 122 158 202 241 280
#     4   9  17  32  51  70  97 132 167 203 248 298
#     4   9  19  35  52  70  97 134 173 209 244 287
#
# _framework density 18.220202
#
# number of rings (size 3 to 8) (size 9 to 14) (size 15 to 20)
#    0.000    2.429    0.000    3.857    0.000    7.714 
#    0.000    2.857    0.000    0.857    0.000    6.000 
#    0.000    0.000    0.000    0.000    0.000    0.000 
#
# Total GULP energy -347148.844865 kJ/mol
# GULP energy per Si atom -12398.173031 kJ/mol
# Density = 1.817873 g / cm^3
# Si number density = 18.220202 Si / 1000 Ang^3
#
#
#
# Elastic Constant Matrix: (Units=GPa)
#
#
# Indices 1 2 3 4 5 6 
#
# 1 85.1809 30.1217 57.1973 0.0000 -22.0834 0.0000
# 2 30.1217 65.1696 24.2356 0.0000 -2.6211 0.0000
# 3 57.1973 24.2356 102.7821 0.0000 -13.6318 0.0000
# 4 0.0000 0.0000 0.0000 23.4327 0.0000 -3.9430
# 5 -22.0834 -2.6211 -13.6318 0.0000 24.0489 0.0000
# 6 0.0000 0.0000 0.0000 -3.9430 0.0000 20.0994
#
#
#
# Elastic Compliance Matrix: (Units=1/GPa)
#
#
# Indices 1 2 3 4 5 6 
#
# 1 0.025624 -0.007338 -0.010288 0.000000 0.016898 0.000000
# 2 -0.007338 0.018925 -0.001080 0.000000 -0.005288 0.000000
# 3 -0.010288 -0.001080 0.015614 0.000000 -0.000714 0.000000
# 4 0.000000 0.000000 0.000000 0.044132 0.000000 0.008658
# 5 0.016898 -0.005288 -0.000714 0.000000 0.056118 0.000000
# 6 0.000000 0.000000 0.000000 0.008658 0.000000 0.051451
#
#
# Mechanical properties :
#
#
# Convention : Reuss Voigt Hill
#
# Bulk Modulus (GPa) = 43.95386 52.91576 48.43481
# Shear Modulus (GPa) = 19.46583 22.95473 21.21028
#
# Velocity S-wave (km/s) = 3.27213 3.55329 3.41560
# Velocity P-wave (km/s) = 6.20096 6.77790 6.49583
#
# Compressibility (1/GPa) = 0.02275113
#
# Stress axis : x y z
#
# Youngs Moduli (GPa) = 39.02667 52.83940 64.04310
#
# Poissons Ratio (x) = 0.38772 0.65887
# Poissons Ratio (y) = 0.28637 0.06919
# Poissons Ratio (z) = 0.40150 0.05709
#
# Static dielectric constant tensor:
#      x y z
#    x 3.264420 0.000000 -0.211190 
#    y 0.000000 3.392700 0.000000 
#    z -0.211190 0.000000 3.681910 
# 
# 
# High freq. dielectric constant tensor:
#      x y z
#    x 1.671880 0.000000 -0.016170 
#    y 0.000000 1.708930 0.000000 
#    z -0.016170 0.000000 1.709480 
# 
# From -- ./inp_files/54971.got.cif
#   From: 2010.06.25/outbox.cif.g09.slc.cpg/sg10_28_cif.got.tgz:54971.got - 2010.06.27 22:07:45.
