data_PCOD8063029
_publ_section_title
;
Structure prediction by ZEFSAII (Michael W. Deem and Ramdas Pophale) SiO2 
 PCOD8063029
Probable space group: P 2/M
;
_chemical_formula_sum "Si O2"
_cell_formula_units_Z 30
_cell_length_a 13.659343
_cell_length_b 9.384500
_cell_length_c 17.032388
_cell_angle_alpha 90.000000
_cell_angle_beta 128.721512
_cell_angle_gamma 90.000000
_cell_volume 1703.413124
_symmetry_space_group_name_H-M "P 2/M"
_symmetry_group_IT_number 10
_symmetry_cell_setting 'monoclinic'
loop_
_space_group_symop_operation_xyz
x,y,z
-x,y,-z
-x,-y,-z
x,-y,z
loop_
_atom_site_type_symbol
_atom_site_label
_atom_site_fract_x
_atom_site_fract_y
_atom_site_fract_z
Si Si1 0.259031 0.338226 0.189882
Si Si2 0.000000 0.749361 0.000000
Si Si3 0.411594 0.834603 0.523027
Si Si4 0.692662 0.335047 0.064254
Si Si5 0.074067 0.156791 0.870522
Si Si6 0.805242 0.164395 0.692623
Si Si7 0.442938 0.666751 0.849870
Si Si8 0.507880 0.829336 0.737428
O O1 0.308312 0.500000 0.221783
O O2 0.255491 0.266699 0.273333
O O3 0.354961 0.243970 0.186001
O O4 0.122318 0.344924 0.080658
O O5 0.967997 0.844647 0.059597
O O6 0.500000 0.765334 0.500000
O O7 0.266243 0.807560 0.425808
O O8 0.442147 0.773226 0.624291
O O9 0.444135 0.000000 0.544470
O O10 0.713393 0.500000 0.061018
O O11 0.817446 0.264548 0.094965
O O12 0.669030 0.302619 0.144487
O O13 0.573457 0.284760 0.954646
O O14 0.952746 0.196795 0.756439
O O15 0.122783 0.000000 0.873634
O O16 0.784724 0.000000 0.709542
O O17 0.445547 0.500000 0.828072
O O18 0.421247 0.766859 0.763615
O O19 0.519036 0.000000 0.749880
#
# Coordination Sequence:
#
# PCOD8063029 Si02
#       8
#     4   2   4   4   4   4   4   4
#     4  11  21  32  46  68  99 135 170 204 240 291
#     4  10  22  34  46  68 104 142 168 194 240 300
#     4   9  16  31  53  72  97 135 170 202 249 306
#     4   9  19  36  56  73 100 138 170 200 248 306
#     4  10  20  32  51  76 101 130 167 210 249 290
#     4   9  18  34  51  69  97 133 169 203 245 297
#     4   9  19  36  54  75 100 132 170 208 249 297
#     4  11  21  32  52  78 101 129 166 210 257 300
#
# _framework density 17.611699999999999
#
# number of rings (size 3 to 8) (size 9 to 14) (size 15 to 20)
#    0.000    2.267    1.333    2.800    0.000    7.467 
#    0.000    3.333    0.000    0.800    0.000    5.600 
#    0.000    0.000    0.000    0.000    0.000    0.000 
#
# Total GULP energy -371854.330746 kJ/mol
# GULP energy per Si atom -12395.144358 kJ/mol
# Density = 1.757161 g / cm^3
# Si number density = 17.611700 Si / 1000 Ang^3
#
#
#
# Elastic Constant Matrix: (Units=GPa)
#
#
# Indices 1 2 3 4 5 6 
#
# 1 88.3197 30.3770 45.7031 0.0000 -3.7464 0.0000
# 2 30.3770 64.9351 27.7528 0.0000 -5.7972 0.0000
# 3 45.7031 27.7528 100.4198 0.0000 -4.6315 0.0000
# 4 0.0000 0.0000 0.0000 16.5809 0.0000 -5.7821
# 5 -3.7464 -5.7972 -4.6315 0.0000 26.4777 0.0000
# 6 0.0000 0.0000 0.0000 -5.7821 0.0000 24.8730
#
#
#
# Elastic Compliance Matrix: (Units=1/GPa)
#
#
# Indices 1 2 3 4 5 6 
#
# 1 0.016124 -0.004985 -0.005954 0.000000 0.000149 0.000000
# 2 -0.004985 0.019244 -0.002911 0.000000 0.002999 0.000000
# 3 -0.005954 -0.002911 0.013513 0.000000 0.000884 0.000000
# 4 0.000000 0.000000 0.000000 0.065631 0.000000 0.015257
# 5 0.000149 0.002999 0.000884 0.000000 0.038600 0.000000
# 6 0.000000 0.000000 0.000000 0.015257 0.000000 0.043751
#
#
# Mechanical properties :
#
#
# Convention : Reuss Voigt Hill
#
# Bulk Modulus (GPa) = 47.21214 51.26005 49.23610
# Shear Modulus (GPa) = 21.58669 23.57577 22.58123
#
# Velocity S-wave (km/s) = 3.50480 3.66272 3.58463
# Velocity P-wave (km/s) = 6.57599 6.85975 6.71937
#
# Compressibility (1/GPa) = 0.02118099
#
# Stress axis : x y z
#
# Youngs Moduli (GPa) = 62.01772 51.96407 74.00108
#
# Poissons Ratio (x) = 0.25905 0.44060
# Poissons Ratio (y) = 0.30917 0.21544
# Poissons Ratio (z) = 0.36925 0.15128
#
# Static dielectric constant tensor:
#      x y z
#    x 3.165160 0.000000 -0.002240 
#    y 0.000000 3.052990 0.000000 
#    z -0.002240 0.000000 3.405790 
# 
# 
# High freq. dielectric constant tensor:
#      x y z
#    x 1.663360 0.000000 0.001210 
#    y 0.000000 1.668480 0.000000 
#    z 0.001210 0.000000 1.676180 
# 
# From -- ./inp_files/77560.got.cif
#   From: 2010.06.25/outbox.cif.g09.slc.cpg/sg10_39_cif.got.tgz:77560.got - 2010.06.27 22:07:45.
