data_PCOD8063084
_publ_section_title
;
Structure prediction by ZEFSAII (Michael W. Deem and Ramdas Pophale) SiO2 
 PCOD8063084
Probable space group: P 2/M
;
_chemical_formula_sum "Si O2"
_cell_formula_units_Z 26
_cell_length_a 15.297510
_cell_length_b 21.727346
_cell_length_c 5.253183
_cell_angle_alpha 90.000000
_cell_angle_beta 114.444377
_cell_angle_gamma 90.000000
_cell_volume 1589.515469
_symmetry_space_group_name_H-M "P 2/M"
_symmetry_group_IT_number 10
_symmetry_cell_setting 'monoclinic'
loop_
_space_group_symop_operation_xyz
x,y,z
-x,y,-z
-x,-y,-z
x,-y,z
loop_
_atom_site_type_symbol
_atom_site_label
_atom_site_fract_x
_atom_site_fract_y
_atom_site_fract_z
Si Si1 0.385528 0.430253 0.353203
Si Si2 0.267912 0.888486 0.617424
Si Si3 0.363458 0.931433 0.207774
Si Si4 0.500000 0.164950 0.500000
Si Si5 0.392772 0.775252 0.764831
Si Si6 0.613853 0.636870 0.147090
Si Si7 0.939906 0.928521 0.679615
O O1 0.500000 0.428210 0.500000
O O2 0.348601 0.500000 0.281625
O O3 0.344580 0.401703 0.565141
O O4 0.344811 0.391080 0.065506
O O5 0.318142 0.914292 0.425736
O O6 0.308542 0.821237 0.748019
O O7 0.154237 0.885866 0.435223
O O8 0.286422 0.931244 0.886024
O O9 0.448311 0.882617 0.240201
O O10 0.406120 0.000000 0.278705
O O11 0.585093 0.210217 0.504933
O O12 0.354415 0.707396 0.778948
O O13 0.500000 0.788213 0.000000
O O14 0.500000 0.632196 0.000000
O O15 0.000000 0.914314 0.500000
O O16 0.909041 0.000000 0.656036
O O17 0.000000 0.909742 0.000000
#
# Coordination Sequence:
#
# PCOD8063084 Si02
#       7
#     4   4   4   2   4   4   4
#     4   9  16  27  39  59  81 108 151 196 227 247
#     4  11  22  35  52  71  92 120 149 193 234 284
#     4  11  21  33  48  66  90 116 149 187 233 278
#     4  10  21  32  44  62  89 124 156 192 220 266
#     4  10  20  33  46  65  95 123 161 184 221 271
#     4   9  18  25  43  58  81 117 148 186 222 256
#     4  10  20  35  54  72  89 111 147 193 242 289
#
# _framework density 16.357185000000001
#
# number of rings (size 3 to 8) (size 9 to 14) (size 15 to 20)
#    0.000    2.000    1.538    3.000    5.385    3.077 
#    0.000    2.308    0.000    0.000    0.000    0.000 
#    0.000    0.000    0.000    0.000    0.000   15.385 
#
# Total GULP energy -322150.255858 kJ/mol
# GULP energy per Si atom -12390.394456 kJ/mol
# Density = 1.631996 g / cm^3
# Si number density = 16.357185 Si / 1000 Ang^3
#
#
#
# Elastic Constant Matrix: (Units=GPa)
#
#
# Indices 1 2 3 4 5 6 
#
# 1 48.0628 35.9126 33.5016 0.0000 0.0607 0.0000
# 2 35.9126 132.9202 51.8091 0.0000 -6.8766 0.0000
# 3 33.5016 51.8091 105.9936 0.0000 -15.6010 0.0000
# 4 0.0000 0.0000 0.0000 15.3527 0.0000 -1.6224
# 5 0.0607 -6.8766 -15.6010 0.0000 30.5287 0.0000
# 6 0.0000 0.0000 0.0000 -1.6224 0.0000 9.1572
#
#
#
# Elastic Compliance Matrix: (Units=1/GPa)
#
#
# Indices 1 2 3 4 5 6 
#
# 1 0.030220 -0.005451 -0.007652 0.000000 -0.005199 0.000000
# 2 -0.005451 0.010279 -0.003200 0.000000 0.000691 0.000000
# 3 -0.007652 -0.003200 0.014396 0.000000 0.006651 0.000000
# 4 0.000000 0.000000 0.000000 0.066378 0.000000 0.011761
# 5 -0.005199 0.000691 0.006651 0.000000 0.036321 0.000000
# 6 0.000000 0.000000 0.000000 0.011761 0.000000 0.111288
#
#
# Mechanical properties :
#
#
# Convention : Reuss Voigt Hill
#
# Bulk Modulus (GPa) = 44.86559 58.82482 51.84521
# Shear Modulus (GPa) = 16.18555 22.05793 19.12174
#
# Velocity S-wave (km/s) = 3.14906 3.67620 3.42279
# Velocity P-wave (km/s) = 6.38046 7.35255 6.88369
#
# Compressibility (1/GPa) = 0.02228880
#
# Stress axis : x y z
#
# Youngs Moduli (GPa) = 33.09099 97.28576 69.46278
#
# Poissons Ratio (x) = 0.53031 0.53155
# Poissons Ratio (y) = 0.18038 0.22226
# Poissons Ratio (z) = 0.25322 0.31128
#
# Static dielectric constant tensor:
#      x y z
#    x 2.800210 0.000000 -0.306750 
#    y 0.000000 3.089800 0.000000 
#    z -0.306750 0.000000 3.295600 
# 
# 
# High freq. dielectric constant tensor:
#      x y z
#    x 1.577230 0.000000 -0.035650 
#    y 0.000000 1.621470 0.000000 
#    z -0.035650 0.000000 1.636380 
# 
# From -- ./inp_files/9513.got.cif
#   From: 2010.06.25/outbox.cif.g09.slc.cpg/sg10_5_cif.got.tgz:9513.got - 2010.06.27 22:07:45.
