data_PCOD8063567
_publ_section_title
;
Structure prediction by ZEFSAII (Michael W. Deem and Ramdas Pophale) SiO2 
 PCOD8063567
Probable space group: P 2/M
;
_chemical_formula_sum "Si O2"
_cell_formula_units_Z 28
_cell_length_a 17.427871
_cell_length_b 8.856802
_cell_length_c 19.994822
_cell_angle_alpha 90.000000
_cell_angle_beta 150.808249
_cell_angle_gamma 90.000000
_cell_volume 1505.295718
_symmetry_space_group_name_H-M "P 2/M"
_symmetry_group_IT_number 10
_symmetry_cell_setting 'monoclinic'
loop_
_space_group_symop_operation_xyz
x,y,z
-x,y,-z
-x,-y,-z
x,-y,z
loop_
_atom_site_type_symbol
_atom_site_label
_atom_site_fract_x
_atom_site_fract_y
_atom_site_fract_z
Si Si1 0.513547 0.676837 0.130590
Si Si2 0.361347 0.675053 0.152194
Si Si3 0.540812 0.678062 0.626812
Si Si4 0.267605 0.179798 0.337176
Si Si5 0.071680 0.822185 0.875260
Si Si6 0.217055 0.178616 0.847658
Si Si7 0.144079 0.678341 0.655732
O O1 0.492639 0.500000 0.101927
O O2 0.475153 0.722433 0.177795
O O3 0.691768 0.728943 0.252972
O O4 0.395490 0.760149 0.989713
O O5 0.320054 0.500000 0.117558
O O6 0.446532 0.717676 0.285673
O O7 0.197166 0.762568 0.024110
O O8 0.521956 0.500000 0.599533
O O9 0.693951 0.739500 0.704024
O O10 0.389965 0.767737 0.486271
O O11 0.098541 0.238186 0.233058
O O12 0.275465 0.000000 0.334429
O O13 0.116423 0.764987 0.835006
O O14 0.075059 0.000000 0.879881
O O15 0.129144 0.244531 0.716408
O O16 0.223723 0.000000 0.847431
O O17 0.135635 0.500000 0.659267
O O18 0.000000 0.735053 0.500000
#
# Coordination Sequence:
#
# PCOD8063567 Si02
#       7
#     4   4   4   4   4   4   4
#     4   9  18  35  55  74 100 134 170 205 246 301
#     4   9  19  34  53  76 101 131 167 208 253 299
#     4  10  20  34  52  77 105 132 167 210 253 296
#     4  10  20  35  53  73 100 137 174 204 246 303
#     4   9  20  36  53  75 102 132 169 210 249 297
#     4  10  20  35  54  76 102 132 168 209 253 298
#     4  10  21  35  52  76 104 134 169 207 248 298
#
# _framework density 18.600995999999999
#
# number of rings (size 3 to 8) (size 9 to 14) (size 15 to 20)
#    0.000    2.429    0.000    2.571    0.000    7.143 
#    0.000    4.286    0.000    0.000    0.000    0.000 
#    0.000    0.000    0.000    0.000    0.000    0.000 
#
# Total GULP energy -347242.460760 kJ/mol
# GULP energy per Si atom -12401.516456 kJ/mol
# Density = 1.855866 g / cm^3
# Si number density = 18.600996 Si / 1000 Ang^3
#
#
#
# Elastic Constant Matrix: (Units=GPa)
#
#
# Indices 1 2 3 4 5 6 
#
# 1 61.7631 7.5935 26.5056 0.0000 -4.4632 0.0000
# 2 7.5935 19.0083 3.2331 0.0000 -2.0609 0.0000
# 3 26.5056 3.2331 67.5148 0.0000 -4.0791 0.0000
# 4 0.0000 0.0000 0.0000 21.6100 0.0000 2.1043
# 5 -4.4632 -2.0609 -4.0791 0.0000 40.1459 0.0000
# 6 0.0000 0.0000 0.0000 2.1043 0.0000 22.7897
#
#
#
# Elastic Compliance Matrix: (Units=1/GPa)
#
#
# Indices 1 2 3 4 5 6 
#
# 1 0.020362 -0.006717 -0.007603 0.000000 0.001146 0.000000
# 2 -0.006717 0.055503 0.000107 0.000000 0.002113 0.000000
# 3 -0.007603 0.000107 0.017850 0.000000 0.000974 0.000000
# 4 0.000000 0.000000 0.000000 0.046695 0.000000 -0.004312
# 5 0.001146 0.002113 0.000974 0.000000 0.025244 0.000000
# 6 0.000000 0.000000 0.000000 -0.004312 0.000000 0.044278
#
#
# Mechanical properties :
#
#
# Convention : Reuss Voigt Hill
#
# Bulk Modulus (GPa) = 15.31653 24.77230 20.04441
# Shear Modulus (GPa) = 19.22178 24.30606 21.76392
#
# Velocity S-wave (km/s) = 3.21810 3.61876 3.42430
# Velocity P-wave (km/s) = 4.69685 5.55043 5.14138
#
# Compressibility (1/GPa) = 0.06528896
#
# Stress axis : x y z
#
# Youngs Moduli (GPa) = 49.10996 18.01707 56.02175
#
# Poissons Ratio (x) = 0.12102 0.42594
# Poissons Ratio (y) = 0.32987 -0.00599
# Poissons Ratio (z) = 0.37339 -0.00192
#
# Static dielectric constant tensor:
#      x y z
#    x 3.700250 0.000000 0.067540 
#    y 0.000000 3.342280 0.000000 
#    z 0.067540 0.000000 3.436510 
# 
# 
# High freq. dielectric constant tensor:
#      x y z
#    x 1.730030 0.000000 -0.001400 
#    y 0.000000 1.719590 0.000000 
#    z -0.001400 0.000000 1.717820 
# 
# From -- ./inp_files/85644.got.cif
#   From: 2010.06.25/outbox.cif.g09.slc.cpg/sg10_43_cif.got.tgz:85644.got - 2010.06.27 22:07:45.
