data_PCOD8063533
_publ_section_title
;
Structure prediction by ZEFSAII (Michael W. Deem and Ramdas Pophale) SiO2 
 PCOD8063533
Probable space group: P 2/M
;
_chemical_formula_sum "Si O2"
_cell_formula_units_Z 28
_cell_length_a 32.393161
_cell_length_b 8.908333
_cell_length_c 9.622008
_cell_angle_alpha 90.000000
_cell_angle_beta 31.793297
_cell_angle_gamma 90.000000
_cell_volume 1462.876677
_symmetry_space_group_name_H-M "P 2/M"
_symmetry_group_IT_number 10
_symmetry_cell_setting 'monoclinic'
loop_
_space_group_symop_operation_xyz
x,y,z
-x,y,-z
-x,-y,-z
x,-y,z
loop_
_atom_site_type_symbol
_atom_site_label
_atom_site_fract_x
_atom_site_fract_y
_atom_site_fract_z
Si Si1 0.230425 0.673428 0.741027
Si Si2 0.585254 0.673892 0.274106
Si Si3 0.299053 0.671034 0.828937
Si Si4 0.931186 0.177158 0.802609
Si Si5 0.823466 0.175447 0.637065
Si Si6 0.728216 0.322060 0.682481
Si Si7 0.018153 0.671996 0.787645
O O1 0.205922 0.500000 0.798041
O O2 0.297512 0.696219 0.667171
O O3 0.267741 0.730436 0.489320
O O4 0.153396 0.765421 0.006710
O O5 0.500000 0.752693 0.500000
O O6 0.575896 0.500000 0.264894
O O7 0.615245 0.698201 0.347516
O O8 0.648243 0.740092 0.982985
O O9 0.272291 0.500000 0.941592
O O10 0.241426 0.789836 0.062666
O O11 0.000000 0.225885 0.500000
O O12 0.947344 0.254531 0.904453
O O13 0.928155 0.000000 0.829415
O O14 0.802616 0.253325 0.550067
O O15 0.903454 0.238026 0.471708
O O16 0.831191 0.000000 0.590314
O O17 0.733599 0.500000 0.682052
O O18 0.028470 0.500000 0.713524
O O19 0.000000 0.689499 0.000000
#
# Coordination Sequence:
#
# PCOD8063533 Si02
#       7
#     4   4   4   4   4   4   4
#     4  10  20  34  52  74 101 136 175 212 255 307
#     4   8  14  28  52  79 106 136 168 204 248 298
#     4   9  18  33  53  75 101 134 170 206 248 302
#     4  11  24  38  52  74 103 135 173 218 264 306
#     4  11  21  33  51  74  99 130 171 214 256 303
#     4   9  18  33  52  75 104 136 171 211 254 304
#     4  11  23  37  53  73  98 131 171 214 260 307
#
# _framework density 19.140370000000001
#
# number of rings (size 3 to 8) (size 9 to 14) (size 15 to 20)
#    0.000    2.143    0.000    4.714    0.000    9.143 
#    0.000    0.714    0.000   11.143    0.000    0.000 
#    0.000   10.286    0.000    0.000    0.000    0.000 
#
# Total GULP energy -347152.250698 kJ/mol
# GULP energy per Si atom -12398.294668 kJ/mol
# Density = 1.909681 g / cm^3
# Si number density = 19.140370 Si / 1000 Ang^3
#
#
#
# Elastic Constant Matrix: (Units=GPa)
#
#
# Indices 1 2 3 4 5 6 
#
# 1 138.7492 25.9055 49.5759 0.0000 4.6658 0.0000
# 2 25.9055 57.5301 19.2761 0.0000 1.5595 0.0000
# 3 49.5759 19.2761 68.7294 0.0000 -1.4391 0.0000
# 4 0.0000 0.0000 0.0000 10.3761 0.0000 6.4606
# 5 4.6658 1.5595 -1.4391 0.0000 35.9122 0.0000
# 6 0.0000 0.0000 0.0000 6.4606 0.0000 6.0140
#
#
#
# Elastic Compliance Matrix: (Units=1/GPa)
#
#
# Indices 1 2 3 4 5 6 
#
# 1 0.010055 -0.002260 -0.006650 0.000000 -0.001475 0.000000
# 2 -0.002260 0.019732 -0.003919 0.000000 -0.000720 0.000000
# 3 -0.006650 -0.003919 0.020485 0.000000 0.001855 0.000000
# 4 0.000000 0.000000 0.000000 0.291057 0.000000 -0.312671
# 5 -0.001475 -0.000720 0.001855 0.000000 0.028143 0.000000
# 6 0.000000 0.000000 0.000000 -0.312671 0.000000 0.502167
#
#
# Mechanical properties :
#
#
# Convention : Reuss Voigt Hill
#
# Bulk Modulus (GPa) = 40.62717 50.50265 45.56491
# Shear Modulus (GPa) = 5.52181 21.81055 13.66618
#
# Velocity S-wave (km/s) = 1.70034 3.37932 2.67497
# Velocity P-wave (km/s) = 5.01267 6.45516 5.77910
#
# Compressibility (1/GPa) = 0.02461407
#
# Stress axis : x y z
#
# Youngs Moduli (GPa) = 99.45554 50.67799 48.81716
#
# Poissons Ratio (x) = 0.11451 0.32463
# Poissons Ratio (y) = 0.22472 0.19134
# Poissons Ratio (z) = 0.66137 0.19863
#
# Static dielectric constant tensor:
#      x y z
#    x 3.797040 0.000000 -0.055740 
#    y 0.000000 3.264190 0.000000 
#    z -0.055740 0.000000 3.526890 
# 
# 
# High freq. dielectric constant tensor:
#      x y z
#    x 1.756200 0.000000 0.006970 
#    y 0.000000 1.722670 0.000000 
#    z 0.006970 0.000000 1.722620 
# 
# From -- ./inp_files/37938.got.cif
#   From: 2010.06.25/outbox.cif.g09.slc.cpg/sg10_19_cif.got.tgz:37938.got - 2010.06.27 22:07:45.
