data_PCOD8063256
_publ_section_title
;
Structure prediction by ZEFSAII (Michael W. Deem and Ramdas Pophale) SiO2 
 PCOD8063256
Probable space group: P 2/M
;
_chemical_formula_sum "Si O2"
_cell_formula_units_Z 24
_cell_length_a 11.766622
_cell_length_b 8.842216
_cell_length_c 12.645155
_cell_angle_alpha 90.000000
_cell_angle_beta 89.551646
_cell_angle_gamma 90.000000
_cell_volume 1315.599749
_symmetry_space_group_name_H-M "P 2/M"
_symmetry_group_IT_number 10
_symmetry_cell_setting 'monoclinic'
loop_
_space_group_symop_operation_xyz
x,y,z
-x,y,-z
-x,-y,-z
x,-y,z
loop_
_atom_site_type_symbol
_atom_site_label
_atom_site_fract_x
_atom_site_fract_y
_atom_site_fract_z
Si Si1 0.269656 0.178641 0.186290
Si Si2 0.885612 0.820545 0.618466
Si Si3 0.504064 0.322466 0.879465
Si Si4 0.741510 0.674322 0.194909
Si Si5 0.873333 0.178948 0.009795
Si Si6 0.875990 0.323443 0.399509
O O1 0.204398 0.229372 0.292387
O O2 0.395470 0.246010 0.187104
O O3 0.279061 0.000000 0.179629
O O4 0.202221 0.244521 0.085523
O O5 0.838905 0.761083 0.506777
O O6 0.006307 0.744977 0.645059
O O7 0.902277 0.000000 0.614516
O O8 0.525561 0.500000 0.879618
O O9 0.388741 0.276895 0.820164
O O10 0.500000 0.260835 0.000000
O O11 0.758548 0.500000 0.162687
O O12 0.821876 0.774201 0.121530
O O13 0.776201 0.704089 0.315714
O O14 0.877498 0.000000 0.002564
O O15 0.000000 0.246480 0.000000
O O16 0.893876 0.500000 0.422757
#
# Coordination Sequence:
#
# PCOD8063256 Si02
#       6
#     4   4   4   4   4   4
#     4  10  21  35  53  79 107 138 178 220 263 315
#     4  10  20  36  57  80 109 141 177 217 265 318
#     4  10  20  36  56  76 104 143 182 219 263 313
#     4  10  21  36  53  78 107 138 177 219 263 314
#     4  10  20  33  51  77 108 138 170 213 266 319
#     4  10  20  35  56  81 109 139 177 219 265 317
#
# _framework density 18.242629999999998
#
# number of rings (size 3 to 8) (size 9 to 14) (size 15 to 20)
#    0.000    2.000    1.667    3.000    0.000    5.333 
#    0.000    0.833    0.000    5.000    0.000    0.000 
#    0.000    0.000    0.000    0.000    0.000    0.000 
#
# Total GULP energy -297668.206280 kJ/mol
# GULP energy per Si atom -12402.841928 kJ/mol
# Density = 1.820111 g / cm^3
# Si number density = 18.242630 Si / 1000 Ang^3
#
#
#
# Elastic Constant Matrix: (Units=GPa)
#
#
# Indices 1 2 3 4 5 6 
#
# 1 128.8345 25.3418 59.5265 0.0000 9.4539 0.0000
# 2 25.3418 38.2636 21.9917 0.0000 0.0311 0.0000
# 3 59.5265 21.9917 102.1015 0.0000 7.9339 0.0000
# 4 0.0000 0.0000 0.0000 -17.6406 0.0000 24.5441
# 5 9.4539 0.0311 7.9339 0.0000 35.5925 0.0000
# 6 0.0000 0.0000 0.0000 24.5441 0.0000 5.4219
#
#
#
# Elastic Compliance Matrix: (Units=1/GPa)
#
#
# Indices 1 2 3 4 5 6 
#
# 1 0.011287 -0.004303 -0.005516 0.000000 -0.001764 0.000000
# 2 -0.004303 0.031539 -0.004448 0.000000 0.002107 0.000000
# 3 -0.005516 -0.004448 0.014098 0.000000 -0.001674 0.000000
# 4 0.000000 0.000000 0.000000 -0.007767 0.000000 0.035161
# 5 -0.001764 0.002107 -0.001674 0.000000 0.028936 0.000000
# 6 0.000000 0.000000 0.000000 0.035161 0.000000 0.025271
#
#
# Mechanical properties :
#
#
# Convention : Reuss Voigt Hill
#
# Bulk Modulus (GPa) = 35.22490 53.65776 44.44133
# Shear Modulus (GPa) = 35.37020 15.49740 25.43380
#
# Velocity S-wave (km/s) = 4.40804 2.91781 3.73794
# Velocity P-wave (km/s) = 6.72747 6.38973 6.56078
#
# Compressibility (1/GPa) = 0.02838901
#
# Stress axis : x y z
#
# Youngs Moduli (GPa) = 88.60133 31.70645 70.93032
#
# Poissons Ratio (x) = 0.13644 0.39127
# Poissons Ratio (y) = 0.38127 0.31551
# Poissons Ratio (z) = 0.48874 0.14104
#
# Static dielectric constant tensor:
#      x y z
#    x 3.428450 0.000000 0.103620 
#    y 0.000000 3.279060 0.000000 
#    z 0.103620 0.000000 3.409940 
# 
# 
# High freq. dielectric constant tensor:
#      x y z
#    x 1.707710 0.000000 0.004720 
#    y 0.000000 1.703480 0.000000 
#    z 0.004720 0.000000 1.708180 
# 
# From -- ./inp_files/45152.got.cif
#   From: 2010.06.25/outbox.cif.g09.slc.cpg/sg10_23_cif.got.tgz:45152.got - 2010.06.27 22:07:45.
