data_PCOD8063673
_publ_section_title
;
Structure prediction by ZEFSAII (Michael W. Deem and Ramdas Pophale) SiO2 
 PCOD8063673
Probable space group: P 2/M
;
_chemical_formula_sum "Si O2"
_cell_formula_units_Z 20
_cell_length_a 12.161816
_cell_length_b 13.272069
_cell_length_c 18.364896
_cell_angle_alpha 90.000000
_cell_angle_beta 19.363666
_cell_angle_gamma 90.000000
_cell_volume 982.859617
_symmetry_space_group_name_H-M "P 2/M"
_symmetry_group_IT_number 10
_symmetry_cell_setting 'monoclinic'
loop_
_space_group_symop_operation_xyz
x,y,z
-x,y,-z
-x,-y,-z
x,-y,z
loop_
_atom_site_type_symbol
_atom_site_label
_atom_site_fract_x
_atom_site_fract_y
_atom_site_fract_z
Si Si1 0.632033 0.766148 0.492210
Si Si2 0.635276 0.606525 0.255418
Si Si3 0.745478 0.382414 0.914177
Si Si4 0.385604 0.114936 0.777237
Si Si5 0.621557 0.289122 0.719777
O O1 0.500000 0.816540 0.500000
O O2 0.348456 0.684076 0.688303
O O3 0.624777 0.850524 0.560369
O O4 0.968402 0.700846 0.278469
O O5 0.493448 0.500000 0.371689
O O6 0.389668 0.643933 0.345926
O O7 0.000000 0.593428 0.000000
O O8 0.866169 0.500000 0.847721
O O9 0.500000 0.374642 0.000000
O O10 0.557143 0.349002 0.104527
O O11 0.452783 0.180963 0.807539
O O12 0.473191 0.000000 0.740547
O O13 0.000000 0.128835 0.000000
O O14 0.000000 0.267640 0.500000
#
# Coordination Sequence:
#
# PCOD8063673 Si02
#       5
#     4   4   4   4   4
#     4  11  21  35  56  84 117 145 183 236 287 336
#     4  10  20  34  53  79 113 155 197 231 271 331
#     4  11  23  37  55  84 121 157 189 226 279 339
#     4  10  22  42  65  85 109 147 194 241 290 344
#     4  11  22  38  60  83 114 153 196 242 284 336
#
# _framework density 20.348784999999999
#
# number of rings (size 3 to 8) (size 9 to 14) (size 15 to 20)
#    0.000    1.400    0.000    8.400    0.000    7.200 
#    0.000    1.000    0.000    2.400    0.000    0.000 
#    0.000    0.000    0.000    0.000    0.000    0.000 
#
# Total GULP energy -247794.997039 kJ/mol
# GULP energy per Si atom -12389.749852 kJ/mol
# Density = 2.030247 g / cm^3
# Si number density = 20.348785 Si / 1000 Ang^3
#
#
#
# Elastic Constant Matrix: (Units=GPa)
#
#
# Indices 1 2 3 4 5 6 
#
# 1 81.7000 17.4181 15.1526 0.0000 -1.4596 0.0000
# 2 17.4181 111.3845 23.7920 0.0000 -5.6226 0.0000
# 3 15.1526 23.7920 79.8541 0.0000 -2.8220 0.0000
# 4 0.0000 0.0000 0.0000 17.3806 0.0000 -9.3181
# 5 -1.4596 -5.6226 -2.8220 0.0000 34.8668 0.0000
# 6 0.0000 0.0000 0.0000 -9.3181 0.0000 9.9913
#
#
#
# Elastic Compliance Matrix: (Units=1/GPa)
#
#
# Indices 1 2 3 4 5 6 
#
# 1 0.012949 -0.001596 -0.001977 0.000000 0.000125 0.000000
# 2 -0.001596 0.009846 -0.002584 0.000000 0.001312 0.000000
# 3 -0.001977 -0.002584 0.013689 0.000000 0.000608 0.000000
# 4 0.000000 0.000000 0.000000 0.115071 0.000000 0.107318
# 5 0.000125 0.001312 0.000608 0.000000 0.028947 0.000000
# 6 0.000000 0.000000 0.000000 0.107318 0.000000 0.200175
#
#
# Mechanical properties :
#
#
# Convention : Reuss Voigt Hill
#
# Bulk Modulus (GPa) = 41.37534 42.85157 42.11345
# Shear Modulus (GPa) = 12.46732 26.88613 19.67673
#
# Velocity S-wave (km/s) = 2.47793 3.63886 3.11299
# Velocity P-wave (km/s) = 5.34453 6.22570 5.80187
#
# Compressibility (1/GPa) = 0.02416899
#
# Stress axis : x y z
#
# Youngs Moduli (GPa) = 77.22514 101.56668 73.04896
#
# Poissons Ratio (x) = 0.16214 0.14443
# Poissons Ratio (y) = 0.12328 0.18877
# Poissons Ratio (z) = 0.15268 0.26247
#
# Static dielectric constant tensor:
#      x y z
#    x 3.505690 0.000000 0.104310 
#    y 0.000000 4.011110 0.000000 
#    z 0.104310 0.000000 3.807140 
# 
# 
# High freq. dielectric constant tensor:
#      x y z
#    x 1.797680 0.000000 0.006250 
#    y 0.000000 1.792080 0.000000 
#    z 0.006250 0.000000 1.797570 
# 
# From -- ./inp_files/18533.got.cif
#   From: 2010.06.25/outbox.cif.g09.slc.cpg/sg10_10_cif.got.tgz:18533.got - 2010.06.27 22:07:45.
