data_PCOD8063579
_publ_section_title
;
Structure prediction by ZEFSAII (Michael W. Deem and Ramdas Pophale) SiO2 
 PCOD8063579
Probable space group: P 2/M
;
_chemical_formula_sum "Si O2"
_cell_formula_units_Z 24
_cell_length_a 11.910092
_cell_length_b 8.580000
_cell_length_c 27.149760
_cell_angle_alpha 90.000000
_cell_angle_beta 152.772956
_cell_angle_gamma 90.000000
_cell_volume 1269.335092
_symmetry_space_group_name_H-M "P 2/M"
_symmetry_group_IT_number 10
_symmetry_cell_setting 'monoclinic'
loop_
_space_group_symop_operation_xyz
x,y,z
-x,y,-z
-x,-y,-z
x,-y,z
loop_
_atom_site_type_symbol
_atom_site_label
_atom_site_fract_x
_atom_site_fract_y
_atom_site_fract_z
Si Si1 0.593205 0.318578 0.982977
Si Si2 0.749181 0.330262 0.879318
Si Si3 0.627431 0.181845 0.198251
Si Si4 0.915449 0.318840 0.394209
Si Si5 0.357234 0.819173 0.623271
Si Si6 0.111000 0.178394 0.165229
O O1 0.558963 0.500000 0.959656
O O2 0.884101 0.282638 0.094001
O O3 0.500000 0.267300 0.000000
O O4 0.417481 0.230781 0.875777
O O5 0.616408 0.500000 0.815357
O O6 0.616191 0.227345 0.868237
O O7 0.802236 0.215757 0.855472
O O8 0.000000 0.383908 0.000000
O O9 0.851989 0.270807 0.313251
O O10 0.682658 0.000000 0.221736
O O11 0.972620 0.500000 0.420006
O O12 0.689053 0.273339 0.342775
O O13 0.159901 0.229431 0.505726
O O14 0.628512 0.788640 0.705067
O O15 0.325017 0.000000 0.623815
O O16 0.025516 0.000000 0.136540
#
# Coordination Sequence:
#
# PCOD8063579 Si02
#       6
#     4   4   4   4   4   4
#     4  11  25  43  61  82 110 146 190 239 287 336
#     4  11  21  32  51  80 115 149 184 226 277 337
#     4  12  23  36  57  82 114 150 187 232 283 338
#     4  11  21  33  53  81 116 155 191 226 274 335
#     4  10  20  34  52  80 119 154 188 228 274 331
#     4  11  22  35  57  84 115 151 186 229 281 337
#
# _framework density 18.907534999999999
#
# number of rings (size 3 to 8) (size 9 to 14) (size 15 to 20)
#    0.000    1.000    3.333    6.000    0.000    4.000 
#    0.000    0.000    0.000    1.000    0.000    7.000 
#    0.000    0.000    0.000    0.000    0.000    0.000 
#
# Total GULP energy -297437.885162 kJ/mol
# GULP energy per Si atom -12393.245215 kJ/mol
# Density = 1.886450 g / cm^3
# Si number density = 18.907535 Si / 1000 Ang^3
#
#
#
# Elastic Constant Matrix: (Units=GPa)
#
#
# Indices 1 2 3 4 5 6 
#
# 1 66.6119 17.9030 32.8584 0.0000 -16.4875 0.0000
# 2 17.9030 84.6403 26.5583 0.0000 -9.9032 0.0000
# 3 32.8584 26.5583 99.1627 0.0000 -10.5652 0.0000
# 4 0.0000 0.0000 0.0000 28.9504 0.0000 1.8003
# 5 -16.4875 -9.9032 -10.5652 0.0000 16.6968 0.0000
# 6 0.0000 0.0000 0.0000 1.8003 0.0000 22.3008
#
#
#
# Elastic Compliance Matrix: (Units=1/GPa)
#
#
# Indices 1 2 3 4 5 6 
#
# 1 0.022344 -0.000963 -0.005207 0.000000 0.018198 0.000000
# 2 -0.000963 0.013498 -0.002728 0.000000 0.005329 0.000000
# 3 -0.005207 -0.002728 0.012675 0.000000 0.001260 0.000000
# 4 0.000000 0.000000 0.000000 0.034716 0.000000 -0.002803
# 5 0.018198 0.005329 0.001260 0.000000 0.081819 0.000000
# 6 0.000000 0.000000 0.000000 -0.002803 0.000000 0.045068
#
#
# Mechanical properties :
#
#
# Convention : Reuss Voigt Hill
#
# Bulk Modulus (GPa) = 32.55215 45.00604 38.77910
# Shear Modulus (GPa) = 20.99460 25.12930 23.06195
#
# Velocity S-wave (km/s) = 3.33586 3.64959 3.49624
# Velocity P-wave (km/s) = 5.66490 6.45091 6.07064
#
# Compressibility (1/GPa) = 0.03071994
#
# Stress axis : x y z
#
# Youngs Moduli (GPa) = 44.75478 74.08538 78.89672
#
# Poissons Ratio (x) = 0.07135 0.41082
# Poissons Ratio (y) = 0.04310 0.21525
# Poissons Ratio (z) = 0.23304 0.20212
#
# Static dielectric constant tensor:
#      x y z
#    x 3.079990 0.000000 0.009000 
#    y 0.000000 3.536380 0.000000 
#    z 0.009000 0.000000 3.854790 
# 
# 
# High freq. dielectric constant tensor:
#      x y z
#    x 1.679990 0.000000 0.007250 
#    y 0.000000 1.758080 0.000000 
#    z 0.007250 0.000000 1.756080 
# 
# From -- ./inp_files/88741.got.cif
#   From: 2010.06.25/outbox.cif.g09.slc.cpg/sg10_45_cif.got.tgz:88741.got - 2010.06.27 22:07:45.
