data_PCOD8063993
_publ_section_title
;
Structure prediction by ZEFSAII (Michael W. Deem and Ramdas Pophale) SiO2 
 PCOD8063993
Probable space group: P 2/M
;
_chemical_formula_sum "Si O2"
_cell_formula_units_Z 28
_cell_length_a 11.212410
_cell_length_b 20.588452
_cell_length_c 11.191303
_cell_angle_alpha 90.000000
_cell_angle_beta 152.024457
_cell_angle_gamma 90.000000
_cell_volume 1211.891611
_symmetry_space_group_name_H-M "P 2/M"
_symmetry_group_IT_number 10
_symmetry_cell_setting 'monoclinic'
loop_
_space_group_symop_operation_xyz
x,y,z
-x,y,-z
-x,-y,-z
x,-y,z
loop_
_atom_site_type_symbol
_atom_site_label
_atom_site_fract_x
_atom_site_fract_y
_atom_site_fract_z
Si Si1 0.000000 0.882525 0.000000
Si Si2 0.833657 0.071772 0.619509
Si Si3 0.000000 0.637468 0.000000
Si Si4 0.676435 0.571884 0.539635
Si Si5 0.216478 0.276621 0.787697
Si Si6 0.384510 0.683302 0.175511
Si Si7 0.538134 0.818168 0.674920
Si Si8 0.786592 0.875789 0.215258
O O1 0.161332 0.927984 0.231127
O O2 0.166433 0.838116 0.056205
O O3 0.630659 0.127757 0.404560
O O4 0.115713 0.086479 0.815913
O O5 0.742149 0.000000 0.497998
O O6 0.053516 0.594131 0.166197
O O7 0.230898 0.683052 0.164816
O O8 0.500000 0.570397 0.500000
O O9 0.698811 0.500000 0.501964
O O10 0.576679 0.621596 0.348894
O O11 0.202299 0.200576 0.800957
O O12 0.000000 0.298626 0.500000
O O13 0.500000 0.296446 0.000000
O O14 0.192754 0.316354 0.891802
O O15 0.531240 0.752500 0.312631
O O16 0.500000 0.810652 0.500000
O O17 0.000000 0.895848 0.500000
O O18 0.500000 0.897454 0.000000
#
# Coordination Sequence:
#
# PCOD8063993 Si02
#       8
#     2   4   2   4   4   4   4   4
#     4  10  22  40  62  88 126 166 216 268 332 402
#     4  11  25  41  64  90 126 169 217 271 337 406
#     4  10  20  34  60 100 130 172 216 270 338 390
#     4   9  19  35  57  93 136 175 212 261 329 399
#     4  10  24  42  66  95 129 172 223 276 334 388
#     4  11  22  36  66  94 130 166 220 274 332 398
#     4  10  22  38  60  96 129 166 213 277 341 403
#     4  10  24  44  67  95 126 168 220 281 339 398
#
# _framework density 23.104375999999998
#
# number of rings (size 3 to 8) (size 9 to 14) (size 15 to 20)
#    0.000    1.857    0.000    3.000   10.000    6.571 
#    0.000    0.000    0.000    0.857    0.000    0.000 
#    0.000    0.000    0.000    0.000    0.000    0.000 
#
# Total GULP energy -346870.550138 kJ/mol
# GULP energy per Si atom -12388.233933 kJ/mol
# Density = 2.305179 g / cm^3
# Si number density = 23.104376 Si / 1000 Ang^3
#
#
#
# Elastic Constant Matrix: (Units=GPa)
#
#
# Indices 1 2 3 4 5 6 
#
# 1 67.5613 45.2380 31.9139 0.0000 3.4085 0.0000
# 2 45.2380 159.5297 65.5486 0.0000 -6.5806 0.0000
# 3 31.9139 65.5486 125.8857 0.0000 -1.6781 0.0000
# 4 0.0000 0.0000 0.0000 23.4571 0.0000 -2.7474
# 5 3.4085 -6.5806 -1.6781 0.0000 41.5086 0.0000
# 6 0.0000 0.0000 0.0000 -2.7474 0.0000 13.1551
#
#
#
# Elastic Compliance Matrix: (Units=1/GPa)
#
#
# Indices 1 2 3 4 5 6 
#
# 1 0.019121 -0.004473 -0.002550 0.000000 -0.002382 0.000000
# 2 -0.004473 0.009071 -0.003567 0.000000 0.001661 0.000000
# 3 -0.002550 -0.003567 0.010449 0.000000 0.000066 0.000000
# 4 0.000000 0.000000 0.000000 0.043700 0.000000 0.009127
# 5 -0.002382 0.001661 0.000066 0.000000 0.024553 0.000000
# 6 0.000000 0.000000 0.000000 0.009127 0.000000 0.077922
#
#
# Mechanical properties :
#
#
# Convention : Reuss Voigt Hill
#
# Bulk Modulus (GPa) = 57.27279 70.93086 64.10183
# Shear Modulus (GPa) = 23.60539 29.64258 26.62399
#
# Velocity S-wave (km/s) = 3.19985 3.58576 3.39829
# Velocity P-wave (km/s) = 6.20440 6.92174 6.57286
#
# Compressibility (1/GPa) = 0.01746030
#
# Stress axis : x y z
#
# Youngs Moduli (GPa) = 52.29848 110.24188 95.70638
#
# Poissons Ratio (x) = 0.49306 0.24409
# Poissons Ratio (y) = 0.23391 0.34141
# Poissons Ratio (z) = 0.13338 0.39326
#
# Static dielectric constant tensor:
#      x y z
#    x 4.067290 0.000000 0.008200 
#    y 0.000000 4.048600 0.000000 
#    z 0.008200 0.000000 4.487150 
# 
# 
# High freq. dielectric constant tensor:
#      x y z
#    x 1.894690 0.000000 -0.001050 
#    y 0.000000 1.888390 0.000000 
#    z -0.001050 0.000000 1.917040 
# 
# From -- ./inp_files/48034.got.cif
#   From: 2010.06.25/outbox.cif.g09.slc.cpg/sg10_25_cif.got.tgz:48034.got - 2010.06.27 22:07:45.
