data_PCOD8063349
_publ_section_title
;
Structure prediction by ZEFSAII (Michael W. Deem and Ramdas Pophale) SiO2 
 PCOD8063349
Probable space group: P 2/M
;
_chemical_formula_sum "Si O2"
_cell_formula_units_Z 24
_cell_length_a 11.828709
_cell_length_b 9.029149
_cell_length_c 23.393232
_cell_angle_alpha 90.000000
_cell_angle_beta 32.855343
_cell_angle_gamma 90.000000
_cell_volume 1355.470434
_symmetry_space_group_name_H-M "P 2/M"
_symmetry_group_IT_number 10
_symmetry_cell_setting 'monoclinic'
loop_
_space_group_symop_operation_xyz
x,y,z
-x,y,-z
-x,-y,-z
x,-y,z
loop_
_atom_site_type_symbol
_atom_site_label
_atom_site_fract_x
_atom_site_fract_y
_atom_site_fract_z
Si Si1 0.971646 0.672310 0.642307
Si Si2 0.389236 0.170176 0.255953
Si Si3 0.727577 0.325711 0.382774
Si Si4 0.270344 0.829696 0.734113
Si Si5 0.254330 0.835016 0.439389
Si Si6 0.206153 0.670725 0.875856
O O1 0.921375 0.500000 0.662435
O O2 0.751679 0.759430 0.734495
O O3 0.100189 0.718180 0.643699
O O4 0.107797 0.712073 0.529018
O O5 0.256298 0.186250 0.370557
O O6 0.606972 0.254746 0.168345
O O7 0.438987 0.000000 0.220885
O O8 0.500000 0.269745 0.500000
O O9 0.719951 0.500000 0.374355
O O10 0.802683 0.244547 0.293623
O O11 0.517038 0.812684 0.632793
O O12 0.165381 0.747928 0.832305
O O13 0.199554 0.000000 0.765546
O O14 0.171516 0.000000 0.489857
O O15 0.262996 0.500000 0.841079
O O16 0.000000 0.690132 0.000000
#
# Coordination Sequence:
#
# PCOD8063349 Si02
#       6
#     4   4   4   4   4   4
#     4  11  21  31  48  73 104 145 183 217 258 306
#     4  10  21  35  51  75 106 138 173 217 267 317
#     4  10  20  34  50  73 108 149 188 221 256 305
#     4  10  20  33  53  80 108 141 179 220 264 311
#     4   9  18  31  46  69 103 140 175 214 259 309
#     4  10  21  38  61  84 105 132 169 218 272 322
#
# _framework density 17.706030999999999
#
# number of rings (size 3 to 8) (size 9 to 14) (size 15 to 20)
#    0.000    2.000    1.667    3.500    0.000    8.333 
#    0.000    0.000    0.000    1.000    0.000    7.000 
#    0.000    0.000    0.000    0.000    0.000    0.000 
#
# Total GULP energy -297651.670118 kJ/mol
# GULP energy per Si atom -12402.152922 kJ/mol
# Density = 1.766573 g / cm^3
# Si number density = 17.706031 Si / 1000 Ang^3
#
#
#
# Elastic Constant Matrix: (Units=GPa)
#
#
# Indices 1 2 3 4 5 6 
#
# 1 124.3211 65.8248 44.6611 0.0000 -9.5153 0.0000
# 2 65.8248 110.5843 50.1311 0.0000 -3.9503 0.0000
# 3 44.6611 50.1311 64.9564 0.0000 2.5347 0.0000
# 4 0.0000 0.0000 0.0000 20.1293 0.0000 -0.6732
# 5 -9.5153 -3.9503 2.5347 0.0000 10.1885 0.0000
# 6 0.0000 0.0000 0.0000 -0.6732 0.0000 29.2141
#
#
#
# Elastic Compliance Matrix: (Units=1/GPa)
#
#
# Indices 1 2 3 4 5 6 
#
# 1 0.013872 -0.005020 -0.006153 0.000000 0.012539 0.000000
# 2 -0.005020 0.016429 -0.009384 0.000000 0.004016 0.000000
# 3 -0.006153 -0.009384 0.027501 0.000000 -0.016226 0.000000
# 4 0.000000 0.000000 0.000000 0.049717 0.000000 0.001146
# 5 0.012539 0.004016 -0.016226 0.000000 0.115455 0.000000
# 6 0.000000 0.000000 0.000000 0.001146 0.000000 0.034256
#
#
# Mechanical properties :
#
#
# Convention : Reuss Voigt Hill
#
# Bulk Modulus (GPa) = 59.92529 69.01065 64.46797
# Shear Modulus (GPa) = 16.45248 21.18937 18.82092
#
# Velocity S-wave (km/s) = 3.05159 3.46313 3.26385
# Velocity P-wave (km/s) = 6.80693 7.41967 7.11989
#
# Compressibility (1/GPa) = 0.01668744
#
# Stress axis : x y z
#
# Youngs Moduli (GPa) = 72.08976 60.86949 36.36251
#
# Poissons Ratio (x) = 0.30556 0.22372
# Poissons Ratio (y) = 0.36188 0.34124
# Poissons Ratio (z) = 0.44354 0.57122
#
# Static dielectric constant tensor:
#      x y z
#    x 3.405670 0.000000 -0.064120 
#    y 0.000000 3.391550 0.000000 
#    z -0.064120 0.000000 2.933310 
# 
# 
# High freq. dielectric constant tensor:
#      x y z
#    x 1.689270 0.000000 -0.009130 
#    y 0.000000 1.697250 0.000000 
#    z -0.009130 0.000000 1.648060 
# 
# From -- ./inp_files/45315.got.cif
#   From: 2010.06.25/outbox.cif.g09.slc.cpg/sg10_23_cif.got.tgz:45315.got - 2010.06.27 22:07:45.
