data_PCOD8063403
_publ_section_title
;
Structure prediction by ZEFSAII (Michael W. Deem and Ramdas Pophale) SiO2 
 PCOD8063403
Probable space group: P 2/M
;
_chemical_formula_sum "Si O2"
_cell_formula_units_Z 22
_cell_length_a 13.376351
_cell_length_b 11.918692
_cell_length_c 8.320237
_cell_angle_alpha 90.000000
_cell_angle_beta 69.787528
_cell_angle_gamma 90.000000
_cell_volume 1244.796059
_symmetry_space_group_name_H-M "P 2/M"
_symmetry_group_IT_number 10
_symmetry_cell_setting 'monoclinic'
loop_
_space_group_symop_operation_xyz
x,y,z
-x,y,-z
-x,-y,-z
x,-y,z
loop_
_atom_site_type_symbol
_atom_site_label
_atom_site_fract_x
_atom_site_fract_y
_atom_site_fract_z
Si Si1 0.500000 0.307587 0.000000
Si Si2 0.478699 0.875309 0.264488
Si Si3 0.382795 0.500000 0.491398
Si Si4 0.680778 0.876208 0.355661
Si Si5 0.209367 0.654419 0.713977
Si Si6 0.352902 0.500000 0.123816
Si Si7 0.156489 0.500000 0.029044
Si Si8 0.048594 0.500000 0.649822
O O1 0.544702 0.227205 0.838263
O O2 0.597744 0.389912 0.990434
O O3 0.600986 0.862354 0.250931
O O4 0.391524 0.859990 0.449027
O O5 0.464897 0.000000 0.194831
O O6 0.500000 0.500000 0.500000
O O7 0.324378 0.609495 0.593342
O O8 0.379510 0.500000 0.298996
O O9 0.779274 0.788949 0.291237
O O10 0.733152 0.000000 0.325366
O O11 0.121098 0.611317 0.634726
O O12 0.178479 0.609878 0.908251
O O13 0.228519 0.500000 0.150228
O O14 0.037066 0.500000 0.159983
O O15 0.000000 0.500000 0.500000
#
# Coordination Sequence:
#
# PCOD8063403 Si02
#       8
#     2   4   2   4   4   2   2   2
#     4  11  21  28  44  70 109 133 172 212 252 303
#     4   9  18  31  46  67  98 142 176 208 244 295
#     4  10  22  31  48  72 111 139 174 206 254 318
#     4   9  18  32  51  72  99 134 178 211 248 305
#     4  10  20  33  55  78  98 139 171 212 267 300
#     4  11  23  30  44  76 105 140 166 209 266 299
#     4  10  20  37  54  75 106 129 173 213 259 318
#     4  10  21  38  58  77 102 129 173 215 258 322
#
# _framework density 17.673577000000002
#
# number of rings (size 3 to 8) (size 9 to 14) (size 15 to 20)
#    0.000    2.364    0.000    5.727   10.182    0.000 
#    0.000    0.000    0.000    2.727    0.000    0.000 
#    0.000    0.000    0.000    0.000    0.000    0.000 
#
# Total GULP energy -272622.873875 kJ/mol
# GULP energy per Si atom -12391.948813 kJ/mol
# Density = 1.763335 g / cm^3
# Si number density = 17.673577 Si / 1000 Ang^3
#
#
#
# Elastic Constant Matrix: (Units=GPa)
#
#
# Indices 1 2 3 4 5 6 
#
# 1 103.2669 45.9905 32.6746 0.0000 0.4350 0.0000
# 2 45.9905 159.2814 35.6955 0.0000 -5.5317 0.0000
# 3 32.6746 35.6955 67.0133 0.0000 0.6859 0.0000
# 4 0.0000 0.0000 0.0000 13.4094 0.0000 -0.8071
# 5 0.4350 -5.5317 0.6859 0.0000 29.5866 0.0000
# 6 0.0000 0.0000 0.0000 -0.8071 0.0000 16.2800
#
#
#
# Elastic Compliance Matrix: (Units=1/GPa)
#
#
# Indices 1 2 3 4 5 6 
#
# 1 0.012277 -0.002525 -0.004636 0.000000 -0.000545 0.000000
# 2 -0.002525 0.007709 -0.002891 0.000000 0.001545 0.000000
# 3 -0.004636 -0.002891 0.018732 0.000000 -0.000907 0.000000
# 4 0.000000 0.000000 0.000000 0.074798 0.000000 0.003708
# 5 -0.000545 0.001545 -0.000907 0.000000 0.034117 0.000000
# 6 0.000000 0.000000 0.000000 0.003708 0.000000 0.061609
#
#
# Mechanical properties :
#
#
# Convention : Reuss Voigt Hill
#
# Bulk Modulus (GPa) = 53.72051 62.03141 57.87596
# Shear Modulus (GPa) = 21.22699 26.20195 23.71447
#
# Velocity S-wave (km/s) = 3.46939 3.85457 3.66704
# Velocity P-wave (km/s) = 6.81988 7.41518 7.12375
#
# Compressibility (1/GPa) = 0.01861487
#
# Stress axis : x y z
#
# Youngs Moduli (GPa) = 81.45178 129.72243 53.38516
#
# Poissons Ratio (x) = 0.32754 0.24747
# Poissons Ratio (y) = 0.20566 0.15433
# Poissons Ratio (z) = 0.37758 0.37501
#
# Static dielectric constant tensor:
#      x y z
#    x 3.156050 0.000000 0.076170 
#    y 0.000000 3.418080 0.000000 
#    z 0.076170 0.000000 3.259590 
# 
# 
# High freq. dielectric constant tensor:
#      x y z
#    x 1.657980 0.000000 0.004000 
#    y 0.000000 1.684540 0.000000 
#    z 0.004000 0.000000 1.682350 
# 
# From -- ./inp_files/23998.got.cif
#   From: 2010.06.25/outbox.cif.g09.slc.cpg/sg10_12_cif.got.tgz:23998.got - 2010.06.27 22:07:45.
