data_PCOD8063492
_publ_section_title
;
Structure prediction by ZEFSAII (Michael W. Deem and Ramdas Pophale) SiO2 
 PCOD8063492
Probable space group: P 2/M
;
_chemical_formula_sum "Si O2"
_cell_formula_units_Z 20
_cell_length_a 12.016108
_cell_length_b 9.049669
_cell_length_c 16.986101
_cell_angle_alpha 90.000000
_cell_angle_beta 35.795968
_cell_angle_gamma 90.000000
_cell_volume 1080.369425
_symmetry_space_group_name_H-M "P 2/M"
_symmetry_group_IT_number 10
_symmetry_cell_setting 'monoclinic'
loop_
_space_group_symop_operation_xyz
x,y,z
-x,y,-z
-x,-y,-z
x,-y,z
loop_
_atom_site_type_symbol
_atom_site_label
_atom_site_fract_x
_atom_site_fract_y
_atom_site_fract_z
Si Si1 0.711685 0.165876 0.518749
Si Si2 0.603559 0.827504 0.021719
Si Si3 0.499053 0.674467 0.236408
Si Si4 0.037103 0.175764 0.765708
Si Si5 0.706713 0.834295 0.242168
O O1 0.691465 0.266870 0.609101
O O2 0.861868 0.237192 0.371478
O O3 0.502865 0.160422 0.597109
O O4 0.774556 0.000000 0.507757
O O5 0.820322 0.771597 0.890676
O O6 0.595206 0.000000 0.047890
O O7 0.500000 0.792537 0.000000
O O8 0.494913 0.736459 0.150721
O O9 0.500533 0.500000 0.233958
O O10 0.689173 0.735060 0.172717
O O11 0.143508 0.237015 0.782606
O O12 0.059707 0.000000 0.751726
O O13 0.770669 0.000000 0.180404
#
# Coordination Sequence:
#
# PCOD8063492 Si02
#       5
#     4   4   4   4   4
#     4   8  15  30  53  79 103 129 161 203 251 298
#     4  10  21  37  55  74  97 129 172 216 251 289
#     4  10  20  34  51  73 106 139 164 198 250 302
#     4   9  16  30  55  81 101 128 167 207 250 295
#     4   8  15  29  53  79 104 129 160 203 250 298
#
# _framework density 18.512187000000001
#
# number of rings (size 3 to 8) (size 9 to 14) (size 15 to 20)
#    1.200    1.800    0.000    1.800    0.000    3.600 
#    0.000    9.000    0.000    6.000    0.000    0.000 
#    0.000    0.000    0.000    0.000    0.000    0.000 
#
# Total GULP energy -247789.148611 kJ/mol
# GULP energy per Si atom -12389.457431 kJ/mol
# Density = 1.847005 g / cm^3
# Si number density = 18.512187 Si / 1000 Ang^3
#
#
#
# Elastic Constant Matrix: (Units=GPa)
#
#
# Indices 1 2 3 4 5 6 
#
# 1 70.9481 39.6137 34.3709 0.0000 25.9730 0.0000
# 2 39.6137 83.4757 26.7711 0.0000 23.6757 0.0000
# 3 34.3709 26.7711 49.8876 0.0000 23.5293 0.0000
# 4 0.0000 0.0000 0.0000 8.2924 0.0000 0.6347
# 5 25.9730 23.6757 23.5293 0.0000 27.2112 0.0000
# 6 0.0000 0.0000 0.0000 0.6347 0.0000 6.1433
#
#
#
# Elastic Compliance Matrix: (Units=1/GPa)
#
#
# Indices 1 2 3 4 5 6 
#
# 1 0.026352 -0.006199 -0.009304 0.000000 -0.011714 0.000000
# 2 -0.006199 0.017710 -0.001276 0.000000 -0.008388 0.000000
# 3 -0.009304 -0.001276 0.037874 0.000000 -0.022758 0.000000
# 4 0.000000 0.000000 0.000000 0.121554 0.000000 -0.012559
# 5 -0.011714 -0.008388 -0.022758 0.000000 0.074907 0.000000
# 6 0.000000 0.000000 0.000000 -0.012559 0.000000 0.164076
#
#
# Mechanical properties :
#
#
# Convention : Reuss Voigt Hill
#
# Bulk Modulus (GPa) = 20.67132 45.09142 32.88137
# Shear Modulus (GPa) = 10.15937 15.23311 12.69624
#
# Velocity S-wave (km/s) = 2.34518 2.87168 2.62168
# Velocity P-wave (km/s) = 4.30392 5.95029 5.19277
#
# Compressibility (1/GPa) = 0.04837621
#
# Stress axis : x y z
#
# Youngs Moduli (GPa) = 37.94838 56.46610 26.40333
#
# Poissons Ratio (x) = 0.35004 0.24566
# Poissons Ratio (y) = 0.23525 0.03370
# Poissons Ratio (z) = 0.35307 0.07207
#
# Static dielectric constant tensor:
#      x y z
#    x 3.201530 0.000000 0.053460 
#    y 0.000000 2.960260 0.000000 
#    z 0.053460 0.000000 3.312660 
# 
# 
# High freq. dielectric constant tensor:
#      x y z
#    x 1.698710 0.000000 0.013510 
#    y 0.000000 1.677000 0.000000 
#    z 0.013510 0.000000 1.711780 
# 
# From -- ./inp_files/63268.got.cif
#   From: 2010.06.25/outbox.cif.g09.slc.cpg/sg10_32_cif.got.tgz:63268.got - 2010.06.27 22:07:45.
