data_PCOD8063710
_publ_section_title
;
Structure prediction by ZEFSAII (Michael W. Deem and Ramdas Pophale) SiO2 
 PCOD8063710
Probable space group: P 2/M
;
_chemical_formula_sum "Si O2"
_cell_formula_units_Z 28
_cell_length_a 9.850328
_cell_length_b 7.876571
_cell_length_c 31.549522
_cell_angle_alpha 90.000000
_cell_angle_beta 38.356232
_cell_angle_gamma 90.000000
_cell_volume 1518.996263
_symmetry_space_group_name_H-M "P 2/M"
_symmetry_group_IT_number 10
_symmetry_cell_setting 'monoclinic'
loop_
_space_group_symop_operation_xyz
x,y,z
-x,y,-z
-x,-y,-z
x,-y,z
loop_
_atom_site_type_symbol
_atom_site_label
_atom_site_fract_x
_atom_site_fract_y
_atom_site_fract_z
Si Si1 0.660927 0.694166 0.190390
Si Si2 0.373242 0.303330 0.186390
Si Si3 0.681519 0.309344 0.662565
Si Si4 0.083246 0.000000 0.432069
Si Si5 0.451549 0.193421 0.074178
Si Si6 0.242164 0.000000 0.567693
Si Si7 0.149240 0.200212 0.075386
Si Si8 0.990078 0.313028 0.340052
O O1 0.586511 0.500000 0.206028
O O2 0.549306 0.778709 0.176126
O O3 0.552032 0.758287 0.261371
O O4 0.918724 0.709687 0.126281
O O5 0.419747 0.500000 0.166139
O O6 0.400408 0.208195 0.135702
O O7 0.127290 0.273427 0.263789
O O8 0.665579 0.500000 0.645699
O O9 0.769009 0.169835 0.608121
O O10 0.842727 0.316980 0.662503
O O11 0.000000 0.000000 0.500000
O O12 0.884793 0.000000 0.446395
O O13 0.256278 0.269492 0.093085
O O14 0.460848 0.000000 0.057655
O O15 0.691360 0.263684 0.001941
O O16 0.500000 0.000000 0.500000
O O17 0.187341 0.833037 0.608770
O O18 0.102635 0.000000 0.086473
O O19 0.876780 0.500000 0.363949
#
# Coordination Sequence:
#
# PCOD8063710 Si02
#       8
#     4   4   4   2   4   2   4   4
#     4   9  18  32  51  75  98 123 164 213 253 293
#     4   9  18  32  51  75  98 123 164 213 253 293
#     4   8  16  32  52  75 103 133 166 205 249 298
#     4  10  20  34  54  78 103 134 167 199 244 299
#     4   9  19  34  48  66  97 135 170 204 248 301
#     4  10  20  34  54  78 103 134 167 199 244 299
#     4   9  19  34  48  66  97 135 170 204 248 301
#     4   8  16  32  52  75 103 133 166 205 249 298
#
# _framework density 18.433225
#
# number of rings (size 3 to 8) (size 9 to 14) (size 15 to 20)
#    0.000    3.143    0.000    2.571    2.000    2.857 
#    0.000    5.714    0.000    1.714    0.000    0.000 
#    0.000    0.000    0.000    0.000    0.000    0.000 
#
# Total GULP energy -346905.839040 kJ/mol
# GULP energy per Si atom -12389.494251 kJ/mol
# Density = 1.839127 g / cm^3
# Si number density = 18.433225 Si / 1000 Ang^3
#
#
#
# Elastic Constant Matrix: (Units=GPa)
#
#
# Indices 1 2 3 4 5 6 
#
# 1 61.7848 22.6934 56.6159 0.0000 0.1446 0.0000
# 2 22.6934 76.1510 52.7506 0.0000 -0.1590 0.0000
# 3 56.6159 52.7506 143.4839 0.0000 6.2256 0.0000
# 4 0.0000 0.0000 0.0000 22.5030 0.0000 -6.6935
# 5 0.1446 -0.1590 6.2256 0.0000 34.9207 0.0000
# 6 0.0000 0.0000 0.0000 -6.6935 0.0000 12.6955
#
#
#
# Elastic Compliance Matrix: (Units=1/GPa)
#
#
# Indices 1 2 3 4 5 6 
#
# 1 0.025485 -0.000773 -0.009843 0.000000 0.001646 0.000000
# 2 -0.000773 0.017696 -0.006253 0.000000 0.001199 0.000000
# 3 -0.009843 -0.006253 0.013254 0.000000 -0.002351 0.000000
# 4 0.000000 0.000000 0.000000 0.052704 0.000000 0.027787
# 5 0.001646 0.001199 -0.002351 0.000000 0.029054 0.000000
# 6 0.000000 0.000000 0.000000 0.027787 0.000000 0.093418
#
#
# Mechanical properties :
#
#
# Convention : Reuss Voigt Hill
#
# Bulk Modulus (GPa) = 44.05775 60.61550 52.33662
# Shear Modulus (GPa) = 18.32078 23.98118 21.15098
#
# Velocity S-wave (km/s) = 3.15604 3.61082 3.39106
# Velocity P-wave (km/s) = 6.10196 7.09501 6.61714
#
# Compressibility (1/GPa) = 0.02269748
#
# Stress axis : x y z
#
# Youngs Moduli (GPa) = 39.23905 56.50991 75.44816
#
# Poissons Ratio (x) = 0.04367 0.74265
# Poissons Ratio (y) = 0.03032 0.47177
# Poissons Ratio (z) = 0.38623 0.35335
#
# Static dielectric constant tensor:
#      x y z
#    x 3.026590 0.000000 -0.019440 
#    y 0.000000 3.568300 0.000000 
#    z -0.019440 0.000000 3.420110 
# 
# 
# High freq. dielectric constant tensor:
#      x y z
#    x 1.677570 0.000000 -0.001150 
#    y 0.000000 1.714430 0.000000 
#    z -0.001150 0.000000 1.716750 
# 
# From -- ./inp_files/92038.got.cif
#   From: 2010.06.25/outbox.cif.g09.slc.cpg/sg10_47_cif.got.tgz:92038.got - 2010.06.27 22:07:45.
