data_PCOD8063600
_publ_section_title
;
Structure prediction by ZEFSAII (Michael W. Deem and Ramdas Pophale) SiO2 
 PCOD8063600
Probable space group: P 2/M
;
_chemical_formula_sum "Si O2"
_cell_formula_units_Z 28
_cell_length_a 9.182591
_cell_length_b 8.262392
_cell_length_c 25.908956
_cell_angle_alpha 90.000000
_cell_angle_beta 135.606878
_cell_angle_gamma 90.000000
_cell_volume 1375.171380
_symmetry_space_group_name_H-M "P 2/M"
_symmetry_group_IT_number 10
_symmetry_cell_setting 'monoclinic'
loop_
_space_group_symop_operation_xyz
x,y,z
-x,y,-z
-x,-y,-z
x,-y,z
loop_
_atom_site_type_symbol
_atom_site_label
_atom_site_fract_x
_atom_site_fract_y
_atom_site_fract_z
Si Si1 0.991046 0.807358 0.078914
Si Si2 0.782788 0.193758 0.223761
Si Si3 0.555640 0.808053 0.362428
Si Si4 0.669197 0.687667 0.501603
Si Si5 0.882251 0.811938 0.361777
Si Si6 0.327719 0.807673 0.083769
Si Si7 0.093867 0.191797 0.216551
O O1 0.187354 0.743338 0.095547
O O2 0.006432 0.735747 0.140531
O O3 0.999850 0.000000 0.082967
O O4 0.776174 0.751072 0.996812
O O5 0.832721 0.264887 0.293231
O O6 0.559996 0.261945 0.148322
O O7 0.956898 0.262316 0.228781
O O8 0.785495 0.000000 0.225197
O O9 0.581875 0.717519 0.422848
O O10 0.729628 0.740172 0.366939
O O11 0.332614 0.756815 0.283519
O O12 0.574183 0.000000 0.376108
O O13 0.500000 0.750809 0.500000
O O14 0.717579 0.500000 0.522644
O O15 0.880282 0.786082 0.562617
O O16 0.833274 0.000000 0.346056
O O17 0.334846 0.000000 0.087371
O O18 0.073971 0.000000 0.210838
#
# Coordination Sequence:
#
# PCOD8063600 Si02
#       7
#     4   4   4   4   4   4   4
#     4   8  13  21  33  51  80 119 158 194 234 280
#     4   9  16  25  39  61  89 121 157 197 239 282
#     4  10  20  34  53  75  98 127 164 202 240 286
#     4  11  24  39  54  74 100 127 156 195 244 294
#     4  10  20  34  53  75  98 127 164 202 240 286
#     4   8  13  21  33  51  80 119 158 194 234 280
#     4   9  16  25  39  61  89 121 157 197 239 282
#
# _framework density 20.361097000000001
#
# number of rings (size 3 to 8) (size 9 to 14) (size 15 to 20)
#    0.000    2.714    0.000    3.429    0.000    8.571 
#    0.000    2.857    0.000    0.000    0.000    0.000 
#    0.000    1.143    0.000   12.000    0.000   16.571 
#
# Total GULP energy -347125.100536 kJ/mol
# GULP energy per Si atom -12397.325019 kJ/mol
# Density = 2.031475 g / cm^3
# Si number density = 20.361097 Si / 1000 Ang^3
#
#
#
# Elastic Constant Matrix: (Units=GPa)
#
#
# Indices 1 2 3 4 5 6 
#
# 1 175.4527 7.7159 78.1121 0.0000 -14.8830 0.0000
# 2 7.7159 7.1939 1.7301 0.0000 0.1755 0.0000
# 3 78.1121 1.7301 141.4456 0.0000 -17.7112 0.0000
# 4 0.0000 0.0000 0.0000 -1.9198 0.0000 -1.0761
# 5 -14.8830 0.1755 -17.7112 0.0000 41.9284 0.0000
# 6 0.0000 0.0000 0.0000 -1.0761 0.0000 8.5186
#
#
#
# Elastic Compliance Matrix: (Units=1/GPa)
#
#
# Indices 1 2 3 4 5 6 
#
# 1 0.007988 -0.007589 -0.004181 0.000000 0.001101 0.000000
# 2 -0.007589 0.146702 0.002093 0.000000 -0.002424 0.000000
# 3 -0.004181 0.002093 0.009678 0.000000 0.002595 0.000000
# 4 0.000000 0.000000 0.000000 -0.486438 0.000000 -0.061450
# 5 0.001101 -0.002424 0.002595 0.000000 0.025348 0.000000
# 6 0.000000 0.000000 0.000000 -0.061450 0.000000 0.109628
#
#
# Mechanical properties :
#
#
# Convention : Reuss Voigt Hill
#
# Bulk Modulus (GPa) = 6.89585 55.46760 31.18172
# Shear Modulus (GPa) = -41.87466 25.47437 -8.20014
#
# Velocity S-wave (km/s) = -4.53990 3.54097 -2.00900
# Velocity P-wave (km/s) = 4.90783 6.63468 3.15692
#
# Compressibility (1/GPa) = 0.14501485
#
# Stress axis : x y z
#
# Youngs Moduli (GPa) = 125.18979 6.81654 103.32824
#
# Poissons Ratio (x) = 0.05173 0.43197
# Poissons Ratio (y) = 0.95005 -0.21626
# Poissons Ratio (z) = 0.52336 -0.01427
#
# Static dielectric constant tensor:
#      x y z
#    x 3.998370 0.000000 -0.088220 
#    y 0.000000 2.944020 0.000000 
#    z -0.088220 0.000000 3.923930 
# 
# 
# High freq. dielectric constant tensor:
#      x y z
#    x 1.805940 0.000000 -0.003430 
#    y 0.000000 1.723850 0.000000 
#    z -0.003430 0.000000 1.812620 
# 
# From -- ./inp_files/85657.got.cif
#   From: 2010.06.25/outbox.cif.g09.slc.cpg/sg10_43_cif.got.tgz:85657.got - 2010.06.27 22:07:45.
