data_PCOD8063391
_publ_section_title
;
Structure prediction by ZEFSAII (Michael W. Deem and Ramdas Pophale) SiO2 
 PCOD8063391
Probable space group: P 2/M
;
_chemical_formula_sum "Si O2"
_cell_formula_units_Z 28
_cell_length_a 14.602722
_cell_length_b 9.216656
_cell_length_c 12.289219
_cell_angle_alpha 90.000000
_cell_angle_beta 120.839313
_cell_angle_gamma 90.000000
_cell_volume 1420.125065
_symmetry_space_group_name_H-M "P 2/M"
_symmetry_group_IT_number 10
_symmetry_cell_setting 'monoclinic'
loop_
_space_group_symop_operation_xyz
x,y,z
-x,y,-z
-x,-y,-z
x,-y,z
loop_
_atom_site_type_symbol
_atom_site_label
_atom_site_fract_x
_atom_site_fract_y
_atom_site_fract_z
Si Si1 0.797450 0.162505 0.359417
Si Si2 0.811579 0.830422 0.616683
Si Si3 0.983676 0.169760 0.115440
Si Si4 0.415800 0.341257 0.043690
Si Si5 0.563942 0.837526 0.269683
Si Si6 0.176978 0.668923 0.833440
Si Si7 0.394440 0.670219 0.495520
O O1 0.826030 0.218898 0.499118
O O2 0.669752 0.161478 0.259323
O O3 0.853819 0.262461 0.302741
O O4 0.843306 0.000000 0.372860
O O5 0.712086 0.748940 0.613153
O O6 0.913372 0.790201 0.750289
O O7 0.784670 0.000000 0.602100
O O8 0.885894 0.258346 0.105575
O O9 0.957217 0.000000 0.106477
O O10 0.000000 0.217104 0.000000
O O11 0.410400 0.500000 0.099416
O O12 0.455831 0.211622 0.144900
O O13 0.500000 0.354771 0.000000
O O14 0.300545 0.299399 0.929530
O O15 0.589049 0.714021 0.371038
O O16 0.545645 0.000000 0.306330
O O17 0.148936 0.500000 0.811820
O O18 0.500000 0.726394 0.500000
O O19 0.377970 0.500000 0.472251
#
# Coordination Sequence:
#
# PCOD8063391 Si02
#       7
#     4   4   4   4   4   4   4
#     4   9  18  34  56  84 116 147 185 235 292 351
#     4   9  20  39  62  87 115 151 194 243 297 345
#     4  10  23  44  65  84 113 154 199 247 297 349
#     4  10  20  35  54  81 121 160 190 231 288 347
#     4  10  20  33  54  83 115 153 193 238 286 340
#     4  11  23  37  58  87 118 156 199 244 293 349
#     4  10  21  36  56  84 117 153 192 235 290 351
#
# _framework density 19.716574000000001
#
# number of rings (size 3 to 8) (size 9 to 14) (size 15 to 20)
#    0.000    2.143    1.429    2.143    0.000    7.429 
#    0.000    5.714    0.000    0.000    0.000    0.000 
#    0.000    0.000    0.000    0.000    0.000    0.000 
#
# Total GULP energy -347066.454277 kJ/mol
# GULP energy per Si atom -12395.230510 kJ/mol
# Density = 1.967170 g / cm^3
# Si number density = 19.716574 Si / 1000 Ang^3
#
#
#
# Elastic Constant Matrix: (Units=GPa)
#
#
# Indices 1 2 3 4 5 6 
#
# 1 120.4234 55.2184 52.3310 0.0000 -5.8649 0.0000
# 2 55.2184 71.0119 43.1009 0.0000 -1.4088 0.0000
# 3 52.3310 43.1009 109.4930 0.0000 3.6016 0.0000
# 4 0.0000 0.0000 0.0000 26.1817 0.0000 3.1382
# 5 -5.8649 -1.4088 3.6016 0.0000 25.3430 0.0000
# 6 0.0000 0.0000 0.0000 3.1382 0.0000 44.8339
#
#
#
# Elastic Compliance Matrix: (Units=1/GPa)
#
#
# Indices 1 2 3 4 5 6 
#
# 1 0.013907 -0.008740 -0.003311 0.000000 0.003203 0.000000
# 2 -0.008740 0.024105 -0.005314 0.000000 0.000072 0.000000
# 3 -0.003311 -0.005314 0.012903 0.000000 -0.002895 0.000000
# 4 0.000000 0.000000 0.000000 0.038518 0.000000 -0.002696
# 5 0.003203 0.000072 -0.002895 0.000000 0.040615 0.000000
# 6 0.000000 0.000000 0.000000 -0.002696 0.000000 0.022493
#
#
# Mechanical properties :
#
#
# Convention : Reuss Voigt Hill
#
# Bulk Modulus (GPa) = 61.79144 66.91433 64.35289
# Shear Modulus (GPa) = 25.95150 29.29025 27.62087
#
# Velocity S-wave (km/s) = 3.63192 3.85848 3.74692
# Velocity P-wave (km/s) = 6.99969 7.33910 7.17140
#
# Compressibility (1/GPa) = 0.01618347
#
# Stress axis : x y z
#
# Youngs Moduli (GPa) = 71.90710 41.48449 77.50364
#
# Poissons Ratio (x) = 0.36259 0.25664
# Poissons Ratio (y) = 0.62850 0.41184
# Poissons Ratio (z) = 0.23811 0.22044
#
# Static dielectric constant tensor:
#      x y z
#    x 3.713060 0.000000 0.370000 
#    y 0.000000 3.653180 0.000000 
#    z 0.370000 0.000000 4.055450 
# 
# 
# High freq. dielectric constant tensor:
#      x y z
#    x 1.759690 0.000000 0.006890 
#    y 0.000000 1.769790 0.000000 
#    z 0.006890 0.000000 1.760000 
# 
# From -- ./inp_files/50071.got.cif
#   From: 2010.06.25/outbox.cif.g09.slc.cpg/sg10_26_cif.got.tgz:50071.got - 2010.06.27 22:07:45.
