data_PCOD8063449
_publ_section_title
;
Structure prediction by ZEFSAII (Michael W. Deem and Ramdas Pophale) SiO2 
 PCOD8063449
Probable space group: P 2/M
;
_chemical_formula_sum "Si O2"
_cell_formula_units_Z 32
_cell_length_a 11.321603
_cell_length_b 13.471015
_cell_length_c 11.968235
_cell_angle_alpha 90.000000
_cell_angle_beta 86.345537
_cell_angle_gamma 90.000000
_cell_volume 1821.605600
_symmetry_space_group_name_H-M "P 2/M"
_symmetry_group_IT_number 10
_symmetry_cell_setting 'monoclinic'
loop_
_space_group_symop_operation_xyz
x,y,z
-x,y,-z
-x,-y,-z
x,-y,z
loop_
_atom_site_type_symbol
_atom_site_label
_atom_site_fract_x
_atom_site_fract_y
_atom_site_fract_z
Si Si1 0.000828 0.269774 0.133814
Si Si2 0.337847 0.300499 0.427570
Si Si3 0.210835 0.386023 0.234791
Si Si4 0.769182 0.615637 0.160300
Si Si5 0.374450 0.614127 0.031791
Si Si6 0.193605 0.885080 0.481109
Si Si7 0.580245 0.385131 0.356388
Si Si8 0.011691 0.113407 0.680606
O O1 0.114529 0.329838 0.167358
O O2 0.888154 0.329246 0.185437
O O3 0.995898 0.166181 0.199219
O O4 0.000000 0.254210 0.000000
O O5 0.231489 0.340621 0.355820
O O6 0.308419 0.185721 0.459482
O O7 0.466546 0.311774 0.361505
O O8 0.341034 0.367851 0.537977
O O9 0.171602 0.500000 0.247616
O O10 0.336425 0.375277 0.162558
O O11 0.799835 0.500000 0.160704
O O12 0.661683 0.642750 0.248077
O O13 0.728516 0.656649 0.041678
O O14 0.388288 0.500000 0.993992
O O15 0.500000 0.668110 0.000000
O O16 0.122317 0.852192 0.596909
O O17 0.109541 0.870445 0.379354
O O18 0.235166 0.000000 0.486751
O O19 0.537873 0.500000 0.354794
O O20 0.030166 0.000000 0.710045
#
# Coordination Sequence:
#
# PCOD8063449 Si02
#       8
#     4   4   4   4   4   4   4   4
#     4  12  22  34  53  79 110 139 176 224 276 316
#     4  11  19  34  55  79 106 137 181 220 262 318
#     4  11  21  32  49  76 109 143 179 219 263 313
#     4  10  20  34  49  71 107 146 181 214 257 308
#     4   9  17  30  48  68  94 136 185 221 247 293
#     4   9  18  35  60  82 104 133 172 225 274 320
#     4  10  21  35  52  76 110 151 182 215 258 308
#     4   9  19  37  57  79 105 136 174 218 271 329
#
# _framework density 17.56692
#
# number of rings (size 3 to 8) (size 9 to 14) (size 15 to 20)
#    0.000    1.875    2.500    4.125    0.000    2.750 
#    0.000    1.250    0.000    3.750    0.000    0.000 
#    0.000    4.500    0.000    0.000    0.000    0.000 
#
# Total GULP energy -396642.698498 kJ/mol
# GULP energy per Si atom -12395.084328 kJ/mol
# Density = 1.752694 g / cm^3
# Si number density = 17.566920 Si / 1000 Ang^3
#
#
#
# Elastic Constant Matrix: (Units=GPa)
#
#
# Indices 1 2 3 4 5 6 
#
# 1 78.9379 49.1086 20.6232 0.0000 -2.6718 0.0000
# 2 49.1086 81.2991 45.2557 0.0000 -10.6897 0.0000
# 3 20.6232 45.2557 86.8062 0.0000 7.4374 0.0000
# 4 0.0000 0.0000 0.0000 25.6545 0.0000 -0.8878
# 5 -2.6718 -10.6897 7.4374 0.0000 26.7046 0.0000
# 6 0.0000 0.0000 0.0000 -0.8878 0.0000 30.0831
#
#
#
# Elastic Compliance Matrix: (Units=1/GPa)
#
#
# Indices 1 2 3 4 5 6 
#
# 1 0.021135 -0.015298 0.003378 0.000000 -0.004950 0.000000
# 2 -0.015298 0.031249 -0.013930 0.000000 0.014858 0.000000
# 3 0.003378 -0.013930 0.018879 0.000000 -0.010496 0.000000
# 4 0.000000 0.000000 0.000000 0.039019 0.000000 0.001152
# 5 -0.004950 0.014858 -0.010496 0.000000 0.045822 0.000000
# 6 0.000000 0.000000 0.000000 0.001152 0.000000 0.033275
#
#
# Mechanical properties :
#
#
# Convention : Reuss Voigt Hill
#
# Bulk Modulus (GPa) = 51.11508 53.00201 52.05854
# Shear Modulus (GPa) = 20.19386 25.29216 22.74301
#
# Velocity S-wave (km/s) = 3.39416 3.79853 3.60203
# Velocity P-wave (km/s) = 6.67240 7.03388 6.85553
#
# Compressibility (1/GPa) = 0.01956370
#
# Stress axis : x y z
#
# Youngs Moduli (GPa) = 47.31421 32.00115 52.96972
#
# Poissons Ratio (x) = 0.48956 -0.17896
# Poissons Ratio (y) = 0.72383 0.73786
# Poissons Ratio (z) = -0.15985 0.44577
#
# Static dielectric constant tensor:
#      x y z
#    x 3.228160 0.000000 0.027320 
#    y 0.000000 3.022290 0.000000 
#    z 0.027320 0.000000 3.356620 
# 
# 
# High freq. dielectric constant tensor:
#      x y z
#    x 1.678990 0.000000 0.001790 
#    y 0.000000 1.647250 0.000000 
#    z 0.001790 0.000000 1.689320 
# 
# From -- ./inp_files/46690.got.cif
#   From: 2010.06.25/outbox.cif.g09.slc.cpg/sg10_24_cif.got.tgz:46690.got - 2010.06.27 22:07:45.
