data_PCOD8063026
_publ_section_title
;
Structure prediction by ZEFSAII (Michael W. Deem and Ramdas Pophale) SiO2 
 PCOD8063026
Probable space group: P 2/M
;
_chemical_formula_sum "Si O2"
_cell_formula_units_Z 32
_cell_length_a 13.669721
_cell_length_b 13.838573
_cell_length_c 20.403568
_cell_angle_alpha 90.000000
_cell_angle_beta 153.554737
_cell_angle_gamma 90.000000
_cell_volume 1718.902966
_symmetry_space_group_name_H-M "P 2/M"
_symmetry_group_IT_number 10
_symmetry_cell_setting 'monoclinic'
loop_
_space_group_symop_operation_xyz
x,y,z
-x,y,-z
-x,-y,-z
x,-y,z
loop_
_atom_site_type_symbol
_atom_site_label
_atom_site_fract_x
_atom_site_fract_y
_atom_site_fract_z
Si Si1 0.044405 0.257241 0.889578
Si Si2 0.191981 0.708177 0.564405
Si Si3 0.328186 0.888169 0.574662
Si Si4 0.781173 0.106283 0.909624
Si Si5 0.788581 0.606109 0.824250
Si Si6 0.361593 0.611087 0.126399
Si Si7 0.713660 0.786027 0.586524
Si Si8 0.714439 0.394234 0.504069
O O1 0.844554 0.303065 0.811941
O O2 0.937614 0.204136 0.763163
O O3 0.196810 0.179975 0.017921
O O4 0.221456 0.343927 0.981348
O O5 0.198210 0.821901 0.548940
O O6 0.419820 0.673028 0.732725
O O7 0.135464 0.648705 0.464267
O O8 0.000000 0.688930 0.500000
O O9 0.585133 0.867681 0.741973
O O10 0.272924 0.856953 0.467347
O O11 0.261711 0.000000 0.544535
O O12 0.739226 0.000000 0.914570
O O13 0.000000 0.108569 0.000000
O O14 0.879191 0.500000 0.855347
O O15 0.825931 0.623721 0.926097
O O16 0.526275 0.598890 0.670370
O O17 0.424565 0.500000 0.152085
O O18 0.500000 0.814723 0.500000
O O19 0.710200 0.673373 0.565006
O O20 0.801888 0.500000 0.577609
#
# Coordination Sequence:
#
# PCOD8063026 Si02
#       8
#     4   4   4   4   4   4   4   4
#     4  12  20  30  51  78 116 149 182 225 263 324
#     4  10  20  37  61  86 106 136 184 247 298 330
#     4  10  22  41  59  80 112 145 186 235 283 338
#     4  10  20  33  53  77 105 144 183 225 276 331
#     4   9  17  29  48  73 107 150 185 220 261 312
#     4  10  20  32  50  82 115 145 184 226 278 330
#     4  11  22  33  51  81 118 162 190 217 262 323
#     4   9  19  34  50  76 113 150 191 224 263 323
#
# _framework density 18.616523999999998
#
# number of rings (size 3 to 8) (size 9 to 14) (size 15 to 20)
#    0.000    1.875    2.500    3.375    1.750    4.250 
#    0.000    0.000    0.000    3.000    0.000    5.250 
#    0.000    0.000    0.000    0.000    0.000    0.000 
#
# Total GULP energy -396603.210917 kJ/mol
# GULP energy per Si atom -12393.850341 kJ/mol
# Density = 1.857415 g / cm^3
# Si number density = 18.616524 Si / 1000 Ang^3
#
#
#
# Elastic Constant Matrix: (Units=GPa)
#
#
# Indices 1 2 3 4 5 6 
#
# 1 52.7199 22.1243 22.9854 0.0000 4.5268 0.0000
# 2 22.1243 118.2807 34.7070 0.0000 -5.5328 0.0000
# 3 22.9854 34.7070 85.4360 0.0000 -20.0881 0.0000
# 4 0.0000 0.0000 0.0000 26.8866 0.0000 -2.4385
# 5 4.5268 -5.5328 -20.0881 0.0000 23.7075 0.0000
# 6 0.0000 0.0000 0.0000 -2.4385 0.0000 13.0711
#
#
#
# Elastic Compliance Matrix: (Units=1/GPa)
#
#
# Indices 1 2 3 4 5 6 
#
# 1 0.024946 -0.002742 -0.008577 0.000000 -0.012670 0.000000
# 2 -0.002742 0.009934 -0.003284 0.000000 0.000060 0.000000
# 3 -0.008577 -0.003284 0.019420 0.000000 0.017326 0.000000
# 4 0.000000 0.000000 0.000000 0.037833 0.000000 0.007058
# 5 -0.012670 0.000060 0.017326 0.000000 0.059295 0.000000
# 6 0.000000 0.000000 0.000000 0.007058 0.000000 0.077821
#
#
# Mechanical properties :
#
#
# Convention : Reuss Voigt Hill
#
# Bulk Modulus (GPa) = 39.84881 46.23000 43.03940
# Shear Modulus (GPa) = 18.73926 24.50770 21.62348
#
# Velocity S-wave (km/s) = 3.17613 3.63223 3.41181
# Velocity P-wave (km/s) = 5.90778 6.51747 6.22010
#
# Compressibility (1/GPa) = 0.02509485
#
# Stress axis : x y z
#
# Youngs Moduli (GPa) = 40.08625 100.66750 51.49375
#
# Poissons Ratio (x) = 0.27605 0.44164
# Poissons Ratio (y) = 0.10993 0.16909
# Poissons Ratio (z) = 0.34380 0.33055
#
# Static dielectric constant tensor:
#      x y z
#    x 2.957320 0.000000 -0.107670 
#    y 0.000000 3.775500 0.000000 
#    z -0.107670 0.000000 3.458970 
# 
# 
# High freq. dielectric constant tensor:
#      x y z
#    x 1.663880 0.000000 -0.007990 
#    y 0.000000 1.739120 0.000000 
#    z -0.007990 0.000000 1.723350 
# 
# From -- ./inp_files/77043.got.cif
#   From: 2010.06.25/outbox.cif.g09.slc.cpg/sg10_39_cif.got.tgz:77043.got - 2010.06.27 22:07:45.
