data_PCOD8063111
_publ_section_title
;
Structure prediction by ZEFSAII (Michael W. Deem and Ramdas Pophale) SiO2 
 PCOD8063111
Probable space group: P 2/M
;
_chemical_formula_sum "Si O2"
_cell_formula_units_Z 32
_cell_length_a 13.253793
_cell_length_b 17.589774
_cell_length_c 25.340500
_cell_angle_alpha 90.000000
_cell_angle_beta 161.320356
_cell_angle_gamma 90.000000
_cell_volume 1892.084917
_symmetry_space_group_name_H-M "P 2/M"
_symmetry_group_IT_number 10
_symmetry_cell_setting 'monoclinic'
loop_
_space_group_symop_operation_xyz
x,y,z
-x,y,-z
-x,-y,-z
x,-y,z
loop_
_atom_site_type_symbol
_atom_site_label
_atom_site_fract_x
_atom_site_fract_y
_atom_site_fract_z
Si Si1 0.174365 0.910447 0.034167
Si Si2 0.145859 0.084929 0.814430
Si Si3 0.781141 0.823786 0.347728
Si Si4 0.313873 0.197973 0.461560
Si Si5 0.806757 0.293465 0.505078
Si Si6 0.632307 0.692521 0.807750
Si Si7 0.781824 0.584746 0.341118
Si Si8 0.226428 0.915027 0.262367
O O1 0.533323 0.883863 0.202109
O O2 0.187086 0.000000 0.043544
O O3 0.000000 0.877321 0.000000
O O4 0.975442 0.881946 0.885878
O O5 0.004892 0.151745 0.708639
O O6 0.978377 0.081877 0.787127
O O7 0.118483 0.000000 0.774763
O O8 0.500000 0.108729 0.000000
O O9 0.577894 0.758976 0.274046
O O10 0.000000 0.864919 0.500000
O O11 0.013194 0.784848 0.420794
O O12 0.500000 0.216101 0.500000
O O13 0.269092 0.278157 0.470487
O O14 0.491862 0.142722 0.590126
O O15 0.486237 0.312329 0.312436
O O16 0.050057 0.364025 0.620495
O O17 0.550707 0.618044 0.802621
O O18 0.000000 0.708782 0.000000
O O19 0.727792 0.500000 0.291568
O O20 0.000000 0.584368 0.500000
O O21 0.354301 0.000000 0.312818
#
# Coordination Sequence:
#
# PCOD8063111 Si02
#       8
#     4   4   4   4   4   4   4   4
#     4  10  21  33  45  65  93 127 165 200 239 289
#     4   9  18  33  51  69  88 115 160 214 259 292
#     4   9  19  31  45  64  92 128 162 196 235 286
#     4  10  20  33  49  68  93 124 160 207 247 291
#     4   9  19  32  48  74  97 127 162 189 242 291
#     4   9  17  29  48  76 101 127 157 192 233 280
#     4   8  15  31  51  73 104 132 156 187 227 282
#     4   9  19  33  47  65  88 122 162 201 250 293
#
# _framework density 16.912559999999999
#
# number of rings (size 3 to 8) (size 9 to 14) (size 15 to 20)
#    0.000    2.875    0.000    2.250    7.000    2.000 
#    0.000    0.625    0.000    0.375    0.000    0.000 
#    0.000    1.500    0.000    0.000    0.000    0.000 
#
# Total GULP energy -396455.425678 kJ/mol
# GULP energy per Si atom -12389.232052 kJ/mol
# Density = 1.687407 g / cm^3
# Si number density = 16.912560 Si / 1000 Ang^3
#
#
#
# Elastic Constant Matrix: (Units=GPa)
#
#
# Indices 1 2 3 4 5 6 
#
# 1 56.2131 39.7299 34.5900 0.0000 -12.2062 0.0000
# 2 39.7299 62.1537 29.2044 0.0000 -6.5132 0.0000
# 3 34.5900 29.2044 90.6244 0.0000 -7.0448 0.0000
# 4 0.0000 0.0000 0.0000 9.7505 0.0000 -0.7440
# 5 -12.2062 -6.5132 -7.0448 0.0000 20.8345 0.0000
# 6 0.0000 0.0000 0.0000 -0.7440 0.0000 21.5927
#
#
#
# Elastic Compliance Matrix: (Units=1/GPa)
#
#
# Indices 1 2 3 4 5 6 
#
# 1 0.040147 -0.020589 -0.007559 0.000000 0.014529 0.000000
# 2 -0.020589 0.029843 -0.002024 0.000000 -0.003417 0.000000
# 3 -0.007559 -0.002024 0.014562 0.000000 -0.000138 0.000000
# 4 0.000000 0.000000 0.000000 0.102829 0.000000 0.003543
# 5 0.014529 -0.003417 -0.000138 0.000000 0.055394 0.000000
# 6 0.000000 0.000000 0.000000 0.003543 0.000000 0.046434
#
#
# Mechanical properties :
#
#
# Convention : Reuss Voigt Hill
#
# Bulk Modulus (GPa) = 41.31039 46.22663 43.76851
# Shear Modulus (GPa) = 13.98121 17.46666 15.72393
#
# Velocity S-wave (km/s) = 2.87832 3.21715 3.05244
# Velocity P-wave (km/s) = 5.96030 6.41811 6.19344
#
# Compressibility (1/GPa) = 0.02420699
#
# Stress axis : x y z
#
# Youngs Moduli (GPa) = 24.90830 33.50885 68.67411
#
# Poissons Ratio (x) = 0.68990 0.51914
# Poissons Ratio (y) = 0.51283 0.13902
# Poissons Ratio (z) = 0.18829 0.06784
#
# Static dielectric constant tensor:
#      x y z
#    x 3.120250 0.000000 0.082730 
#    y 0.000000 3.275950 0.000000 
#    z 0.082730 0.000000 3.698480 
# 
# 
# High freq. dielectric constant tensor:
#      x y z
#    x 1.634430 0.000000 0.005610 
#    y 0.000000 1.626510 0.000000 
#    z 0.005610 0.000000 1.653860 
# 
# From -- ./inp_files/29913.got.cif
#   From: 2010.06.25/outbox.cif.g09.slc.cpg/sg10_15_cif.got.tgz:29913.got - 2010.06.27 22:07:45.
