data_PCOD8063977
_publ_section_title
;
Structure prediction by ZEFSAII (Michael W. Deem and Ramdas Pophale) SiO2 
 PCOD8063977
Probable space group: P 2/M
;
_chemical_formula_sum "Si O2"
_cell_formula_units_Z 28
_cell_length_a 8.559896
_cell_length_b 17.867213
_cell_length_c 15.182853
_cell_angle_alpha 90.000000
_cell_angle_beta 142.294730
_cell_angle_gamma 90.000000
_cell_volume 1420.188640
_symmetry_space_group_name_H-M "P 2/M"
_symmetry_group_IT_number 10
_symmetry_cell_setting 'monoclinic'
loop_
_space_group_symop_operation_xyz
x,y,z
-x,y,-z
-x,-y,-z
x,-y,z
loop_
_atom_site_type_symbol
_atom_site_label
_atom_site_fract_x
_atom_site_fract_y
_atom_site_fract_z
Si Si1 0.589845 0.788155 0.401047
Si Si2 0.079228 0.500000 0.304175
Si Si3 0.285722 0.362172 0.642868
Si Si4 0.911716 0.211039 0.713397
Si Si5 0.408006 0.916949 0.210405
Si Si6 0.893794 0.082857 0.092183
Si Si7 0.746194 0.647126 0.170121
Si Si8 0.507927 0.500000 0.358230
O O1 0.683286 0.711852 0.400482
O O2 0.305747 0.774695 0.310785
O O3 0.784736 0.811477 0.564532
O O4 0.601226 0.854670 0.334076
O O5 0.233259 0.500000 0.281737
O O6 0.268336 0.500000 0.470632
O O7 0.902663 0.571785 0.229013
O O8 0.345471 0.343345 0.770474
O O9 0.477968 0.426424 0.696197
O O10 0.000000 0.392632 0.500000
O O11 0.096772 0.142962 0.824949
O O12 0.075087 0.285375 0.779433
O O13 0.159448 0.918015 0.159882
O O14 0.533808 0.000000 0.269091
O O15 0.331856 0.895519 0.076465
O O16 0.842707 0.000000 0.109115
O O17 0.500000 0.644561 0.000000
#
# Coordination Sequence:
#
# PCOD8063977 Si02
#       8
#     4   2   4   4   4   4   4   2
#     4  10  20  34  58  86 114 149 196 250 282 334
#     4  11  22  43  66  93 118 147 192 240 283 329
#     4  12  22  40  61  88 117 154 198 227 282 352
#     4  10  20  36  55  85 118 149 196 242 291 334
#     4   8  15  29  51  81 113 148 192 240 289 337
#     4   8  15  29  51  79 114 152 190 235 288 347
#     4  12  26  41  59  86 123 157 187 234 291 344
#     4  11  22  40  72  92 112 150 195 238 279 333
#
# _framework density 19.715689999999999
#
# number of rings (size 3 to 8) (size 9 to 14) (size 15 to 20)
#    0.000    1.857    2.857    2.571    2.000    2.857 
#    0.000    5.714    0.000    1.714    0.000    0.000 
#    0.000    0.000    0.000    0.000    0.000    0.000 
#
# Total GULP energy -347232.378822 kJ/mol
# GULP energy per Si atom -12401.156386 kJ/mol
# Density = 1.967082 g / cm^3
# Si number density = 19.715690 Si / 1000 Ang^3
#
#
#
# Elastic Constant Matrix: (Units=GPa)
#
#
# Indices 1 2 3 4 5 6 
#
# 1 67.7126 39.7669 31.5994 0.0000 -16.8584 0.0000
# 2 39.7669 153.5152 47.8600 0.0000 -16.6415 0.0000
# 3 31.5994 47.8600 94.9726 0.0000 -18.3717 0.0000
# 4 0.0000 0.0000 0.0000 34.6347 0.0000 -17.3144
# 5 -16.8584 -16.6415 -18.3717 0.0000 25.9242 0.0000
# 6 0.0000 0.0000 0.0000 -17.3144 0.0000 22.8243
#
#
#
# Elastic Compliance Matrix: (Units=1/GPa)
#
#
# Indices 1 2 3 4 5 6 
#
# 1 0.020495 -0.003276 -0.003473 0.000000 0.008763 0.000000
# 2 -0.003276 0.008400 -0.002911 0.000000 0.001199 0.000000
# 3 -0.003473 -0.002911 0.014316 0.000000 0.006018 0.000000
# 4 0.000000 0.000000 0.000000 0.046512 0.000000 0.035284
# 5 0.008763 0.001199 0.006018 0.000000 0.049307 0.000000
# 6 0.000000 0.000000 0.000000 0.035284 0.000000 0.070579
#
#
# Mechanical properties :
#
#
# Convention : Reuss Voigt Hill
#
# Bulk Modulus (GPa) = 41.85755 61.62810 51.74283
# Shear Modulus (GPa) = 21.10652 29.80823 25.45738
#
# Velocity S-wave (km/s) = 3.27547 3.89254 3.59726
# Velocity P-wave (km/s) = 5.96503 7.17835 6.59963
#
# Compressibility (1/GPa) = 0.02389055
#
# Stress axis : x y z
#
# Youngs Moduli (GPa) = 48.79243 119.04386 69.85159
#
# Poissons Ratio (x) = 0.39003 0.24258
# Poissons Ratio (y) = 0.15986 0.20335
# Poissons Ratio (z) = 0.16945 0.34656
#
# Static dielectric constant tensor:
#      x y z
#    x 3.551700 0.000000 -0.136750 
#    y 0.000000 3.888940 0.000000 
#    z -0.136750 0.000000 3.691800 
# 
# 
# High freq. dielectric constant tensor:
#      x y z
#    x 1.754680 0.000000 -0.013290 
#    y 0.000000 1.782800 0.000000 
#    z -0.013290 0.000000 1.761710 
# 
# From -- ./inp_files/62380.got.cif
#   From: 2010.06.25/outbox.cif.g09.slc.cpg/sg10_32_cif.got.tgz:62380.got - 2010.06.27 22:07:45.
