data_PCOD8063053
_publ_section_title
;
Structure prediction by ZEFSAII (Michael W. Deem and Ramdas Pophale) SiO2 
 PCOD8063053
Probable space group: P 2/M
;
_chemical_formula_sum "Si O2"
_cell_formula_units_Z 26
_cell_length_a 5.012237
_cell_length_b 26.669651
_cell_length_c 8.630210
_cell_angle_alpha 90.000000
_cell_angle_beta 90.618040
_cell_angle_gamma 90.000000
_cell_volume 1153.572853
_symmetry_space_group_name_H-M "P 2/M"
_symmetry_group_IT_number 10
_symmetry_cell_setting 'monoclinic'
loop_
_space_group_symop_operation_xyz
x,y,z
-x,y,-z
-x,-y,-z
x,-y,z
loop_
_atom_site_type_symbol
_atom_site_label
_atom_site_fract_x
_atom_site_fract_y
_atom_site_fract_z
Si Si1 0.253880 0.295426 0.609417
Si Si2 0.744027 0.056268 0.604547
Si Si3 0.754055 0.500000 0.391104
Si Si4 0.574509 0.191004 0.319650
Si Si5 0.585048 0.602411 0.325258
Si Si6 0.759754 0.555897 0.899452
Si Si7 0.077595 0.141899 0.181027
O O1 0.500000 0.302861 0.500000
O O2 0.306895 0.246476 0.715318
O O3 0.245465 0.346835 0.711990
O O4 0.000000 0.286990 0.500000
O O5 0.500000 0.078214 0.500000
O O6 0.794846 0.089832 0.757100
O O7 0.000000 0.055805 0.500000
O O8 0.673750 0.000000 0.661657
O O9 0.500000 0.500000 0.500000
O O10 0.756081 0.551319 0.287118
O O11 0.000000 0.500000 0.500000
O O12 0.500000 0.184594 0.500000
O O13 0.309074 0.183357 0.213136
O O14 0.809813 0.152627 0.276732
O O15 0.500000 0.601959 0.500000
O O16 0.306999 0.597744 0.230481
O O17 0.831194 0.500000 0.830453
O O18 0.500000 0.550275 0.000000
O O19 0.000000 0.578598 0.000000
O O20 0.000000 0.138523 0.000000
#
# Coordination Sequence:
#
# PCOD8063053 Si02
#       7
#     4   4   2   4   4   4   4
#     4  10  21  37  60  90 117 147 197 258 306 359
#     4  10  21  38  62  92 127 171 218 258 304 374
#     4  10  20  32  52  84 114 140 175 232 297 352
#     4  11  22  41  65  88 119 169 217 259 313 382
#     4  10  21  39  61  90 115 148 193 247 299 359
#     4  10  22  39  56  79 113 151 185 223 278 351
#     4  12  24  39  63  96 131 164 210 269 323 366
#
# _framework density 22.538671000000001
#
# number of rings (size 3 to 8) (size 9 to 14) (size 15 to 20)
#    0.000    1.538    0.769    5.538    0.000    5.231 
#    0.000    2.308    0.000    4.615    0.000    0.000 
#    0.000    0.000    0.000    0.000    0.000    0.000 
#
# Total GULP energy -322226.794759 kJ/mol
# GULP energy per Si atom -12393.338260 kJ/mol
# Density = 2.248737 g / cm^3
# Si number density = 22.538671 Si / 1000 Ang^3
#
#
#
# Elastic Constant Matrix: (Units=GPa)
#
#
# Indices 1 2 3 4 5 6 
#
# 1 136.2105 43.0107 53.1832 0.0000 42.4198 0.0000
# 2 43.0107 159.2804 68.9224 0.0000 26.5129 0.0000
# 3 53.1832 68.9224 139.7488 0.0000 48.6173 0.0000
# 4 0.0000 0.0000 0.0000 93.0690 0.0000 19.8686
# 5 42.4198 26.5129 48.6173 0.0000 46.5647 0.0000
# 6 0.0000 0.0000 0.0000 19.8686 0.0000 37.6933
#
#
#
# Elastic Compliance Matrix: (Units=1/GPa)
#
#
# Indices 1 2 3 4 5 6 
#
# 1 0.010533 -0.001241 -0.000478 0.000000 -0.008390 0.000000
# 2 -0.001241 0.008142 -0.003649 0.000000 0.000305 0.000000
# 3 -0.000478 -0.003649 0.012976 0.000000 -0.011036 0.000000
# 4 0.000000 0.000000 0.000000 0.012107 0.000000 -0.006382
# 5 -0.008390 0.000305 -0.011036 0.000000 0.040467 0.000000
# 6 0.000000 0.000000 0.000000 -0.006382 0.000000 0.029894
#
#
# Mechanical properties :
#
#
# Convention : Reuss Voigt Hill
#
# Bulk Modulus (GPa) = 47.81165 85.05247 66.43206
# Shear Modulus (GPa) = 37.92882 53.47362 45.70122
#
# Velocity S-wave (km/s) = 4.10669 4.87614 4.50786
# Velocity P-wave (km/s) = 6.61405 8.33790 7.52550
#
# Compressibility (1/GPa) = 0.02091541
#
# Stress axis : x y z
#
# Youngs Moduli (GPa) = 94.94158 122.82568 77.06360
#
# Poissons Ratio (x) = 0.15243 0.03680
# Poissons Ratio (y) = 0.11782 0.28122
# Poissons Ratio (z) = 0.04534 0.44821
#
# Static dielectric constant tensor:
#      x y z
#    x 4.415460 0.000000 0.586370 
#    y 0.000000 5.160450 0.000000 
#    z 0.586370 0.000000 4.290550 
# 
# 
# High freq. dielectric constant tensor:
#      x y z
#    x 1.910500 0.000000 0.019600 
#    y 0.000000 1.889810 0.000000 
#    z 0.019600 0.000000 1.861660 
# 
# From -- ./inp_files/15748.got.cif
#   From: 2010.06.25/outbox.cif.g09.slc.cpg/sg10_8_cif.got.tgz:15748.got - 2010.06.27 22:07:45.
