data_PCOD8063799
_publ_section_title
;
Structure prediction by ZEFSAII (Michael W. Deem and Ramdas Pophale) SiO2 
 PCOD8063799
Probable space group: P 2/M
;
_chemical_formula_sum "Si O2"
_cell_formula_units_Z 32
_cell_length_a 27.350104
_cell_length_b 9.025434
_cell_length_c 19.894247
_cell_angle_alpha 90.000000
_cell_angle_beta 160.673786
_cell_angle_gamma 90.000000
_cell_volume 1625.219174
_symmetry_space_group_name_H-M "P 2/M"
_symmetry_group_IT_number 10
_symmetry_cell_setting 'monoclinic'
loop_
_space_group_symop_operation_xyz
x,y,z
-x,y,-z
-x,-y,-z
x,-y,z
loop_
_atom_site_type_symbol
_atom_site_label
_atom_site_fract_x
_atom_site_fract_y
_atom_site_fract_z
Si Si1 0.577359 0.325914 0.397905
Si Si2 0.137473 0.833824 0.777554
Si Si3 0.918462 0.325549 0.092730
Si Si4 0.895680 0.672929 0.535489
Si Si5 0.336844 0.832964 0.167351
Si Si6 0.625618 0.326839 0.990633
Si Si7 0.640066 0.840078 0.140659
Si Si8 0.913582 0.675928 0.822406
O O1 0.574782 0.500000 0.409971
O O2 0.491000 0.249124 0.348434
O O3 0.501209 0.288965 0.227906
O O4 0.745012 0.264656 0.608721
O O5 0.998719 0.728039 0.608652
O O6 0.086500 0.000000 0.693486
O O7 0.239375 0.833188 0.974804
O O8 0.224704 0.762190 0.829494
O O9 0.886846 0.500000 0.048180
O O10 0.033073 0.286512 0.300470
O O11 0.996490 0.265030 0.126039
O O12 0.758534 0.248463 0.897840
O O13 0.867431 0.500000 0.491725
O O14 0.744575 0.758832 0.329831
O O15 0.372886 0.000000 0.238070
O O16 0.659407 0.500000 0.034983
O O17 0.582741 0.269762 0.008067
O O18 0.705889 0.000000 0.200255
O O19 0.500000 0.884114 0.000000
O O20 0.908235 0.500000 0.811315
O O21 0.000000 0.732522 0.000000
#
# Coordination Sequence:
#
# PCOD8063799 Si02
#       8
#     4   4   4   4   4   4   4   4
#     4   9  18  33  57  84 111 143 182 226 273 325
#     4   9  17  32  54  78 108 138 175 220 268 320
#     4   9  18  33  57  84 111 143 182 226 273 325
#     4  10  20  34  55  80 106 137 178 224 271 316
#     4   9  17  31  53  81 111 145 184 224 269 323
#     4  10  20  34  55  80 106 137 178 224 271 316
#     4  11  25  40  51  70 105 143 183 223 264 317
#     4   9  18  34  57  86 115 142 178 225 273 325
#
# _framework density 19.689651999999999
#
# number of rings (size 3 to 8) (size 9 to 14) (size 15 to 20)
#    0.000    2.500    0.000    1.875    1.750    5.500 
#    0.000    3.750    0.000    5.250    0.000    0.000 
#    0.000    0.000    0.000    0.000    0.000    0.000 
#
# Total GULP energy -396627.734871 kJ/mol
# GULP energy per Si atom -12394.616715 kJ/mol
# Density = 1.964484 g / cm^3
# Si number density = 19.689652 Si / 1000 Ang^3
#
#
#
# Elastic Constant Matrix: (Units=GPa)
#
#
# Indices 1 2 3 4 5 6 
#
# 1 114.2780 42.5265 67.9939 0.0000 20.2458 0.0000
# 2 42.5265 76.1366 31.7947 0.0000 4.3609 0.0000
# 3 67.9939 31.7947 77.9096 0.0000 15.0198 0.0000
# 4 0.0000 0.0000 0.0000 16.6406 0.0000 5.2893
# 5 20.2458 4.3609 15.0198 0.0000 31.3862 0.0000
# 6 0.0000 0.0000 0.0000 5.2893 0.0000 19.0281
#
#
#
# Elastic Compliance Matrix: (Units=1/GPa)
#
#
# Indices 1 2 3 4 5 6 
#
# 1 0.020212 -0.004880 -0.014614 0.000000 -0.005367 0.000000
# 2 -0.004880 0.017038 -0.003134 0.000000 0.002280 0.000000
# 3 -0.014614 -0.003134 0.027505 0.000000 -0.003300 0.000000
# 4 0.000000 0.000000 0.000000 0.065918 0.000000 -0.018324
# 5 -0.005367 0.002280 -0.003300 0.000000 0.036585 0.000000
# 6 0.000000 0.000000 0.000000 -0.018324 0.000000 0.057647
#
#
# Mechanical properties :
#
#
# Convention : Reuss Voigt Hill
#
# Bulk Modulus (GPa) = 51.28318 61.43939 56.36129
# Shear Modulus (GPa) = 18.07266 21.81158 19.94212
#
# Velocity S-wave (km/s) = 3.03293 3.33193 3.18594
# Velocity P-wave (km/s) = 6.19413 6.78778 6.49774
#
# Compressibility (1/GPa) = 0.01949957
#
# Stress axis : x y z
#
# Youngs Moduli (GPa) = 49.47492 58.69215 36.35753
#
# Poissons Ratio (x) = 0.28639 0.53132
# Poissons Ratio (y) = 0.24141 0.11395
# Poissons Ratio (z) = 0.72302 0.18396
#
# Static dielectric constant tensor:
#      x y z
#    x 3.550330 0.000000 0.197490 
#    y 0.000000 3.531780 0.000000 
#    z 0.197490 0.000000 3.586010 
# 
# 
# High freq. dielectric constant tensor:
#      x y z
#    x 1.759850 0.000000 0.016200 
#    y 0.000000 1.760830 0.000000 
#    z 0.016200 0.000000 1.757420 
# 
# From -- ./inp_files/87023.got.cif
#   From: 2010.06.25/outbox.cif.g09.slc.cpg/sg10_44_cif.got.tgz:87023.got - 2010.06.27 22:07:45.
