data_PCOD8063460
_publ_section_title
;
Structure prediction by ZEFSAII (Michael W. Deem and Ramdas Pophale) SiO2 
 PCOD8063460
Probable space group: P 2/M
;
_chemical_formula_sum "Si O2"
_cell_formula_units_Z 24
_cell_length_a 7.750486
_cell_length_b 7.734354
_cell_length_c 22.433301
_cell_angle_alpha 90.000000
_cell_angle_beta 121.213996
_cell_angle_gamma 90.000000
_cell_volume 1150.093102
_symmetry_space_group_name_H-M "P 2/M"
_symmetry_group_IT_number 10
_symmetry_cell_setting 'monoclinic'
loop_
_space_group_symop_operation_xyz
x,y,z
-x,y,-z
-x,-y,-z
x,-y,z
loop_
_atom_site_type_symbol
_atom_site_label
_atom_site_fract_x
_atom_site_fract_y
_atom_site_fract_z
Si Si1 0.381990 0.206562 0.421327
Si Si2 0.932721 0.794951 0.327763
Si Si3 0.696402 0.808855 0.827924
Si Si4 0.426699 0.500000 0.919882
Si Si5 0.287371 0.808855 0.827924
Si Si6 0.167051 0.500000 0.080118
Si Si7 0.550567 0.205049 0.327763
O O1 0.500000 0.277243 0.500000
O O2 0.494967 0.279329 0.382805
O O3 0.153444 0.279328 0.382805
O O4 0.379411 0.000000 0.419608
O O5 0.877543 0.744790 0.249870
O O6 0.765805 0.717785 0.343871
O O7 0.930628 0.000000 0.332963
O O8 0.500895 0.820782 0.833930
O O9 0.856250 0.671674 0.883286
O O10 0.627935 0.744792 0.750130
O O11 0.798110 0.000000 0.843157
O O12 0.293607 0.671674 0.883286
O O13 0.613574 0.500000 0.909049
O O14 0.500000 0.500000 0.000000
O O15 0.231359 0.000000 0.843156
O O16 0.000000 0.500000 0.000000
O O17 0.568261 0.000000 0.332965
#
# Coordination Sequence:
#
# PCOD8063460 Si02
#       7
#     4   4   4   2   4   2   4
#     4   9  16  24  38  67 103 131 162 211 259 298
#     4   8  14  26  43  63  90 127 170 208 246 298
#     4   8  15  30  51  70  93 130 169 205 246 295
#     4  10  20  34  50  72 102 127 157 204 254 307
#     4   8  15  30  51  70  93 130 169 205 246 295
#     4  10  20  34  50  72 102 127 157 204 254 307
#     4   8  14  26  43  63  90 127 170 208 246 298
#
# _framework density 20.867878000000001
#
# number of rings (size 3 to 8) (size 9 to 14) (size 15 to 20)
#    0.000    3.500    0.000    2.000    0.000    1.333 
#    3.000    3.333    0.000    0.000    0.000    2.333 
#    0.000    6.667    0.000    0.667    0.000    0.000 
#
# Total GULP energy -297410.883065 kJ/mol
# GULP energy per Si atom -12392.120128 kJ/mol
# Density = 2.082038 g / cm^3
# Si number density = 20.867878 Si / 1000 Ang^3
#
#
#
# Elastic Constant Matrix: (Units=GPa)
#
#
# Indices 1 2 3 4 5 6 
#
# 1 84.4427 23.4901 66.5441 0.0000 0.0018 0.0000
# 2 23.4901 83.9339 67.8136 0.0000 0.0017 0.0000
# 3 66.5441 67.8136 200.7137 0.0000 0.0021 0.0000
# 4 0.0000 0.0000 0.0000 8.6151 0.0000 0.0002
# 5 0.0018 0.0017 0.0021 0.0000 33.9001 0.0000
# 6 0.0000 0.0000 0.0000 0.0002 0.0000 2.2333
#
#
#
# Elastic Compliance Matrix: (Units=1/GPa)
#
#
# Indices 1 2 3 4 5 6 
#
# 1 0.016035 -0.000265 -0.005227 0.000000 -0.000001 0.000000
# 2 -0.000265 0.016392 -0.005450 0.000000 0.000000 0.000000
# 3 -0.005227 -0.005450 0.008557 0.000000 0.000000 0.000000
# 4 0.000000 0.000000 0.000000 0.116075 0.000000 -0.000013
# 5 -0.000001 0.000000 0.000000 0.000000 0.029498 0.000000
# 6 0.000000 0.000000 0.000000 -0.000013 0.000000 0.447763
#
#
# Mechanical properties :
#
#
# Convention : Reuss Voigt Hill
#
# Bulk Modulus (GPa) = 52.35724 76.08735 64.22229
# Shear Modulus (GPa) = 7.54638 23.03254 15.28946
#
# Velocity S-wave (km/s) = 1.90371 3.32585 2.70974
# Velocity P-wave (km/s) = 5.47508 7.16163 6.37438
#
# Compressibility (1/GPa) = 0.01909956
#
# Stress axis : x y z
#
# Youngs Moduli (GPa) = 62.36420 61.00590 116.86920
#
# Poissons Ratio (x) = 0.01615 0.61084
# Poissons Ratio (y) = 0.01651 0.63699
# Poissons Ratio (z) = 0.32596 0.33251
#
# Static dielectric constant tensor:
#      x y z
#    x 3.890640 0.000000 0.000030 
#    y 0.000000 3.771510 0.000000 
#    z 0.000030 0.000000 4.410760 
# 
# 
# High freq. dielectric constant tensor:
#      x y z
#    x 1.795720 0.000000 0.000000 
#    y 0.000000 1.788830 0.000000 
#    z 0.000000 0.000000 1.807850 
# 
# From -- ./inp_files/82048.got.cif
#   From: 2010.06.25/outbox.cif.g09.slc.cpg/sg10_42_cif.got.tgz:82048.got - 2010.06.27 22:07:45.
