data_PCOD8063488
_publ_section_title
;
Structure prediction by ZEFSAII (Michael W. Deem and Ramdas Pophale) SiO2 
 PCOD8063488
Probable space group: P 2/M
;
_chemical_formula_sum "Si O2"
_cell_formula_units_Z 32
_cell_length_a 19.451813
_cell_length_b 9.145800
_cell_length_c 27.511117
_cell_angle_alpha 90.000000
_cell_angle_beta 159.433437
_cell_angle_gamma 90.000000
_cell_volume 1719.342390
_symmetry_space_group_name_H-M "P 2/M"
_symmetry_group_IT_number 10
_symmetry_cell_setting 'monoclinic'
loop_
_space_group_symop_operation_xyz
x,y,z
-x,y,-z
-x,-y,-z
x,-y,z
loop_
_atom_site_type_symbol
_atom_site_label
_atom_site_fract_x
_atom_site_fract_y
_atom_site_fract_z
Si Si1 0.950768 0.327505 0.890004
Si Si2 0.525079 0.171299 0.870683
Si Si3 0.022558 0.828645 0.841534
Si Si4 0.573338 0.333832 0.997368
Si Si5 0.031027 0.333266 0.289341
Si Si6 0.697073 0.327431 0.811637
Si Si7 0.186203 0.327827 0.592040
Si Si8 0.263663 0.672988 0.535800
O O1 0.961210 0.500000 0.886514
O O2 0.770078 0.287792 0.805764
O O3 0.916120 0.242541 0.817117
O O4 0.150698 0.268609 0.047341
O O5 0.383234 0.247851 0.738607
O O6 0.485367 0.000000 0.844321
O O7 0.747496 0.210491 0.003895
O O8 0.478337 0.233682 0.893079
O O9 0.921516 0.762556 0.726601
O O10 0.985652 0.000000 0.816930
O O11 0.500362 0.500000 0.940675
O O12 0.804642 0.324440 0.151540
O O13 0.500000 0.272005 0.000000
O O14 0.095937 0.500000 0.322038
O O15 0.143296 0.265186 0.410208
O O16 0.692389 0.500000 0.814184
O O17 0.482879 0.259320 0.679349
O O18 0.217759 0.500000 0.620181
O O19 0.155943 0.286754 0.515185
O O20 0.000000 0.272766 0.500000
O O21 0.276012 0.500000 0.538917
#
# Coordination Sequence:
#
# PCOD8063488 Si02
#       8
#     4   4   4   4   4   4   4   4
#     4   9  16  29  53  79 102 129 167 208 251 301
#     4  10  21  35  50  71 102 135 169 205 249 307
#     4  10  20  34  51  73 102 134 169 212 255 295
#     4   9  18  31  52  75  96 124 166 219 261 295
#     4   9  18  32  51  73  96 131 172 208 252 304
#     4   8  15  28  49  79 106 130 162 206 253 301
#     4  10  21  34  54  80 105 133 168 212 257 301
#     4   9  17  31  51  75 104 132 164 208 256 304
#
# _framework density 18.611765999999999
#
# number of rings (size 3 to 8) (size 9 to 14) (size 15 to 20)
#    0.000    2.750    0.000    2.250    1.750    3.000 
#    0.000    2.500    0.000    6.000    0.000    0.000 
#    0.000    0.000    0.000    0.000    0.000    0.000 
#
# Total GULP energy -396761.669594 kJ/mol
# GULP energy per Si atom -12398.802175 kJ/mol
# Density = 1.856941 g / cm^3
# Si number density = 18.611766 Si / 1000 Ang^3
#
#
#
# Elastic Constant Matrix: (Units=GPa)
#
#
# Indices 1 2 3 4 5 6 
#
# 1 143.1349 38.1428 45.2839 0.0000 -21.9810 0.0000
# 2 38.1428 47.1872 25.5426 0.0000 -8.5420 0.0000
# 3 45.2839 25.5426 83.6704 0.0000 -19.4968 0.0000
# 4 0.0000 0.0000 0.0000 16.1793 0.0000 3.0353
# 5 -21.9810 -8.5420 -19.4968 0.0000 28.6294 0.0000
# 6 0.0000 0.0000 0.0000 3.0353 0.0000 7.6411
#
#
#
# Elastic Compliance Matrix: (Units=1/GPa)
#
#
# Indices 1 2 3 4 5 6 
#
# 1 0.010043 -0.005929 -0.002664 0.000000 0.004128 0.000000
# 2 -0.005929 0.029068 -0.005592 0.000000 0.000313 0.000000
# 3 -0.002664 -0.005592 0.016920 0.000000 0.007809 0.000000
# 4 0.000000 0.000000 0.000000 0.066784 0.000000 -0.026529
# 5 0.004128 0.000313 0.007809 0.000000 0.043510 0.000000
# 6 0.000000 0.000000 0.000000 -0.026529 0.000000 0.141410
#
#
# Mechanical properties :
#
#
# Convention : Reuss Voigt Hill
#
# Bulk Modulus (GPa) = 36.15079 54.65902 45.40490
# Shear Modulus (GPa) = 14.47910 21.49151 17.98530
#
# Velocity S-wave (km/s) = 2.79221 3.40181 3.11197
# Velocity P-wave (km/s) = 5.46452 6.69787 6.11239
#
# Compressibility (1/GPa) = 0.02766191
#
# Stress axis : x y z
#
# Youngs Moduli (GPa) = 99.57213 34.40156 59.10137
#
# Poissons Ratio (x) = 0.20397 0.15742
# Poissons Ratio (y) = 0.59036 0.33051
# Poissons Ratio (z) = 0.26522 0.19238
#
# Static dielectric constant tensor:
#      x y z
#    x 3.566750 0.000000 -0.049710 
#    y 0.000000 3.081370 0.000000 
#    z -0.049710 0.000000 3.491510 
# 
# 
# High freq. dielectric constant tensor:
#      x y z
#    x 1.732880 0.000000 -0.010310 
#    y 0.000000 1.685430 0.000000 
#    z -0.010310 0.000000 1.711940 
# 
# From -- ./inp_files/49923.got.cif
#   From: 2010.06.25/outbox.cif.g09.slc.cpg/sg10_25_cif.got.tgz:49923.got - 2010.06.27 22:07:45.
