data_PCOD8063386
_publ_section_title
;
Structure prediction by ZEFSAII (Michael W. Deem and Ramdas Pophale) SiO2 
 PCOD8063386
Probable space group: P 2/M
;
_chemical_formula_sum "Si O2"
_cell_formula_units_Z 32
_cell_length_a 15.405495
_cell_length_b 21.539585
_cell_length_c 15.003597
_cell_angle_alpha 90.000000
_cell_angle_beta 18.769809
_cell_angle_gamma 90.000000
_cell_volume 1601.952564
_symmetry_space_group_name_H-M "P 2/M"
_symmetry_group_IT_number 10
_symmetry_cell_setting 'monoclinic'
loop_
_space_group_symop_operation_xyz
x,y,z
-x,y,-z
-x,-y,-z
x,-y,z
loop_
_atom_site_type_symbol
_atom_site_label
_atom_site_fract_x
_atom_site_fract_y
_atom_site_fract_z
Si Si1 0.116977 0.764059 0.791158
Si Si2 0.364035 0.354000 0.492721
Si Si3 0.596110 0.146383 0.607217
Si Si4 0.880268 0.930241 0.873267
Si Si5 0.224568 0.246123 0.217515
Si Si6 0.226262 0.897772 0.216010
Si Si7 0.659746 0.735537 0.087269
Si Si8 0.114701 0.430107 0.987080
O O1 0.300357 0.702376 0.623112
O O2 0.307562 0.822044 0.578848
O O3 0.000000 0.781867 0.000000
O O4 0.886427 0.750136 0.941498
O O5 0.469636 0.322636 0.298560
O O6 0.086853 0.393351 0.749861
O O7 0.594417 0.398890 0.305269
O O8 0.529698 0.203124 0.739759
O O9 0.833468 0.103801 0.414145
O O10 0.324064 0.105285 0.860367
O O11 0.754474 0.932546 0.897013
O O12 0.921823 0.000000 0.869139
O O13 0.163799 0.174151 0.258588
O O14 0.000000 0.275844 0.500000
O O15 0.500000 0.257968 0.000000
O O16 0.213859 0.279981 0.131653
O O17 0.000000 0.927105 0.500000
O O18 0.500000 0.909508 0.000000
O O19 0.148149 0.500000 0.990974
O O20 0.000000 0.429507 0.000000
#
# Coordination Sequence:
#
# PCOD8063386 Si02
#       8
#     4   4   4   4   4   4   4   4
#     4  11  24  40  67  95 122 161 197 265 317 364
#     4  11  23  36  60  90 128 163 217 254 294 345
#     4  11  23  41  61  84 117 147 203 245 315 375
#     4  12  24  40  61  82 113 156 202 253 309 377
#     4  10  22  34  59  86 120 162 195 237 312 380
#     4  10  20  33  54  82 114 150 191 241 298 375
#     4  11  23  39  64  93 127 157 204 262 308 370
#     4  11  23  38  57  86 133 185 220 243 285 355
#
# _framework density 19.975622999999999
#
# number of rings (size 3 to 8) (size 9 to 14) (size 15 to 20)
#    0.000    1.125    3.750    2.250    8.750    3.000 
#    0.000    0.000    0.000    2.250    0.000    0.000 
#    0.000   10.000    0.000    0.000    0.000    0.000 
#
# Total GULP energy -396734.522501 kJ/mol
# GULP energy per Si atom -12397.953828 kJ/mol
# Density = 1.993016 g / cm^3
# Si number density = 19.975623 Si / 1000 Ang^3
#
#
#
# Elastic Constant Matrix: (Units=GPa)
#
#
# Indices 1 2 3 4 5 6 
#
# 1 77.9528 23.4488 39.4758 0.0000 23.8872 0.0000
# 2 23.4488 111.7440 46.8142 0.0000 4.2717 0.0000
# 3 39.4758 46.8142 143.4731 0.0000 18.9714 0.0000
# 4 0.0000 0.0000 0.0000 31.2502 0.0000 -2.5836
# 5 23.8872 4.2717 18.9714 0.0000 38.0845 0.0000
# 6 0.0000 0.0000 0.0000 -2.5836 0.0000 19.9963
#
#
#
# Elastic Compliance Matrix: (Units=1/GPa)
#
#
# Indices 1 2 3 4 5 6 
#
# 1 0.017887 -0.002149 -0.002964 0.000000 -0.009502 0.000000
# 2 -0.002149 0.010635 -0.003104 0.000000 0.001701 0.000000
# 3 -0.002964 -0.003104 0.009106 0.000000 -0.002329 0.000000
# 4 0.000000 0.000000 0.000000 0.032345 0.000000 0.004179
# 5 -0.009502 0.001701 -0.002329 0.000000 0.033186 0.000000
# 6 0.000000 0.000000 0.000000 0.004179 0.000000 0.050549
#
#
# Mechanical properties :
#
#
# Convention : Reuss Voigt Hill
#
# Bulk Modulus (GPa) = 47.17981 61.40529 54.29255
# Shear Modulus (GPa) = 28.21547 32.76162 30.48855
#
# Velocity S-wave (km/s) = 3.76239 4.05418 3.91101
# Velocity P-wave (km/s) = 6.52259 7.26100 6.90167
#
# Compressibility (1/GPa) = 0.02119551
#
# Stress axis : x y z
#
# Youngs Moduli (GPa) = 55.90585 94.02709 109.81460
#
# Poissons Ratio (x) = 0.20202 0.32551
# Poissons Ratio (y) = 0.12011 0.34086
# Poissons Ratio (z) = 0.16571 0.29186
#
# Static dielectric constant tensor:
#      x y z
#    x 3.267470 0.000000 0.084300 
#    y 0.000000 3.697960 0.000000 
#    z 0.084300 0.000000 4.102000 
# 
# 
# High freq. dielectric constant tensor:
#      x y z
#    x 1.738650 0.000000 0.001470 
#    y 0.000000 1.755120 0.000000 
#    z 0.001470 0.000000 1.813430 
# 
# From -- ./inp_files/67934.got.cif
#   From: 2010.06.25/outbox.cif.g09.slc.cpg/sg10_34_cif.got.tgz:67934.got - 2010.06.27 22:07:45.
