data_PCOD8063513
_publ_section_title
;
Structure prediction by ZEFSAII (Michael W. Deem and Ramdas Pophale) SiO2 
 PCOD8063513
Probable space group: P 2/M
;
_chemical_formula_sum "Si O2"
_cell_formula_units_Z 32
_cell_length_a 20.706934
_cell_length_b 8.840024
_cell_length_c 14.292393
_cell_angle_alpha 90.000000
_cell_angle_beta 47.897614
_cell_angle_gamma 90.000000
_cell_volume 1941.098685
_symmetry_space_group_name_H-M "P 2/M"
_symmetry_group_IT_number 10
_symmetry_cell_setting 'monoclinic'
loop_
_space_group_symop_operation_xyz
x,y,z
-x,y,-z
-x,-y,-z
x,-y,z
loop_
_atom_site_type_symbol
_atom_site_label
_atom_site_fract_x
_atom_site_fract_y
_atom_site_fract_z
Si Si1 0.503254 0.666634 0.607764
Si Si2 0.177136 0.320988 0.037252
Si Si3 0.308627 0.321136 0.603808
Si Si4 0.980785 0.824287 0.912037
Si Si5 0.904894 0.678217 0.694067
Si Si6 0.156979 0.823385 0.633935
Si Si7 0.669966 0.822350 0.216925
Si Si8 0.101351 0.320963 0.506330
O O1 0.500000 0.655628 0.500000
O O2 0.485961 0.500000 0.667828
O O3 0.600949 0.724266 0.537022
O O4 0.428943 0.779999 0.716339
O O5 0.189105 0.500000 0.021444
O O6 0.155448 0.262003 0.163303
O O7 0.100314 0.275272 0.041616
O O8 0.266970 0.241802 0.923650
O O9 0.305429 0.500000 0.623009
O O10 0.229790 0.268375 0.617475
O O11 0.301498 0.244593 0.711628
O O12 0.064101 0.782710 0.768803
O O13 0.955756 0.000000 0.926779
O O14 0.000000 0.781015 0.000000
O O15 0.913389 0.500000 0.690992
O O16 0.865847 0.722643 0.630348
O O17 0.002661 0.740135 0.612084
O O18 0.159706 0.769217 0.523887
O O19 0.177809 0.000000 0.620872
O O20 0.679196 0.000000 0.213422
O O21 0.109139 0.500000 0.517343
#
# Coordination Sequence:
#
# PCOD8063513 Si02
#       8
#     4   4   4   4   4   4   4   4
#     4   8  16  32  51  71  94 122 161 204 239 276
#     4  11  20  32  50  71  93 125 168 204 238 283
#     4  10  20  34  52  72  96 129 167 204 237 277
#     4  10  21  34  44  60  94 134 165 196 235 279
#     4   8  16  30  51  72  90 120 163 210 246 280
#     4  11  21  31  46  72 102 130 161 198 244 292
#     4  11  21  32  48  72 102 132 159 195 244 292
#     4   9  16  32  52  69  92 123 163 205 246 287
#
# _framework density 16.485509
#
# number of rings (size 3 to 8) (size 9 to 14) (size 15 to 20)
#    0.000    2.250    1.250    4.500    0.000    4.500 
#    0.000    2.500    0.000    0.000    0.000    0.875 
#    0.000    7.000    0.000    0.000    0.000    0.000 
#
# Total GULP energy -396727.764336 kJ/mol
# GULP energy per Si atom -12397.742635 kJ/mol
# Density = 1.644799 g / cm^3
# Si number density = 16.485509 Si / 1000 Ang^3
#
#
#
# Elastic Constant Matrix: (Units=GPa)
#
#
# Indices 1 2 3 4 5 6 
#
# 1 28.8025 22.1140 42.5617 0.0000 10.1703 0.0000
# 2 22.1140 72.2479 45.4213 0.0000 -1.2452 0.0000
# 3 42.5617 45.4213 112.3683 0.0000 2.9080 0.0000
# 4 0.0000 0.0000 0.0000 18.8917 0.0000 -4.5402
# 5 10.1703 -1.2452 2.9080 0.0000 26.0783 0.0000
# 6 0.0000 0.0000 0.0000 -4.5402 0.0000 17.2505
#
#
#
# Elastic Compliance Matrix: (Units=1/GPa)
#
#
# Indices 1 2 3 4 5 6 
#
# 1 0.112340 -0.012046 -0.036639 0.000000 -0.040301 0.000000
# 2 -0.012046 0.019927 -0.003649 0.000000 0.006056 0.000000
# 3 -0.036639 -0.003649 0.023956 0.000000 0.011443 0.000000
# 4 0.000000 0.000000 0.000000 0.056508 0.000000 0.014872
# 5 -0.040301 0.006056 0.011443 0.000000 0.053076 0.000000
# 6 0.000000 0.000000 0.000000 0.014872 0.000000 0.061884
#
#
# Mechanical properties :
#
#
# Convention : Reuss Voigt Hill
#
# Bulk Modulus (GPa) = 19.39663 48.17918 33.78790
# Shear Modulus (GPa) = 11.12243 19.33221 15.22732
#
# Velocity S-wave (km/s) = 2.60028 3.42816 3.04251
# Velocity P-wave (km/s) = 4.56143 6.70509 5.73432
#
# Compressibility (1/GPa) = 0.05155536
#
# Stress axis : x y z
#
# Youngs Moduli (GPa) = 8.90155 50.18404 41.74352
#
# Poissons Ratio (x) = 0.60451 1.52944
# Poissons Ratio (y) = 0.10723 0.15232
# Poissons Ratio (z) = 0.32614 0.18312
#
# Static dielectric constant tensor:
#      x y z
#    x 3.082510 0.000000 -0.041880 
#    y 0.000000 3.022250 0.000000 
#    z -0.041880 0.000000 3.378290 
# 
# 
# High freq. dielectric constant tensor:
#      x y z
#    x 1.615260 0.000000 -0.003550 
#    y 0.000000 1.631950 0.000000 
#    z -0.003550 0.000000 1.626090 
# 
# From -- ./inp_files/66060.got.cif
#   From: 2010.06.25/outbox.cif.g09.slc.cpg/sg10_34_cif.got.tgz:66060.got - 2010.06.27 22:07:45.
