data_PCOD8063489
_publ_section_title
;
Structure prediction by ZEFSAII (Michael W. Deem and Ramdas Pophale) SiO2 
 PCOD8063489
Probable space group: P 2/M
;
_chemical_formula_sum "Si O2"
_cell_formula_units_Z 32
_cell_length_a 21.530321
_cell_length_b 9.120411
_cell_length_c 11.675387
_cell_angle_alpha 90.000000
_cell_angle_beta 51.928951
_cell_angle_gamma 90.000000
_cell_volume 1804.874671
_symmetry_space_group_name_H-M "P 2/M"
_symmetry_group_IT_number 10
_symmetry_cell_setting 'monoclinic'
loop_
_space_group_symop_operation_xyz
x,y,z
-x,y,-z
-x,-y,-z
x,-y,z
loop_
_atom_site_type_symbol
_atom_site_label
_atom_site_fract_x
_atom_site_fract_y
_atom_site_fract_z
Si Si1 0.242880 0.172513 0.348040
Si Si2 0.420040 0.329181 0.536212
Si Si3 0.792085 0.173392 0.864061
Si Si4 0.183830 0.837987 0.760438
Si Si5 0.342199 0.837063 0.434118
Si Si6 0.040322 0.672596 0.333769
Si Si7 0.910166 0.172619 0.348944
Si Si8 0.735280 0.670822 0.145056
O O1 0.252644 0.211843 0.203849
O O2 0.318065 0.231614 0.336839
O O3 0.159656 0.234132 0.489646
O O4 0.240597 0.000000 0.373781
O O5 0.500000 0.264180 0.500000
O O6 0.428702 0.500000 0.504798
O O7 0.406967 0.259873 0.425655
O O8 0.348547 0.292551 0.702766
O O9 0.876390 0.248902 0.768779
O O10 0.802698 0.000000 0.867047
O O11 0.737407 0.238926 0.025310
O O12 0.261945 0.841055 0.596249
O O13 0.111234 0.795323 0.759804
O O14 0.193363 0.722624 0.852982
O O15 0.169526 0.000000 0.829613
O O16 0.378032 0.000000 0.380961
O O17 0.052060 0.500000 0.304302
O O18 0.000000 0.712138 0.500000
O O19 0.987865 0.735639 0.290063
O O20 0.925370 0.000000 0.351987
O O21 0.746346 0.500000 0.107261
#
# Coordination Sequence:
#
# PCOD8063489 Si02
#       8
#     4   4   4   4   4   4   4   4
#     4   8  15  28  48  72  96 126 163 205 247 286
#     4   9  18  33  53  77 104 133 161 192 238 295
#     4  11  21  34  53  71  96 135 173 204 244 300
#     4   8  15  29  50  72  95 125 163 205 247 296
#     4   8  14  27  48  75 101 122 156 204 245 281
#     4  11  22  33  46  71 104 132 165 211 254 291
#     4   9  16  30  51  72  94 125 168 211 251 295
#     4  10  20  34  51  73 103 131 161 203 248 294
#
# _framework density 17.729762999999998
#
# number of rings (size 3 to 8) (size 9 to 14) (size 15 to 20)
#    0.000    2.750    1.250    2.625    0.000    1.750 
#    0.000    3.750    0.000    4.500    0.000    5.250 
#    0.000    0.000    0.000    0.000    0.000    0.000 
#
# Total GULP energy -396659.065778 kJ/mol
# GULP energy per Si atom -12395.595806 kJ/mol
# Density = 1.768941 g / cm^3
# Si number density = 17.729763 Si / 1000 Ang^3
#
#
#
# Elastic Constant Matrix: (Units=GPa)
#
#
# Indices 1 2 3 4 5 6 
#
# 1 164.1859 60.0773 45.9338 0.0000 17.2924 0.0000
# 2 60.0773 73.8742 35.5778 0.0000 7.3507 0.0000
# 3 45.9338 35.5778 52.4827 0.0000 15.7055 0.0000
# 4 0.0000 0.0000 0.0000 17.0847 0.0000 -1.7104
# 5 17.2924 7.3507 15.7055 0.0000 23.4177 0.0000
# 6 0.0000 0.0000 0.0000 -1.7104 0.0000 22.3199
#
#
#
# Elastic Compliance Matrix: (Units=1/GPa)
#
#
# Indices 1 2 3 4 5 6 
#
# 1 0.009475 -0.005696 -0.003594 0.000000 -0.002798 0.000000
# 2 -0.005696 0.023760 -0.012696 0.000000 0.005263 0.000000
# 3 -0.003594 -0.012696 0.036056 0.000000 -0.017542 0.000000
# 4 0.000000 0.000000 0.000000 0.058984 0.000000 0.004520
# 5 -0.002798 0.005263 -0.017542 0.000000 0.054882 0.000000
# 6 0.000000 0.000000 0.000000 0.004520 0.000000 0.045149
#
#
# Mechanical properties :
#
#
# Convention : Reuss Voigt Hill
#
# Bulk Modulus (GPa) = 39.49792 63.74672 51.62232
# Shear Modulus (GPa) = 17.81143 22.49472 20.15307
#
# Velocity S-wave (km/s) = 3.17299 3.56582 3.37513
# Velocity P-wave (km/s) = 5.97913 7.27916 6.66093
#
# Compressibility (1/GPa) = 0.02531779
#
# Stress axis : x y z
#
# Youngs Moduli (GPa) = 105.53875 42.08805 27.73494
#
# Poissons Ratio (x) = 0.23975 0.09968
# Poissons Ratio (y) = 0.60118 0.35213
# Poissons Ratio (z) = 0.37930 0.53436
#
# Static dielectric constant tensor:
#      x y z
#    x 3.642240 0.000000 0.287400 
#    y 0.000000 3.215750 0.000000 
#    z 0.287400 0.000000 3.055380 
# 
# 
# High freq. dielectric constant tensor:
#      x y z
#    x 1.694660 0.000000 0.021330 
#    y 0.000000 1.674710 0.000000 
#    z 0.021330 0.000000 1.647690 
# 
# From -- ./inp_files/55304.got.cif
#   From: 2010.06.25/outbox.cif.g09.slc.cpg/sg10_28_cif.got.tgz:55304.got - 2010.06.27 22:07:45.
