data_PCOD8063902
_publ_section_title
;
Structure prediction by ZEFSAII (Michael W. Deem and Ramdas Pophale) SiO2 
 PCOD8063902
Probable space group: P 2/M
;
_chemical_formula_sum "Si O2"
_cell_formula_units_Z 32
_cell_length_a 12.213329
_cell_length_b 8.804258
_cell_length_c 21.949421
_cell_angle_alpha 90.000000
_cell_angle_beta 43.765318
_cell_angle_gamma 90.000000
_cell_volume 1632.568924
_symmetry_space_group_name_H-M "P 2/M"
_symmetry_group_IT_number 10
_symmetry_cell_setting 'monoclinic'
loop_
_space_group_symop_operation_xyz
x,y,z
-x,y,-z
-x,-y,-z
x,-y,z
loop_
_atom_site_type_symbol
_atom_site_label
_atom_site_fract_x
_atom_site_fract_y
_atom_site_fract_z
Si Si1 0.118639 0.320406 0.153565
Si Si2 0.362839 0.320584 0.952106
Si Si3 0.302897 0.176775 0.184528
Si Si4 0.172576 0.319194 0.913094
Si Si5 0.510452 0.319486 0.564348
Si Si6 0.816506 0.319613 0.515095
Si Si7 0.149078 0.178144 0.372322
Si Si8 0.216938 0.319010 0.759825
O O1 0.120350 0.500000 0.159627
O O2 0.165617 0.248609 0.198800
O O3 0.944015 0.261116 0.206875
O O4 0.238673 0.267048 0.052829
O O5 0.385123 0.500000 0.944359
O O6 0.529251 0.246034 0.900776
O O7 0.300094 0.263904 0.911650
O O8 0.264575 0.213563 0.269995
O O9 0.307459 0.000000 0.169597
O O10 0.163040 0.500000 0.916612
O O11 0.225078 0.257172 0.825894
O O12 0.000000 0.253919 0.000000
O O13 0.500000 0.254196 0.500000
O O14 0.499401 0.500000 0.567766
O O15 0.674828 0.266807 0.528176
O O16 0.365231 0.253190 0.662459
O O17 0.838045 0.500000 0.506721
O O18 0.778105 0.264007 0.598815
O O19 0.975294 0.241762 0.426603
O O20 0.135720 0.000000 0.391533
O O21 0.219840 0.500000 0.759669
#
# Coordination Sequence:
#
# PCOD8063902 Si02
#       8
#     4   4   4   4   4   4   4   4
#     4  10  20  35  57  83 110 144 184 226 275 327
#     4  10  20  34  56  85 113 140 180 231 277 324
#     4  11  25  39  54  77 108 150 192 228 274 327
#     4   9  15  28  51  81 111 139 176 221 272 333
#     4   9  19  32  49  82 121 145 168 213 275 334
#     4  10  20  35  60  89 112 137 180 228 276 328
#     4  10  22  40  58  76 107 149 187 227 278 328
#     4   9  17  30  51  80 113 146 174 214 277 333
#
# _framework density 19.601009000000001
#
# number of rings (size 3 to 8) (size 9 to 14) (size 15 to 20)
#    0.000    2.250    1.250    2.250    3.500    4.000 
#    0.000    0.000    0.000    4.125    0.000    0.000 
#    0.000    0.000    0.000    0.000    0.000    0.000 
#
# Total GULP energy -396839.757249 kJ/mol
# GULP energy per Si atom -12401.242414 kJ/mol
# Density = 1.955640 g / cm^3
# Si number density = 19.601009 Si / 1000 Ang^3
#
#
#
# Elastic Constant Matrix: (Units=GPa)
#
#
# Indices 1 2 3 4 5 6 
#
# 1 127.8102 11.7110 36.5265 0.0000 2.6433 0.0000
# 2 11.7110 22.0810 14.1661 0.0000 -0.8875 0.0000
# 3 36.5265 14.1661 106.3322 0.0000 2.6807 0.0000
# 4 0.0000 0.0000 0.0000 17.7122 0.0000 7.0349
# 5 2.6433 -0.8875 2.6807 0.0000 29.2119 0.0000
# 6 0.0000 0.0000 0.0000 7.0349 0.0000 -0.4954
#
#
#
# Elastic Compliance Matrix: (Units=1/GPa)
#
#
# Indices 1 2 3 4 5 6 
#
# 1 0.008866 -0.003046 -0.002623 0.000000 -0.000654 0.000000
# 2 -0.003046 0.050697 -0.005767 0.000000 0.002345 0.000000
# 3 -0.002623 -0.005767 0.011098 0.000000 -0.000956 0.000000
# 4 0.000000 0.000000 0.000000 0.008503 0.000000 0.120741
# 5 -0.000654 0.002345 -0.000956 0.000000 0.034451 0.000000
# 6 0.000000 0.000000 0.000000 0.120741 0.000000 -0.303998
#
#
# Mechanical properties :
#
#
# Convention : Reuss Voigt Hill
#
# Bulk Modulus (GPa) = 20.92515 42.33673 31.63094
# Shear Modulus (GPa) = -32.98565 22.20706 -5.38930
#
# Velocity S-wave (km/s) = -4.10671 3.36959 -1.65996
# Velocity P-wave (km/s) = 3.43337 6.06506 3.53532
#
# Compressibility (1/GPa) = 0.04778938
#
# Stress axis : x y z
#
# Youngs Moduli (GPa) = 112.78469 19.72498 90.10537
#
# Poissons Ratio (x) = 0.06008 0.23639
# Poissons Ratio (y) = 0.34350 0.51964
# Poissons Ratio (z) = 0.29589 0.11375
#
# Static dielectric constant tensor:
#      x y z
#    x 3.665610 0.000000 0.166820 
#    y 0.000000 3.117900 0.000000 
#    z 0.166820 0.000000 3.564890 
# 
# 
# High freq. dielectric constant tensor:
#      x y z
#    x 1.777190 0.000000 0.003190 
#    y 0.000000 1.718830 0.000000 
#    z 0.003190 0.000000 1.772940 
# 
# From -- ./inp_files/83587.got.cif
#   From: 2010.06.25/outbox.cif.g09.slc.cpg/sg10_42_cif.got.tgz:83587.got - 2010.06.27 22:07:45.
