data_PCOD8063785
_publ_section_title
;
Structure prediction by ZEFSAII (Michael W. Deem and Ramdas Pophale) SiO2 
 PCOD8063785
Probable space group: P 2/M
;
_chemical_formula_sum "Si O2"
_cell_formula_units_Z 20
_cell_length_a 10.218519
_cell_length_b 10.946959
_cell_length_c 9.596800
_cell_angle_alpha 90.000000
_cell_angle_beta 103.280614
_cell_angle_gamma 90.000000
_cell_volume 1044.805077
_symmetry_space_group_name_H-M "P 2/M"
_symmetry_group_IT_number 10
_symmetry_cell_setting 'monoclinic'
loop_
_space_group_symop_operation_xyz
x,y,z
-x,y,-z
-x,-y,-z
x,-y,z
loop_
_atom_site_type_symbol
_atom_site_label
_atom_site_fract_x
_atom_site_fract_y
_atom_site_fract_z
Si Si1 0.592388 0.357056 0.830700
Si Si2 0.342432 0.257705 0.435483
Si Si3 0.630859 0.000000 0.126170
Si Si4 0.861300 0.639168 0.411581
Si Si5 0.639465 0.000000 0.459240
Si Si6 0.311760 0.265929 0.865419
O O1 0.568775 0.500000 0.791323
O O2 0.678284 0.288462 0.732347
O O3 0.448878 0.288647 0.810910
O O4 0.680181 0.345375 0.992414
O O5 0.500000 0.276724 0.500000
O O6 0.256188 0.353330 0.502617
O O7 0.286865 0.123553 0.469503
O O8 0.708609 0.876906 0.103600
O O9 0.610083 0.000000 0.287797
O O10 0.500000 0.000000 0.000000
O O11 0.890535 0.500000 0.383409
O O12 0.817855 0.699680 0.255740
O O13 0.000000 0.701052 0.500000
O O14 0.500000 0.000000 0.500000
#
# Coordination Sequence:
#
# PCOD8063785 Si02
#       6
#     4   4   2   4   2   4
#     4  11  21  33  57  88 119 151 192 248 299 349
#     4  11  21  36  58  87 120 152 200 247 296 349
#     4  12  20  34  56  86 121 156 192 245 306 354
#     4  11  23  40  60  85 121 162 201 244 297 358
#     4  10  20  34  54  86 123 150 190 247 293 343
#     4  11  21  36  56  86 121 153 197 245 300 350
#
# _framework density 19.142325
#
# number of rings (size 3 to 8) (size 9 to 14) (size 15 to 20)
#    0.000    1.000    6.000    4.200    0.000    0.800 
#    0.000    3.000    0.000    3.600    0.000    2.800 
#    0.000    0.000    0.000    0.000    0.000    0.000 
#
# Total GULP energy -247919.203436 kJ/mol
# GULP energy per Si atom -12395.960172 kJ/mol
# Density = 1.909876 g / cm^3
# Si number density = 19.142325 Si / 1000 Ang^3
#
#
#
# Elastic Constant Matrix: (Units=GPa)
#
#
# Indices 1 2 3 4 5 6 
#
# 1 56.7144 17.0059 37.0622 0.0000 17.7697 0.0000
# 2 17.0059 115.6487 35.4211 0.0000 13.0677 0.0000
# 3 37.0622 35.4211 129.0344 0.0000 13.8182 0.0000
# 4 0.0000 0.0000 0.0000 34.1411 0.0000 0.6772
# 5 17.7697 13.0677 13.8182 0.0000 35.6774 0.0000
# 6 0.0000 0.0000 0.0000 0.6772 0.0000 14.2688
#
#
#
# Elastic Compliance Matrix: (Units=1/GPa)
#
#
# Indices 1 2 3 4 5 6 
#
# 1 0.024748 -0.000739 -0.005857 0.000000 -0.009787 0.000000
# 2 -0.000739 0.009692 -0.002199 0.000000 -0.002330 0.000000
# 3 -0.005857 -0.002199 0.010054 0.000000 -0.000171 0.000000
# 4 0.000000 0.000000 0.000000 0.029318 0.000000 -0.001391
# 5 -0.009787 -0.002330 -0.000171 0.000000 0.033823 0.000000
# 6 0.000000 0.000000 0.000000 -0.001391 0.000000 0.070149
#
#
# Mechanical properties :
#
#
# Convention : Reuss Voigt Hill
#
# Bulk Modulus (GPa) = 37.16949 53.37511 45.27230
# Shear Modulus (GPa) = 24.46863 30.94467 27.70665
#
# Velocity S-wave (km/s) = 3.57914 4.02501 3.80860
# Velocity P-wave (km/s) = 6.04482 7.03880 6.56066
#
# Compressibility (1/GPa) = 0.02690378
#
# Stress axis : x y z
#
# Youngs Moduli (GPa) = 40.40741 103.17436 99.46115
#
# Poissons Ratio (x) = 0.07628 0.58257
# Poissons Ratio (y) = 0.02987 0.21869
# Poissons Ratio (z) = 0.23668 0.22685
#
# Static dielectric constant tensor:
#      x y z
#    x 2.684880 0.000000 -0.423450 
#    y 0.000000 2.949300 0.000000 
#    z -0.423450 0.000000 3.381660 
# 
# 
# High freq. dielectric constant tensor:
#      x y z
#    x 1.681950 0.000000 -0.005060 
#    y 0.000000 1.761140 0.000000 
#    z -0.005060 0.000000 1.761380 
# 
# From -- ./inp_files/23612.got.cif
#   From: 2010.06.25/outbox.cif.g09.slc.cpg/sg10_12_cif.got.tgz:23612.got - 2010.06.27 22:07:45.
