data_PCOD8063071
_publ_section_title
;
Structure prediction by ZEFSAII (Michael W. Deem and Ramdas Pophale) SiO2 
 PCOD8063071
Probable space group: P 2/M
;
_chemical_formula_sum "Si O2"
_cell_formula_units_Z 22
_cell_length_a 8.813950
_cell_length_b 13.673028
_cell_length_c 11.182495
_cell_angle_alpha 90.000000
_cell_angle_beta 68.621925
_cell_angle_gamma 90.000000
_cell_volume 1254.916436
_symmetry_space_group_name_H-M "P 2/M"
_symmetry_group_IT_number 10
_symmetry_cell_setting 'monoclinic'
loop_
_space_group_symop_operation_xyz
x,y,z
-x,y,-z
-x,-y,-z
x,-y,z
loop_
_atom_site_type_symbol
_atom_site_label
_atom_site_fract_x
_atom_site_fract_y
_atom_site_fract_z
Si Si1 0.657294 0.200932 0.016157
Si Si2 0.035216 0.331205 0.119383
Si Si3 0.058137 0.500000 0.295649
Si Si4 0.500000 0.334350 0.500000
Si Si5 0.209122 0.000000 0.050709
Si Si6 0.272894 0.500000 0.467090
Si Si7 0.278710 0.206515 0.734913
Si Si8 0.851872 0.000000 0.213443
O O1 0.627860 0.198395 0.166317
O O2 0.500000 0.249632 0.000000
O O3 0.815813 0.259982 0.938728
O O4 0.682247 0.094135 0.951307
O O5 0.084715 0.407074 0.205553
O O6 0.883849 0.268901 0.207131
O O7 0.000000 0.381504 0.000000
O O8 0.197119 0.500000 0.356580
O O9 0.874315 0.500000 0.396693
O O10 0.382796 0.403229 0.453501
O O11 0.395713 0.261794 0.610656
O O12 0.046626 0.000000 0.180058
O O13 0.165078 0.000000 0.923909
O O14 0.231368 0.096726 0.704752
#
# Coordination Sequence:
#
# PCOD8063071 Si02
#       8
#     4   4   2   2   2   2   4   2
#     4  10  20  32  54  87 112 143 178 228 278 328
#     4  10  20  36  57  83 114 147 176 225 283 334
#     4  11  21  40  58  84 103 146 192 229 279 334
#     4  11  22  41  56  82 108 149 186 241 266 320
#     4   9  15  30  54  79 116 139 184 216 270 325
#     4  10  24  38  61  77 106 144 199 232 268 327
#     4  10  20  35  58  79 116 147 184 220 274 327
#     4   9  16  31  54  85 104 151 182 219 259 345
#
# _framework density 17.531047000000001
#
# number of rings (size 3 to 8) (size 9 to 14) (size 15 to 20)
#    0.000    2.000    3.636    0.545    2.545    0.364 
#    0.000    0.455    0.000    0.000    0.000    2.545 
#    0.000    0.000    0.000    0.000    0.000    0.000 
#
# Total GULP energy -272726.348041 kJ/mol
# GULP energy per Si atom -12396.652184 kJ/mol
# Density = 1.749115 g / cm^3
# Si number density = 17.531047 Si / 1000 Ang^3
#
#
#
# Elastic Constant Matrix: (Units=GPa)
#
#
# Indices 1 2 3 4 5 6 
#
# 1 94.8640 29.5366 54.9323 0.0000 -5.2049 0.0000
# 2 29.5366 110.9108 66.4328 0.0000 -2.2057 0.0000
# 3 54.9323 66.4328 103.2817 0.0000 -9.7916 0.0000
# 4 0.0000 0.0000 0.0000 28.6932 0.0000 10.5525
# 5 -5.2049 -2.2057 -9.7916 0.0000 26.6088 0.0000
# 6 0.0000 0.0000 0.0000 10.5525 0.0000 12.0198
#
#
#
# Elastic Compliance Matrix: (Units=1/GPa)
#
#
# Indices 1 2 3 4 5 6 
#
# 1 0.015349 0.001318 -0.009032 0.000000 -0.000212 0.000000
# 2 0.001318 0.014922 -0.010524 0.000000 -0.002378 0.000000
# 3 -0.009032 -0.010524 0.021764 0.000000 0.005370 0.000000
# 4 0.000000 0.000000 0.000000 0.051470 0.000000 -0.045186
# 5 -0.000212 -0.002378 0.005370 0.000000 0.039319 0.000000
# 6 0.000000 0.000000 0.000000 -0.045186 0.000000 0.122866
#
#
# Mechanical properties :
#
#
# Convention : Reuss Voigt Hill
#
# Bulk Modulus (GPa) = 64.26997 67.87331 66.07164
# Shear Modulus (GPa) = 16.26792 24.00800 20.13796
#
# Velocity S-wave (km/s) = 3.04953 3.70463 3.39293
# Velocity P-wave (km/s) = 7.00998 7.55640 7.28831
#
# Compressibility (1/GPa) = 0.01555937
#
# Stress axis : x y z
#
# Youngs Moduli (GPa) = 65.14949 67.01574 45.94653
#
# Poissons Ratio (x) = -0.08831 0.41497
# Poissons Ratio (y) = -0.08585 0.48356
# Poissons Ratio (z) = 0.58840 0.70530
#
# Static dielectric constant tensor:
#      x y z
#    x 3.313450 0.000000 0.175100 
#    y 0.000000 3.438700 0.000000 
#    z 0.175100 0.000000 4.761180 
# 
# 
# High freq. dielectric constant tensor:
#      x y z
#    x 1.682410 0.000000 -0.012380 
#    y 0.000000 1.686620 0.000000 
#    z -0.012380 0.000000 1.656830 
# 
# From -- ./inp_files/23561.got.cif
#   From: 2010.06.25/outbox.cif.g09.slc.cpg/sg10_12_cif.got.tgz:23561.got - 2010.06.27 22:07:45.
