data_PCOD8063164
_publ_section_title
;
Structure prediction by ZEFSAII (Michael W. Deem and Ramdas Pophale) SiO2 
 PCOD8063164
Probable space group: P 2/M
;
_chemical_formula_sum "Si O2"
_cell_formula_units_Z 28
_cell_length_a 12.571154
_cell_length_b 9.655071
_cell_length_c 13.689250
_cell_angle_alpha 90.000000
_cell_angle_beta 74.345396
_cell_angle_gamma 90.000000
_cell_volume 1599.904631
_symmetry_space_group_name_H-M "P 2/M"
_symmetry_group_IT_number 10
_symmetry_cell_setting 'monoclinic'
loop_
_space_group_symop_operation_xyz
x,y,z
-x,y,-z
-x,-y,-z
x,-y,z
loop_
_atom_site_type_symbol
_atom_site_label
_atom_site_fract_x
_atom_site_fract_y
_atom_site_fract_z
Si Si1 0.171571 0.658394 0.775663
Si Si2 0.799398 0.657392 0.010733
Si Si3 0.247904 0.839361 0.264162
Si Si4 0.639730 0.836039 0.366627
Si Si5 0.624736 0.159026 0.965790
Si Si6 0.071318 0.339657 0.212825
Si Si7 0.392827 0.836497 0.405898
O O1 0.206494 0.500000 0.746094
O O2 0.147633 0.680243 0.896371
O O3 0.267941 0.758859 0.717869
O O4 0.058444 0.694992 0.747223
O O5 0.760068 0.500000 0.006107
O O6 0.692256 0.753520 0.027894
O O7 0.889255 0.697609 0.906570
O O8 0.329893 0.817361 0.153782
O O9 0.135586 0.753168 0.276217
O O10 0.311023 0.777643 0.343213
O O11 0.215580 0.000000 0.285518
O O12 0.519016 0.784852 0.359941
O O13 0.653216 0.793569 0.476800
O O14 0.654426 0.000000 0.348795
O O15 0.632613 0.000000 0.996485
O O16 0.500000 0.212562 0.000000
O O17 0.094245 0.500000 0.230949
O O18 0.396919 0.000000 0.395923
#
# Coordination Sequence:
#
# PCOD8063164 Si02
#       7
#     4   4   4   4   4   4   4
#     4  10  20  33  50  73 100 128 162 205 248 283
#     4   9  18  32  49  68  94 132 168 195 233 285
#     4   9  17  31  51  71  96 128 161 198 242 288
#     4   9  18  33  54  76  96 124 164 202 241 291
#     4   9  18  29  44  71 102 127 155 195 242 286
#     4   9  18  34  51  69  97 132 167 199 236 288
#     4   8  16  33  54  74  97 127 161 198 242 294
#
# _framework density 17.501044
#
# number of rings (size 3 to 8) (size 9 to 14) (size 15 to 20)
#    0.000    3.000    0.000    1.286    2.000    3.143 
#    0.000    3.571    0.000    8.571    0.000    0.000 
#    0.000    0.000    0.000    0.000    0.000    0.000 
#
# Total GULP energy -347150.723197 kJ/mol
# GULP energy per Si atom -12398.240114 kJ/mol
# Density = 1.746121 g / cm^3
# Si number density = 17.501044 Si / 1000 Ang^3
#
#
#
# Elastic Constant Matrix: (Units=GPa)
#
#
# Indices 1 2 3 4 5 6 
#
# 1 114.2822 46.9114 42.3217 0.0000 14.1274 0.0000
# 2 46.9114 52.2845 26.4681 0.0000 2.5801 0.0000
# 3 42.3217 26.4681 56.9972 0.0000 8.6274 0.0000
# 4 0.0000 0.0000 0.0000 20.0999 0.0000 -2.4584
# 5 14.1274 2.5801 8.6274 0.0000 29.9418 0.0000
# 6 0.0000 0.0000 0.0000 -2.4584 0.0000 28.0499
#
#
#
# Elastic Compliance Matrix: (Units=1/GPa)
#
#
# Indices 1 2 3 4 5 6 
#
# 1 0.016225 -0.011234 -0.006083 0.000000 -0.004934 0.000000
# 2 -0.011234 0.032827 -0.007609 0.000000 0.004664 0.000000
# 3 -0.006083 -0.007609 0.026204 0.000000 -0.004025 0.000000
# 4 0.000000 0.000000 0.000000 0.050291 0.000000 0.004408
# 5 -0.004934 0.004664 -0.004025 0.000000 0.036484 0.000000
# 6 0.000000 0.000000 0.000000 0.004408 0.000000 0.036037
#
#
# Mechanical properties :
#
#
# Convention : Reuss Voigt Hill
#
# Bulk Modulus (GPa) = 39.36404 50.55180 44.95792
# Shear Modulus (GPa) = 19.50171 22.80915 21.15543
#
# Velocity S-wave (km/s) = 3.34176 3.61404 3.48057
# Velocity P-wave (km/s) = 6.11809 6.80902 6.47278
#
# Compressibility (1/GPa) = 0.02540389
#
# Stress axis : x y z
#
# Youngs Moduli (GPa) = 61.63511 30.46246 38.16186
#
# Poissons Ratio (x) = 0.34222 0.23215
# Poissons Ratio (y) = 0.69241 0.29036
# Poissons Ratio (z) = 0.37495 0.23178
#
# Static dielectric constant tensor:
#      x y z
#    x 3.449600 0.000000 0.207130 
#    y 0.000000 3.098630 0.000000 
#    z 0.207130 0.000000 3.202130 
# 
# 
# High freq. dielectric constant tensor:
#      x y z
#    x 1.681850 0.000000 0.005550 
#    y 0.000000 1.657240 0.000000 
#    z 0.005550 0.000000 1.662820 
# 
# From -- ./inp_files/28202.got.cif
#   From: 2010.06.25/outbox.cif.g09.slc.cpg/sg10_15_cif.got.tgz:28202.got - 2010.06.27 22:07:45.
