data_PCOD8063798
_publ_section_title
;
Structure prediction by ZEFSAII (Michael W. Deem and Ramdas Pophale) SiO2 
 PCOD8063798
Probable space group: P 2/M
;
_chemical_formula_sum "Si O2"
_cell_formula_units_Z 28
_cell_length_a 14.339336
_cell_length_b 9.155905
_cell_length_c 20.329896
_cell_angle_alpha 90.000000
_cell_angle_beta 147.591008
_cell_angle_gamma 90.000000
_cell_volume 1430.531038
_symmetry_space_group_name_H-M "P 2/M"
_symmetry_group_IT_number 10
_symmetry_cell_setting 'monoclinic'
loop_
_space_group_symop_operation_xyz
x,y,z
-x,y,-z
-x,-y,-z
x,-y,z
loop_
_atom_site_type_symbol
_atom_site_label
_atom_site_fract_x
_atom_site_fract_y
_atom_site_fract_z
Si Si1 0.962037 0.332130 0.190303
Si Si2 0.679186 0.670254 0.257884
Si Si3 0.663041 0.330847 0.639409
Si Si4 0.702479 0.332135 0.921914
Si Si5 0.769771 0.830803 0.438764
Si Si6 0.388996 0.170518 0.258570
Si Si7 0.890029 0.171508 0.278009
O O1 0.925288 0.500000 0.187911
O O2 0.166021 0.303727 0.302094
O O3 0.889700 0.227904 0.203611
O O4 0.863077 0.292039 0.064208
O O5 0.722153 0.500000 0.278674
O O6 0.475306 0.701833 0.145201
O O7 0.787306 0.736795 0.383091
O O8 0.735026 0.749031 0.224184
O O9 0.500000 0.273552 0.500000
O O10 0.639899 0.500000 0.644362
O O11 0.680105 0.240872 0.716114
O O12 0.707621 0.500000 0.902477
O O13 0.719453 0.234537 0.867025
O O14 0.592688 0.792197 0.371505
O O15 0.926231 0.787594 0.579688
O O16 0.775859 0.000000 0.421617
O O17 0.353475 0.000000 0.240637
O O18 0.854687 0.000000 0.257283
#
# Coordination Sequence:
#
# PCOD8063798 Si02
#       7
#     4   4   4   4   4   4   4
#     4  10  22  39  57  77 105 142 182 222 262 312
#     4  10  20  34  55  80 105 138 181 224 263 311
#     4  10  21  37  58  84 111 139 174 218 267 317
#     4   9  20  39  58  77 105 142 182 221 262 311
#     4   9  19  35  53  78 111 143 175 214 266 322
#     4  10  20  35  58  83 109 142 177 218 265 315
#     4  11  22  35  53  78 110 144 176 218 271 320
#
# _framework density 19.573150999999999
#
# number of rings (size 3 to 8) (size 9 to 14) (size 15 to 20)
#    0.000    2.143    0.000    2.571    0.000    6.571 
#    0.000    5.714    0.000    0.000    0.000    0.000 
#    0.000    0.000    0.000    0.000    0.000    0.000 
#
# Total GULP energy -347374.008767 kJ/mol
# GULP energy per Si atom -12406.214599 kJ/mol
# Density = 1.952860 g / cm^3
# Si number density = 19.573151 Si / 1000 Ang^3
#
#
#
# Elastic Constant Matrix: (Units=GPa)
#
#
# Indices 1 2 3 4 5 6 
#
# 1 95.7718 53.0866 21.8088 0.0000 -21.2327 0.0000
# 2 53.0866 85.6202 31.5947 0.0000 -13.4150 0.0000
# 3 21.8088 31.5947 85.8847 0.0000 -10.5020 0.0000
# 4 0.0000 0.0000 0.0000 25.3402 0.0000 -3.6601
# 5 -21.2327 -13.4150 -10.5020 0.0000 20.7051 0.0000
# 6 0.0000 0.0000 0.0000 -3.6601 0.0000 33.5170
#
#
#
# Elastic Compliance Matrix: (Units=1/GPa)
#
#
# Indices 1 2 3 4 5 6 
#
# 1 0.018569 -0.009628 0.000418 0.000000 0.013016 0.000000
# 2 -0.009628 0.019422 -0.004658 0.000000 0.000348 0.000000
# 3 0.000418 -0.004658 0.013789 0.000000 0.004406 0.000000
# 4 0.000000 0.000000 0.000000 0.040095 0.000000 0.004378
# 5 0.013016 0.000348 0.004406 0.000000 0.064105 0.000000
# 6 0.000000 0.000000 0.000000 0.004378 0.000000 0.030314
#
#
# Mechanical properties :
#
#
# Convention : Reuss Voigt Hill
#
# Bulk Modulus (GPa) = 41.58708 53.36187 47.47447
# Shear Modulus (GPa) = 22.51798 26.63157 24.57477
#
# Velocity S-wave (km/s) = 3.39551 3.69266 3.54720
# Velocity P-wave (km/s) = 6.05523 6.74559 6.40971
#
# Compressibility (1/GPa) = 0.02404593
#
# Stress axis : x y z
#
# Youngs Moduli (GPa) = 53.85376 51.48696 72.51951
#
# Poissons Ratio (x) = 0.49572 -0.03034
# Poissons Ratio (y) = 0.51851 0.33776
# Poissons Ratio (z) = -0.02253 0.23980
#
# Static dielectric constant tensor:
#      x y z
#    x 3.473700 0.000000 0.057760 
#    y 0.000000 3.543150 0.000000 
#    z 0.057760 0.000000 3.578440 
# 
# 
# High freq. dielectric constant tensor:
#      x y z
#    x 1.764220 0.000000 0.000140 
#    y 0.000000 1.762690 0.000000 
#    z 0.000140 0.000000 1.761240 
# 
# From -- ./inp_files/49627.got.cif
#   From: 2010.06.25/outbox.cif.g09.slc.cpg/sg10_25_cif.got.tgz:49627.got - 2010.06.27 22:07:45.
