data_PCOD8063108
_publ_section_title
;
Structure prediction by ZEFSAII (Michael W. Deem and Ramdas Pophale) SiO2 
 PCOD8063108
Probable space group: P 2/M
;
_chemical_formula_sum "Si O2"
_cell_formula_units_Z 28
_cell_length_a 19.344125
_cell_length_b 19.205802
_cell_length_c 22.208897
_cell_angle_alpha 90.000000
_cell_angle_beta 11.403683
_cell_angle_gamma 90.000000
_cell_volume 1631.397914
_symmetry_space_group_name_H-M "P 2/M"
_symmetry_group_IT_number 10
_symmetry_cell_setting 'monoclinic'
loop_
_space_group_symop_operation_xyz
x,y,z
-x,y,-z
-x,-y,-z
x,-y,z
loop_
_atom_site_type_symbol
_atom_site_label
_atom_site_fract_x
_atom_site_fract_y
_atom_site_fract_z
Si Si1 0.771657 0.335772 0.639788
Si Si2 0.103618 0.580839 0.253541
Si Si3 0.819280 0.919796 0.090279
Si Si4 0.401933 0.298899 0.648885
Si Si5 0.318932 0.659485 0.472632
Si Si6 0.336829 0.740614 0.924080
Si Si7 0.180769 0.159860 0.677255
O O1 0.666778 0.268233 0.687870
O O2 0.000000 0.306354 0.500000
O O3 0.000268 0.390106 0.406722
O O4 0.444342 0.378610 0.942576
O O5 0.188504 0.500000 0.185655
O O6 0.774520 0.591860 0.487868
O O7 0.442153 0.882172 0.410595
O O8 0.759764 0.000000 0.124912
O O9 0.000000 0.909678 0.000000
O O10 0.084028 0.887752 0.816166
O O11 0.500000 0.331490 0.500000
O O12 0.493354 0.355559 0.623259
O O13 0.636060 0.230312 0.456706
O O14 0.000000 0.277663 0.000000
O O15 0.565422 0.712959 0.225770
O O16 0.950179 0.693331 0.800226
O O17 0.176194 0.818646 0.054017
#
# Coordination Sequence:
#
# PCOD8063108 Si02
#       7
#     4   4   4   4   4   4   4
#     4  10  20  33  49  73 101 119 143 189 233 270
#     4  10  20  33  49  67  92 130 160 177 216 280
#     4  11  22  32  43  64  96 128 154 185 223 260
#     4  11  19  28  46  68  87 112 153 202 242 269
#     4   9  18  31  44  64  91 116 150 195 234 267
#     4   9  18  31  48  67  89 120 151 186 230 271
#     4  11  19  31  47  64  89 120 157 186 218 273
#
# _framework density 17.163195000000002
#
# number of rings (size 3 to 8) (size 9 to 14) (size 15 to 20)
#    0.000    1.857    0.000    7.286    0.000    2.857 
#    0.000    0.000    0.000    0.857    0.000    0.000 
#    0.000    3.429    0.000    0.000    0.000    0.000 
#
# Total GULP energy -347004.167393 kJ/mol
# GULP energy per Si atom -12393.005978 kJ/mol
# Density = 1.712413 g / cm^3
# Si number density = 17.163195 Si / 1000 Ang^3
#
#
#
# Elastic Constant Matrix: (Units=GPa)
#
#
# Indices 1 2 3 4 5 6 
#
# 1 115.3838 20.4792 31.8021 0.0000 -9.0626 0.0000
# 2 20.4792 40.5698 16.5280 0.0000 -11.2642 0.0000
# 3 31.8021 16.5280 84.8262 0.0000 10.5935 0.0000
# 4 0.0000 0.0000 0.0000 17.9151 0.0000 1.2211
# 5 -9.0626 -11.2642 10.5935 0.0000 36.3595 0.0000
# 6 0.0000 0.0000 0.0000 1.2211 0.0000 15.8195
#
#
#
# Elastic Compliance Matrix: (Units=1/GPa)
#
#
# Indices 1 2 3 4 5 6 
#
# 1 0.010426 -0.003012 -0.003663 0.000000 0.002733 0.000000
# 2 -0.003012 0.031850 -0.006450 0.000000 0.010996 0.000000
# 3 -0.003663 -0.006450 0.015341 0.000000 -0.007381 0.000000
# 4 0.000000 0.000000 0.000000 0.056114 0.000000 -0.004331
# 5 0.002733 0.010996 -0.007381 0.000000 0.033741 0.000000
# 6 0.000000 0.000000 0.000000 -0.004331 0.000000 0.063547
#
#
# Mechanical properties :
#
#
# Convention : Reuss Voigt Hill
#
# Bulk Modulus (GPa) = 31.88099 42.04427 36.96263
# Shear Modulus (GPa) = 20.18384 25.48355 22.83369
#
# Velocity S-wave (km/s) = 3.43300 3.85746 3.65140
# Velocity P-wave (km/s) = 5.85914 6.66258 6.27373
#
# Compressibility (1/GPa) = 0.03136665
#
# Stress axis : x y z
#
# Youngs Moduli (GPa) = 95.91854 31.39750 65.18637
#
# Poissons Ratio (x) = 0.09456 0.23879
# Poissons Ratio (y) = 0.28886 0.42045
# Poissons Ratio (z) = 0.35136 0.20251
#
# Static dielectric constant tensor:
#      x y z
#    x 3.545620 0.000000 -0.054800 
#    y 0.000000 2.998030 0.000000 
#    z -0.054800 0.000000 3.420360 
# 
# 
# High freq. dielectric constant tensor:
#      x y z
#    x 1.663240 0.000000 0.018600 
#    y 0.000000 1.612080 0.000000 
#    z 0.018600 0.000000 1.684340 
# 
# From -- ./inp_files/86639.got.cif
#   From: 2010.06.25/outbox.cif.g09.slc.cpg/sg10_44_cif.got.tgz:86639.got - 2010.06.27 22:07:45.
