data_PCOD8063525
_publ_section_title
;
Structure prediction by ZEFSAII (Michael W. Deem and Ramdas Pophale) SiO2 
 PCOD8063525
Probable space group: P 2/M
;
_chemical_formula_sum "Si O2"
_cell_formula_units_Z 28
_cell_length_a 22.564582
_cell_length_b 10.126257
_cell_length_c 13.323390
_cell_angle_alpha 90.000000
_cell_angle_beta 149.986560
_cell_angle_gamma 90.000000
_cell_volume 1522.780776
_symmetry_space_group_name_H-M "P 2/M"
_symmetry_group_IT_number 10
_symmetry_cell_setting 'monoclinic'
loop_
_space_group_symop_operation_xyz
x,y,z
-x,y,-z
-x,-y,-z
x,-y,z
loop_
_atom_site_type_symbol
_atom_site_label
_atom_site_fract_x
_atom_site_fract_y
_atom_site_fract_z
Si Si1 0.474032 0.150275 0.078601
Si Si2 0.793225 0.647277 0.021711
Si Si3 0.191306 0.844265 0.124875
Si Si4 0.070051 0.149285 0.289508
Si Si5 0.283895 0.155600 0.477432
Si Si6 0.714550 0.353542 0.123904
Si Si7 0.960151 0.741196 0.547014
O O1 0.587487 0.210953 0.303503
O O2 0.445033 0.000000 0.070302
O O3 0.500000 0.153380 0.000000
O O4 0.362105 0.241443 0.935995
O O5 0.769339 0.500000 0.944172
O O6 0.751752 0.757789 0.880913
O O7 0.714624 0.673375 0.004972
O O8 0.932277 0.654129 0.252895
O O9 0.259988 0.809510 0.326949
O O10 0.199593 0.000000 0.109645
O O11 0.054863 0.796472 0.935881
O O12 0.181356 0.220894 0.397940
O O13 0.075880 0.154924 0.419284
O O14 0.077733 0.000000 0.265385
O O15 0.287497 0.000000 0.501621
O O16 0.663676 0.500000 0.071970
O O17 0.848038 0.351441 0.362066
O O18 0.000000 0.811694 0.500000
#
# Coordination Sequence:
#
# PCOD8063525 Si02
#       7
#     4   4   4   4   4   4   4
#     4  10  21  36  53  73  99 132 167 203 243 286
#     4   9  18  33  52  74 101 130 159 197 248 299
#     4   9  17  30  51  77 100 125 161 202 243 291
#     4   9  16  27  47  75 103 129 160 201 245 289
#     4   9  17  31  50  71  98 132 165 198 243 295
#     4  10  20  34  52  73  98 131 168 203 242 290
#     4   9  17  29  48  73 100 131 163 196 243 300
#
# _framework density 18.387412999999999
#
# number of rings (size 3 to 8) (size 9 to 14) (size 15 to 20)
#    0.000    2.714    0.000    1.714    0.000    6.286 
#    0.000    4.286    0.000   12.857    0.000    0.000 
#    0.000    0.000    0.000    0.000    0.000    0.000 
#
# Total GULP energy -346998.719069 kJ/mol
# GULP energy per Si atom -12392.811395 kJ/mol
# Density = 1.834556 g / cm^3
# Si number density = 18.387413 Si / 1000 Ang^3
#
#
#
# Elastic Constant Matrix: (Units=GPa)
#
#
# Indices 1 2 3 4 5 6 
#
# 1 80.4413 41.9938 33.3983 0.0000 -6.2442 0.0000
# 2 41.9938 68.3744 24.5931 0.0000 1.1147 0.0000
# 3 33.3983 24.5931 85.3345 0.0000 -15.2924 0.0000
# 4 0.0000 0.0000 0.0000 11.4106 0.0000 3.7579
# 5 -6.2442 1.1147 -15.2924 0.0000 26.2435 0.0000
# 6 0.0000 0.0000 0.0000 3.7579 0.0000 18.3949
#
#
#
# Elastic Compliance Matrix: (Units=1/GPa)
#
#
# Indices 1 2 3 4 5 6 
#
# 1 0.020066 -0.010847 -0.004231 0.000000 0.002770 0.000000
# 2 -0.010847 0.022533 -0.003219 0.000000 -0.005414 0.000000
# 3 -0.004231 -0.003219 0.015796 0.000000 0.008334 0.000000
# 4 0.000000 0.000000 0.000000 0.093959 0.000000 -0.019195
# 5 0.002770 -0.005414 0.008334 0.000000 0.043850 0.000000
# 6 0.000000 0.000000 0.000000 -0.019195 0.000000 0.058284
#
#
# Mechanical properties :
#
#
# Convention : Reuss Voigt Hill
#
# Bulk Modulus (GPa) = 45.86938 48.23561 47.05249
# Shear Modulus (GPa) = 16.75888 20.15413 18.45651
#
# Velocity S-wave (km/s) = 3.02227 3.31431 3.17165
# Velocity P-wave (km/s) = 6.09746 6.39813 6.24960
#
# Compressibility (1/GPa) = 0.02180104
#
# Stress axis : x y z
#
# Youngs Moduli (GPa) = 49.83613 44.37841 63.30837
#
# Poissons Ratio (x) = 0.48138 0.26785
# Poissons Ratio (y) = 0.54059 0.20378
# Poissons Ratio (z) = 0.21085 0.14285
#
# Static dielectric constant tensor:
#      x y z
#    x 3.472340 0.000000 -0.026530 
#    y 0.000000 3.067540 0.000000 
#    z -0.026530 0.000000 3.414840 
# 
# 
# High freq. dielectric constant tensor:
#      x y z
#    x 1.713680 0.000000 -0.006900 
#    y 0.000000 1.675750 0.000000 
#    z -0.006900 0.000000 1.708280 
# 
# From -- ./inp_files/55788.got.cif
#   From: 2010.06.25/outbox.cif.g09.slc.cpg/sg10_28_cif.got.tgz:55788.got - 2010.06.27 22:07:45.
