data_PCOD8063925
_publ_section_title
;
Structure prediction by ZEFSAII (Michael W. Deem and Ramdas Pophale) SiO2 
 PCOD8063925
Probable space group: P 2/M
;
_chemical_formula_sum "Si O2"
_cell_formula_units_Z 26
_cell_length_a 11.752513
_cell_length_b 20.715483
_cell_length_c 9.401874
_cell_angle_alpha 90.000000
_cell_angle_beta 38.186223
_cell_angle_gamma 90.000000
_cell_volume 1415.086118
_symmetry_space_group_name_H-M "P 2/M"
_symmetry_group_IT_number 10
_symmetry_cell_setting 'monoclinic'
loop_
_space_group_symop_operation_xyz
x,y,z
-x,y,-z
-x,-y,-z
x,-y,z
loop_
_atom_site_type_symbol
_atom_site_label
_atom_site_fract_x
_atom_site_fract_y
_atom_site_fract_z
Si Si1 0.825671 0.073957 0.352976
Si Si2 0.500000 0.265312 0.000000
Si Si3 0.464086 0.141703 0.190302
Si Si4 0.752082 0.925758 0.104516
Si Si5 0.752464 0.373940 0.856990
Si Si6 0.480259 0.424810 0.361110
Si Si7 0.128983 0.572843 0.539869
O O1 0.733937 0.119275 0.560288
O O2 0.040770 0.088574 0.146476
O O3 0.786876 0.000000 0.430623
O O4 0.735620 0.088752 0.288154
O O5 0.458457 0.219667 0.177835
O O6 0.317669 0.306672 0.141555
O O7 0.500000 0.109392 0.000000
O O8 0.620805 0.121626 0.147375
O O9 0.698067 0.000000 0.126460
O O10 0.757117 0.424256 0.720742
O O11 0.962935 0.374620 0.709655
O O12 0.616163 0.391062 0.117692
O O13 0.500000 0.396002 0.500000
O O14 0.528809 0.500000 0.310953
O O15 0.269111 0.411025 0.528226
O O16 0.050670 0.500000 0.633684
#
# Coordination Sequence:
#
# PCOD8063925 Si02
#       7
#     4   2   4   4   4   4   4
#     4   9  18  35  60  87 113 142 179 231 289 337
#     4  10  24  40  52  76 110 160 196 232 268 320
#     4  10  22  36  50  81 113 149 188 231 268 325
#     4   9  18  35  60  87 112 142 182 229 287 340
#     4  11  19  39  57  78 110 150 189 231 267 324
#     4  10  20  34  56  88 121 141 162 218 292 346
#     4  10  20  34  63  94 106 136 186 234 285 339
#
# _framework density 18.373439999999999
#
# number of rings (size 3 to 8) (size 9 to 14) (size 15 to 20)
#    0.462    1.692    1.538    3.692    0.000    4.923 
#    5.538    5.385    0.000    0.000    0.000    0.000 
#    0.000    0.000    0.000    0.000    0.000    0.000 
#
# Total GULP energy -322214.999591 kJ/mol
# GULP energy per Si atom -12392.884600 kJ/mol
# Density = 1.833162 g / cm^3
# Si number density = 18.373440 Si / 1000 Ang^3
#
#
#
# Elastic Constant Matrix: (Units=GPa)
#
#
# Indices 1 2 3 4 5 6 
#
# 1 104.5954 46.1634 36.2949 0.0000 -1.8659 0.0000
# 2 46.1634 86.2829 51.1926 0.0000 -7.2248 0.0000
# 3 36.2949 51.1926 91.4315 0.0000 -1.8307 0.0000
# 4 0.0000 0.0000 0.0000 0.2341 0.0000 5.5863
# 5 -1.8659 -7.2248 -1.8307 0.0000 17.0987 0.0000
# 6 0.0000 0.0000 0.0000 5.5863 0.0000 21.8483
#
#
#
# Elastic Compliance Matrix: (Units=1/GPa)
#
#
# Indices 1 2 3 4 5 6 
#
# 1 0.012750 -0.005855 -0.001808 0.000000 -0.001276 0.000000
# 2 -0.005855 0.020750 -0.009151 0.000000 0.007149 0.000000
# 3 -0.001808 -0.009151 0.016733 0.000000 -0.002272 0.000000
# 4 0.000000 0.000000 0.000000 -0.837377 0.000000 0.214107
# 5 -0.001276 0.007149 -0.002272 0.000000 0.061122 0.000000
# 6 0.000000 0.000000 0.000000 0.214107 0.000000 -0.008974
#
#
# Mechanical properties :
#
#
# Convention : Reuss Voigt Hill
#
# Bulk Modulus (GPa) = 60.22513 61.06795 60.64654
# Shear Modulus (GPa) = -7.18564 17.74682 5.28059
#
# Velocity S-wave (km/s) = -1.97974 3.11126 1.69714
# Velocity P-wave (km/s) = 5.25582 6.79822 6.07616
#
# Compressibility (1/GPa) = 0.01660436
#
# Stress axis : x y z
#
# Youngs Moduli (GPa) = 78.43359 48.19198 59.76247
#
# Poissons Ratio (x) = 0.28218 0.10807
# Poissons Ratio (y) = 0.45926 0.54686
# Poissons Ratio (z) = 0.14183 0.44099
#
# Static dielectric constant tensor:
#      x y z
#    x 3.502910 0.000000 -0.026290 
#    y 0.000000 3.111280 0.000000 
#    z -0.026290 0.000000 3.365490 
# 
# 
# High freq. dielectric constant tensor:
#      x y z
#    x 1.721220 0.000000 -0.006300 
#    y 0.000000 1.678740 0.000000 
#    z -0.006300 0.000000 1.713040 
# 
# From -- ./inp_files/26018.got.cif
#   From: 2010.06.25/outbox.cif.g09.slc.cpg/sg10_14_cif.got.tgz:26018.got - 2010.06.27 22:07:45.
