data_PCOD8063416
_publ_section_title
;
Structure prediction by ZEFSAII (Michael W. Deem and Ramdas Pophale) SiO2 
 PCOD8063416
Probable space group: P 2/M
;
_chemical_formula_sum "Si O2"
_cell_formula_units_Z 28
_cell_length_a 9.735864
_cell_length_b 14.380901
_cell_length_c 21.903400
_cell_angle_alpha 90.000000
_cell_angle_beta 28.700096
_cell_angle_gamma 90.000000
_cell_volume 1472.708743
_symmetry_space_group_name_H-M "P 2/M"
_symmetry_group_IT_number 10
_symmetry_cell_setting 'monoclinic'
loop_
_space_group_symop_operation_xyz
x,y,z
-x,y,-z
-x,-y,-z
x,-y,z
loop_
_atom_site_type_symbol
_atom_site_label
_atom_site_fract_x
_atom_site_fract_y
_atom_site_fract_z
Si Si1 0.680658 0.107207 0.607614
Si Si2 0.347784 0.780792 0.499004
Si Si3 0.294617 0.605766 0.352553
Si Si4 0.245523 0.604814 0.145783
Si Si5 0.709848 0.738024 0.758907
Si Si6 0.623918 0.394827 0.343339
Si Si7 0.663584 0.894506 0.135616
O O1 0.555033 0.162504 0.598640
O O2 0.459776 0.124792 0.748610
O O3 0.000000 0.143475 0.500000
O O4 0.697853 0.000000 0.582135
O O5 0.500000 0.822097 0.500000
O O6 0.428189 0.672129 0.460630
O O7 0.010847 0.789851 0.637842
O O8 0.273210 0.500000 0.336526
O O9 0.357652 0.674698 0.273074
O O10 0.554065 0.617336 0.299022
O O11 0.000000 0.634985 0.500000
O O12 0.229099 0.500000 0.178236
O O13 0.307562 0.674994 0.175393
O O14 0.954094 0.630747 0.224432
O O15 0.500000 0.615806 0.000000
O O16 0.479537 0.820846 0.854445
O O17 0.551134 0.500000 0.392546
O O18 0.586409 0.000000 0.145899
O O19 0.000000 0.878275 0.000000
#
# Coordination Sequence:
#
# PCOD8063416 Si02
#       7
#     4   4   4   4   4   4   4
#     4  10  21  40  66  89 118 156 196 251 313 365
#     4  12  23  35  56  93 124 157 198 250 303 368
#     4  10  20  33  55  89 125 155 197 255 309 359
#     4  10  23  42  59  80 121 172 214 248 299 371
#     4  12  22  36  62  93 117 159 205 261 301 365
#     4  10  21  36  55  82 121 162 198 246 303 358
#     4  10  23  43  67  94 122 160 206 253 314 379
#
# _framework density 19.012585000000001
#
# number of rings (size 3 to 8) (size 9 to 14) (size 15 to 20)
#    0.000    1.429    4.286    1.286    0.000    3.429 
#    0.000    0.000    0.000    4.714    0.000    0.000 
#    0.000    0.000    0.000    0.000    0.000    0.000 
#
# Total GULP energy -347274.053679 kJ/mol
# GULP energy per Si atom -12402.644774 kJ/mol
# Density = 1.896931 g / cm^3
# Si number density = 19.012585 Si / 1000 Ang^3
#
#
#
# Elastic Constant Matrix: (Units=GPa)
#
#
# Indices 1 2 3 4 5 6 
#
# 1 136.1454 70.5206 46.5367 0.0000 -7.1236 0.0000
# 2 70.5206 105.9206 48.9216 0.0000 -9.5445 0.0000
# 3 46.5367 48.9216 102.0221 0.0000 -14.1936 0.0000
# 4 0.0000 0.0000 0.0000 27.6083 0.0000 -1.3671
# 5 -7.1236 -9.5445 -14.1936 0.0000 23.2413 0.0000
# 6 0.0000 0.0000 0.0000 -1.3671 0.0000 28.7482
#
#
#
# Elastic Compliance Matrix: (Units=1/GPa)
#
#
# Indices 1 2 3 4 5 6 
#
# 1 0.011535 -0.006760 -0.002092 0.000000 -0.000518 0.000000
# 2 -0.006760 0.016141 -0.004396 0.000000 0.001872 0.000000
# 3 -0.002092 -0.004396 0.013686 0.000000 0.005912 0.000000
# 4 0.000000 0.000000 0.000000 0.036306 0.000000 0.001727
# 5 -0.000518 0.001872 0.005912 0.000000 0.047247 0.000000
# 6 0.000000 0.000000 0.000000 0.001727 0.000000 0.034867
#
#
# Mechanical properties :
#
#
# Convention : Reuss Voigt Hill
#
# Bulk Modulus (GPa) = 67.26725 75.11620 71.19172
# Shear Modulus (GPa) = 26.14606 27.79352 26.96979
#
# Velocity S-wave (km/s) = 3.71239 3.82756 3.77041
# Velocity P-wave (km/s) = 7.33709 7.68948 7.51535
#
# Compressibility (1/GPa) = 0.01486608
#
# Stress axis : x y z
#
# Youngs Moduli (GPa) = 86.69542 61.95472 73.06538
#
# Poissons Ratio (x) = 0.41882 0.15285
# Poissons Ratio (y) = 0.58607 0.32118
# Poissons Ratio (z) = 0.18136 0.27234
#
# Static dielectric constant tensor:
#      x y z
#    x 6.086980 0.000000 0.288150 
#    y 0.000000 3.661330 0.000000 
#    z 0.288150 0.000000 3.426910 
# 
# 
# High freq. dielectric constant tensor:
#      x y z
#    x 1.738360 0.000000 -0.008170 
#    y 0.000000 1.748350 0.000000 
#    z -0.008170 0.000000 1.725820 
# 
# From -- ./inp_files/29579.got.cif
#   From: 2010.06.25/outbox.cif.g09.slc.cpg/sg10_15_cif.got.tgz:29579.got - 2010.06.27 22:07:45.
