data_PCOD8063030
_publ_section_title
;
Structure prediction by ZEFSAII (Michael W. Deem and Ramdas Pophale) SiO2 
 PCOD8063030
Probable space group: P 2/M
;
_chemical_formula_sum "Si O2"
_cell_formula_units_Z 28
_cell_length_a 26.650490
_cell_length_b 8.837265
_cell_length_c 9.454532
_cell_angle_alpha 90.000000
_cell_angle_beta 41.460336
_cell_angle_gamma 90.000000
_cell_volume 1474.305979
_symmetry_space_group_name_H-M "P 2/M"
_symmetry_group_IT_number 10
_symmetry_cell_setting 'monoclinic'
loop_
_space_group_symop_operation_xyz
x,y,z
-x,y,-z
-x,-y,-z
x,-y,z
loop_
_atom_site_type_symbol
_atom_site_label
_atom_site_fract_x
_atom_site_fract_y
_atom_site_fract_z
Si Si1 0.062414 0.675473 0.267567
Si Si2 0.411615 0.325401 0.664569
Si Si3 0.695798 0.824243 0.881677
Si Si4 0.192352 0.162880 0.122596
Si Si5 0.244575 0.320277 0.521522
Si Si6 0.322637 0.168245 0.623429
Si Si7 0.073278 0.319599 0.931075
O O1 0.045077 0.500000 0.287595
O O2 0.141601 0.698908 0.178607
O O3 0.000000 0.753447 0.500000
O O4 0.063354 0.748337 0.109928
O O5 0.500000 0.303475 0.500000
O O6 0.387017 0.500000 0.713380
O O7 0.392847 0.253982 0.549692
O O8 0.370610 0.248574 0.884951
O O9 0.777410 0.803185 0.784490
O O10 0.704908 0.741717 0.712945
O O11 0.676287 0.000000 0.898925
O O12 0.149012 0.000000 0.210436
O O13 0.264131 0.150417 0.872422
O O14 0.246969 0.500000 0.517138
O O15 0.284924 0.262586 0.577687
O O16 0.155932 0.264867 0.699479
O O17 0.346966 0.000000 0.518741
O O18 0.072222 0.500000 0.933960
O O19 0.000000 0.257188 0.000000
#
# Coordination Sequence:
#
# PCOD8063030 Si02
#       7
#     4   4   4   4   4   4   4
#     4  10  20  32  51  76 103 138 186 239 286 337
#     4  10  21  39  64  93 121 147 184 233 279 333
#     4  10  22  38  57  84 117 152 190 231 282 344
#     4   9  19  35  53  74 105 144 185 231 279 334
#     4  11  21  35  59  85 114 153 196 245 290 337
#     4  10  20  36  59  84 115 153 188 228 279 342
#     4   9  19  34  50  76 112 147 189 240 294 344
#
# _framework density 18.991987000000002
#
# number of rings (size 3 to 8) (size 9 to 14) (size 15 to 20)
#    0.000    2.143    1.429    2.571    2.000    4.286 
#    0.000    0.714    0.000    6.429    0.000    0.000 
#    0.000    0.000    0.000    0.000    0.000    0.000 
#
# Total GULP energy -347007.200494 kJ/mol
# GULP energy per Si atom -12393.114303 kJ/mol
# Density = 1.894876 g / cm^3
# Si number density = 18.991987 Si / 1000 Ang^3
#
#
#
# Elastic Constant Matrix: (Units=GPa)
#
#
# Indices 1 2 3 4 5 6 
#
# 1 113.6924 45.0664 43.2488 0.0000 -3.8830 0.0000
# 2 45.0664 84.8731 36.0445 0.0000 -0.4812 0.0000
# 3 43.2488 36.0445 84.5164 0.0000 4.7331 0.0000
# 4 0.0000 0.0000 0.0000 32.5227 0.0000 42.6036
# 5 -3.8830 -0.4812 4.7331 0.0000 25.6526 0.0000
# 6 0.0000 0.0000 0.0000 42.6036 0.0000 118.4468
#
#
#
# Elastic Compliance Matrix: (Units=1/GPa)
#
#
# Indices 1 2 3 4 5 6 
#
# 1 0.012464 -0.004679 -0.004530 0.000000 0.002635 0.000000
# 2 -0.004679 0.016196 -0.004537 0.000000 0.000433 0.000000
# 3 -0.004530 -0.004537 0.016297 0.000000 -0.003778 0.000000
# 4 0.000000 0.000000 0.000000 0.058144 0.000000 -0.020913
# 5 0.002635 0.000433 -0.003778 0.000000 0.040086 0.000000
# 6 0.000000 0.000000 0.000000 -0.020913 0.000000 0.015965
#
#
# Mechanical properties :
#
#
# Convention : Reuss Voigt Hill
#
# Bulk Modulus (GPa) = 57.26071 59.08906 58.17488
# Shear Modulus (GPa) = 25.97876 45.90591 35.94234
#
# Velocity S-wave (km/s) = 3.70250 4.92176 4.35501
# Velocity P-wave (km/s) = 6.96372 7.96733 7.48237
#
# Compressibility (1/GPa) = 0.01746398
#
# Stress axis : x y z
#
# Youngs Moduli (GPa) = 80.23350 61.74267 61.36268
#
# Poissons Ratio (x) = 0.28891 0.27796
# Poissons Ratio (y) = 0.37544 0.27841
# Poissons Ratio (z) = 0.36344 0.28013
#
# Static dielectric constant tensor:
#      x y z
#    x 3.643900 0.000000 0.110610 
#    y 0.000000 3.522090 0.000000 
#    z 0.110610 0.000000 3.444700 
# 
# 
# High freq. dielectric constant tensor:
#      x y z
#    x 1.742320 0.000000 0.008950 
#    y 0.000000 1.730820 0.000000 
#    z 0.008950 0.000000 1.726580 
# 
# From -- ./inp_files/36899.got.cif
#   From: 2010.06.25/outbox.cif.g09.slc.cpg/sg10_19_cif.got.tgz:36899.got - 2010.06.27 22:07:45.
