data_PCOD8063873
_publ_section_title
;
Structure prediction by ZEFSAII (Michael W. Deem and Ramdas Pophale) SiO2 
 PCOD8063873
Probable space group: P 2/M
;
_chemical_formula_sum "Si O2"
_cell_formula_units_Z 18
_cell_length_a 7.140414
_cell_length_b 9.584325
_cell_length_c 10.813207
_cell_angle_alpha 90.000000
_cell_angle_beta 88.633885
_cell_angle_gamma 90.000000
_cell_volume 739.802820
_symmetry_space_group_name_H-M "P 2/M"
_symmetry_group_IT_number 10
_symmetry_cell_setting 'monoclinic'
loop_
_space_group_symop_operation_xyz
x,y,z
-x,y,-z
-x,-y,-z
x,-y,z
loop_
_atom_site_type_symbol
_atom_site_label
_atom_site_fract_x
_atom_site_fract_y
_atom_site_fract_z
Si Si1 0.191211 0.843174 0.832858
Si Si2 0.713523 0.342543 0.952658
Si Si3 0.383150 0.151557 0.254667
Si Si4 0.876140 0.654628 0.386734
Si Si5 0.500000 0.731632 0.500000
O O1 0.409298 0.851713 0.802094
O O2 0.086191 0.767640 0.720632
O O3 0.110652 0.000000 0.852811
O O4 0.160830 0.748438 0.954993
O O5 0.792655 0.500000 0.942971
O O6 0.732754 0.269964 0.817323
O O7 0.500000 0.346483 0.000000
O O8 0.387486 0.176540 0.401562
O O9 0.289814 0.000000 0.232651
O O10 0.936702 0.500000 0.340657
O O11 0.656139 0.641582 0.426367
O O12 0.000000 0.703789 0.500000
#
# Coordination Sequence:
#
# PCOD8063873 Si02
#       5
#     4   4   4   4   2
#     4   9  17  30  49  73 103 139 178 220 265 314
#     4   9  16  26  44  72 104 138 178 221 265 315
#     4   9  17  29  47  73 105 140 178 219 264 314
#     4  10  21  36  55  80 109 141 177 218 264 314
#     4  10  20  34  56  80 108 142 178 218 262 314
#
# _framework density 24.330807
#
# number of rings (size 3 to 8) (size 9 to 14) (size 15 to 20)
#    0.000    2.667    0.000    2.000    0.000   10.222 
#    0.000    0.000    0.000    1.333    0.000    7.778 
#    0.000    0.000    0.000    0.000    0.000    0.000 
#
# Total GULP energy -223147.493325 kJ/mol
# GULP energy per Si atom -12397.082962 kJ/mol
# Density = 2.427543 g / cm^3
# Si number density = 24.330807 Si / 1000 Ang^3
#
#
#
# Elastic Constant Matrix: (Units=GPa)
#
#
# Indices 1 2 3 4 5 6 
#
# 1 38.5999 12.0946 7.7815 0.0000 6.4564 0.0000
# 2 12.0946 248.0345 121.5416 0.0000 29.3020 0.0000
# 3 7.7815 121.5416 198.3544 0.0000 41.8223 0.0000
# 4 0.0000 0.0000 0.0000 28.7494 0.0000 13.8645
# 5 6.4564 29.3020 41.8223 0.0000 32.6403 0.0000
# 6 0.0000 0.0000 0.0000 13.8645 0.0000 7.5571
#
#
#
# Elastic Compliance Matrix: (Units=1/GPa)
#
#
# Indices 1 2 3 4 5 6 
#
# 1 0.026976 -0.001027 0.000687 0.000000 -0.005295 0.000000
# 2 -0.001027 0.005820 -0.003380 0.000000 -0.000690 0.000000
# 3 0.000687 -0.003380 0.008871 0.000000 -0.008468 0.000000
# 4 0.000000 0.000000 0.000000 0.301834 0.000000 -0.553755
# 5 -0.005295 -0.000690 -0.008468 0.000000 0.043155 0.000000
# 6 0.000000 0.000000 0.000000 -0.553755 0.000000 1.148264
#
#
# Mechanical properties :
#
#
# Convention : Reuss Voigt Hill
#
# Bulk Modulus (GPa) = 29.21645 85.31382 57.26514
# Shear Modulus (GPa) = 3.21798 36.69409 19.95604
#
# Velocity S-wave (km/s) = 1.15129 3.88768 2.86701
# Velocity P-wave (km/s) = 3.71502 7.43588 5.87766
#
# Compressibility (1/GPa) = 0.03422730
#
# Stress axis : x y z
#
# Youngs Moduli (GPa) = 37.07054 171.83156 112.72422
#
# Poissons Ratio (x) = 0.17640 -0.07746
# Poissons Ratio (y) = 0.03806 0.38103
# Poissons Ratio (z) = -0.02547 0.58082
#
# Static dielectric constant tensor:
#      x y z
#    x 3.920100 0.000000 0.092170 
#    y 0.000000 4.512860 0.000000 
#    z 0.092170 0.000000 4.406470 
# 
# 
# High freq. dielectric constant tensor:
#      x y z
#    x 1.950870 0.000000 0.007150 
#    y 0.000000 1.966090 0.000000 
#    z 0.007150 0.000000 1.965230 
# 
# From -- ./inp_files/22262.got.cif
#   From: 2010.06.25/outbox.cif.g09.slc.cpg/sg10_12_cif.got.tgz:22262.got - 2010.06.27 22:07:45.
