data_PCOD8063969
_publ_section_title
;
Structure prediction by ZEFSAII (Michael W. Deem and Ramdas Pophale) SiO2 
 PCOD8063969
Probable space group: P 2/M
;
_chemical_formula_sum "Si O2"
_cell_formula_units_Z 28
_cell_length_a 22.889141
_cell_length_b 10.709517
_cell_length_c 29.169739
_cell_angle_alpha 90.000000
_cell_angle_beta 11.216397
_cell_angle_gamma 90.000000
_cell_volume 1390.865665
_symmetry_space_group_name_H-M "P 2/M"
_symmetry_group_IT_number 10
_symmetry_cell_setting 'monoclinic'
loop_
_space_group_symop_operation_xyz
x,y,z
-x,y,-z
-x,-y,-z
x,-y,z
loop_
_atom_site_type_symbol
_atom_site_label
_atom_site_fract_x
_atom_site_fract_y
_atom_site_fract_z
Si Si1 0.115429 0.135404 0.962395
Si Si2 0.851201 0.136109 0.723201
Si Si3 0.816637 0.360972 0.687463
Si Si4 0.723680 0.219455 0.531211
Si Si5 0.836586 0.361817 0.229902
Si Si6 0.224803 0.645337 0.093230
Si Si7 0.634992 0.360650 0.113423
O O1 0.476630 0.147856 0.690774
O O2 0.029505 0.000000 0.050969
O O3 0.000000 0.132205 0.000000
O O4 0.955341 0.254428 0.106129
O O5 0.963185 0.254833 0.606951
O O6 0.029347 0.131501 0.634399
O O7 0.908604 0.000000 0.655231
O O8 0.500000 0.155290 0.000000
O O9 0.836762 0.500000 0.694810
O O10 0.000000 0.362660 0.500000
O O11 0.468977 0.328067 0.944970
O O12 0.563555 0.290242 0.696355
O O13 0.901988 0.305809 0.358035
O O14 0.500000 0.326587 0.500000
O O15 0.860765 0.500000 0.187762
O O16 0.020820 0.363155 0.135111
O O17 0.183792 0.500000 0.115273
O O18 0.347266 0.704227 0.950726
O O19 0.498501 0.500000 0.214378
#
# Coordination Sequence:
#
# PCOD8063969 Si02
#       7
#     4   4   4   4   4   4   4
#     4  10  23  41  61  88 121 156 200 251 303 359
#     4  11  23  39  58  83 118 159 199 244 296 353
#     4  10  21  38  60  89 122 155 200 254 300 355
#     4  11  21  38  62  83 116 161 202 249 301 358
#     4   9  19  36  60  89 121 155 195 247 306 362
#     4  10  20  34  57  89 121 159 199 245 304 358
#     4   9  19  35  55  86 123 152 195 250 298 359
#
# _framework density 20.131347000000002
#
# number of rings (size 3 to 8) (size 9 to 14) (size 15 to 20)
#    0.000    2.000    1.429    1.714    2.000    4.000 
#    0.000    0.000    0.000    2.571    0.000    0.000 
#    0.000    0.000    0.000    0.000    0.000    0.000 
#
# Total GULP energy -346897.498787 kJ/mol
# GULP energy per Si atom -12389.196385 kJ/mol
# Density = 2.008553 g / cm^3
# Si number density = 20.131347 Si / 1000 Ang^3
#
#
#
# Elastic Constant Matrix: (Units=GPa)
#
#
# Indices 1 2 3 4 5 6 
#
# 1 95.7106 42.5347 36.1250 0.0000 -9.9964 0.0000
# 2 42.5347 121.4860 32.4810 0.0000 0.2053 0.0000
# 3 36.1250 32.4810 101.3813 0.0000 -12.5623 0.0000
# 4 0.0000 0.0000 0.0000 66.7299 0.0000 -1.0866
# 5 -9.9964 0.2053 -12.5623 0.0000 39.2851 0.0000
# 6 0.0000 0.0000 0.0000 -1.0866 0.0000 10.0601
#
#
#
# Elastic Compliance Matrix: (Units=1/GPa)
#
#
# Indices 1 2 3 4 5 6 
#
# 1 0.013696 -0.003910 -0.003325 0.000000 0.002442 0.000000
# 2 -0.003910 0.010158 -0.002073 0.000000 -0.001711 0.000000
# 3 -0.003325 -0.002073 0.012088 0.000000 0.003030 0.000000
# 4 0.000000 0.000000 0.000000 0.015012 0.000000 0.001622
# 5 0.002442 -0.001711 0.003030 0.000000 0.027054 0.000000
# 6 0.000000 0.000000 0.000000 0.001622 0.000000 0.099578
#
#
# Mechanical properties :
#
#
# Convention : Reuss Voigt Hill
#
# Bulk Modulus (GPa) = 57.71888 60.09545 58.90716
# Shear Modulus (GPa) = 24.75519 37.04415 30.89967
#
# Velocity S-wave (km/s) = 3.51049 4.29432 3.92203
# Velocity P-wave (km/s) = 6.72047 7.38273 7.05937
#
# Compressibility (1/GPa) = 0.01732535
#
# Stress axis : x y z
#
# Youngs Moduli (GPa) = 73.01408 98.44794 82.72596
#
# Poissons Ratio (x) = 0.38497 0.27505
# Poissons Ratio (y) = 0.28552 0.17149
# Poissons Ratio (z) = 0.24276 0.20408
#
# Static dielectric constant tensor:
#      x y z
#    x 3.826190 0.000000 -0.359430 
#    y 0.000000 3.930200 0.000000 
#    z -0.359430 0.000000 3.805310 
# 
# 
# High freq. dielectric constant tensor:
#      x y z
#    x 1.780130 0.000000 -0.024660 
#    y 0.000000 1.782000 0.000000 
#    z -0.024660 0.000000 1.791020 
# 
# From -- ./inp_files/91440.got.cif
#   From: 2010.06.25/outbox.cif.g09.slc.cpg/sg10_46_cif.got.tgz:91440.got - 2010.06.27 22:07:45.
