data_PCOD8063763
_publ_section_title
;
Structure prediction by ZEFSAII (Michael W. Deem and Ramdas Pophale) SiO2 
 PCOD8063763
Probable space group: P 2/M
;
_chemical_formula_sum "Si O2"
_cell_formula_units_Z 32
_cell_length_a 24.183041
_cell_length_b 9.330246
_cell_length_c 15.552026
_cell_angle_alpha 90.000000
_cell_angle_beta 151.718841
_cell_angle_gamma 90.000000
_cell_volume 1662.588602
_symmetry_space_group_name_H-M "P 2/M"
_symmetry_group_IT_number 10
_symmetry_cell_setting 'monoclinic'
loop_
_space_group_symop_operation_xyz
x,y,z
-x,y,-z
-x,-y,-z
x,-y,z
loop_
_atom_site_type_symbol
_atom_site_label
_atom_site_fract_x
_atom_site_fract_y
_atom_site_fract_z
Si Si1 0.368448 0.663285 0.319596
Si Si2 0.407290 0.666983 0.798474
Si Si3 0.142241 0.331576 0.450902
Si Si4 0.284279 0.336326 0.012525
Si Si5 0.024068 0.670586 0.628161
Si Si6 0.894147 0.668194 0.792325
Si Si7 0.700447 0.162968 0.620775
Si Si8 0.486819 0.163272 0.211987
O O1 0.500000 0.720414 0.500000
O O2 0.362997 0.500000 0.346064
O O3 0.318322 0.677977 0.157160
O O4 0.289866 0.760766 0.273819
O O5 0.405787 0.500000 0.770602
O O6 0.276814 0.719116 0.645556
O O7 0.444510 0.758903 0.768826
O O8 0.500000 0.697497 0.000000
O O9 0.138300 0.500000 0.456559
O O10 0.084821 0.291585 0.279354
O O11 0.065340 0.263464 0.423194
O O12 0.295169 0.500000 0.994825
O O13 0.364638 0.240698 0.061642
O O14 0.153497 0.278335 0.828288
O O15 0.014345 0.500000 0.615844
O O16 0.000000 0.731394 0.500000
O O17 0.868451 0.500000 0.767220
O O18 0.780185 0.754908 0.662272
O O19 0.000000 0.714622 0.000000
O O20 0.566773 0.170767 0.406341
O O21 0.743877 0.000000 0.688823
O O22 0.461623 0.000000 0.150714
#
# Coordination Sequence:
#
# PCOD8063763 Si02
#       8
#     4   4   4   4   4   4   4   4
#     4  10  20  34  54  82 113 146 185 234 284 336
#     4  10  21  36  61  90 114 145 191 242 292 348
#     4   9  18  34  54  85 120 145 182 237 290 342
#     4  10  21  36  59  86 114 150 195 240 284 343
#     4   9  19  34  56  86 117 146 183 240 294 336
#     4  10  21  36  59  84 112 152 193 238 287 341
#     4  11  23  37  55  80 116 155 190 233 288 351
#     4  11  23  38  57  83 119 155 191 236 291 350
#
# _framework density 19.247094000000001
#
# number of rings (size 3 to 8) (size 9 to 14) (size 15 to 20)
#    0.000    2.000    2.500    0.750    3.500    2.250 
#    0.000    0.000    0.000    1.125    0.000    0.000 
#    0.000    0.000    0.000    0.000    0.000    0.000 
#
# Total GULP energy -396787.312759 kJ/mol
# GULP energy per Si atom -12399.603524 kJ/mol
# Density = 1.920329 g / cm^3
# Si number density = 19.247094 Si / 1000 Ang^3
#
#
#
# Elastic Constant Matrix: (Units=GPa)
#
#
# Indices 1 2 3 4 5 6 
#
# 1 150.7949 45.0643 58.7249 0.0000 16.0139 0.0000
# 2 45.0643 60.4004 24.8895 0.0000 6.8842 0.0000
# 3 58.7249 24.8895 130.4099 0.0000 9.2707 0.0000
# 4 0.0000 0.0000 0.0000 21.7019 0.0000 -3.0564
# 5 16.0139 6.8842 9.2707 0.0000 29.8809 0.0000
# 6 0.0000 0.0000 0.0000 -3.0564 0.0000 -3.8301
#
#
#
# Elastic Compliance Matrix: (Units=1/GPa)
#
#
# Indices 1 2 3 4 5 6 
#
# 1 0.009891 -0.005741 -0.003145 0.000000 -0.003002 0.000000
# 2 -0.005741 0.021596 -0.001433 0.000000 -0.001454 0.000000
# 3 -0.003145 -0.001433 0.009422 0.000000 -0.000908 0.000000
# 4 0.000000 0.000000 0.000000 0.041423 0.000000 -0.033056
# 5 -0.003002 -0.001454 -0.000908 0.000000 0.035692 0.000000
# 6 0.000000 0.000000 0.000000 -0.033056 0.000000 -0.234712
#
#
# Mechanical properties :
#
#
# Convention : Reuss Voigt Hill
#
# Bulk Modulus (GPa) = 49.33184 66.55142 57.94163
# Shear Modulus (GPa) = -55.99581 23.74562 -16.12510
#
# Velocity S-wave (km/s) = -5.39966 3.51625 -2.89761
# Velocity P-wave (km/s) = 3.63161 7.15107 4.35599
#
# Compressibility (1/GPa) = 0.02027088
#
# Stress axis : x y z
#
# Youngs Moduli (GPa) = 101.10381 46.30490 106.13165
#
# Poissons Ratio (x) = 0.26586 0.33375
# Poissons Ratio (y) = 0.58048 0.15208
# Poissons Ratio (z) = 0.31794 0.06635
#
# Static dielectric constant tensor:
#      x y z
#    x 3.625040 0.000000 -0.024640 
#    y 0.000000 3.248370 0.000000 
#    z -0.024640 0.000000 3.581710 
# 
# 
# High freq. dielectric constant tensor:
#      x y z
#    x 1.757140 0.000000 -0.000360 
#    y 0.000000 1.711840 0.000000 
#    z -0.000360 0.000000 1.754490 
# 
# From -- ./inp_files/63875.got.cif
#   From: 2010.06.25/outbox.cif.g09.slc.cpg/sg10_32_cif.got.tgz:63875.got - 2010.06.27 22:07:45.
