data_PCOD8063836
_publ_section_title
;
Structure prediction by ZEFSAII (Michael W. Deem and Ramdas Pophale) SiO2 
 PCOD8063836
Probable space group: P 2/M
;
_chemical_formula_sum "Si O2"
_cell_formula_units_Z 32
_cell_length_a 14.662093
_cell_length_b 9.344361
_cell_length_c 11.718909
_cell_angle_alpha 90.000000
_cell_angle_beta 93.610508
_cell_angle_gamma 90.000000
_cell_volume 1602.396228
_symmetry_space_group_name_H-M "P 2/M"
_symmetry_group_IT_number 10
_symmetry_cell_setting 'monoclinic'
loop_
_space_group_symop_operation_xyz
x,y,z
-x,y,-z
-x,-y,-z
x,-y,z
loop_
_atom_site_type_symbol
_atom_site_label
_atom_site_fract_x
_atom_site_fract_y
_atom_site_fract_z
Si Si1 0.508174 0.831500 0.370953
Si Si2 0.339449 0.165319 0.199996
Si Si3 0.166965 0.662774 0.567026
Si Si4 0.335295 0.662199 0.741680
Si Si5 0.177598 0.163698 0.351957
Si Si6 0.970096 0.162554 0.310827
Si Si7 0.723537 0.330560 0.011537
Si Si8 0.092631 0.165553 0.946282
O O1 0.500000 0.773132 0.500000
O O2 0.417611 0.788437 0.294855
O O3 0.594209 0.764305 0.314959
O O4 0.524000 0.000000 0.374131
O O5 0.242136 0.194285 0.250361
O O6 0.351054 0.000000 0.164629
O O7 0.344445 0.265067 0.088796
O O8 0.144725 0.500000 0.534994
O O9 0.237332 0.677075 0.675493
O O10 0.208940 0.738125 0.459295
O O11 0.072562 0.738434 0.594891
O O12 0.371674 0.500000 0.736273
O O13 0.322370 0.709114 0.871536
O O14 0.075898 0.202270 0.302877
O O15 0.187077 0.000000 0.392999
O O16 0.917858 0.187337 0.188994
O O17 0.959081 0.000000 0.351845
O O18 0.733454 0.500000 0.996647
O O19 0.823144 0.260395 0.004801
O O20 0.112207 0.000000 0.979742
O O21 0.000000 0.217983 0.000000
#
# Coordination Sequence:
#
# PCOD8063836 Si02
#       8
#     4   4   4   4   4   4   4   4
#     4  10  22  41  67  96 120 149 194 248 303 356
#     4  10  22  41  63  89 121 152 192 248 300 354
#     4  11  22  37  56  82 119 157 198 244 293 350
#     4  10  23  41  60  85 121 162 199 243 298 357
#     4  10  21  38  59  84 117 154 195 244 299 356
#     4  10  20  34  55  83 114 153 198 242 294 353
#     4  11  23  40  60  86 122 161 202 244 294 356
#     4  10  20  36  59  85 115 157 207 253 299 350
#
# _framework density 19.970092999999999
#
# number of rings (size 3 to 8) (size 9 to 14) (size 15 to 20)
#    0.000    1.750    1.250    2.625    0.000    9.000 
#    0.000    3.750    0.000    0.000    0.000    0.000 
#    0.000    0.000    0.000    0.000    0.000    0.000 
#
# Total GULP energy -396957.369222 kJ/mol
# GULP energy per Si atom -12404.917788 kJ/mol
# Density = 1.992464 g / cm^3
# Si number density = 19.970093 Si / 1000 Ang^3
#
#
#
# Elastic Constant Matrix: (Units=GPa)
#
#
# Indices 1 2 3 4 5 6 
#
# 1 88.2596 40.5832 35.1810 0.0000 -6.6761 0.0000
# 2 40.5832 81.9082 55.9496 0.0000 -2.8527 0.0000
# 3 35.1810 55.9496 119.4325 0.0000 3.1542 0.0000
# 4 0.0000 0.0000 0.0000 29.1991 0.0000 4.9493
# 5 -6.6761 -2.8527 3.1542 0.0000 31.5665 0.0000
# 6 0.0000 0.0000 0.0000 4.9493 0.0000 23.4217
#
#
#
# Elastic Compliance Matrix: (Units=1/GPa)
#
#
# Indices 1 2 3 4 5 6 
#
# 1 0.015058 -0.006300 -0.001557 0.000000 0.002771 0.000000
# 2 -0.006300 0.020784 -0.007916 0.000000 0.001337 0.000000
# 3 -0.001557 -0.007916 0.012601 0.000000 -0.002304 0.000000
# 4 0.000000 0.000000 0.000000 0.035520 0.000000 -0.007506
# 5 0.002771 0.001337 -0.002304 0.000000 0.032616 0.000000
# 6 0.000000 0.000000 0.000000 -0.007506 0.000000 0.044281
#
#
# Mechanical properties :
#
#
# Convention : Reuss Voigt Hill
#
# Bulk Modulus (GPa) = 59.18765 61.44755 60.31760
# Shear Modulus (GPa) = 25.24753 27.36324 26.30539
#
# Velocity S-wave (km/s) = 3.55951 3.70565 3.63332
# Velocity P-wave (km/s) = 6.82612 7.01040 6.91888
#
# Compressibility (1/GPa) = 0.01689542
#
# Stress axis : x y z
#
# Youngs Moduli (GPa) = 66.41196 48.11320 79.35986
#
# Poissons Ratio (x) = 0.30313 0.12357
# Poissons Ratio (y) = 0.41842 0.62822
# Poissons Ratio (z) = 0.10341 0.38087
#
# Static dielectric constant tensor:
#      x y z
#    x 3.539100 0.000000 0.067240 
#    y 0.000000 3.592760 0.000000 
#    z 0.067240 0.000000 3.762030 
# 
# 
# High freq. dielectric constant tensor:
#      x y z
#    x 1.777800 0.000000 0.002960 
#    y 0.000000 1.770200 0.000000 
#    z 0.002960 0.000000 1.792100 
# 
# From -- ./inp_files/49943.got.cif
#   From: 2010.06.25/outbox.cif.g09.slc.cpg/sg10_25_cif.got.tgz:49943.got - 2010.06.27 22:07:45.
