data_PCOD8063220
_publ_section_title
;
Structure prediction by ZEFSAII (Michael W. Deem and Ramdas Pophale) SiO2 
 PCOD8063220
Probable space group: P 2/M
;
_chemical_formula_sum "Si O2"
_cell_formula_units_Z 32
_cell_length_a 18.369105
_cell_length_b 8.940690
_cell_length_c 26.029191
_cell_angle_alpha 90.000000
_cell_angle_beta 156.055737
_cell_angle_gamma 90.000000
_cell_volume 1734.933592
_symmetry_space_group_name_H-M "P 2/M"
_symmetry_group_IT_number 10
_symmetry_cell_setting 'monoclinic'
loop_
_space_group_symop_operation_xyz
x,y,z
-x,y,-z
-x,-y,-z
x,-y,z
loop_
_atom_site_type_symbol
_atom_site_label
_atom_site_fract_x
_atom_site_fract_y
_atom_site_fract_z
Si Si1 0.022191 0.668883 0.957366
Si Si2 0.902840 0.168205 0.383061
Si Si3 0.149168 0.171430 0.296056
Si Si4 0.788880 0.824770 0.008692
Si Si5 0.583233 0.676086 0.224545
Si Si6 0.349264 0.331367 0.340495
Si Si7 0.342487 0.828301 0.520380
Si Si8 0.772698 0.675673 0.451993
O O1 0.100704 0.500000 0.010037
O O2 0.831297 0.671049 0.808027
O O3 0.162040 0.772084 0.017090
O O4 0.000000 0.735213 0.000000
O O5 0.716971 0.257444 0.267938
O O6 0.000000 0.170063 0.500000
O O7 0.032704 0.246684 0.425614
O O8 0.863114 0.000000 0.338790
O O9 0.302622 0.270980 0.367413
O O10 0.172021 0.190818 0.372133
O O11 0.180189 0.000000 0.298963
O O12 0.948629 0.221154 0.150844
O O13 0.611483 0.741542 0.913009
O O14 0.751408 0.000000 0.984116
O O15 0.579133 0.500000 0.215032
O O16 0.647169 0.722061 0.323062
O O17 0.426398 0.500000 0.394337
O O18 0.483397 0.221388 0.398411
O O19 0.323002 0.726506 0.557759
O O20 0.364091 0.000000 0.551576
O O21 0.804167 0.500000 0.473168
#
# Coordination Sequence:
#
# PCOD8063220 Si02
#       8
#     4   4   4   4   4   4   4   4
#     4   9  19  34  49  67 100 140 170 206 259 308
#     4   9  17  32  54  79 107 137 170 206 248 302
#     4   9  20  38  54  71 100 138 176 218 264 305
#     4  10  20  34  53  76 100 131 176 217 252 301
#     4  10  20  34  54  79 109 140 169 204 253 310
#     4  10  20  33  51  75 100 133 177 218 258 306
#     4  11  22  35  53  75 103 137 174 217 263 307
#     4  10  21  35  52  78 110 139 168 206 257 309
#
# _framework density 18.444510999999999
#
# number of rings (size 3 to 8) (size 9 to 14) (size 15 to 20)
#    0.000    2.250    0.000    2.625    1.750    6.750 
#    0.000    0.000    0.000    0.750    0.000    5.250 
#    0.000    0.000    0.000    0.000    0.000    0.000 
#
# Total GULP energy -396864.070514 kJ/mol
# GULP energy per Si atom -12402.002204 kJ/mol
# Density = 1.840253 g / cm^3
# Si number density = 18.444511 Si / 1000 Ang^3
#
#
#
# Elastic Constant Matrix: (Units=GPa)
#
#
# Indices 1 2 3 4 5 6 
#
# 1 50.8687 21.9143 24.6901 0.0000 8.3980 0.0000
# 2 21.9143 84.6542 33.4148 0.0000 9.9860 0.0000
# 3 24.6901 33.4148 60.2676 0.0000 26.0880 0.0000
# 4 0.0000 0.0000 0.0000 28.9957 0.0000 9.2016
# 5 8.3980 9.9860 26.0880 0.0000 23.7122 0.0000
# 6 0.0000 0.0000 0.0000 9.2016 0.0000 33.2364
#
#
#
# Elastic Compliance Matrix: (Units=1/GPa)
#
#
# Indices 1 2 3 4 5 6 
#
# 1 0.025327 -0.002905 -0.010333 0.000000 0.003622 0.000000
# 2 -0.002905 0.015834 -0.009829 0.000000 0.005174 0.000000
# 3 -0.010333 -0.009829 0.043721 0.000000 -0.040303 0.000000
# 4 0.000000 0.000000 0.000000 0.037810 0.000000 -0.010468
# 5 0.003622 0.005174 -0.040303 0.000000 0.083052 0.000000
# 6 0.000000 0.000000 0.000000 -0.010468 0.000000 0.032986
#
#
# Mechanical properties :
#
#
# Convention : Reuss Voigt Hill
#
# Bulk Modulus (GPa) = 25.80692 39.53656 32.67174
# Shear Modulus (GPa) = 16.79096 24.90695 20.84895
#
# Velocity S-wave (km/s) = 3.02047 3.67873 3.36573
# Velocity P-wave (km/s) = 5.11726 6.28697 5.73203
#
# Compressibility (1/GPa) = 0.03874930
#
# Stress axis : x y z
#
# Youngs Moduli (GPa) = 39.48299 63.15536 22.87224
#
# Poissons Ratio (x) = 0.18347 0.23634
# Poissons Ratio (y) = 0.11470 0.22480
# Poissons Ratio (z) = 0.40798 0.62072
#
# Static dielectric constant tensor:
#      x y z
#    x 3.274970 0.000000 0.030460 
#    y 0.000000 3.557860 0.000000 
#    z 0.030460 0.000000 3.395980 
# 
# 
# High freq. dielectric constant tensor:
#      x y z
#    x 1.696600 0.000000 0.008390 
#    y 0.000000 1.727290 0.000000 
#    z 0.008390 0.000000 1.708450 
# 
# From -- ./inp_files/83522.got.cif
#   From: 2010.06.25/outbox.cif.g09.slc.cpg/sg10_42_cif.got.tgz:83522.got - 2010.06.27 22:07:45.
