data_PCOD8063427
_publ_section_title
;
Structure prediction by ZEFSAII (Michael W. Deem and Ramdas Pophale) SiO2 
 PCOD8063427
Probable space group: P 2/M
;
_chemical_formula_sum "Si O2"
_cell_formula_units_Z 32
_cell_length_a 13.398817
_cell_length_b 13.396986
_cell_length_c 14.985187
_cell_angle_alpha 90.000000
_cell_angle_beta 139.602461
_cell_angle_gamma 90.000000
_cell_volume 1743.288092
_symmetry_space_group_name_H-M "P 2/M"
_symmetry_group_IT_number 10
_symmetry_cell_setting 'monoclinic'
loop_
_space_group_symop_operation_xyz
x,y,z
-x,y,-z
-x,-y,-z
x,-y,z
loop_
_atom_site_type_symbol
_atom_site_label
_atom_site_fract_x
_atom_site_fract_y
_atom_site_fract_z
Si Si1 0.834115 0.302700 0.691777
Si Si2 0.355748 0.613512 0.593214
Si Si3 0.698416 0.614054 0.774044
Si Si4 0.830950 0.115221 0.255604
Si Si5 0.606991 0.238006 0.991040
Si Si6 0.167502 0.615446 0.944376
Si Si7 0.827342 0.112119 0.578396
Si Si8 0.672537 0.202763 0.313096
O O1 0.754201 0.376059 0.566770
O O2 0.760697 0.315445 0.738771
O O3 0.807303 0.187355 0.647113
O O4 0.013593 0.327343 0.813293
O O5 0.354521 0.500000 0.626884
O O6 0.526485 0.647411 0.681161
O O7 0.299291 0.682896 0.636235
O O8 0.700962 0.500000 0.741557
O O9 0.808981 0.626791 0.933982
O O10 0.795569 0.178221 0.320156
O O11 0.009029 0.130623 0.356495
O O12 0.789432 0.000000 0.244348
O O13 0.728859 0.154008 0.103452
O O14 0.500917 0.188907 0.841800
O O15 0.500000 0.273055 0.000000
O O16 0.690715 0.336528 0.012171
O O17 0.157289 0.500000 0.909705
O O18 0.696699 0.130773 0.414596
O O19 0.811982 0.000000 0.605244
#
# Coordination Sequence:
#
# PCOD8063427 Si02
#       8
#     4   4   4   4   4   4   4   4
#     4  11  21  35  58  83 111 144 186 234 275 321
#     4  10  20  35  55  82 115 148 182 221 273 337
#     4  10  20  35  58  83 110 148 187 225 273 329
#     4  10  20  37  59  81 107 141 187 235 279 330
#     4  10  21  36  54  83 112 146 182 227 280 327
#     4  11  21  36  56  83 114 145 187 227 270 329
#     4  10  21  37  59  82 109 144 183 232 284 332
#     4  10  20  33  57  82 111 142 182 224 275 325
#
# _framework density 18.356114999999999
#
# number of rings (size 3 to 8) (size 9 to 14) (size 15 to 20)
#    0.000    1.750    2.500    2.625    0.000    6.000 
#    0.000    1.875    0.000   10.500    0.000    0.000 
#    0.000    0.000    0.000    0.000    0.000    0.000 
#
# Total GULP energy -396891.158081 kJ/mol
# GULP energy per Si atom -12402.848690 kJ/mol
# Density = 1.831434 g / cm^3
# Si number density = 18.356115 Si / 1000 Ang^3
#
#
#
# Elastic Constant Matrix: (Units=GPa)
#
#
# Indices 1 2 3 4 5 6 
#
# 1 70.2342 54.0511 28.0237 0.0000 -4.0797 0.0000
# 2 54.0511 111.0708 36.8377 0.0000 -2.9516 0.0000
# 3 28.0237 36.8377 115.5929 0.0000 1.6751 0.0000
# 4 0.0000 0.0000 0.0000 22.5936 0.0000 0.4724
# 5 -4.0797 -2.9516 1.6751 0.0000 17.3085 0.0000
# 6 0.0000 0.0000 0.0000 0.4724 0.0000 31.0470
#
#
#
# Elastic Compliance Matrix: (Units=1/GPa)
#
#
# Indices 1 2 3 4 5 6 
#
# 1 0.023555 -0.010560 -0.002403 0.000000 0.003984 0.000000
# 2 -0.010560 0.014873 -0.002184 0.000000 0.000259 0.000000
# 3 -0.002403 -0.002184 0.009957 0.000000 -0.001902 0.000000
# 4 0.000000 0.000000 0.000000 0.044274 0.000000 -0.000674
# 5 0.003984 0.000259 -0.001902 0.000000 0.058942 0.000000
# 6 0.000000 0.000000 0.000000 -0.000674 0.000000 0.032219
#
#
# Mechanical properties :
#
#
# Convention : Reuss Voigt Hill
#
# Bulk Modulus (GPa) = 55.27182 59.41364 57.34273
# Shear Modulus (GPa) = 22.71232 26.05553 24.38392
#
# Velocity S-wave (km/s) = 3.52137 3.77164 3.64865
# Velocity P-wave (km/s) = 6.83444 7.16970 7.00407
#
# Compressibility (1/GPa) = 0.01809240
#
# Stress axis : x y z
#
# Youngs Moduli (GPa) = 42.45386 67.23539 100.43143
#
# Poissons Ratio (x) = 0.71000 0.24134
# Poissons Ratio (y) = 0.44831 0.21929
# Poissons Ratio (z) = 0.10202 0.14681
#
# Static dielectric constant tensor:
#      x y z
#    x 3.216040 0.000000 0.071280 
#    y 0.000000 3.338100 0.000000 
#    z 0.071280 0.000000 3.648030 
# 
# 
# High freq. dielectric constant tensor:
#      x y z
#    x 1.695840 0.000000 0.006050 
#    y 0.000000 1.703050 0.000000 
#    z 0.006050 0.000000 1.733780 
# 
# From -- ./inp_files/67369.got.cif
#   From: 2010.06.25/outbox.cif.g09.slc.cpg/sg10_34_cif.got.tgz:67369.got - 2010.06.27 22:07:45.
