data_PCOD8063578
_publ_section_title
;
Structure prediction by ZEFSAII (Michael W. Deem and Ramdas Pophale) SiO2 
 PCOD8063578
Probable space group: P 2/M
;
_chemical_formula_sum "Si O2"
_cell_formula_units_Z 24
_cell_length_a 11.776013
_cell_length_b 21.446013
_cell_length_c 13.769241
_cell_angle_alpha 90.000000
_cell_angle_beta 20.264775
_cell_angle_gamma 90.000000
_cell_volume 1204.429249
_symmetry_space_group_name_H-M "P 2/M"
_symmetry_group_IT_number 10
_symmetry_cell_setting 'monoclinic'
loop_
_space_group_symop_operation_xyz
x,y,z
-x,y,-z
-x,-y,-z
x,-y,z
loop_
_atom_site_type_symbol
_atom_site_label
_atom_site_fract_x
_atom_site_fract_y
_atom_site_fract_z
Si Si1 0.347940 0.865672 0.775710
Si Si2 0.061045 0.661609 0.065066
Si Si3 0.109437 0.500000 0.303402
Si Si4 0.222956 0.379585 0.518286
Si Si5 0.990736 0.202779 0.212493
Si Si6 0.619464 0.000000 0.296446
Si Si7 0.126608 0.736393 0.294620
O O1 0.616290 0.822427 0.505639
O O2 0.493085 0.936146 0.665842
O O3 0.000000 0.860422 0.000000
O O4 0.264582 0.844635 0.951926
O O5 0.800429 0.627829 0.345333
O O6 0.048062 0.734302 0.104285
O O7 0.399461 0.625613 0.815928
O O8 0.000000 0.654178 0.000000
O O9 0.000000 0.500000 0.500000
O O10 0.957709 0.441877 0.368544
O O11 0.500000 0.500000 0.000000
O O12 0.057730 0.324191 0.592891
O O13 0.069892 0.208841 0.262649
O O14 0.500000 0.000000 0.500000
O O15 0.000000 0.000000 0.000000
O O16 0.000000 0.759910 0.500000
O O17 0.500000 0.716864 0.000000
#
# Coordination Sequence:
#
# PCOD8063578 Si02
#       7
#     4   4   2   4   4   2   4
#     4  11  21  35  55  85 121 153 188 232 279 341
#     4  11  23  40  58  84 122 157 186 231 281 343
#     4  12  24  42  67  92 115 148 196 252 292 336
#     4  11  23  40  61  88 115 149 193 232 291 351
#     4  11  22  35  57  86 112 153 198 231 283 347
#     4  10  20  34  52  80 118 158 188 226 282 336
#     4  11  21  37  56  80 112 144 181 241 297 337
#
# _framework density 19.926449999999999
#
# number of rings (size 3 to 8) (size 9 to 14) (size 15 to 20)
#    0.000    1.000    0.000   10.500    0.000    2.667 
#    0.000    2.500    0.000    0.000    0.000   11.667 
#    0.000    0.000    0.000    0.000    0.000    0.000 
#
# Total GULP energy -297430.764835 kJ/mol
# GULP energy per Si atom -12392.948535 kJ/mol
# Density = 1.988110 g / cm^3
# Si number density = 19.926450 Si / 1000 Ang^3
#
#
#
# Elastic Constant Matrix: (Units=GPa)
#
#
# Indices 1 2 3 4 5 6 
#
# 1 120.3271 58.2840 24.4548 0.0000 26.6113 0.0000
# 2 58.2840 111.7331 30.9742 0.0000 17.7131 0.0000
# 3 24.4548 30.9742 116.2793 0.0000 16.8537 0.0000
# 4 0.0000 0.0000 0.0000 30.8095 0.0000 4.1414
# 5 26.6113 17.7131 16.8537 0.0000 42.1491 0.0000
# 6 0.0000 0.0000 0.0000 4.1414 0.0000 11.6547
#
#
#
# Elastic Compliance Matrix: (Units=1/GPa)
#
#
# Indices 1 2 3 4 5 6 
#
# 1 0.012171 -0.005416 -0.000354 0.000000 -0.005267 0.000000
# 2 -0.005416 0.012503 -0.002044 0.000000 -0.001018 0.000000
# 3 -0.000354 -0.002044 0.009619 0.000000 -0.002764 0.000000
# 4 0.000000 0.000000 0.000000 0.034086 0.000000 -0.012112
# 5 -0.005267 -0.001018 -0.002764 0.000000 0.028583 0.000000
# 6 0.000000 0.000000 0.000000 -0.012112 0.000000 0.090106
#
#
# Mechanical properties :
#
#
# Convention : Reuss Voigt Hill
#
# Bulk Modulus (GPa) = 53.57230 63.97394 58.77312
# Shear Modulus (GPa) = 23.93298 32.56444 28.24871
#
# Velocity S-wave (km/s) = 3.46940 4.04695 3.76925
# Velocity P-wave (km/s) = 6.55686 7.34927 6.96434
#
# Compressibility (1/GPa) = 0.01866636
#
# Stress axis : x y z
#
# Youngs Moduli (GPa) = 82.16560 79.98171 103.95579
#
# Poissons Ratio (x) = 0.43315 0.03676
# Poissons Ratio (y) = 0.44498 0.21248
# Poissons Ratio (z) = 0.02906 0.16348
#
# Static dielectric constant tensor:
#      x y z
#    x 3.788710 0.000000 0.260610 
#    y 0.000000 4.146370 0.000000 
#    z 0.260610 0.000000 3.986590 
# 
# 
# High freq. dielectric constant tensor:
#      x y z
#    x 1.771140 0.000000 0.023610 
#    y 0.000000 1.763020 0.000000 
#    z 0.023610 0.000000 1.801180 
# 
# From -- ./inp_files/65474.got.cif
#   From: 2010.06.25/outbox.cif.g09.slc.cpg/sg10_33_cif.got.tgz:65474.got - 2010.06.27 22:07:45.
