data_PCOD8063387
_publ_section_title
;
Structure prediction by ZEFSAII (Michael W. Deem and Ramdas Pophale) SiO2 
 PCOD8063387
Probable space group: P 2/M
;
_chemical_formula_sum "Si O2"
_cell_formula_units_Z 20
_cell_length_a 16.548668
_cell_length_b 9.157119
_cell_length_c 9.926397
_cell_angle_alpha 90.000000
_cell_angle_beta 133.518714
_cell_angle_gamma 90.000000
_cell_volume 1090.789866
_symmetry_space_group_name_H-M "P 2/M"
_symmetry_group_IT_number 10
_symmetry_cell_setting 'monoclinic'
loop_
_space_group_symop_operation_xyz
x,y,z
-x,y,-z
-x,-y,-z
x,-y,z
loop_
_atom_site_type_symbol
_atom_site_label
_atom_site_fract_x
_atom_site_fract_y
_atom_site_fract_z
Si Si1 0.626738 0.828904 0.619871
Si Si2 0.177276 0.334879 0.653305
Si Si3 0.786158 0.831183 0.042879
Si Si4 0.038829 0.829921 0.302100
Si Si5 0.233080 0.335009 0.428572
O O1 0.500000 0.784078 0.500000
O O2 0.667695 0.743805 0.535483
O O3 0.640141 0.000000 0.607542
O O4 0.698581 0.779166 0.830861
O O5 0.141362 0.500000 0.648180
O O6 0.236472 0.261839 0.849067
O O7 0.068125 0.241979 0.481629
O O8 0.262445 0.334054 0.622817
O O9 0.909114 0.802517 0.123883
O O10 0.769460 0.000000 0.061294
O O11 0.114812 0.751736 0.273949
O O12 0.068804 0.000000 0.339390
O O13 0.218614 0.500000 0.358312
#
# Coordination Sequence:
#
# PCOD8063387 Si02
#       5
#     4   4   4   4   4
#     4  10  22  40  58  76 102 140 185 227 264 308
#     4   9  19  33  52  82 114 142 171 210 263 321
#     4  10  20  33  54  83 109 140 180 216 261 315
#     4   9  17  31  54  81 112 141 171 214 261 314
#     4   9  20  36  54  79 110 142 175 213 266 320
#
# _framework density 18.335336999999999
#
# number of rings (size 3 to 8) (size 9 to 14) (size 15 to 20)
#    1.200    1.400    0.000    1.800    0.000    6.000 
#    0.000    5.000    0.000    6.000    0.000    0.000 
#    0.000    0.000    0.000    0.000    0.000    0.000 
#
# Total GULP energy -247854.483327 kJ/mol
# GULP energy per Si atom -12392.724166 kJ/mol
# Density = 1.829360 g / cm^3
# Si number density = 18.335337 Si / 1000 Ang^3
#
#
#
# Elastic Constant Matrix: (Units=GPa)
#
#
# Indices 1 2 3 4 5 6 
#
# 1 109.4443 65.5168 63.2006 0.0000 12.3031 0.0000
# 2 65.5168 109.0895 42.2269 0.0000 5.6880 0.0000
# 3 63.2006 42.2269 75.2972 0.0000 9.5879 0.0000
# 4 0.0000 0.0000 0.0000 7.3409 0.0000 -9.1445
# 5 12.3031 5.6880 9.5879 0.0000 12.2707 0.0000
# 6 0.0000 0.0000 0.0000 -9.1445 0.0000 31.4570
#
#
#
# Elastic Compliance Matrix: (Units=1/GPa)
#
#
# Indices 1 2 3 4 5 6 
#
# 1 0.022598 -0.007926 -0.013443 0.000000 -0.008480 0.000000
# 2 -0.007926 0.014490 -0.001810 0.000000 0.002645 0.000000
# 3 -0.013443 -0.001810 0.026380 0.000000 -0.006296 0.000000
# 4 0.000000 0.000000 0.000000 0.213557 0.000000 0.062081
# 5 -0.008480 0.002645 -0.006296 0.000000 0.093691 0.000000
# 6 0.000000 0.000000 0.000000 0.062081 0.000000 0.049836
#
#
# Mechanical properties :
#
#
# Convention : Reuss Voigt Hill
#
# Bulk Modulus (GPa) = 58.44317 70.63550 64.53933
# Shear Modulus (GPa) = 10.57947 18.40618 14.49283
#
# Velocity S-wave (km/s) = 2.40469 3.17182 2.81451
# Velocity P-wave (km/s) = 6.29713 7.21261 6.77036
#
# Compressibility (1/GPa) = 0.01711064
#
# Stress axis : x y z
#
# Youngs Moduli (GPa) = 44.25181 69.01437 37.90692
#
# Poissons Ratio (x) = 0.54702 0.50957
# Poissons Ratio (y) = 0.35075 0.06860
# Poissons Ratio (z) = 0.59486 0.12490
#
# Static dielectric constant tensor:
#      x y z
#    x 3.192870 0.000000 -0.048650 
#    y 0.000000 3.413660 0.000000 
#    z -0.048650 0.000000 3.093910 
# 
# 
# High freq. dielectric constant tensor:
#      x y z
#    x 1.703410 0.000000 -0.009480 
#    y 0.000000 1.720550 0.000000 
#    z -0.009480 0.000000 1.676820 
# 
# From -- ./inp_files/48929.got.cif
#   From: 2010.06.25/outbox.cif.g09.slc.cpg/sg10_25_cif.got.tgz:48929.got - 2010.06.27 22:07:45.
