data_PCOD8063651
_publ_section_title
;
Structure prediction by ZEFSAII (Michael W. Deem and Ramdas Pophale) SiO2 
 PCOD8063651
Probable space group: P 2/M
;
_chemical_formula_sum "Si O2"
_cell_formula_units_Z 32
_cell_length_a 24.932026
_cell_length_b 15.275911
_cell_length_c 8.481754
_cell_angle_alpha 90.000000
_cell_angle_beta 30.703799
_cell_angle_gamma 90.000000
_cell_volume 1649.419457
_symmetry_space_group_name_H-M "P 2/M"
_symmetry_group_IT_number 10
_symmetry_cell_setting 'monoclinic'
loop_
_space_group_symop_operation_xyz
x,y,z
-x,y,-z
-x,-y,-z
x,-y,z
loop_
_atom_site_type_symbol
_atom_site_label
_atom_site_fract_x
_atom_site_fract_y
_atom_site_fract_z
Si Si1 0.254241 0.400283 0.780954
Si Si2 0.809077 0.903404 0.891770
Si Si3 0.554821 0.399372 0.513681
Si Si4 0.618481 0.898658 0.155525
Si Si5 0.855996 0.235532 0.039866
Si Si6 0.746650 0.233868 0.635837
Si Si7 0.945537 0.828479 0.293823
Si Si8 0.645074 0.403975 0.806589
O O1 0.212426 0.500000 0.914821
O O2 0.328799 0.363846 0.734877
O O3 0.158255 0.333082 0.997016
O O4 0.330239 0.398367 0.438815
O O5 0.894700 0.902476 0.533192
O O6 0.813153 0.000000 0.956652
O O7 0.692419 0.883851 0.120977
O O8 0.840084 0.834851 0.944782
O O9 0.500000 0.352452 0.500000
O O10 0.573296 0.500000 0.424193
O O11 0.479053 0.388297 0.855967
O O12 0.500000 0.871608 0.500000
O O13 0.623575 0.000000 0.086955
O O14 0.660205 0.837540 0.908266
O O15 0.771909 0.213987 0.388817
O O16 0.973362 0.230503 0.811880
O O17 0.851373 0.234172 0.476287
O O18 0.705812 0.332442 0.757232
O O19 0.000000 0.871192 0.000000
O O20 0.677041 0.500000 0.792503
#
# Coordination Sequence:
#
# PCOD8063651 Si02
#       8
#     4   4   4   4   4   4   4   4
#     4   9  18  33  50  69 100 140 174 206 251 305
#     4  10  21  36  56  81 105 132 167 209 259 308
#     4   9  17  28  44  69  98 128 168 216 257 295
#     4   9  19  37  57  76 103 139 174 208 252 310
#     4  10  20  34  53  78 106 134 172 219 258 299
#     4   9  19  34  53  76 103 138 174 211 258 306
#     4   9  19  36  55  76 104 135 169 211 256 304
#     4   9  17  30  48  71 100 134 171 210 254 304
#
# _framework density 19.400766999999998
#
# number of rings (size 3 to 8) (size 9 to 14) (size 15 to 20)
#    0.000    2.750    0.000    0.750    0.000    6.750 
#    0.000    5.000    0.000    7.500    0.000    0.000 
#    0.000    0.000    0.000    0.000    0.000    0.000 
#
# Total GULP energy -396526.203961 kJ/mol
# GULP energy per Si atom -12391.443874 kJ/mol
# Density = 1.935661 g / cm^3
# Si number density = 19.400767 Si / 1000 Ang^3
#
#
#
# Elastic Constant Matrix: (Units=GPa)
#
#
# Indices 1 2 3 4 5 6 
#
# 1 99.9477 53.1859 45.4204 0.0000 -10.2160 0.0000
# 2 53.1859 109.0633 44.6778 0.0000 -4.3010 0.0000
# 3 45.4204 44.6778 89.9576 0.0000 -14.4012 0.0000
# 4 0.0000 0.0000 0.0000 18.0933 0.0000 2.4766
# 5 -10.2160 -4.3010 -14.4012 0.0000 25.3329 0.0000
# 6 0.0000 0.0000 0.0000 2.4766 0.0000 23.9244
#
#
#
# Elastic Compliance Matrix: (Units=1/GPa)
#
#
# Indices 1 2 3 4 5 6 
#
# 1 0.015259 -0.005466 -0.004569 0.000000 0.002628 0.000000
# 2 -0.005466 0.013516 -0.004333 0.000000 -0.002373 0.000000
# 3 -0.004569 -0.004333 0.016680 0.000000 0.006904 0.000000
# 4 0.000000 0.000000 0.000000 0.056064 0.000000 -0.005804
# 5 0.002628 -0.002373 0.006904 0.000000 0.044056 0.000000
# 6 0.000000 0.000000 0.000000 -0.005804 0.000000 0.042399
#
#
# Mechanical properties :
#
#
# Convention : Reuss Voigt Hill
#
# Bulk Modulus (GPa) = 59.80872 65.05964 62.43418
# Shear Modulus (GPa) = 22.49392 23.84907 23.17149
#
# Velocity S-wave (km/s) = 3.40874 3.50992 3.45970
# Velocity P-wave (km/s) = 6.81085 7.07343 6.94338
#
# Compressibility (1/GPa) = 0.01671997
#
# Stress axis : x y z
#
# Youngs Moduli (GPa) = 65.53629 73.98756 59.95043
#
# Poissons Ratio (x) = 0.40440 0.27391
# Poissons Ratio (y) = 0.35821 0.25975
# Poissons Ratio (z) = 0.29943 0.32057
#
# Static dielectric constant tensor:
#      x y z
#    x 3.664380 0.000000 -0.007410 
#    y 0.000000 3.493310 0.000000 
#    z -0.007410 0.000000 3.599680 
# 
# 
# High freq. dielectric constant tensor:
#      x y z
#    x 1.755400 0.000000 -0.000180 
#    y 0.000000 1.739480 0.000000 
#    z -0.000180 0.000000 1.749090 
# 
# From -- ./inp_files/37713.got.cif
#   From: 2010.06.25/outbox.cif.g09.slc.cpg/sg10_19_cif.got.tgz:37713.got - 2010.06.27 22:07:45.
