data_PCOD8063741
_publ_section_title
;
Structure prediction by ZEFSAII (Michael W. Deem and Ramdas Pophale) SiO2 
 PCOD8063741
Probable space group: P 2/M
;
_chemical_formula_sum "Si O2"
_cell_formula_units_Z 32
_cell_length_a 15.021098
_cell_length_b 9.308976
_cell_length_c 22.491856
_cell_angle_alpha 90.000000
_cell_angle_beta 31.882088
_cell_angle_gamma 90.000000
_cell_volume 1661.135269
_symmetry_space_group_name_H-M "P 2/M"
_symmetry_group_IT_number 10
_symmetry_cell_setting 'monoclinic'
loop_
_space_group_symop_operation_xyz
x,y,z
-x,y,-z
-x,-y,-z
x,-y,z
loop_
_atom_site_type_symbol
_atom_site_label
_atom_site_fract_x
_atom_site_fract_y
_atom_site_fract_z
Si Si1 0.260278 0.332061 0.502130
Si Si2 0.969775 0.333642 0.139427
Si Si3 0.003438 0.329823 0.253454
Si Si4 0.576877 0.836893 0.803590
Si Si5 0.661366 0.329865 0.871400
Si Si6 0.255098 0.167745 0.915615
Si Si7 0.839324 0.165516 0.554854
Si Si8 0.634328 0.335160 0.262119
O O1 0.233460 0.500000 0.507965
O O2 0.165202 0.280861 0.616020
O O3 0.168032 0.256422 0.500280
O O4 0.457588 0.291773 0.393296
O O5 0.024882 0.500000 0.104323
O O6 0.994778 0.269259 0.191339
O O7 0.775244 0.313810 0.232436
O O8 0.080264 0.244811 0.029928
O O9 0.012777 0.500000 0.244498
O O10 0.170695 0.270766 0.191572
O O11 0.648027 0.732596 0.813154
O O12 0.381097 0.807467 0.899832
O O13 0.673319 0.807323 0.687595
O O14 0.605879 0.000000 0.808657
O O15 0.665837 0.500000 0.862798
O O16 0.500000 0.277287 0.000000
O O17 0.333291 0.233347 0.811850
O O18 0.222845 0.000000 0.922616
O O19 0.000000 0.220275 0.500000
O O20 0.859661 0.000000 0.525225
O O21 0.630244 0.500000 0.241931
#
# Coordination Sequence:
#
# PCOD8063741 Si02
#       8
#     4   4   4   4   4   4   4   4
#     4  10  20  35  56  82 112 144 184 230 275 327
#     4  10  21  38  59  81 110 146 185 230 279 333
#     4   9  19  36  56  81 113 147 185 230 276 326
#     4  10  21  35  52  78 108 141 179 220 271 325
#     4  10  20  34  54  80 109 145 186 224 270 325
#     4  11  22  37  57  82 114 146 182 230 282 334
#     4  10  20  35  54  77 107 144 183 222 271 326
#     4  10  21  36  57  85 111 143 186 230 280 333
#
# _framework density 19.263933999999999
#
# number of rings (size 3 to 8) (size 9 to 14) (size 15 to 20)
#    0.000    2.000    1.250    2.250    0.000    5.500 
#    0.000    3.750    0.000    0.000    0.000    2.625 
#    0.000    0.000    0.000    0.000    0.000    0.000 
#
# Total GULP energy -396881.978818 kJ/mol
# GULP energy per Si atom -12402.561838 kJ/mol
# Density = 1.922009 g / cm^3
# Si number density = 19.263934 Si / 1000 Ang^3
#
#
#
# Elastic Constant Matrix: (Units=GPa)
#
#
# Indices 1 2 3 4 5 6 
#
# 1 95.9187 34.9343 42.5433 0.0000 -1.5206 0.0000
# 2 34.9343 51.4701 38.5301 0.0000 0.7337 0.0000
# 3 42.5433 38.5301 129.9126 0.0000 -8.2063 0.0000
# 4 0.0000 0.0000 0.0000 12.4353 0.0000 -7.7253
# 5 -1.5206 0.7337 -8.2063 0.0000 29.9586 0.0000
# 6 0.0000 0.0000 0.0000 -7.7253 0.0000 8.5919
#
#
#
# Elastic Compliance Matrix: (Units=1/GPa)
#
#
# Indices 1 2 3 4 5 6 
#
# 1 0.014381 -0.008038 -0.002307 0.000000 0.000295 0.000000
# 2 -0.008038 0.029681 -0.006352 0.000000 -0.002875 0.000000
# 3 -0.002307 -0.006352 0.010521 0.000000 0.002920 0.000000
# 4 0.000000 0.000000 0.000000 0.182180 0.000000 0.163805
# 5 0.000295 -0.002875 0.002920 0.000000 0.034265 0.000000
# 6 0.000000 0.000000 0.000000 0.163805 0.000000 0.263672
#
#
# Mechanical properties :
#
#
# Convention : Reuss Voigt Hill
#
# Bulk Modulus (GPa) = 47.19482 56.59078 51.89280
# Shear Modulus (GPa) = 8.69329 20.95007 14.82168
#
# Velocity S-wave (km/s) = 2.12662 3.30135 2.77682
# Velocity P-wave (km/s) = 5.53012 6.63115 6.10551
#
# Compressibility (1/GPa) = 0.02118877
#
# Stress axis : x y z
#
# Youngs Moduli (GPa) = 69.53691 33.69202 95.04504
#
# Poissons Ratio (x) = 0.27082 0.21925
# Poissons Ratio (y) = 0.55894 0.60374
# Poissons Ratio (z) = 0.16041 0.21402
#
# Static dielectric constant tensor:
#      x y z
#    x 3.518320 0.000000 -0.107360 
#    y 0.000000 3.317780 0.000000 
#    z -0.107360 0.000000 3.757890 
# 
# 
# High freq. dielectric constant tensor:
#      x y z
#    x 1.752060 0.000000 -0.008420 
#    y 0.000000 1.727480 0.000000 
#    z -0.008420 0.000000 1.762000 
# 
# From -- ./inp_files/71629.got.cif
#   From: 2010.06.25/outbox.cif.g09.slc.cpg/sg10_36_cif.got.tgz:71629.got - 2010.06.27 22:07:45.
