data_PCOD8063334
_publ_section_title
;
Structure prediction by ZEFSAII (Michael W. Deem and Ramdas Pophale) SiO2 
 PCOD8063334
Probable space group: P 2/M
;
_chemical_formula_sum "Si O2"
_cell_formula_units_Z 28
_cell_length_a 9.643745
_cell_length_b 17.701700
_cell_length_c 14.122234
_cell_angle_alpha 90.000000
_cell_angle_beta 39.928131
_cell_angle_gamma 90.000000
_cell_volume 1547.325027
_symmetry_space_group_name_H-M "P 2/M"
_symmetry_group_IT_number 10
_symmetry_cell_setting 'monoclinic'
loop_
_space_group_symop_operation_xyz
x,y,z
-x,y,-z
-x,-y,-z
x,-y,z
loop_
_atom_site_type_symbol
_atom_site_label
_atom_site_fract_x
_atom_site_fract_y
_atom_site_fract_z
Si Si1 0.753894 0.913338 0.879131
Si Si2 0.386567 0.332627 0.956252
Si Si3 0.250325 0.268113 0.622285
Si Si4 0.824018 0.641612 0.674056
Si Si5 0.968607 0.198301 0.624677
Si Si6 0.000332 0.583809 0.236751
Si Si7 0.915248 0.800631 0.938801
O O1 0.867461 0.871879 0.731929
O O2 0.833598 0.879559 0.937494
O O3 0.826192 0.000000 0.838464
O O4 0.500000 0.904017 0.000000
O O5 0.566098 0.368352 0.788729
O O6 0.500000 0.320278 0.000000
O O7 0.186543 0.390890 0.065986
O O8 0.288690 0.255827 0.963946
O O9 0.500000 0.255115 0.500000
O O10 0.193149 0.227041 0.553036
O O11 0.198231 0.357639 0.653869
O O12 0.121280 0.228614 0.773751
O O13 0.818272 0.727897 0.716143
O O14 0.891698 0.580723 0.716278
O O15 0.000000 0.633440 0.500000
O O16 0.000000 0.173876 0.500000
O O17 0.916644 0.500000 0.253622
O O18 0.000000 0.813390 0.000000
#
# Coordination Sequence:
#
# PCOD8063334 Si02
#       7
#     4   4   4   4   4   4   4
#     4  10  20  34  53  78 106 133 164 203 246 297
#     4   9  17  32  52  71  97 131 169 209 250 300
#     4   9  19  34  51  74  99 129 172 215 252 294
#     4   9  17  28  47  74 100 123 160 212 252 287
#     4   9  18  33  53  75 101 130 164 207 251 295
#     4   9  18  31  47  69  98 134 167 199 252 309
#     4  10  20  33  53  75 100 135 171 209 252 299
#
# _framework density 18.095745000000001
#
# number of rings (size 3 to 8) (size 9 to 14) (size 15 to 20)
#    0.000    2.714    0.000    3.857    0.000    8.286 
#    0.000    0.000    0.000   13.714    0.000    0.000 
#    0.000    0.000    0.000    0.000    0.000    0.000 
#
# Total GULP energy -346872.291886 kJ/mol
# GULP energy per Si atom -12388.296139 kJ/mol
# Density = 1.805456 g / cm^3
# Si number density = 18.095745 Si / 1000 Ang^3
#
#
#
# Elastic Constant Matrix: (Units=GPa)
#
#
# Indices 1 2 3 4 5 6 
#
# 1 97.6939 37.2208 39.8640 0.0000 7.1016 0.0000
# 2 37.2208 113.5879 26.0289 0.0000 6.7267 0.0000
# 3 39.8640 26.0289 108.6358 0.0000 -7.6744 0.0000
# 4 0.0000 0.0000 0.0000 -88.4866 0.0000 170.4712
# 5 7.1016 6.7267 -7.6744 0.0000 30.6547 0.0000
# 6 0.0000 0.0000 0.0000 170.4712 0.0000 -273.2125
#
#
#
# Elastic Compliance Matrix: (Units=1/GPa)
#
#
# Indices 1 2 3 4 5 6 
#
# 1 0.013529 -0.003204 -0.004447 0.000000 -0.003544 0.000000
# 2 -0.003204 0.010290 -0.001422 0.000000 -0.001872 0.000000
# 3 -0.004447 -0.001422 0.011475 0.000000 0.004215 0.000000
# 4 0.000000 0.000000 0.000000 0.055931 0.000000 0.034898
# 5 -0.003544 -0.001872 0.004215 0.000000 0.034909 0.000000
# 6 0.000000 0.000000 0.000000 0.034898 0.000000 0.018115
#
#
# Mechanical properties :
#
#
# Convention : Reuss Voigt Hill
#
# Bulk Modulus (GPa) = 58.31535 58.46057 58.38796
# Shear Modulus (GPa) = 29.74192 -51.75530 -11.00669
#
# Velocity S-wave (km/s) = 4.05852 -5.35377 -2.46894
# Velocity P-wave (km/s) = 7.36600 2.41678 4.92022
#
# Compressibility (1/GPa) = 0.01714814
#
# Stress axis : x y z
#
# Youngs Moduli (GPa) = 73.91417 97.17753 87.14258
#
# Poissons Ratio (x) = 0.31139 0.38754
# Poissons Ratio (y) = 0.23684 0.12391
# Poissons Ratio (z) = 0.32871 0.13818
#
# Static dielectric constant tensor:
#      x y z
#    x 3.285920 0.000000 -0.120740 
#    y 0.000000 3.222650 0.000000 
#    z -0.120740 0.000000 3.629920 
# 
# 
# High freq. dielectric constant tensor:
#      x y z
#    x 1.680400 0.000000 -0.006000 
#    y 0.000000 1.685170 0.000000 
#    z -0.006000 0.000000 1.706830 
# 
# From -- ./inp_files/30148.got.cif
#   From: 2010.06.25/outbox.cif.g09.slc.cpg/sg10_16_cif.got.tgz:30148.got - 2010.06.27 22:07:45.
