data_PCOD8063450
_publ_section_title
;
Structure prediction by ZEFSAII (Michael W. Deem and Ramdas Pophale) SiO2 
 PCOD8063450
Probable space group: P 2/M
;
_chemical_formula_sum "Si O2"
_cell_formula_units_Z 28
_cell_length_a 14.174008
_cell_length_b 9.208338
_cell_length_c 13.949207
_cell_angle_alpha 90.000000
_cell_angle_beta 102.273968
_cell_angle_gamma 90.000000
_cell_volume 1779.021686
_symmetry_space_group_name_H-M "P 2/M"
_symmetry_group_IT_number 10
_symmetry_cell_setting 'monoclinic'
loop_
_space_group_symop_operation_xyz
x,y,z
-x,y,-z
-x,-y,-z
x,-y,z
loop_
_atom_site_type_symbol
_atom_site_label
_atom_site_fract_x
_atom_site_fract_y
_atom_site_fract_z
Si Si1 0.413252 0.339606 0.556254
Si Si2 0.953367 0.164135 0.094282
Si Si3 0.435088 0.668094 0.077918
Si Si4 0.784214 0.332506 0.982325
Si Si5 0.303441 0.330527 0.355285
Si Si6 0.531501 0.827456 0.723769
Si Si7 0.876552 0.333713 0.799492
O O1 0.500000 0.343513 0.500000
O O2 0.398979 0.500000 0.598838
O O3 0.319606 0.294882 0.471932
O O4 0.436055 0.224913 0.644873
O O5 0.026533 0.238195 0.185523
O O6 0.937235 0.000000 0.123569
O O7 0.849746 0.242678 0.071175
O O8 0.000000 0.177004 0.000000
O O9 0.437118 0.500000 0.111276
O O10 0.326280 0.715293 0.028271
O O11 0.477216 0.768053 0.170810
O O12 0.500000 0.696157 0.000000
O O13 0.799804 0.500000 0.010942
O O14 0.814084 0.297752 0.880087
O O15 0.327757 0.500000 0.339039
O O16 0.371723 0.233494 0.303435
O O17 0.191934 0.297292 0.305968
O O18 0.534551 0.000000 0.724650
O O19 0.910147 0.500000 0.807019
#
# Coordination Sequence:
#
# PCOD8063450 Si02
#       7
#     4   4   4   4   4   4   4
#     4   8  15  27  43  59  80 111 146 177 207 250
#     4   9  17  26  37  57  84 111 139 168 205 254
#     4  10  20  34  50  64  80 109 151 190 219 252
#     4   9  16  28  44  59  78 107 142 178 214 249
#     4   9  16  28  44  62  84 114 148 178 209 250
#     4  11  20  28  41  60  87 115 141 177 219 258
#     4   9  15  25  42  61  83 110 142 175 207 247
#
# _framework density 15.738987
#
# number of rings (size 3 to 8) (size 9 to 14) (size 15 to 20)
#    0.000    2.714    1.429    2.571    0.000    5.714 
#    0.000    0.000    0.000    0.000    0.000    0.000 
#    0.000    1.143    0.000   13.143    0.000    5.143 
#
# Total GULP energy -347098.681714 kJ/mol
# GULP energy per Si atom -12396.381490 kJ/mol
# Density = 1.570316 g / cm^3
# Si number density = 15.738987 Si / 1000 Ang^3
#
#
#
# Elastic Constant Matrix: (Units=GPa)
#
#
# Indices 1 2 3 4 5 6 
#
# 1 75.4975 42.7747 53.6518 0.0000 28.2726 0.0000
# 2 42.7747 101.3242 61.0438 0.0000 19.9000 0.0000
# 3 53.6518 61.0438 90.0413 0.0000 33.4645 0.0000
# 4 0.0000 0.0000 0.0000 12.7030 0.0000 1.8413
# 5 28.2726 19.9000 33.4645 0.0000 30.9093 0.0000
# 6 0.0000 0.0000 0.0000 1.8413 0.0000 9.2075
#
#
#
# Elastic Compliance Matrix: (Units=1/GPa)
#
#
# Indices 1 2 3 4 5 6 
#
# 1 0.025783 -0.003318 -0.008605 0.000000 -0.012131 0.000000
# 2 -0.003318 0.017228 -0.011226 0.000000 0.004096 0.000000
# 3 -0.008605 -0.011226 0.030509 0.000000 -0.017932 0.000000
# 4 0.000000 0.000000 0.000000 0.081071 0.000000 -0.016212
# 5 -0.012131 0.004096 -0.017932 0.000000 0.060227 0.000000
# 6 0.000000 0.000000 0.000000 -0.016212 0.000000 0.111849
#
#
# Mechanical properties :
#
#
# Convention : Reuss Voigt Hill
#
# Bulk Modulus (GPa) = 36.73331 64.64486 50.68908
# Shear Modulus (GPa) = 13.08767 17.85681 15.47224
#
# Velocity S-wave (km/s) = 2.88678 3.37198 3.13877
# Velocity P-wave (km/s) = 5.87376 7.50483 6.73883
#
# Compressibility (1/GPa) = 0.02722325
#
# Stress axis : x y z
#
# Youngs Moduli (GPa) = 38.78455 58.04391 32.77770
#
# Poissons Ratio (x) = 0.19257 0.28206
# Poissons Ratio (y) = 0.12868 0.36795
# Poissons Ratio (z) = 0.33375 0.65157
#
# Static dielectric constant tensor:
#      x y z
#    x 2.834470 0.000000 0.498250 
#    y 0.000000 2.971460 0.000000 
#    z 0.498250 0.000000 3.068460 
# 
# 
# High freq. dielectric constant tensor:
#      x y z
#    x 1.568720 0.000000 0.047070 
#    y 0.000000 1.602120 0.000000 
#    z 0.047070 0.000000 1.582170 
# 
# From -- ./inp_files/65778.got.cif
#   From: 2010.06.25/outbox.cif.g09.slc.cpg/sg10_33_cif.got.tgz:65778.got - 2010.06.27 22:07:45.
