data_PCOD8063226
_publ_section_title
;
Structure prediction by ZEFSAII (Michael W. Deem and Ramdas Pophale) SiO2 
 PCOD8063226
Probable space group: P 2/M
;
_chemical_formula_sum "Si O2"
_cell_formula_units_Z 32
_cell_length_a 15.893950
_cell_length_b 8.822283
_cell_length_c 25.699405
_cell_angle_alpha 90.000000
_cell_angle_beta 29.764292
_cell_angle_gamma 90.000000
_cell_volume 1788.943342
_symmetry_space_group_name_H-M "P 2/M"
_symmetry_group_IT_number 10
_symmetry_cell_setting 'monoclinic'
loop_
_space_group_symop_operation_xyz
x,y,z
-x,y,-z
-x,-y,-z
x,-y,z
loop_
_atom_site_type_symbol
_atom_site_label
_atom_site_fract_x
_atom_site_fract_y
_atom_site_fract_z
Si Si1 0.352091 0.320553 0.146828
Si Si2 0.603692 0.821145 0.396308
Si Si3 0.144667 0.320554 0.354252
Si Si4 0.891901 0.678662 0.108098
Si Si5 0.230677 0.679103 0.422386
Si Si6 0.540235 0.178807 0.315282
Si Si7 0.728513 0.320897 0.924551
Si Si8 0.973685 0.178807 0.170798
O O1 0.345752 0.500000 0.152927
O O2 0.247315 0.247263 0.250895
O O3 0.267716 0.269977 0.137823
O O4 0.547871 0.270559 0.045483
O O5 0.500000 0.745465 0.500000
O O6 0.522540 0.769250 0.385002
O O7 0.799914 0.769253 0.292544
O O8 0.592547 0.000000 0.407451
O O9 0.150283 0.500000 0.348394
O O10 0.232195 0.270561 0.361161
O O11 0.948902 0.269975 0.456639
O O12 0.878493 0.500000 0.121507
O O13 0.704113 0.744900 0.201568
O O14 0.987066 0.744898 0.107251
O O15 0.000000 0.726090 0.000000
O O16 0.261225 0.500000 0.412105
O O17 0.374185 0.771041 0.374411
O O18 0.564604 0.000000 0.298267
O O19 0.758764 0.500000 0.914566
O O20 0.871599 0.228958 0.876996
O O21 0.975995 0.000000 0.161135
#
# Coordination Sequence:
#
# PCOD8063226 Si02
#       8
#     4   4   4   4   4   4   4   4
#     4   8  15  29  48  69  94 126 165 207 246 283
#     4   8  16  32  50  67  92 129 167 196 232 290
#     4   8  15  29  48  69  94 126 165 207 246 283
#     4  10  21  37  56  75  96 127 167 206 242 288
#     4   9  17  30  49  71  95 126 165 205 242 288
#     4  10  20  33  51  75 103 132 160 200 251 297
#     4   9  17  30  49  71  95 126 165 205 242 288
#     4  10  20  33  51  75 103 132 160 200 251 297
#
# _framework density 17.887654999999999
#
# number of rings (size 3 to 8) (size 9 to 14) (size 15 to 20)
#    0.000    3.000    0.000    3.375    0.000    3.000 
#    0.000    5.000    0.000   14.250    0.000    0.000 
#    0.000    0.000    0.000    0.000    0.000    0.000 
#
# Total GULP energy -396685.480802 kJ/mol
# GULP energy per Si atom -12396.421275 kJ/mol
# Density = 1.784694 g / cm^3
# Si number density = 17.887655 Si / 1000 Ang^3
#
#
#
# Elastic Constant Matrix: (Units=GPa)
#
#
# Indices 1 2 3 4 5 6 
#
# 1 146.6661 33.7612 105.2665 0.0000 -9.0895 0.0000
# 2 33.7612 42.4818 37.8979 0.0000 2.6571 0.0000
# 3 105.2665 37.8979 163.1328 0.0000 19.6690 0.0000
# 4 0.0000 0.0000 0.0000 16.8912 0.0000 -1.2340
# 5 -9.0895 2.6571 19.6690 0.0000 32.0976 0.0000
# 6 0.0000 0.0000 0.0000 -1.2340 0.0000 18.8116
#
#
#
# Elastic Compliance Matrix: (Units=1/GPa)
#
#
# Indices 1 2 3 4 5 6 
#
# 1 0.016416 -0.003867 -0.011115 0.000000 0.011780 0.000000
# 2 -0.003867 0.030713 -0.004536 0.000000 -0.000858 0.000000
# 3 -0.011115 -0.004536 0.015862 0.000000 -0.012492 0.000000
# 4 0.000000 0.000000 0.000000 0.059488 0.000000 0.003902
# 5 0.011780 -0.000858 -0.012492 0.000000 0.042217 0.000000
# 6 0.000000 0.000000 0.000000 0.003902 0.000000 0.053415
#
#
# Mechanical properties :
#
#
# Convention : Reuss Voigt Hill
#
# Bulk Modulus (GPa) = 41.74527 78.45908 60.10217
# Shear Modulus (GPa) = 18.85857 25.25041 22.05449
#
# Velocity S-wave (km/s) = 3.25049 3.76122 3.51514
# Velocity P-wave (km/s) = 6.12174 7.92589 7.08150
#
# Compressibility (1/GPa) = 0.02395481
#
# Stress axis : x y z
#
# Youngs Moduli (GPa) = 60.91689 32.55921 63.04368
#
# Poissons Ratio (x) = 0.12592 0.70071
# Poissons Ratio (y) = 0.23559 0.28597
# Poissons Ratio (z) = 0.67707 0.14769
#
# Static dielectric constant tensor:
#      x y z
#    x 3.421420 0.000000 0.264980 
#    y 0.000000 2.955480 0.000000 
#    z 0.264980 0.000000 3.833910 
# 
# 
# High freq. dielectric constant tensor:
#      x y z
#    x 1.697370 0.000000 0.001550 
#    y 0.000000 1.660540 0.000000 
#    z 0.001550 0.000000 1.699780 
# 
# From -- ./inp_files/89480.got.cif
#   From: 2010.06.25/outbox.cif.g09.slc.cpg/sg10_45_cif.got.tgz:89480.got - 2010.06.27 22:07:45.
