data_PCOD8063780
_publ_section_title
;
Structure prediction by ZEFSAII (Michael W. Deem and Ramdas Pophale) SiO2 
 PCOD8063780
Probable space group: P 2/M
;
_chemical_formula_sum "Si O2"
_cell_formula_units_Z 28
_cell_length_a 15.058244
_cell_length_b 8.668249
_cell_length_c 11.886569
_cell_angle_alpha 90.000000
_cell_angle_beta 119.972720
_cell_angle_gamma 90.000000
_cell_volume 1344.039938
_symmetry_space_group_name_H-M "P 2/M"
_symmetry_group_IT_number 10
_symmetry_cell_setting 'monoclinic'
loop_
_space_group_symop_operation_xyz
x,y,z
-x,y,-z
-x,-y,-z
x,-y,z
loop_
_atom_site_type_symbol
_atom_site_label
_atom_site_fract_x
_atom_site_fract_y
_atom_site_fract_z
Si Si1 0.792293 0.827950 0.729577
Si Si2 0.816414 0.323761 0.152872
Si Si3 0.019538 0.173074 0.887029
Si Si4 0.286766 0.321609 0.527891
Si Si5 0.504425 0.181161 0.371403
Si Si6 0.306461 0.680402 0.134241
Si Si7 0.118579 0.819552 0.579815
O O1 0.728896 0.708397 0.614352
O O2 0.781584 0.771441 0.851690
O O3 0.908216 0.832925 0.758824
O O4 0.743749 0.000000 0.687633
O O5 0.815104 0.500000 0.194411
O O6 0.914613 0.298456 0.136217
O O7 0.826872 0.212980 0.266360
O O8 0.715612 0.286450 0.012818
O O9 0.068753 0.000000 0.915692
O O10 0.000000 0.231167 0.000000
O O11 0.303560 0.500000 0.563874
O O12 0.390665 0.231211 0.624499
O O13 0.186809 0.262718 0.529463
O O14 0.500000 0.233503 0.500000
O O15 0.417009 0.262188 0.242449
O O16 0.489880 0.000000 0.351974
O O17 0.295326 0.500000 0.151001
O O18 0.000000 0.759565 0.500000
O O19 0.120302 0.000000 0.556741
#
# Coordination Sequence:
#
# PCOD8063780 Si02
#       7
#     4   4   4   4   4   4   4
#     4  11  21  35  57  87 124 164 209 256 307 374
#     4  11  24  40  61  91 128 166 209 263 322 379
#     4  10  20  34  54  83 120 163 207 251 306 372
#     4  12  25  41  65  94 128 165 208 265 323 377
#     4  11  23  40  65  95 128 168 214 263 314 379
#     4  11  23  38  59  91 128 164 204 256 319 377
#     4  11  25  46  70  94 125 169 219 264 310 375
#
# _framework density 20.832712999999998
#
# number of rings (size 3 to 8) (size 9 to 14) (size 15 to 20)
#    0.000    1.000    2.857    4.286    0.000    8.286 
#    0.000    0.714    0.000    4.286    0.000    0.000 
#    0.000    0.000    0.000    0.000    0.000    0.000 
#
# Total GULP energy -347166.091814 kJ/mol
# GULP energy per Si atom -12398.788993 kJ/mol
# Density = 2.078530 g / cm^3
# Si number density = 20.832713 Si / 1000 Ang^3
#
#
#
# Elastic Constant Matrix: (Units=GPa)
#
#
# Indices 1 2 3 4 5 6 
#
# 1 83.1598 23.6036 22.0202 0.0000 12.0020 0.0000
# 2 23.6036 67.4130 28.1879 0.0000 4.2437 0.0000
# 3 22.0202 28.1879 107.3632 0.0000 7.4939 0.0000
# 4 0.0000 0.0000 0.0000 31.0533 0.0000 -0.4192
# 5 12.0020 4.2437 7.4939 0.0000 30.7159 0.0000
# 6 0.0000 0.0000 0.0000 -0.4192 0.0000 31.8216
#
#
#
# Elastic Compliance Matrix: (Units=1/GPa)
#
#
# Indices 1 2 3 4 5 6 
#
# 1 0.014252 -0.004057 -0.001534 0.000000 -0.004634 0.000000
# 2 -0.004057 0.017866 -0.003863 0.000000 0.000059 0.000000
# 3 -0.001534 -0.003863 0.010747 0.000000 -0.001489 0.000000
# 4 0.000000 0.000000 0.000000 0.032208 0.000000 0.000424
# 5 -0.004634 0.000059 -0.001489 0.000000 0.034722 0.000000
# 6 0.000000 0.000000 0.000000 0.000424 0.000000 0.031431
#
#
# Mechanical properties :
#
#
# Convention : Reuss Voigt Hill
#
# Bulk Modulus (GPa) = 41.74218 45.06214 43.40216
# Shear Modulus (GPa) = 29.74090 30.99313 30.36701
#
# Velocity S-wave (km/s) = 3.78247 3.86127 3.82207
# Velocity P-wave (km/s) = 6.25751 6.44645 6.35268
#
# Compressibility (1/GPa) = 0.02395658
#
# Stress axis : x y z
#
# Youngs Moduli (GPa) = 70.16775 55.97316 93.04952
#
# Poissons Ratio (x) = 0.22706 0.14278
# Poissons Ratio (y) = 0.28464 0.35942
# Poissons Ratio (z) = 0.10767 0.21621
#
# Static dielectric constant tensor:
#      x y z
#    x 3.746000 0.000000 0.125380 
#    y 0.000000 3.707830 0.000000 
#    z 0.125380 0.000000 3.986810 
# 
# 
# High freq. dielectric constant tensor:
#      x y z
#    x 1.801240 0.000000 0.014250 
#    y 0.000000 1.818050 0.000000 
#    z 0.014250 0.000000 1.821440 
# 
# From -- ./inp_files/50077.got.cif
#   From: 2010.06.25/outbox.cif.g09.slc.cpg/sg10_26_cif.got.tgz:50077.got - 2010.06.27 22:07:45.
