data_PCOD8063562
_publ_section_title
;
Structure prediction by ZEFSAII (Michael W. Deem and Ramdas Pophale) SiO2 
 PCOD8063562
Probable space group: P 2/M
;
_chemical_formula_sum "Si O2"
_cell_formula_units_Z 32
_cell_length_a 17.147139
_cell_length_b 9.698066
_cell_length_c 18.704393
_cell_angle_alpha 90.000000
_cell_angle_beta 34.015003
_cell_angle_gamma 90.000000
_cell_volume 1740.005513
_symmetry_space_group_name_H-M "P 2/M"
_symmetry_group_IT_number 10
_symmetry_cell_setting 'monoclinic'
loop_
_space_group_symop_operation_xyz
x,y,z
-x,y,-z
-x,-y,-z
x,-y,z
loop_
_atom_site_type_symbol
_atom_site_label
_atom_site_fract_x
_atom_site_fract_y
_atom_site_fract_z
Si Si1 0.950884 0.346198 0.459975
Si Si2 0.368697 0.652265 0.280889
Si Si3 0.116706 0.842939 0.237913
Si Si4 0.906314 0.159013 0.138857
Si Si5 0.378142 0.842787 0.139752
Si Si6 0.158955 0.157921 0.045335
Si Si7 0.388886 0.657790 0.798458
Si Si8 0.628949 0.339814 0.351776
O O1 0.015935 0.500000 0.403724
O O2 0.787224 0.351108 0.572530
O O3 0.000000 0.285359 0.500000
O O4 0.995456 0.252611 0.359806
O O5 0.410823 0.500000 0.220586
O O6 0.375956 0.762269 0.213970
O O7 0.470710 0.699049 0.266728
O O8 0.238030 0.826738 0.202703
O O9 0.164996 0.792353 0.123080
O O10 0.063028 0.000000 0.273746
O O11 0.769234 0.250798 0.256773
O O12 0.001295 0.174329 0.137155
O O13 0.860299 0.000000 0.161570
O O14 0.000000 0.209207 0.000000
O O15 0.411645 0.000000 0.134027
O O16 0.500000 0.777882 0.000000
O O17 0.209105 0.000000 0.000627
O O18 0.261331 0.248722 0.920161
O O19 0.345965 0.500000 0.845520
O O20 0.421488 0.682669 0.690777
O O21 0.500000 0.290774 0.500000
O O22 0.664978 0.500000 0.340067
#
# Coordination Sequence:
#
# PCOD8063562 Si02
#       8
#     4   4   4   4   4   4   4   4
#     4  10  20  36  56  77 106 146 187 228 277 330
#     4  10  21  36  54  77 107 145 185 226 274 329
#     4  10  21  35  54  80 109 141 180 230 277 327
#     4  10  20  37  62  89 116 154 197 238 291 351
#     4  10  20  34  52  76 105 139 179 221 271 326
#     4  10  21  38  59  85 117 147 185 237 288 338
#     4  10  21  37  57  83 114 148 189 234 283 338
#     4  10  22  39  60  88 122 157 195 240 290 347
#
# _framework density 18.390744999999999
#
# number of rings (size 3 to 8) (size 9 to 14) (size 15 to 20)
#    0.000    2.000    2.500    0.750    0.000    5.000 
#    0.000    1.250    0.000    0.000    0.000    0.000 
#    0.000    0.000    0.000    0.000    0.000    0.000 
#
# Total GULP energy -396774.015652 kJ/mol
# GULP energy per Si atom -12399.187989 kJ/mol
# Density = 1.834889 g / cm^3
# Si number density = 18.390745 Si / 1000 Ang^3
#
#
#
# Elastic Constant Matrix: (Units=GPa)
#
#
# Indices 1 2 3 4 5 6 
#
# 1 102.8253 44.8344 43.0209 0.0000 8.2298 0.0000
# 2 44.8344 73.1839 61.4971 0.0000 8.8211 0.0000
# 3 43.0209 61.4971 118.8075 0.0000 9.7099 0.0000
# 4 0.0000 0.0000 0.0000 32.2526 0.0000 0.9260
# 5 8.2298 8.8211 9.7099 0.0000 33.3934 0.0000
# 6 0.0000 0.0000 0.0000 0.9260 0.0000 30.7878
#
#
#
# Elastic Compliance Matrix: (Units=1/GPa)
#
#
# Indices 1 2 3 4 5 6 
#
# 1 0.013384 -0.007203 -0.001028 0.000000 -0.001097 0.000000
# 2 -0.007203 0.028321 -0.011867 0.000000 -0.002255 0.000000
# 3 -0.001028 -0.011867 0.015012 0.000000 -0.000977 0.000000
# 4 0.000000 0.000000 0.000000 0.031032 0.000000 -0.000933
# 5 -0.001097 -0.002255 -0.000977 0.000000 0.031096 0.000000
# 6 0.000000 0.000000 0.000000 -0.000933 0.000000 0.032509
#
#
# Mechanical properties :
#
#
# Convention : Reuss Voigt Hill
#
# Bulk Modulus (GPa) = 60.53284 65.94684 63.23984
# Shear Modulus (GPa) = 25.37356 28.98438 27.17897
#
# Velocity S-wave (km/s) = 3.71845 3.97423 3.84847
# Velocity P-wave (km/s) = 7.17092 7.54956 7.36268
#
# Compressibility (1/GPa) = 0.01651996
#
# Stress axis : x y z
#
# Youngs Moduli (GPa) = 74.71628 35.31010 66.61519
#
# Poissons Ratio (x) = 0.25434 0.06850
# Poissons Ratio (y) = 0.53819 0.79050
# Poissons Ratio (z) = 0.07683 0.41901
#
# Static dielectric constant tensor:
#      x y z
#    x 3.514250 0.000000 0.007070 
#    y 0.000000 3.477310 0.000000 
#    z 0.007070 0.000000 3.324240 
# 
# 
# High freq. dielectric constant tensor:
#      x y z
#    x 1.722340 0.000000 -0.002940 
#    y 0.000000 1.710940 0.000000 
#    z -0.002940 0.000000 1.707680 
# 
# From -- ./inp_files/78184.got.cif
#   From: 2010.06.25/outbox.cif.g09.slc.cpg/sg10_40_cif.got.tgz:78184.got - 2010.06.27 22:07:45.
