data_PCOD8063228
_publ_section_title
;
Structure prediction by ZEFSAII (Michael W. Deem and Ramdas Pophale) SiO2 
 PCOD8063228
Probable space group: P 2/M
;
_chemical_formula_sum "Si O2"
_cell_formula_units_Z 28
_cell_length_a 14.208965
_cell_length_b 9.666920
_cell_length_c 17.438859
_cell_angle_alpha 90.000000
_cell_angle_beta 137.978047
_cell_angle_gamma 90.000000
_cell_volume 1603.482654
_symmetry_space_group_name_H-M "P 2/M"
_symmetry_group_IT_number 10
_symmetry_cell_setting 'monoclinic'
loop_
_space_group_symop_operation_xyz
x,y,z
-x,y,-z
-x,-y,-z
x,-y,z
loop_
_atom_site_type_symbol
_atom_site_label
_atom_site_fract_x
_atom_site_fract_y
_atom_site_fract_z
Si Si1 0.141493 0.336275 0.622226
Si Si2 0.216436 0.839770 0.266187
Si Si3 0.105508 0.159268 0.910278
Si Si4 0.243351 0.341976 0.423097
Si Si5 0.081697 0.340667 0.754974
Si Si6 0.335853 0.161123 0.174791
Si Si7 0.394458 0.662509 0.670720
O O1 0.132408 0.500000 0.607227
O O2 0.153521 0.294835 0.718740
O O3 0.277802 0.281863 0.659734
O O4 0.000000 0.270794 0.500000
O O5 0.285621 0.753176 0.376948
O O6 0.292252 0.796247 0.234008
O O7 0.051851 0.804461 0.158040
O O8 0.239541 0.000000 0.299027
O O9 0.148968 0.249464 0.862986
O O10 0.118870 0.000000 0.894272
O O11 0.206091 0.196581 0.041283
O O12 0.262852 0.500000 0.409075
O O13 0.344654 0.304491 0.554528
O O14 0.084454 0.314195 0.353925
O O15 0.113482 0.500000 0.793105
O O16 0.465865 0.252786 0.226414
O O17 0.376189 0.000000 0.194496
O O18 0.423458 0.500000 0.699377
#
# Coordination Sequence:
#
# PCOD8063228 Si02
#       7
#     4   4   4   4   4   4   4
#     4   9  15  29  54  78  99 128 164 199 240 292
#     4   9  18  33  54  74  93 126 172 210 242 288
#     4   9  18  34  54  73  96 128 168 209 247 287
#     4   9  17  30  49  76 104 127 156 201 253 294
#     4   9  16  29  53  80 100 122 160 207 248 288
#     4  10  21  36  51  69  98 136 170 203 244 291
#     4  10  20  33  51  75 103 133 164 199 243 296
#
# _framework density 17.461991999999999
#
# number of rings (size 3 to 8) (size 9 to 14) (size 15 to 20)
#    0.000    2.714    1.429    0.429    0.000    4.000 
#    0.000    4.286    0.000    9.429    0.000    0.000 
#    0.000    0.000    0.000    0.000    0.000    0.000 
#
# Total GULP energy -347232.286885 kJ/mol
# GULP energy per Si atom -12401.153103 kJ/mol
# Density = 1.742225 g / cm^3
# Si number density = 17.461992 Si / 1000 Ang^3
#
#
#
# Elastic Constant Matrix: (Units=GPa)
#
#
# Indices 1 2 3 4 5 6 
#
# 1 108.1941 37.8994 26.9359 0.0000 -5.9419 0.0000
# 2 37.8994 45.8027 25.5175 0.0000 -4.2793 0.0000
# 3 26.9359 25.5175 37.2970 0.0000 -1.7195 0.0000
# 4 0.0000 0.0000 0.0000 23.9180 0.0000 4.2410
# 5 -5.9419 -4.2793 -1.7195 0.0000 22.0366 0.0000
# 6 0.0000 0.0000 0.0000 4.2410 0.0000 21.6125
#
#
#
# Elastic Compliance Matrix: (Units=1/GPa)
#
#
# Indices 1 2 3 4 5 6 
#
# 1 0.013323 -0.008978 -0.003406 0.000000 0.001583 0.000000
# 2 -0.008978 0.041885 -0.021988 0.000000 0.003997 0.000000
# 3 -0.003406 -0.021988 0.044235 0.000000 -0.001737 0.000000
# 4 0.000000 0.000000 0.000000 0.043317 0.000000 -0.008500
# 5 0.001583 0.003997 -0.001737 0.000000 0.046447 0.000000
# 6 0.000000 0.000000 0.000000 -0.008500 0.000000 0.047938
#
#
# Mechanical properties :
#
#
# Convention : Reuss Voigt Hill
#
# Bulk Modulus (GPa) = 32.57528 41.33327 36.95428
# Shear Modulus (GPa) = 15.81668 20.24280 18.02974
#
# Velocity S-wave (km/s) = 3.01288 3.40847 3.21676
# Velocity P-wave (km/s) = 5.54966 6.26195 5.91653
#
# Compressibility (1/GPa) = 0.03069813
#
# Stress axis : x y z
#
# Youngs Moduli (GPa) = 75.06078 23.87463 22.60641
#
# Poissons Ratio (x) = 0.21436 0.07699
# Poissons Ratio (y) = 0.67392 0.49708
# Poissons Ratio (z) = 0.25564 0.52496
#
# Static dielectric constant tensor:
#      x y z
#    x 3.321420 0.000000 -0.116990 
#    y 0.000000 3.080150 0.000000 
#    z -0.116990 0.000000 3.155740 
# 
# 
# High freq. dielectric constant tensor:
#      x y z
#    x 1.675110 0.000000 -0.009940 
#    y 0.000000 1.654870 0.000000 
#    z -0.009940 0.000000 1.668690 
# 
# From -- ./inp_files/48738.got.cif
#   From: 2010.06.25/outbox.cif.g09.slc.cpg/sg10_25_cif.got.tgz:48738.got - 2010.06.27 22:07:45.
