data_PCOD8063768
_publ_section_title
;
Structure prediction by ZEFSAII (Michael W. Deem and Ramdas Pophale) SiO2 
 PCOD8063768
Probable space group: P 2/M
;
_chemical_formula_sum "Si O2"
_cell_formula_units_Z 28
_cell_length_a 18.708635
_cell_length_b 11.631624
_cell_length_c 23.049559
_cell_angle_alpha 90.000000
_cell_angle_beta 17.863228
_cell_angle_gamma 90.000000
_cell_volume 1538.592967
_symmetry_space_group_name_H-M "P 2/M"
_symmetry_group_IT_number 10
_symmetry_cell_setting 'monoclinic'
loop_
_space_group_symop_operation_xyz
x,y,z
-x,y,-z
-x,-y,-z
x,-y,z
loop_
_atom_site_type_symbol
_atom_site_label
_atom_site_fract_x
_atom_site_fract_y
_atom_site_fract_z
Si Si1 0.523099 0.500000 0.886605
Si Si2 0.701459 0.131956 0.495548
Si Si3 0.204948 0.871290 0.295054
Si Si4 0.174616 0.135987 0.912691
Si Si5 0.115685 0.500000 0.294006
Si Si6 0.497167 0.257992 0.850917
Si Si7 0.895160 0.742003 0.452922
Si Si8 0.913416 0.131956 0.889573
O O1 0.772390 0.500000 0.727614
O O2 0.499299 0.392724 0.862184
O O3 0.317715 0.500000 0.091143
O O4 0.436713 0.177248 0.695824
O O5 0.845787 0.213743 0.426767
O O6 0.706751 0.000000 0.514436
O O7 0.822788 0.140249 0.338605
O O8 0.430099 0.807218 0.146399
O O9 0.124093 0.807225 0.299407
O O10 0.000000 0.867582 0.500000
O O11 0.276894 0.000000 0.223099
O O12 0.093431 0.177238 0.039105
O O13 0.160214 0.000000 0.919891
O O14 0.000000 0.190990 0.000000
O O15 0.946612 0.607277 0.414863
O O16 0.244415 0.213761 0.028134
O O17 0.671223 0.227588 0.664390
O O18 0.821996 0.000000 0.956815
#
# Coordination Sequence:
#
# PCOD8063768 Si02
#       8
#     2   4   4   4   2   4   4   4
#     4  11  23  37  51  71 105 144 189 241 283 321
#     4  10  20  34  54  82 115 147 181 224 272 324
#     4   9  18  29  47  74 102 138 182 225 269 318
#     4   9  18  34  56  82 113 146 178 216 269 333
#     4  11  23  37  51  71 105 144 189 241 283 321
#     4  11  20  34  54  74 104 143 188 232 273 320
#     4  11  20  34  54  74 104 143 188 232 273 320
#     4  10  20  34  54  82 115 147 181 224 272 324
#
# _framework density 18.198446000000001
#
# number of rings (size 3 to 8) (size 9 to 14) (size 15 to 20)
#    0.000    1.857    2.857    2.143    0.000    2.286 
#    0.000    2.857    0.000    3.429    0.000    2.000 
#    0.000    3.429    0.000    0.000    0.000    0.000 
#
# Total GULP energy -347250.393424 kJ/mol
# GULP energy per Si atom -12401.799765 kJ/mol
# Density = 1.815703 g / cm^3
# Si number density = 18.198446 Si / 1000 Ang^3
#
#
#
# Elastic Constant Matrix: (Units=GPa)
#
#
# Indices 1 2 3 4 5 6 
#
# 1 126.6758 41.8073 56.1655 0.0000 -16.4202 0.0000
# 2 41.8073 99.2638 17.5206 0.0000 -9.4436 0.0000
# 3 56.1655 17.5206 94.2291 0.0000 3.8115 0.0000
# 4 0.0000 0.0000 0.0000 16.2257 0.0000 3.2750
# 5 -16.4202 -9.4436 3.8115 0.0000 22.0052 0.0000
# 6 0.0000 0.0000 0.0000 3.2750 0.0000 7.7875
#
#
#
# Elastic Compliance Matrix: (Units=1/GPa)
#
#
# Indices 1 2 3 4 5 6 
#
# 1 0.013972 -0.003471 -0.008101 0.000000 0.010339 0.000000
# 2 -0.003471 0.011817 -0.000230 0.000000 0.002521 0.000000
# 3 -0.008101 -0.000230 0.015843 0.000000 -0.008888 0.000000
# 4 0.000000 0.000000 0.000000 0.067347 0.000000 -0.028322
# 5 0.010339 0.002521 -0.008888 0.000000 0.055780 0.000000
# 6 0.000000 0.000000 0.000000 -0.028322 0.000000 0.140321
#
#
# Mechanical properties :
#
#
# Convention : Reuss Voigt Hill
#
# Bulk Modulus (GPa) = 55.47050 61.23949 58.35500
# Shear Modulus (GPa) = 14.93911 22.84871 18.89391
#
# Velocity S-wave (km/s) = 2.86824 3.54719 3.22563
# Velocity P-wave (km/s) = 6.44330 7.10639 6.78295
#
# Compressibility (1/GPa) = 0.01802760
#
# Stress axis : x y z
#
# Youngs Moduli (GPa) = 71.57393 84.62721 63.11890
#
# Poissons Ratio (x) = 0.29374 0.51130
# Poissons Ratio (y) = 0.24844 0.01453
# Poissons Ratio (z) = 0.57979 0.01948
#
# Static dielectric constant tensor:
#      x y z
#    x 3.353220 0.000000 0.006520 
#    y 0.000000 3.180540 0.000000 
#    z 0.006520 0.000000 3.369480 
# 
# 
# High freq. dielectric constant tensor:
#      x y z
#    x 1.690560 0.000000 0.007870 
#    y 0.000000 1.681190 0.000000 
#    z 0.007870 0.000000 1.710750 
# 
# From -- ./inp_files/85832.got.cif
#   From: 2010.06.25/outbox.cif.g09.slc.cpg/sg10_43_cif.got.tgz:85832.got - 2010.06.27 22:07:45.
