data_PCOD8063128
_publ_section_title
;
Structure prediction by ZEFSAII (Michael W. Deem and Ramdas Pophale) SiO2 
 PCOD8063128
Probable space group: P 2/M
;
_chemical_formula_sum "Si O2"
_cell_formula_units_Z 32
_cell_length_a 25.653549
_cell_length_b 8.744500
_cell_length_c 24.524412
_cell_angle_alpha 90.000000
_cell_angle_beta 17.011996
_cell_angle_gamma 90.000000
_cell_volume 1609.584133
_symmetry_space_group_name_H-M "P 2/M"
_symmetry_group_IT_number 10
_symmetry_cell_setting 'monoclinic'
loop_
_space_group_symop_operation_xyz
x,y,z
-x,y,-z
-x,-y,-z
x,-y,z
loop_
_atom_site_type_symbol
_atom_site_label
_atom_site_fract_x
_atom_site_fract_y
_atom_site_fract_z
Si Si1 0.725690 0.819657 0.882650
Si Si2 0.982048 0.680170 0.332744
Si Si3 0.314364 0.180098 0.299890
Si Si4 0.667368 0.817834 0.453090
Si Si5 0.271441 0.182666 0.840843
Si Si6 0.710968 0.328304 0.785902
Si Si7 0.289543 0.166813 0.705795
Si Si8 0.022625 0.818850 0.779772
O O1 0.788686 0.758490 0.760673
O O2 0.847635 0.745949 0.806464
O O3 0.750920 0.000000 0.858071
O O4 0.521137 0.772975 0.099508
O O5 0.978445 0.500000 0.343372
O O6 0.795945 0.748106 0.540361
O O7 0.003175 0.725540 0.249179
O O8 0.230206 0.241402 0.327647
O O9 0.290386 0.000000 0.324829
O O10 0.466723 0.758209 0.664371
O O11 0.747476 0.749151 0.315466
O O12 0.788702 0.770267 0.382698
O O13 0.667130 0.000000 0.446584
O O14 0.222432 0.249407 0.828974
O O15 0.271707 0.000000 0.836553
O O16 0.130239 0.238722 0.026276
O O17 0.788035 0.500000 0.707532
O O18 0.500000 0.328705 0.000000
O O19 0.500000 0.147567 0.500000
O O20 0.198086 0.000000 0.795163
O O21 0.011133 0.000000 0.779796
#
# Coordination Sequence:
#
# PCOD8063128 Si02
#       8
#     4   4   4   4   4   4   4   4
#     4  10  21  39  63  88 114 145 183 229 278 326
#     4  12  26  41  56  77 109 148 192 236 277 328
#     4  10  21  39  63  88 114 145 183 229 278 326
#     4   8  14  25  43  69 101 132 162 206 264 320
#     4   8  14  25  43  69 101 132 162 206 264 320
#     4   9  17  32  57  90 124 151 177 214 267 332
#     4   7  10  19  37  65 100 130 156 196 258 323
#     4  10  20  33  49  71  98 132 179 224 264 316
#
# _framework density 19.880911999999999
#
# number of rings (size 3 to 8) (size 9 to 14) (size 15 to 20)
#    0.000    2.750    0.000    3.750    0.000    5.000 
#    0.000    7.500    0.000    0.000    0.000    1.750 
#    0.000    3.000    0.000    0.000    0.000    0.000 
#
# Total GULP energy -396565.549664 kJ/mol
# GULP energy per Si atom -12392.673427 kJ/mol
# Density = 1.983566 g / cm^3
# Si number density = 19.880912 Si / 1000 Ang^3
#
#
#
# Elastic Constant Matrix: (Units=GPa)
#
#
# Indices 1 2 3 4 5 6 
#
# 1 94.9188 22.1621 4.4602 0.0000 -1.8362 0.0000
# 2 22.1621 66.5809 16.3282 0.0000 -0.7775 0.0000
# 3 4.4602 16.3282 52.7906 0.0000 6.4012 0.0000
# 4 0.0000 0.0000 0.0000 13.7644 0.0000 -4.3139
# 5 -1.8362 -0.7775 6.4012 0.0000 36.9463 0.0000
# 6 0.0000 0.0000 0.0000 -4.3139 0.0000 0.2482
#
#
#
# Elastic Compliance Matrix: (Units=1/GPa)
#
#
# Indices 1 2 3 4 5 6 
#
# 1 0.011433 -0.003841 0.000166 0.000000 0.000459 0.000000
# 2 -0.003841 0.017598 -0.005251 0.000000 0.001089 0.000000
# 3 0.000166 -0.005251 0.021006 0.000000 -0.003742 0.000000
# 4 0.000000 0.000000 0.000000 -0.016336 0.000000 -0.283933
# 5 0.000459 0.001089 -0.003742 0.000000 0.027760 0.000000
# 6 0.000000 0.000000 0.000000 -0.283933 0.000000 -0.905946
#
#
# Mechanical properties :
#
#
# Convention : Reuss Voigt Hill
#
# Bulk Modulus (GPa) = 31.06819 33.35458 32.21138
# Shear Modulus (GPa) = -6.12817 21.61443 7.74313
#
# Velocity S-wave (km/s) = -1.75759 3.30084 1.97565
# Velocity P-wave (km/s) = 3.39739 5.59830 4.63051
#
# Compressibility (1/GPa) = 0.03218726
#
# Stress axis : x y z
#
# Youngs Moduli (GPa) = 87.46443 56.82372 47.60442
#
# Poissons Ratio (x) = 0.21827 -0.00793
# Poissons Ratio (y) = 0.33596 0.24996
# Poissons Ratio (z) = -0.01456 0.29836
#
# Static dielectric constant tensor:
#      x y z
#    x 3.839120 0.000000 0.063400 
#    y 0.000000 3.198170 0.000000 
#    z 0.063400 0.000000 3.701110 
# 
# 
# High freq. dielectric constant tensor:
#      x y z
#    x 1.784800 0.000000 0.003000 
#    y 0.000000 1.726300 0.000000 
#    z 0.003000 0.000000 1.775480 
# 
# From -- ./inp_files/90626.got.cif
#   From: 2010.06.25/outbox.cif.g09.slc.cpg/sg10_46_cif.got.tgz:90626.got - 2010.06.27 22:07:45.
