data_PCOD8063570
_publ_section_title
;
Structure prediction by ZEFSAII (Michael W. Deem and Ramdas Pophale) SiO2 
 PCOD8063570
Probable space group: P 2/M
;
_chemical_formula_sum "Si O2"
_cell_formula_units_Z 32
_cell_length_a 15.139850
_cell_length_b 8.744921
_cell_length_c 23.050513
_cell_angle_alpha 90.000000
_cell_angle_beta 31.791239
_cell_angle_gamma 90.000000
_cell_volume 1607.774444
_symmetry_space_group_name_H-M "P 2/M"
_symmetry_group_IT_number 10
_symmetry_cell_setting 'monoclinic'
loop_
_space_group_symop_operation_xyz
x,y,z
-x,y,-z
-x,-y,-z
x,-y,z
loop_
_atom_site_type_symbol
_atom_site_label
_atom_site_fract_x
_atom_site_fract_y
_atom_site_fract_z
Si Si1 0.431054 0.679750 0.874331
Si Si2 0.863492 0.178461 0.119681
Si Si3 0.497185 0.818017 0.715818
Si Si4 0.684104 0.175518 0.810612
Si Si5 0.088977 0.178177 0.097129
Si Si6 0.224002 0.331595 0.519197
Si Si7 0.964140 0.818660 0.742611
Si Si8 0.075226 0.668406 0.400145
O O1 0.441623 0.500000 0.864055
O O2 0.523853 0.749437 0.765583
O O3 0.513991 0.733299 0.889870
O O4 0.239274 0.732376 0.982526
O O5 0.679423 0.246146 0.210620
O O6 0.920623 0.209293 0.154005
O O7 0.853240 0.000000 0.111719
O O8 0.000000 0.253369 0.000000
O O9 0.634348 0.765443 0.592365
O O10 0.504533 0.000000 0.716343
O O11 0.795006 0.238699 0.802931
O O12 0.796247 0.201862 0.691098
O O13 0.635579 0.000000 0.847066
O O14 0.055445 0.237511 0.180642
O O15 0.137251 0.000000 0.070057
O O16 0.293727 0.500000 0.498271
O O17 0.142147 0.246424 0.620464
O O18 0.071444 0.356125 0.562248
O O19 0.974148 0.000000 0.730600
O O20 0.161941 0.500000 0.361440
O O21 0.000000 0.737502 0.500000
#
# Coordination Sequence:
#
# PCOD8063570 Si02
#       8
#     4   4   4   4   4   4   4   4
#     4  12  24  36  53  83 118 150 187 230 285 343
#     4   9  17  34  61  89 112 139 181 231 287 339
#     4  11  21  36  60  87 115 146 185 235 283 335
#     4  10  20  34  52  77 108 145 189 233 274 322
#     4  10  20  39  63  84 110 146 189 237 284 333
#     4  10  20  34  54  81 116 153 186 228 280 333
#     4   9  20  38  60  83 110 149 196 237 274 325
#     4   9  17  30  48  71 103 142 182 226 278 330
#
# _framework density 19.903288
#
# number of rings (size 3 to 8) (size 9 to 14) (size 15 to 20)
#    0.000    2.000    1.250    3.000    0.000    3.250 
#    0.000    5.000    0.000    3.750    0.000    0.000 
#    0.000    0.000    0.000    0.000    0.000    0.000 
#
# Total GULP energy -396550.956743 kJ/mol
# GULP energy per Si atom -12392.217398 kJ/mol
# Density = 1.985799 g / cm^3
# Si number density = 19.903288 Si / 1000 Ang^3
#
#
#
# Elastic Constant Matrix: (Units=GPa)
#
#
# Indices 1 2 3 4 5 6 
#
# 1 93.4327 27.9815 31.1932 0.0000 8.5515 0.0000
# 2 27.9815 77.6745 28.1372 0.0000 -2.4205 0.0000
# 3 31.1932 28.1372 85.5471 0.0000 4.1640 0.0000
# 4 0.0000 0.0000 0.0000 23.8617 0.0000 1.3828
# 5 8.5515 -2.4205 4.1640 0.0000 28.8898 0.0000
# 6 0.0000 0.0000 0.0000 1.3828 0.0000 10.8863
#
#
#
# Elastic Compliance Matrix: (Units=1/GPa)
#
#
# Indices 1 2 3 4 5 6 
#
# 1 0.013296 -0.003651 -0.003465 0.000000 -0.003742 0.000000
# 2 -0.003651 0.015726 -0.003986 0.000000 0.002973 0.000000
# 3 -0.003465 -0.003986 0.014331 0.000000 -0.001374 0.000000
# 4 0.000000 0.000000 0.000000 0.042219 0.000000 -0.005363
# 5 -0.003742 0.002973 -0.001374 0.000000 0.036169 0.000000
# 6 0.000000 0.000000 0.000000 -0.005363 0.000000 0.092540
#
#
# Mechanical properties :
#
#
# Convention : Reuss Voigt Hill
#
# Bulk Modulus (GPa) = 47.28444 47.91979 47.60212
# Shear Modulus (GPa) = 20.53106 24.01705 22.27405
#
# Velocity S-wave (km/s) = 3.21525 3.47751 3.34895
# Velocity P-wave (km/s) = 6.13127 6.34450 6.23879
#
# Compressibility (1/GPa) = 0.02114860
#
# Stress axis : x y z
#
# Youngs Moduli (GPa) = 75.21267 63.58908 69.77995
#
# Poissons Ratio (x) = 0.23217 0.24179
# Poissons Ratio (y) = 0.27461 0.27813
# Poissons Ratio (z) = 0.26061 0.25345
#
# Static dielectric constant tensor:
#      x y z
#    x 3.733320 0.000000 -0.115590 
#    y 0.000000 3.605970 0.000000 
#    z -0.115590 0.000000 3.490970 
# 
# 
# High freq. dielectric constant tensor:
#      x y z
#    x 1.772490 0.000000 -0.002270 
#    y 0.000000 1.759520 0.000000 
#    z -0.002270 0.000000 1.771250 
# 
# From -- ./inp_files/89560.got.cif
#   From: 2010.06.25/outbox.cif.g09.slc.cpg/sg10_45_cif.got.tgz:89560.got - 2010.06.27 22:07:45.
