data_PCOD8063013
_publ_section_title
;
Structure prediction by ZEFSAII (Michael W. Deem and Ramdas Pophale) SiO2 
 PCOD8063013
Probable space group: P 2/M
;
_chemical_formula_sum "Si O2"
_cell_formula_units_Z 28
_cell_length_a 12.353013
_cell_length_b 13.731050
_cell_length_c 9.619624
_cell_angle_alpha 90.000000
_cell_angle_beta 62.754191
_cell_angle_gamma 90.000000
_cell_volume 1450.645312
_symmetry_space_group_name_H-M "P 2/M"
_symmetry_group_IT_number 10
_symmetry_cell_setting 'monoclinic'
loop_
_space_group_symop_operation_xyz
x,y,z
-x,y,-z
-x,-y,-z
x,-y,z
loop_
_atom_site_type_symbol
_atom_site_label
_atom_site_fract_x
_atom_site_fract_y
_atom_site_fract_z
Si Si1 0.241277 0.113796 0.332527
Si Si2 0.807252 0.804497 0.339274
Si Si3 0.285372 0.110647 0.879996
Si Si4 0.157427 0.389475 0.260259
Si Si5 0.058254 0.108318 0.205868
Si Si6 0.367265 0.754303 0.062889
Si Si7 0.878335 0.389559 0.395357
O O1 0.226842 0.140103 0.500212
O O2 0.121971 0.144659 0.311773
O O3 0.353712 0.173165 0.202159
O O4 0.267131 0.000000 0.296942
O O5 0.719826 0.845272 0.271680
O O6 0.796506 0.686818 0.356153
O O7 0.948664 0.823235 0.225976
O O8 0.337625 0.000000 0.844088
O O9 0.151508 0.109266 0.023971
O O10 0.369818 0.181405 0.920988
O O11 0.194074 0.500000 0.206062
O O12 0.257431 0.323600 0.123420
O O13 0.157660 0.370797 0.424301
O O14 0.021399 0.368995 0.284314
O O15 0.006132 0.000000 0.261020
O O16 0.500000 0.703363 0.000000
O O17 0.845629 0.500000 0.370067
#
# Coordination Sequence:
#
# PCOD8063013 Si02
#       7
#     4   4   4   4   4   4   4
#     4  10  20  32  50  78 105 140 192 231 262 319
#     4  12  19  30  54  79 113 148 181 220 271 332
#     4  10  22  36  50  78 115 150 185 224 279 334
#     4   9  18  35  58  87 112 138 184 231 275 325
#     4   9  18  30  47  75 112 147 177 214 268 331
#     4  11  22  39  59  77 104 149 192 238 283 323
#     4   9  18  32  56  86 117 143 169 223 284 331
#
# _framework density 19.301753999999999
#
# number of rings (size 3 to 8) (size 9 to 14) (size 15 to 20)
#    0.000    2.000    1.429    6.000    2.000    3.714 
#    0.000    1.429    0.000    5.143    0.000    2.000 
#    0.000    0.000    0.000    0.000    0.000    0.000 
#
# Total GULP energy -347091.695513 kJ/mol
# GULP energy per Si atom -12396.131983 kJ/mol
# Density = 1.925782 g / cm^3
# Si number density = 19.301754 Si / 1000 Ang^3
#
#
#
# Elastic Constant Matrix: (Units=GPa)
#
#
# Indices 1 2 3 4 5 6 
#
# 1 42.1601 25.5808 17.4408 0.0000 1.8654 0.0000
# 2 25.5808 105.0425 21.6533 0.0000 6.9942 0.0000
# 3 17.4408 21.6533 43.4794 0.0000 21.6086 0.0000
# 4 0.0000 0.0000 0.0000 28.5228 0.0000 5.5219
# 5 1.8654 6.9942 21.6086 0.0000 23.9958 0.0000
# 6 0.0000 0.0000 0.0000 5.5219 0.0000 16.8510
#
#
#
# Elastic Compliance Matrix: (Units=1/GPa)
#
#
# Indices 1 2 3 4 5 6 
#
# 1 0.034163 -0.005485 -0.018910 0.000000 0.015972 0.000000
# 2 -0.005485 0.011612 -0.003824 0.000000 0.000485 0.000000
# 3 -0.018910 -0.003824 0.056483 0.000000 -0.048279 0.000000
# 4 0.000000 0.000000 0.000000 0.037435 0.000000 -0.012267
# 5 0.015972 0.000485 -0.048279 0.000000 0.083767 0.000000
# 6 0.000000 0.000000 0.000000 -0.012267 0.000000 0.063363
#
#
# Mechanical properties :
#
#
# Convention : Reuss Voigt Hill
#
# Bulk Modulus (GPa) = 21.82418 35.55908 28.69163
# Shear Modulus (GPa) = 13.94570 22.27440 18.11005
#
# Velocity S-wave (km/s) = 2.69087 3.40076 3.06642
# Velocity P-wave (km/s) = 4.58102 5.82090 5.23778
#
# Compressibility (1/GPa) = 0.04582073
#
# Stress axis : x y z
#
# Youngs Moduli (GPa) = 29.27124 86.12063 17.70447
#
# Poissons Ratio (x) = 0.47238 0.33479
# Poissons Ratio (y) = 0.16056 0.06769
# Poissons Ratio (z) = 0.55351 0.32929
#
# Static dielectric constant tensor:
#      x y z
#    x 3.116340 0.000000 0.059960 
#    y 0.000000 3.740700 0.000000 
#    z 0.059960 0.000000 3.401340 
# 
# 
# High freq. dielectric constant tensor:
#      x y z
#    x 1.705190 0.000000 0.003210 
#    y 0.000000 1.762800 0.000000 
#    z 0.003210 0.000000 1.736940 
# 
# From -- ./inp_files/24928.got.cif
#   From: 2010.06.25/outbox.cif.g09.slc.cpg/sg10_13_cif.got.tgz:24928.got - 2010.06.27 22:07:45.
