data_PCOD8063914
_publ_section_title
;
Structure prediction by ZEFSAII (Michael W. Deem and Ramdas Pophale) SiO2 
 PCOD8063914
Probable space group: P 2/M
;
_chemical_formula_sum "Si O2"
_cell_formula_units_Z 32
_cell_length_a 24.995379
_cell_length_b 8.861797
_cell_length_c 14.384197
_cell_angle_alpha 90.000000
_cell_angle_beta 29.402732
_cell_angle_gamma 90.000000
_cell_volume 1564.228693
_symmetry_space_group_name_H-M "P 2/M"
_symmetry_group_IT_number 10
_symmetry_cell_setting 'monoclinic'
loop_
_space_group_symop_operation_xyz
x,y,z
-x,y,-z
-x,-y,-z
x,-y,z
loop_
_atom_site_type_symbol
_atom_site_label
_atom_site_fract_x
_atom_site_fract_y
_atom_site_fract_z
Si Si1 0.259553 0.830247 0.022693
Si Si2 0.959536 0.321848 0.661589
Si Si3 0.344083 0.822202 0.491621
Si Si4 0.879203 0.177021 0.438929
Si Si5 0.685446 0.167621 0.858970
Si Si6 0.109373 0.821327 0.788202
Si Si7 0.521451 0.675325 0.863279
Si Si8 0.515142 0.325558 0.368126
O O1 0.376150 0.760484 0.823981
O O2 0.256815 0.000000 0.986712
O O3 0.160795 0.736226 0.128907
O O4 0.239162 0.829854 0.164203
O O5 0.956956 0.500000 0.663417
O O6 0.000000 0.259328 0.500000
O O7 0.035992 0.268271 0.628356
O O8 0.215796 0.777326 0.688426
O O9 0.384403 0.770818 0.328563
O O10 0.409533 0.739617 0.474536
O O11 0.361516 0.000000 0.476465
O O12 0.757974 0.210561 0.660250
O O13 0.882625 0.240419 0.328996
O O14 0.906854 0.000000 0.404010
O O15 0.633909 0.000000 0.924717
O O16 0.591576 0.291071 0.018444
O O17 0.101338 0.000000 0.795014
O O18 0.000000 0.752725 0.000000
O O19 0.551502 0.500000 0.813571
O O20 0.500000 0.733735 0.000000
O O21 0.500000 0.303254 0.500000
O O22 0.525992 0.500000 0.323815
#
# Coordination Sequence:
#
# PCOD8063914 Si02
#       8
#     4   4   4   4   4   4   4   4
#     4  11  22  38  62  89 119 158 205 255 303 362
#     4  11  23  37  57  87 126 167 204 251 310 372
#     4  11  22  39  65  92 122 160 204 255 306 364
#     4  10  20  37  61  88 121 159 204 255 305 363
#     4  10  20  34  56  86 118 154 198 252 309 362
#     4   9  20  39  63  91 120 154 200 254 303 348
#     4  11  23  36  55  86 123 162 202 248 308 374
#     4  11  25  44  65  91 127 165 203 252 307 368
#
# _framework density 20.457367000000001
#
# number of rings (size 3 to 8) (size 9 to 14) (size 15 to 20)
#    0.000    1.500    2.500    2.625    0.000    5.500 
#    0.000    2.500    0.000    2.625    0.000    0.000 
#    0.000    0.000    0.000    0.000    0.000    0.000 
#
# Total GULP energy -396796.602793 kJ/mol
# GULP energy per Si atom -12399.893837 kJ/mol
# Density = 2.041080 g / cm^3
# Si number density = 20.457367 Si / 1000 Ang^3
#
#
#
# Elastic Constant Matrix: (Units=GPa)
#
#
# Indices 1 2 3 4 5 6 
#
# 1 84.3007 30.6096 38.7928 0.0000 -11.5161 0.0000
# 2 30.6096 71.8497 31.6482 0.0000 -7.2871 0.0000
# 3 38.7928 31.6482 116.5987 0.0000 -12.2423 0.0000
# 4 0.0000 0.0000 0.0000 12.8733 0.0000 4.8951
# 5 -11.5161 -7.2871 -12.2423 0.0000 36.3948 0.0000
# 6 0.0000 0.0000 0.0000 4.8951 0.0000 26.0577
#
#
#
# Elastic Compliance Matrix: (Units=1/GPa)
#
#
# Indices 1 2 3 4 5 6 
#
# 1 0.015644 -0.004792 -0.003613 0.000000 0.002775 0.000000
# 2 -0.004792 0.017388 -0.003026 0.000000 0.000947 0.000000
# 3 -0.003613 -0.003026 0.010797 0.000000 0.001883 0.000000
# 4 0.000000 0.000000 0.000000 0.083656 0.000000 -0.015715
# 5 0.002775 0.000947 0.001883 0.000000 0.029178 0.000000
# 6 0.000000 0.000000 0.000000 -0.015715 0.000000 0.041329
#
#
# Mechanical properties :
#
#
# Convention : Reuss Voigt Hill
#
# Bulk Modulus (GPa) = 47.69039 52.76115 50.22577
# Shear Modulus (GPa) = 21.94504 26.51174 24.22839
#
# Velocity S-wave (km/s) = 3.27879 3.60384 3.44515
# Velocity P-wave (km/s) = 6.13976 6.56990 6.35847
#
# Compressibility (1/GPa) = 0.02096859
#
# Stress axis : x y z
#
# Youngs Moduli (GPa) = 63.92310 57.50988 92.61475
#
# Poissons Ratio (x) = 0.27558 0.33459
# Poissons Ratio (y) = 0.30631 0.28025
# Poissons Ratio (z) = 0.23094 0.17402
#
# Static dielectric constant tensor:
#      x y z
#    x 3.842020 0.000000 0.046340 
#    y 0.000000 3.563680 0.000000 
#    z 0.046340 0.000000 3.826460 
# 
# 
# High freq. dielectric constant tensor:
#      x y z
#    x 1.804070 0.000000 -0.004980 
#    y 0.000000 1.787980 0.000000 
#    z -0.004980 0.000000 1.801080 
# 
# From -- ./inp_files/72199.got.cif
#   From: 2010.06.25/outbox.cif.g09.slc.cpg/sg10_37_cif.got.tgz:72199.got - 2010.06.27 22:07:45.
