data_PCOD8063398
_publ_section_title
;
Structure prediction by ZEFSAII (Michael W. Deem and Ramdas Pophale) SiO2 
 PCOD8063398
Probable space group: P 2/M
;
_chemical_formula_sum "Si O2"
_cell_formula_units_Z 32
_cell_length_a 31.409610
_cell_length_b 9.015948
_cell_length_c 10.897804
_cell_angle_alpha 90.000000
_cell_angle_beta 148.813612
_cell_angle_gamma 90.000000
_cell_volume 1598.066794
_symmetry_space_group_name_H-M "P 2/M"
_symmetry_group_IT_number 10
_symmetry_cell_setting 'monoclinic'
loop_
_space_group_symop_operation_xyz
x,y,z
-x,y,-z
-x,-y,-z
x,-y,z
loop_
_atom_site_type_symbol
_atom_site_label
_atom_site_fract_x
_atom_site_fract_y
_atom_site_fract_z
Si Si1 0.451166 0.323237 0.259760
Si Si2 0.264450 0.325121 0.790165
Si Si3 0.532182 0.326229 0.209192
Si Si4 0.203224 0.170460 0.399743
Si Si5 0.868219 0.169413 0.385150
Si Si6 0.283668 0.667762 0.379374
Si Si7 0.875413 0.331853 0.158906
Si Si8 0.953352 0.168456 0.132381
O O1 0.500000 0.262254 0.500000
O O2 0.456503 0.500000 0.271533
O O3 0.488248 0.259100 0.222652
O O4 0.357260 0.266818 0.037260
O O5 0.263757 0.500000 0.788716
O O6 0.225403 0.269723 0.568810
O O7 0.207414 0.269303 0.759297
O O8 0.513448 0.500000 0.161014
O O9 0.628252 0.289884 0.458557
O O10 0.500000 0.257462 0.000000
O O11 0.260713 0.217442 0.428781
O O12 0.220808 0.000000 0.475162
O O13 0.106953 0.197116 0.131426
O O14 0.894042 0.218673 0.313334
O O15 0.951167 0.189428 0.672139
O O16 0.838774 0.000000 0.314033
O O17 0.284325 0.500000 0.435451
O O18 0.220432 0.680344 0.111764
O O19 0.898031 0.500000 0.252109
O O20 0.932136 0.285841 0.185283
O O21 0.939427 0.000000 0.146647
#
# Coordination Sequence:
#
# PCOD8063398 Si02
#       8
#     4   4   4   4   4   4   4   4
#     4   9  19  34  56  83 113 149 188 234 286 344
#     4  11  23  38  58  84 112 142 186 237 285 332
#     4   9  16  28  51  82 111 141 183 234 281 329
#     4  10  20  37  59  81 112 149 186 226 279 338
#     4  11  23  38  56  78 110 152 195 230 274 338
#     4   9  18  32  55  84 112 141 182 233 280 328
#     4  10  20  33  54  85 116 144 181 236 290 329
#     4   9  20  38  58  80 108 150 194 230 271 335
#
# _framework density 20.024194999999999
#
# number of rings (size 3 to 8) (size 9 to 14) (size 15 to 20)
#    0.000    2.250    0.000    2.625    1.750    6.000 
#    0.000    2.500    0.000    5.625    0.000    0.000 
#    0.000    0.000    0.000    0.000    0.000    0.000 
#
# Total GULP energy -396759.119597 kJ/mol
# GULP energy per Si atom -12398.722487 kJ/mol
# Density = 1.997862 g / cm^3
# Si number density = 20.024195 Si / 1000 Ang^3
#
#
#
# Elastic Constant Matrix: (Units=GPa)
#
#
# Indices 1 2 3 4 5 6 
#
# 1 80.0740 20.1620 53.0885 0.0000 -3.7752 0.0000
# 2 20.1620 56.8480 30.8996 0.0000 3.1117 0.0000
# 3 53.0885 30.8996 117.7559 0.0000 7.1712 0.0000
# 4 0.0000 0.0000 0.0000 18.1336 0.0000 -8.8916
# 5 -3.7752 3.1117 7.1712 0.0000 32.4547 0.0000
# 6 0.0000 0.0000 0.0000 -8.8916 0.0000 0.0936
#
#
#
# Elastic Compliance Matrix: (Units=1/GPa)
#
#
# Indices 1 2 3 4 5 6 
#
# 1 0.018609 -0.002484 -0.007991 0.000000 0.004169 0.000000
# 2 -0.002484 0.020869 -0.004274 0.000000 -0.001345 0.000000
# 3 -0.007991 -0.004274 0.013429 0.000000 -0.003487 0.000000
# 4 0.000000 0.000000 0.000000 -0.001210 0.000000 -0.114934
# 5 0.004169 -0.001345 -0.003487 0.000000 0.032197 0.000000
# 6 0.000000 0.000000 0.000000 -0.114934 0.000000 -0.234395
#
#
# Mechanical properties :
#
#
# Convention : Reuss Voigt Hill
#
# Bulk Modulus (GPa) = 42.72297 51.44202 47.08249
# Shear Modulus (GPa) = -44.16937 20.17156 -11.99891
#
# Velocity S-wave (km/s) = -4.70169 3.17734 -2.45055
# Velocity P-wave (km/s) = 2.84474 6.26149 3.94422
#
# Compressibility (1/GPa) = 0.02340661
#
# Stress axis : x y z
#
# Youngs Moduli (GPa) = 53.73791 47.91874 74.46640
#
# Poissons Ratio (x) = 0.11905 0.59510
# Poissons Ratio (y) = 0.13350 0.31827
# Poissons Ratio (z) = 0.42945 0.20481
#
# Static dielectric constant tensor:
#      x y z
#    x 3.592720 0.000000 0.030840 
#    y 0.000000 3.399210 0.000000 
#    z 0.030840 0.000000 3.927310 
# 
# 
# High freq. dielectric constant tensor:
#      x y z
#    x 1.771370 0.000000 0.003050 
#    y 0.000000 1.753880 0.000000 
#    z 0.003050 0.000000 1.799180 
# 
# From -- ./inp_files/58241.got.cif
#   From: 2010.06.25/outbox.cif.g09.slc.cpg/sg10_30_cif.got.tgz:58241.got - 2010.06.27 22:07:45.
