data_PCOD8063731
_publ_section_title
;
Structure prediction by ZEFSAII (Michael W. Deem and Ramdas Pophale) SiO2 
 PCOD8063731
Probable space group: P 2/M
;
_chemical_formula_sum "Si O2"
_cell_formula_units_Z 32
_cell_length_a 10.902342
_cell_length_b 9.242736
_cell_length_c 27.535482
_cell_angle_alpha 90.000000
_cell_angle_beta 36.165454
_cell_angle_gamma 90.000000
_cell_volume 1637.391903
_symmetry_space_group_name_H-M "P 2/M"
_symmetry_group_IT_number 10
_symmetry_cell_setting 'monoclinic'
loop_
_space_group_symop_operation_xyz
x,y,z
-x,y,-z
-x,-y,-z
x,-y,z
loop_
_atom_site_type_symbol
_atom_site_label
_atom_site_fract_x
_atom_site_fract_y
_atom_site_fract_z
Si Si1 0.284204 0.671555 0.046056
Si Si2 0.900117 0.662631 0.231344
Si Si3 0.784744 0.163606 0.629234
Si Si4 0.485455 0.170217 0.369328
Si Si5 0.001406 0.663572 0.310923
Si Si6 0.220446 0.668891 0.954789
Si Si7 0.196791 0.170871 0.545769
Si Si8 0.404667 0.165717 0.209863
O O1 0.293921 0.500000 0.046102
O O2 0.094272 0.729513 0.139752
O O3 0.500000 0.734526 0.000000
O O4 0.239277 0.720713 0.004942
O O5 0.854911 0.500000 0.227337
O O6 0.700276 0.758988 0.285970
O O7 0.944119 0.662409 0.273674
O O8 0.688916 0.235282 0.611557
O O9 0.613357 0.174319 0.726332
O O10 0.002359 0.233535 0.576526
O O11 0.840682 0.000000 0.598199
O O12 0.409726 0.203768 0.448627
O O13 0.511193 0.000000 0.353095
O O14 0.030675 0.500000 0.321033
O O15 0.813128 0.742590 0.400332
O O16 0.214069 0.751198 0.246463
O O17 0.275524 0.500000 0.933613
O O18 0.381766 0.759690 0.872215
O O19 0.000000 0.701280 0.000000
O O20 0.172534 0.000000 0.564656
O O21 0.401099 0.000000 0.192878
#
# Coordination Sequence:
#
# PCOD8063731 Si02
#       8
#     4   4   4   4   4   4   4   4
#     4   9  18  36  59  78 104 146 189 226 273 333
#     4  10  22  37  55  79 107 142 180 225 276 325
#     4   8  16  32  54  78 105 142 182 218 262 320
#     4  10  20  34  54  79 109 145 181 221 268 324
#     4  10  20  36  57  79 105 140 184 227 269 320
#     4  10  21  35  55  84 113 144 184 230 279 333
#     4   9  18  34  56  80 107 142 183 223 268 321
#     4  10  20  35  57  82 109 142 179 223 275 327
#
# _framework density 19.543275999999999
#
# number of rings (size 3 to 8) (size 9 to 14) (size 15 to 20)
#    0.000    2.500    0.000    2.625    1.750    5.750 
#    0.000    5.625    0.000    5.250    0.000    0.000 
#    0.000    0.000    0.000    0.000    0.000    0.000 
#
# Total GULP energy -396642.891401 kJ/mol
# GULP energy per Si atom -12395.090356 kJ/mol
# Density = 1.949879 g / cm^3
# Si number density = 19.543276 Si / 1000 Ang^3
#
#
#
# Elastic Constant Matrix: (Units=GPa)
#
#
# Indices 1 2 3 4 5 6 
#
# 1 75.1047 20.3237 31.1913 0.0000 3.2612 0.0000
# 2 20.3237 54.1379 30.7309 0.0000 0.1409 0.0000
# 3 31.1913 30.7309 126.4287 0.0000 -0.1323 0.0000
# 4 0.0000 0.0000 0.0000 27.6072 0.0000 -5.4432
# 5 3.2612 0.1409 -0.1323 0.0000 22.8152 0.0000
# 6 0.0000 0.0000 0.0000 -5.4432 0.0000 18.8217
#
#
#
# Elastic Compliance Matrix: (Units=1/GPa)
#
#
# Indices 1 2 3 4 5 6 
#
# 1 0.015756 -0.004294 -0.002846 0.000000 -0.002242 0.000000
# 2 -0.004294 0.022599 -0.004433 0.000000 0.000449 0.000000
# 3 -0.002846 -0.004433 0.009690 0.000000 0.000490 0.000000
# 4 0.000000 0.000000 0.000000 0.038413 0.000000 0.011109
# 5 -0.002242 0.000449 0.000490 0.000000 0.044151 0.000000
# 6 0.000000 0.000000 0.000000 0.011109 0.000000 0.056343
#
#
# Mechanical properties :
#
#
# Convention : Reuss Voigt Hill
#
# Bulk Modulus (GPa) = 40.16256 46.68479 43.42368
# Shear Modulus (GPa) = 22.89421 25.41050 24.15236
#
# Velocity S-wave (km/s) = 3.42638 3.60976 3.51926
# Velocity P-wave (km/s) = 6.02068 6.42757 6.22745
#
# Compressibility (1/GPa) = 0.02489881
#
# Stress axis : x y z
#
# Youngs Moduli (GPa) = 63.46843 44.25065 103.20134
#
# Poissons Ratio (x) = 0.18999 0.29370
# Poissons Ratio (y) = 0.27251 0.45752
# Poissons Ratio (z) = 0.18062 0.19617
#
# Static dielectric constant tensor:
#      x y z
#    x 3.643010 0.000000 0.075400 
#    y 0.000000 3.404310 0.000000 
#    z 0.075400 0.000000 3.718710 
# 
# 
# High freq. dielectric constant tensor:
#      x y z
#    x 1.762120 0.000000 0.005640 
#    y 0.000000 1.728440 0.000000 
#    z 0.005640 0.000000 1.772530 
# 
# From -- ./inp_files/49797.got.cif
#   From: 2010.06.25/outbox.cif.g09.slc.cpg/sg10_25_cif.got.tgz:49797.got - 2010.06.27 22:07:45.
