data_PCOD8063120
_publ_section_title
;
Structure prediction by ZEFSAII (Michael W. Deem and Ramdas Pophale) SiO2 
 PCOD8063120
Probable space group: P 2/M
;
_chemical_formula_sum "Si O2"
_cell_formula_units_Z 32
_cell_length_a 11.546117
_cell_length_b 9.068849
_cell_length_c 27.452804
_cell_angle_alpha 90.000000
_cell_angle_beta 142.139528
_cell_angle_gamma 90.000000
_cell_volume 1764.248420
_symmetry_space_group_name_H-M "P 2/M"
_symmetry_group_IT_number 10
_symmetry_cell_setting 'monoclinic'
loop_
_space_group_symop_operation_xyz
x,y,z
-x,y,-z
-x,-y,-z
x,-y,z
loop_
_atom_site_type_symbol
_atom_site_label
_atom_site_fract_x
_atom_site_fract_y
_atom_site_fract_z
Si Si1 0.690291 0.674098 0.090856
Si Si2 0.441594 0.674222 0.305664
Si Si3 0.947884 0.169391 0.833114
Si Si4 0.558366 0.326086 0.446718
Si Si5 0.144140 0.832822 0.088347
Si Si6 0.480117 0.326164 0.774570
Si Si7 0.797794 0.675465 0.613151
Si Si8 0.212184 0.675011 0.769027
O O1 0.716947 0.500000 0.093564
O O2 0.684655 0.719744 0.146198
O O3 0.869216 0.752108 0.127015
O O4 0.500000 0.727003 0.000000
O O5 0.402224 0.500000 0.290940
O O6 0.241896 0.752169 0.248279
O O7 0.577364 0.718282 0.396124
O O8 0.544749 0.727401 0.290044
O O9 0.960871 0.183398 0.895371
O O10 0.943831 0.000000 0.814658
O O11 0.548408 0.500000 0.449126
O O12 0.360248 0.263943 0.402057
O O13 0.736477 0.270787 0.538075
O O14 0.317536 0.723838 0.139838
O O15 0.214556 0.000000 0.103597
O O16 0.000000 0.780520 0.000000
O O17 0.470087 0.500000 0.773718
O O18 0.324409 0.259177 0.759588
O O19 0.811013 0.500000 0.619450
O O20 0.000603 0.742367 0.695598
O O21 0.203710 0.500000 0.762463
#
# Coordination Sequence:
#
# PCOD8063120 Si02
#       8
#     4   4   4   4   4   4   4   4
#     4  10  21  34  49  69  93 124 158 193 234 279
#     4   9  16  29  48  70  95 121 153 194 233 273
#     4  10  20  33  49  70  94 119 154 194 234 280
#     4   8  13  22  41  68  93 119 156 194 229 273
#     4   9  19  34  50  67  89 119 154 194 237 276
#     4   9  18  30  46  69  93 122 156 191 233 277
#     4   8  13  22  39  65  94 124 154 188 232 277
#     4   9  17  30  45  65  98 129 154 191 237 281
#
# _framework density 18.138037000000001
#
# number of rings (size 3 to 8) (size 9 to 14) (size 15 to 20)
#    0.000    3.000    0.000    1.875    1.750    3.000 
#    0.000    1.250    0.000    3.750    0.000    7.875 
#    0.000    4.000    0.000    0.000    0.000    0.000 
#
# Total GULP energy -396538.152663 kJ/mol
# GULP energy per Si atom -12391.817271 kJ/mol
# Density = 1.809675 g / cm^3
# Si number density = 18.138037 Si / 1000 Ang^3
#
#
#
# Elastic Constant Matrix: (Units=GPa)
#
#
# Indices 1 2 3 4 5 6 
#
# 1 109.4162 14.0683 71.0594 0.0000 -3.8333 0.0000
# 2 14.0683 12.6875 10.8001 0.0000 -0.6776 0.0000
# 3 71.0594 10.8001 126.8961 0.0000 -23.2122 0.0000
# 4 0.0000 0.0000 0.0000 4.7345 0.0000 -4.0548
# 5 -3.8333 -0.6776 -23.2122 0.0000 30.4241 0.0000
# 6 0.0000 0.0000 0.0000 -4.0548 0.0000 12.0123
#
#
#
# Elastic Compliance Matrix: (Units=1/GPa)
#
#
# Indices 1 2 3 4 5 6 
#
# 1 0.016254 -0.010507 -0.009153 0.000000 -0.005170 0.000000
# 2 -0.010507 0.092234 -0.002130 0.000000 -0.000895 0.000000
# 3 -0.009153 -0.002130 0.015071 0.000000 0.010298 0.000000
# 4 0.000000 0.000000 0.000000 0.297106 0.000000 0.100289
# 5 -0.005170 -0.000895 0.010298 0.000000 0.040054 0.000000
# 6 0.000000 0.000000 0.000000 0.100289 0.000000 0.117100
#
#
# Mechanical properties :
#
#
# Convention : Reuss Voigt Hill
#
# Bulk Modulus (GPa) = 12.50337 48.98392 30.74365
# Shear Modulus (GPa) = 7.71534 19.63898 13.67716
#
# Velocity S-wave (km/s) = 2.06468 3.29409 2.74899
# Velocity P-wave (km/s) = 3.54856 6.44460 5.20217
#
# Compressibility (1/GPa) = 0.07997842
#
# Stress axis : x y z
#
# Youngs Moduli (GPa) = 61.52440 10.84198 66.35259
#
# Poissons Ratio (x) = 0.11392 0.60733
# Poissons Ratio (y) = 0.64646 0.14132
# Poissons Ratio (z) = 0.56314 0.02309
#
# Static dielectric constant tensor:
#      x y z
#    x 3.623240 0.000000 -0.218150 
#    y 0.000000 2.942140 0.000000 
#    z -0.218150 0.000000 3.612780 
# 
# 
# High freq. dielectric constant tensor:
#      x y z
#    x 1.705940 0.000000 -0.017130 
#    y 0.000000 1.654730 0.000000 
#    z -0.017130 0.000000 1.703960 
# 
# From -- ./inp_files/83534.got.cif
#   From: 2010.06.25/outbox.cif.g09.slc.cpg/sg10_42_cif.got.tgz:83534.got - 2010.06.27 22:07:45.
