data_PCOD8063330
_publ_section_title
;
Structure prediction by ZEFSAII (Michael W. Deem and Ramdas Pophale) SiO2 
 PCOD8063330
Probable space group: P 2/M
;
_chemical_formula_sum "Si O2"
_cell_formula_units_Z 32
_cell_length_a 11.391873
_cell_length_b 8.913139
_cell_length_c 22.751939
_cell_angle_alpha 90.000000
_cell_angle_beta 134.590909
_cell_angle_gamma 90.000000
_cell_volume 1645.159659
_symmetry_space_group_name_H-M "P 2/M"
_symmetry_group_IT_number 10
_symmetry_cell_setting 'monoclinic'
loop_
_space_group_symop_operation_xyz
x,y,z
-x,y,-z
-x,-y,-z
x,-y,z
loop_
_atom_site_type_symbol
_atom_site_label
_atom_site_fract_x
_atom_site_fract_y
_atom_site_fract_z
Si Si1 0.793034 0.826407 0.342400
Si Si2 0.419984 0.826678 0.179818
Si Si3 0.670863 0.675189 0.736232
Si Si4 0.913464 0.823393 0.732290
Si Si5 0.246802 0.673001 0.879911
Si Si6 0.409583 0.327500 0.057715
Si Si7 0.097902 0.324280 0.391623
Si Si8 0.301803 0.673646 0.576290
O O1 0.614401 0.795561 0.252384
O O2 0.798359 0.770738 0.411518
O O3 0.918951 0.733509 0.347363
O O4 0.842402 0.000000 0.358080
O O5 0.324470 0.730858 0.195100
O O6 0.357685 0.775462 0.094114
O O7 0.377678 0.000000 0.174889
O O8 0.710596 0.500000 0.748481
O O9 0.494806 0.713050 0.645047
O O10 0.810665 0.761976 0.750558
O O11 0.103723 0.780290 0.807037
O O12 0.843050 0.754411 0.647281
O O13 0.895813 0.000000 0.723018
O O14 0.198991 0.500000 0.851565
O O15 0.409915 0.717619 0.901663
O O16 0.276791 0.699419 0.959707
O O17 0.409174 0.500000 0.077679
O O18 0.085908 0.500000 0.375941
O O19 0.233564 0.284621 0.488357
O O20 0.271302 0.500000 0.581155
#
# Coordination Sequence:
#
# PCOD8063330 Si02
#       8
#     4   4   4   4   4   4   4   4
#     4  10  20  33  52  82 117 147 176 218 273 325
#     4  10  20  34  54  82 114 145 179 220 268 321
#     4  10  21  40  61  77 101 141 186 229 271 317
#     4  12  25  39  55  79 110 142 180 224 273 324
#     4   9  19  37  59  84 114 146 179 217 263 315
#     4   9  18  34  59  88 114 142 179 219 260 314
#     4  11  22  36  55  79 108 143 184 226 269 322
#     4   9  20  37  57  80 105 140 185 228 270 319
#
# _framework density 19.451000000000001
#
# number of rings (size 3 to 8) (size 9 to 14) (size 15 to 20)
#    0.000    2.000    0.000    4.500    0.000    8.000 
#    0.000    4.375    0.000    3.750    0.000    0.000 
#    0.000    0.000    0.000    0.000    0.000    0.000 
#
# Total GULP energy -396968.969326 kJ/mol
# GULP energy per Si atom -12405.280291 kJ/mol
# Density = 1.940673 g / cm^3
# Si number density = 19.451000 Si / 1000 Ang^3
#
#
#
# Elastic Constant Matrix: (Units=GPa)
#
#
# Indices 1 2 3 4 5 6 
#
# 1 67.0137 30.9437 22.0027 0.0000 -18.6157 0.0000
# 2 30.9437 95.1567 30.1773 0.0000 -14.8570 0.0000
# 3 22.0027 30.1773 77.3094 0.0000 -26.2995 0.0000
# 4 0.0000 0.0000 0.0000 9.5222 0.0000 0.3499
# 5 -18.6157 -14.8570 -26.2995 0.0000 26.1009 0.0000
# 6 0.0000 0.0000 0.0000 0.3499 0.0000 30.7929
#
#
#
# Elastic Compliance Matrix: (Units=1/GPa)
#
#
# Indices 1 2 3 4 5 6 
#
# 1 0.020425 -0.004818 0.000137 0.000000 0.011964 0.000000
# 2 -0.004818 0.013309 -0.003676 0.000000 0.000436 0.000000
# 3 0.000137 -0.003676 0.020773 0.000000 0.018936 0.000000
# 4 0.000000 0.000000 0.000000 0.105062 0.000000 -0.001194
# 5 0.011964 0.000436 0.018936 0.000000 0.066174 0.000000
# 6 0.000000 0.000000 0.000000 -0.001194 0.000000 0.032489
#
#
# Mechanical properties :
#
#
# Convention : Reuss Voigt Hill
#
# Bulk Modulus (GPa) = 26.45844 45.08077 35.76960
# Shear Modulus (GPa) = 17.38874 23.70694 20.54784
#
# Velocity S-wave (km/s) = 2.99319 3.49492 3.25374
# Velocity P-wave (km/s) = 5.05744 6.28593 5.70485
#
# Compressibility (1/GPa) = 0.03779513
#
# Stress axis : x y z
#
# Youngs Moduli (GPa) = 48.95910 75.13488 48.14034
#
# Poissons Ratio (x) = 0.36197 -0.00661
# Poissons Ratio (y) = 0.23587 0.17695
# Poissons Ratio (z) = -0.00672 0.27618
#
# Static dielectric constant tensor:
#      x y z
#    x 3.427940 0.000000 -0.122090 
#    y 0.000000 3.525530 0.000000 
#    z -0.122090 0.000000 3.575830 
# 
# 
# High freq. dielectric constant tensor:
#      x y z
#    x 1.747960 0.000000 -0.013070 
#    y 0.000000 1.760600 0.000000 
#    z -0.013070 0.000000 1.759490 
# 
# From -- ./inp_files/83649.got.cif
#   From: 2010.06.25/outbox.cif.g09.slc.cpg/sg10_42_cif.got.tgz:83649.got - 2010.06.27 22:07:45.
