data_PCOD8063289
_publ_section_title
;
Structure prediction by ZEFSAII (Michael W. Deem and Ramdas Pophale) SiO2 
 PCOD8063289
Probable space group: P 2/M
;
_chemical_formula_sum "Si O2"
_cell_formula_units_Z 28
_cell_length_a 9.766249
_cell_length_b 13.855308
_cell_length_c 21.569777
_cell_angle_alpha 90.000000
_cell_angle_beta 29.875125
_cell_angle_gamma 90.000000
_cell_volume 1453.838120
_symmetry_space_group_name_H-M "P 2/M"
_symmetry_group_IT_number 10
_symmetry_cell_setting 'monoclinic'
loop_
_space_group_symop_operation_xyz
x,y,z
-x,y,-z
-x,-y,-z
x,-y,z
loop_
_atom_site_type_symbol
_atom_site_label
_atom_site_fract_x
_atom_site_fract_y
_atom_site_fract_z
Si Si1 0.056403 0.387968 0.275356
Si Si2 0.416845 0.722265 0.963184
Si Si3 0.223694 0.894719 0.864214
Si Si4 0.446837 0.257158 0.327720
Si Si5 0.888299 0.387085 0.203201
Si Si6 0.636581 0.105525 0.804910
Si Si7 0.995827 0.752473 0.602235
O O1 0.052797 0.500000 0.290893
O O2 0.370340 0.351557 0.151566
O O3 0.904436 0.364324 0.270305
O O4 0.908995 0.336475 0.391559
O O5 0.428299 0.827665 0.926608
O O6 0.500000 0.742201 0.000000
O O7 0.119033 0.673286 0.075361
O O8 0.303100 0.819913 0.778829
O O9 0.505571 0.912491 0.789665
O O10 0.121155 0.000000 0.878481
O O11 0.000000 0.851332 0.000000
O O12 0.590721 0.356130 0.293760
O O13 0.246854 0.217120 0.459865
O O14 0.272848 0.276892 0.333469
O O15 0.936031 0.500000 0.172028
O O16 0.924244 0.160010 0.677846
O O17 0.687009 0.000000 0.816948
#
# Coordination Sequence:
#
# PCOD8063289 Si02
#       7
#     4   4   4   4   4   4   4
#     4   9  18  34  54  73  98 134 170 206 252 303
#     4   9  17  31  51  76 104 133 164 205 255 303
#     4   9  17  30  50  74  99 128 161 202 253 304
#     4  10  20  34  51  74 103 133 168 211 252 293
#     4  10  20  33  52  77 102 132 172 212 250 299
#     4   9  17  30  50  74  99 131 170 206 244 299
#     4   9  20  35  50  71 102 137 170 208 253 294
#
# _framework density 19.259367999999998
#
# number of rings (size 3 to 8) (size 9 to 14) (size 15 to 20)
#    0.000    2.714    0.000    1.286    0.000    4.286 
#    0.000    5.714    0.000   12.429    0.000   10.000 
#    0.000    0.000    0.000    0.000    0.000    0.000 
#
# Total GULP energy -346985.127636 kJ/mol
# GULP energy per Si atom -12392.325987 kJ/mol
# Density = 1.921553 g / cm^3
# Si number density = 19.259368 Si / 1000 Ang^3
#
#
#
# Elastic Constant Matrix: (Units=GPa)
#
#
# Indices 1 2 3 4 5 6 
#
# 1 44.6813 39.0479 30.8291 0.0000 4.8766 0.0000
# 2 39.0479 135.0554 57.6954 0.0000 12.6963 0.0000
# 3 30.8291 57.6954 105.0645 0.0000 14.3848 0.0000
# 4 0.0000 0.0000 0.0000 19.7481 0.0000 1.7351
# 5 4.8766 12.6963 14.3848 0.0000 28.4008 0.0000
# 6 0.0000 0.0000 0.0000 1.7351 0.0000 21.8624
#
#
#
# Elastic Compliance Matrix: (Units=1/GPa)
#
#
# Indices 1 2 3 4 5 6 
#
# 1 0.032365 -0.006946 -0.005745 0.000000 0.000458 0.000000
# 2 -0.006946 0.011247 -0.003882 0.000000 -0.001869 0.000000
# 3 -0.005745 -0.003882 0.013929 0.000000 -0.004333 0.000000
# 4 0.000000 0.000000 0.000000 0.050993 0.000000 -0.004047
# 5 0.000458 -0.001869 -0.004333 0.000000 0.038162 0.000000
# 6 0.000000 0.000000 0.000000 -0.004047 0.000000 0.046062
#
#
# Mechanical properties :
#
#
# Convention : Reuss Voigt Hill
#
# Bulk Modulus (GPa) = 40.99369 59.99400 50.49385
# Shear Modulus (GPa) = 21.36423 24.48416 22.92419
#
# Velocity S-wave (km/s) = 3.33421 3.56938 3.45380
# Velocity P-wave (km/s) = 6.01281 6.94301 6.49459
#
# Compressibility (1/GPa) = 0.02439400
#
# Stress axis : x y z
#
# Youngs Moduli (GPa) = 30.89732 88.91431 71.79400
#
# Poissons Ratio (x) = 0.61763 0.41246
# Poissons Ratio (y) = 0.21462 0.27870
# Poissons Ratio (z) = 0.17751 0.34516
#
# Static dielectric constant tensor:
#      x y z
#    x 3.363540 0.000000 0.126500 
#    y 0.000000 3.721860 0.000000 
#    z 0.126500 0.000000 3.517770 
# 
# 
# High freq. dielectric constant tensor:
#      x y z
#    x 1.724320 0.000000 0.007390 
#    y 0.000000 1.747640 0.000000 
#    z 0.007390 0.000000 1.746550 
# 
# From -- ./inp_files/82908.got.cif
#   From: 2010.06.25/outbox.cif.g09.slc.cpg/sg10_42_cif.got.tgz:82908.got - 2010.06.27 22:07:45.
