data_PCOD8063431
_publ_section_title
;
Structure prediction by ZEFSAII (Michael W. Deem and Ramdas Pophale) SiO2 
 PCOD8063431
Probable space group: P 2/M
;
_chemical_formula_sum "Si O2"
_cell_formula_units_Z 24
_cell_length_a 13.579842
_cell_length_b 9.484356
_cell_length_c 13.574684
_cell_angle_alpha 90.000000
_cell_angle_beta 45.360778
_cell_angle_gamma 90.000000
_cell_volume 1244.041296
_symmetry_space_group_name_H-M "P 2/M"
_symmetry_group_IT_number 10
_symmetry_cell_setting 'monoclinic'
loop_
_space_group_symop_operation_xyz
x,y,z
-x,y,-z
-x,-y,-z
x,-y,z
loop_
_atom_site_type_symbol
_atom_site_label
_atom_site_fract_x
_atom_site_fract_y
_atom_site_fract_z
Si Si1 0.635870 0.152668 0.345996
Si Si2 0.623006 0.660122 0.171219
Si Si3 0.053334 0.659549 0.068491
Si Si4 0.440766 0.164587 0.149756
Si Si5 0.853817 0.833451 0.564075
Si Si6 0.129144 0.165722 0.670899
O O1 0.500000 0.120147 0.500000
O O2 0.602082 0.271536 0.291677
O O3 0.748099 0.211068 0.343326
O O4 0.683584 0.000000 0.266450
O O5 0.568507 0.500000 0.211844
O O6 0.536588 0.746813 0.153705
O O7 0.783625 0.666246 0.034065
O O8 0.997387 0.500000 0.118533
O O9 0.004141 0.753723 0.194408
O O10 0.000000 0.719965 0.000000
O O11 0.279859 0.214247 0.276661
O O12 0.453760 0.000000 0.168254
O O13 0.500000 0.194751 0.000000
O O14 0.833380 0.783623 0.465657
O O15 0.000000 0.768190 0.500000
O O16 0.864646 0.000000 0.562433
O O17 0.098112 0.000000 0.693782
#
# Coordination Sequence:
#
# PCOD8063431 Si02
#       6
#     4   4   4   4   4   4
#     4  10  20  35  56  84 116 149 188 240 296 350
#     4  11  23  38  58  83 116 157 193 237 294 351
#     4  10  21  38  56  80 118 157 192 235 288 344
#     4  10  22  40  64  91 117 151 196 245 294 347
#     4   9  19  37  60  88 120 149 186 240 297 347
#     4  10  20  33  57  86 113 148 190 239 291 345
#
# _framework density 19.291965000000001
#
# number of rings (size 3 to 8) (size 9 to 14) (size 15 to 20)
#    0.000    2.000    1.667    1.500    2.333    5.000 
#    0.000    2.500    0.000    1.000    0.000    0.000 
#    0.000    0.000    0.000    0.000    0.000    0.000 
#
# Total GULP energy -297506.763858 kJ/mol
# GULP energy per Si atom -12396.115161 kJ/mol
# Density = 1.924806 g / cm^3
# Si number density = 19.291965 Si / 1000 Ang^3
#
#
#
# Elastic Constant Matrix: (Units=GPa)
#
#
# Indices 1 2 3 4 5 6 
#
# 1 140.0254 58.1474 58.2105 0.0000 2.5985 0.0000
# 2 58.1474 66.2869 51.9038 0.0000 7.4928 0.0000
# 3 58.2105 51.9038 133.6371 0.0000 9.5234 0.0000
# 4 0.0000 0.0000 0.0000 7.9731 0.0000 -15.1304
# 5 2.5985 7.4928 9.5234 0.0000 31.2589 0.0000
# 6 0.0000 0.0000 0.0000 -15.1304 0.0000 14.3271
#
#
#
# Elastic Compliance Matrix: (Units=1/GPa)
#
#
# Indices 1 2 3 4 5 6 
#
# 1 0.011544 -0.009034 -0.001641 0.000000 0.001706 0.000000
# 2 -0.009034 0.028972 -0.007029 0.000000 -0.004052 0.000000
# 3 -0.001641 -0.007029 0.011038 0.000000 -0.001541 0.000000
# 4 0.000000 0.000000 0.000000 -0.124912 0.000000 -0.131916
# 5 0.001706 -0.004052 -0.001541 0.000000 0.033290 0.000000
# 6 0.000000 0.000000 0.000000 -0.131916 0.000000 -0.069514
#
#
# Mechanical properties :
#
#
# Convention : Reuss Voigt Hill
#
# Bulk Modulus (GPa) = 61.93556 75.16366 68.54961
# Shear Modulus (GPa) = -72.68118 22.15767 -25.26175
#
# Velocity S-wave (km/s) = -6.14460 3.39269 -3.62255
# Velocity P-wave (km/s) = 4.26233 7.37515 4.25590
#
# Compressibility (1/GPa) = 0.01614581
#
# Stress axis : x y z
#
# Youngs Moduli (GPa) = 86.62809 34.51567 90.59967
#
# Poissons Ratio (x) = 0.31181 0.14868
# Poissons Ratio (y) = 0.78260 0.63681
# Poissons Ratio (z) = 0.14216 0.24260
#
# Static dielectric constant tensor:
#      x y z
#    x 3.634730 0.000000 -0.081260 
#    y 0.000000 3.481350 0.000000 
#    z -0.081260 0.000000 3.625820 
# 
# 
# High freq. dielectric constant tensor:
#      x y z
#    x 1.755640 0.000000 -0.006160 
#    y 0.000000 1.729460 0.000000 
#    z -0.006160 0.000000 1.755860 
# 
# From -- ./inp_files/66326.got.cif
#   From: 2010.06.25/outbox.cif.g09.slc.cpg/sg10_34_cif.got.tgz:66326.got - 2010.06.27 22:07:45.
