data_PCOD8063598
_publ_section_title
;
Structure prediction by ZEFSAII (Michael W. Deem and Ramdas Pophale) SiO2 
 PCOD8063598
Probable space group: P 2/M
;
_chemical_formula_sum "Si O2"
_cell_formula_units_Z 32
_cell_length_a 9.263779
_cell_length_b 9.185368
_cell_length_c 22.593774
_cell_angle_alpha 90.000000
_cell_angle_beta 111.660522
_cell_angle_gamma 90.000000
_cell_volume 1786.776259
_symmetry_space_group_name_H-M "P 2/M"
_symmetry_group_IT_number 10
_symmetry_cell_setting 'monoclinic'
loop_
_space_group_symop_operation_xyz
x,y,z
-x,y,-z
-x,-y,-z
x,-y,z
loop_
_atom_site_type_symbol
_atom_site_label
_atom_site_fract_x
_atom_site_fract_y
_atom_site_fract_z
Si Si1 0.039118 0.830778 0.374805
Si Si2 0.667826 0.829544 0.502315
Si Si3 0.651183 0.164254 0.141350
Si Si4 0.849922 0.335407 0.436356
Si Si5 0.205432 0.832370 0.963084
Si Si6 0.013365 0.168811 0.766298
Si Si7 0.070941 0.666096 0.133726
Si Si8 0.353071 0.665649 0.093430
O O1 0.204993 0.790745 0.428496
O O2 0.895892 0.744041 0.382402
O O3 0.049260 0.787972 0.307608
O O4 0.000725 0.000000 0.377458
O O5 0.500000 0.777030 0.500000
O O6 0.707956 0.745961 0.447560
O O7 0.666828 0.000000 0.487553
O O8 0.684987 0.183142 0.077079
O O9 0.803527 0.202658 0.202400
O O10 0.519001 0.276524 0.140709
O O11 0.595721 0.000000 0.146273
O O12 0.798253 0.500000 0.414774
O O13 0.000000 0.329662 0.500000
O O14 0.044077 0.749671 0.927978
O O15 0.166645 0.000000 0.970632
O O16 0.294436 0.764894 0.031431
O O17 0.920974 0.263275 0.800200
O O18 0.983250 0.000000 0.776734
O O19 0.013670 0.500000 0.130328
O O20 0.241988 0.676322 0.133001
O O21 0.367168 0.500000 0.073082
#
# Coordination Sequence:
#
# PCOD8063598 Si02
#       8
#     4   4   4   4   4   4   4   4
#     4   9  17  32  54  75  97 129 168 206 242 287
#     4   9  17  30  50  77 107 135 163 200 247 292
#     4   9  19  34  50  70  95 122 158 205 249 290
#     4   9  17  29  47  73 102 131 164 199 237 283
#     4  10  20  34  53  75  97 125 163 203 246 297
#     4   9  19  36  55  73  93 125 170 209 243 289
#     4  10  21  35  50  71 100 130 161 200 244 295
#     4  11  22  33  48  73 101 128 160 199 248 301
#
# _framework density 17.909348999999999
#
# number of rings (size 3 to 8) (size 9 to 14) (size 15 to 20)
#    0.000    2.500    0.000    3.000    0.000    9.750 
#    0.000    1.250    0.000    6.000    0.000    0.000 
#    0.000    0.000    0.000    0.000    0.000    0.000 
#
# Total GULP energy -396868.196642 kJ/mol
# GULP energy per Si atom -12402.131145 kJ/mol
# Density = 1.786859 g / cm^3
# Si number density = 17.909349 Si / 1000 Ang^3
#
#
#
# Elastic Constant Matrix: (Units=GPa)
#
#
# Indices 1 2 3 4 5 6 
#
# 1 107.5560 58.9800 33.3966 0.0000 -0.1061 0.0000
# 2 58.9800 109.2640 41.2433 0.0000 -4.9130 0.0000
# 3 33.3966 41.2433 82.2729 0.0000 -2.5752 0.0000
# 4 0.0000 0.0000 0.0000 13.4612 0.0000 -2.2037
# 5 -0.1061 -4.9130 -2.5752 0.0000 9.4820 0.0000
# 6 0.0000 0.0000 0.0000 -2.2037 0.0000 31.1537
#
#
#
# Elastic Compliance Matrix: (Units=1/GPa)
#
#
# Indices 1 2 3 4 5 6 
#
# 1 0.013681 -0.006684 -0.002326 0.000000 -0.003942 0.000000
# 2 -0.006684 0.014735 -0.004474 0.000000 0.006345 0.000000
# 3 -0.002326 -0.004474 0.015399 0.000000 0.001838 0.000000
# 4 0.000000 0.000000 0.000000 0.075158 0.000000 0.005316
# 5 -0.003942 0.006345 0.001838 0.000000 0.109205 0.000000
# 6 0.000000 0.000000 0.000000 0.005316 0.000000 0.032475
#
#
# Mechanical properties :
#
#
# Convention : Reuss Voigt Hill
#
# Bulk Modulus (GPa) = 59.36313 62.92584 61.14449
# Shear Modulus (GPa) = 17.05096 21.85092 19.45094
#
# Velocity S-wave (km/s) = 3.08891 3.49676 3.29914
# Velocity P-wave (km/s) = 6.77792 7.17740 6.98052
#
# Compressibility (1/GPa) = 0.01684547
#
# Stress axis : x y z
#
# Youngs Moduli (GPa) = 73.09249 67.86784 64.93719
#
# Poissons Ratio (x) = 0.45365 0.15105
# Poissons Ratio (y) = 0.48857 0.29056
# Poissons Ratio (z) = 0.17002 0.30367
#
# Static dielectric constant tensor:
#      x y z
#    x 3.281150 0.000000 -0.050560 
#    y 0.000000 3.441260 0.000000 
#    z -0.050560 0.000000 3.145020 
# 
# 
# High freq. dielectric constant tensor:
#      x y z
#    x 1.689040 0.000000 -0.007590 
#    y 0.000000 1.700120 0.000000 
#    z -0.007590 0.000000 1.672200 
# 
# From -- ./inp_files/91742.got.cif
#   From: 2010.06.25/outbox.cif.g09.slc.cpg/sg10_46_cif.got.tgz:91742.got - 2010.06.27 22:07:45.
