data_PCOD8063188
_publ_section_title
;
Structure prediction by ZEFSAII (Michael W. Deem and Ramdas Pophale) SiO2 
 PCOD8063188
Probable space group: P 2/M
;
_chemical_formula_sum "Si O2"
_cell_formula_units_Z 28
_cell_length_a 28.858111
_cell_length_b 9.204609
_cell_length_c 8.976591
_cell_angle_alpha 90.000000
_cell_angle_beta 141.045830
_cell_angle_gamma 90.000000
_cell_volume 1499.088077
_symmetry_space_group_name_H-M "P 2/M"
_symmetry_group_IT_number 10
_symmetry_cell_setting 'monoclinic'
loop_
_space_group_symop_operation_xyz
x,y,z
-x,y,-z
-x,-y,-z
x,-y,z
loop_
_atom_site_type_symbol
_atom_site_label
_atom_site_fract_x
_atom_site_fract_y
_atom_site_fract_z
Si Si1 0.145312 0.827024 0.195183
Si Si2 0.424462 0.667863 0.886936
Si Si3 0.292055 0.172321 0.060055
Si Si4 0.000000 0.826668 0.331651
Si Si5 0.424462 0.332137 0.235373
Si Si6 0.707945 0.172321 0.599779
Si Si7 0.854688 0.827024 0.468624
O O1 0.216260 0.770201 0.282890
O O2 0.148439 0.766324 0.371098
O O3 0.143648 0.000000 0.191754
O O4 0.072148 0.766189 0.932513
O O5 0.408503 0.500000 0.811037
O O6 0.359138 0.762739 0.658934
O O7 0.500000 0.719344 0.000000
O O8 0.431331 0.697580 0.078327
O O9 0.359138 0.237260 0.136757
O O10 0.295052 0.225962 0.237630
O O11 0.296960 0.000000 0.061821
O O12 0.216260 0.229800 0.798411
O O13 0.072148 0.766189 0.428227
O O14 0.000000 0.767365 0.500000
O O15 0.000000 0.000000 0.331106
O O16 0.500000 0.280657 0.500000
O O17 0.408502 0.500000 0.231476
O O18 0.703040 0.000000 0.577020
O O19 0.856352 0.000000 0.473515
#
# Coordination Sequence:
#
# PCOD8063188 Si02
#       7
#     4   4   4   4   4   4   4
#     4   9  16  26  41  63  93 128 164 202 244 289
#     4  10  21  37  56  76  98 127 164 204 246 294
#     4  10  20  33  50  74 103 133 165 203 248 295
#     4   9  15  23  37  59  90 127 164 201 242 289
#     4  10  21  37  56  76  98 127 164 204 246 294
#     4  10  20  33  50  74 103 133 165 203 248 295
#     4   9  16  26  41  63  93 128 164 202 244 289
#
# _framework density 18.678023
#
# number of rings (size 3 to 8) (size 9 to 14) (size 15 to 20)
#    0.000    2.429    0.000    3.000    0.000    9.143 
#    0.000    0.000    0.000    0.000    0.000    1.000 
#    0.000    8.000    0.000    0.000    0.000    0.000 
#
# Total GULP energy -347252.298361 kJ/mol
# GULP energy per Si atom -12401.867799 kJ/mol
# Density = 1.863551 g / cm^3
# Si number density = 18.678023 Si / 1000 Ang^3
#
#
#
# Elastic Constant Matrix: (Units=GPa)
#
#
# Indices 1 2 3 4 5 6 
#
# 1 155.9981 20.1312 69.0478 0.0000 9.4527 0.0000
# 2 20.1312 11.5296 21.1425 0.0000 1.7801 0.0000
# 3 69.0478 21.1425 165.1132 0.0000 6.5974 0.0000
# 4 0.0000 0.0000 0.0000 -14.3564 0.0000 -24.7749
# 5 9.4527 1.7801 6.5974 0.0000 41.1311 0.0000
# 6 0.0000 0.0000 0.0000 -24.7749 0.0000 -0.2895
#
#
#
# Elastic Compliance Matrix: (Units=1/GPa)
#
#
# Indices 1 2 3 4 5 6 
#
# 1 0.008934 -0.011305 -0.002240 0.000000 -0.001205 0.000000
# 2 -0.011305 0.127930 -0.011611 0.000000 -0.001076 0.000000
# 3 -0.002240 -0.011611 0.008494 0.000000 -0.000345 0.000000
# 4 0.000000 0.000000 0.000000 0.000475 0.000000 -0.040639
# 5 -0.001205 -0.001076 -0.000345 0.000000 0.024691 0.000000
# 6 0.000000 0.000000 0.000000 -0.040639 0.000000 0.023549
#
#
# Mechanical properties :
#
#
# Convention : Reuss Voigt Hill
#
# Bulk Modulus (GPa) = 10.52125 61.47600 35.99862
# Shear Modulus (GPa) = 18.11162 20.11831 19.11497
#
# Velocity S-wave (km/s) = 3.11734 3.28550 3.20252
# Velocity P-wave (km/s) = 4.31303 6.88314 5.74369
#
# Compressibility (1/GPa) = 0.09504573
#
# Stress axis : x y z
#
# Youngs Moduli (GPa) = 111.93487 7.81680 117.73244
#
# Poissons Ratio (x) = 0.08837 0.26375
# Poissons Ratio (y) = 1.26539 1.36696
# Poissons Ratio (z) = 0.25077 0.09076
#
# Static dielectric constant tensor:
#      x y z
#    x 3.693340 0.000000 -0.032820 
#    y 0.000000 2.870920 0.000000 
#    z -0.032820 0.000000 3.674690 
# 
# 
# High freq. dielectric constant tensor:
#      x y z
#    x 1.746860 0.000000 -0.001780 
#    y 0.000000 1.662360 0.000000 
#    z -0.001780 0.000000 1.745840 
# 
# From -- ./inp_files/36906.got.cif
#   From: 2010.06.25/outbox.cif.g09.slc.cpg/sg10_19_cif.got.tgz:36906.got - 2010.06.27 22:07:45.
