data_PCOD8063313
_publ_section_title
;
Structure prediction by ZEFSAII (Michael W. Deem and Ramdas Pophale) SiO2 
 PCOD8063313
Probable space group: P 2/M
;
_chemical_formula_sum "Si O2"
_cell_formula_units_Z 32
_cell_length_a 32.747990
_cell_length_b 8.899234
_cell_length_c 12.343784
_cell_angle_alpha 90.000000
_cell_angle_beta 150.717784
_cell_angle_gamma 90.000000
_cell_volume 1759.517873
_symmetry_space_group_name_H-M "P 2/M"
_symmetry_group_IT_number 10
_symmetry_cell_setting 'monoclinic'
loop_
_space_group_symop_operation_xyz
x,y,z
-x,y,-z
-x,-y,-z
x,-y,z
loop_
_atom_site_type_symbol
_atom_site_label
_atom_site_fract_x
_atom_site_fract_y
_atom_site_fract_z
Si Si1 0.540044 0.328202 0.204387
Si Si2 0.728523 0.329466 0.690210
Si Si3 0.980360 0.331264 0.828505
Si Si4 0.816211 0.822886 0.495515
Si Si5 0.659982 0.672716 0.757662
Si Si6 0.323839 0.327031 0.965928
Si Si7 0.145295 0.823899 0.172633
Si Si8 0.494287 0.823872 0.311810
O O1 0.515984 0.500000 0.177908
O O2 0.639354 0.310541 0.426330
O O3 0.501926 0.215663 0.203409
O O4 0.500000 0.276807 0.000000
O O5 0.761031 0.500000 0.753539
O O6 0.721415 0.282651 0.800700
O O7 0.792361 0.219602 0.778878
O O8 0.970852 0.500000 0.762284
O O9 0.893631 0.245366 0.607481
O O10 0.000000 0.327941 0.000000
O O11 0.056088 0.251722 0.940986
O O12 0.731182 0.766618 0.245139
O O13 0.818420 0.771368 0.626581
O O14 0.821099 0.000000 0.496963
O O15 0.630902 0.500000 0.671903
O O16 0.577978 0.776171 0.568179
O O17 0.707978 0.691469 0.983112
O O18 0.321182 0.500000 0.923460
O O19 0.417647 0.267419 0.183541
O O20 0.130832 0.000000 0.139096
O O21 0.479118 0.000000 0.292234
#
# Coordination Sequence:
#
# PCOD8063313 Si02
#       8
#     4   4   4   4   4   4   4   4
#     4   9  19  35  52  72 101 141 179 216 260 308
#     4   9  18  33  53  76 101 132 176 219 256 305
#     4   9  17  32  54  78 104 138 176 209 249 306
#     4  10  21  35  51  79 114 140 166 209 266 315
#     4   9  20  39  57  74  99 137 183 226 264 306
#     4  11  22  36  56  77 102 138 181 223 262 311
#     4  10  20  33  52  79 111 141 169 206 256 314
#     4  11  22  34  51  77 105 136 175 220 269 316
#
# _framework density 18.186799000000001
#
# number of rings (size 3 to 8) (size 9 to 14) (size 15 to 20)
#    0.000    2.250    0.000    3.750    1.750    7.750 
#    0.000    0.000    0.000    0.750    0.000    5.250 
#    0.000    0.000    0.000    0.000    0.000    0.000 
#
# Total GULP energy -396821.535122 kJ/mol
# GULP energy per Si atom -12400.672973 kJ/mol
# Density = 1.814540 g / cm^3
# Si number density = 18.186799 Si / 1000 Ang^3
#
#
#
# Elastic Constant Matrix: (Units=GPa)
#
#
# Indices 1 2 3 4 5 6 
#
# 1 84.0690 29.8359 39.0244 0.0000 13.6355 0.0000
# 2 29.8359 79.9892 26.6222 0.0000 7.0938 0.0000
# 3 39.0244 26.6222 43.1062 0.0000 3.8798 0.0000
# 4 0.0000 0.0000 0.0000 29.9253 0.0000 7.7194
# 5 13.6355 7.0938 3.8798 0.0000 21.2896 0.0000
# 6 0.0000 0.0000 0.0000 7.7194 0.0000 21.2262
#
#
#
# Elastic Compliance Matrix: (Units=1/GPa)
#
#
# Indices 1 2 3 4 5 6 
#
# 1 0.022907 -0.001270 -0.018983 0.000000 -0.010789 0.000000
# 2 -0.001270 0.016072 -0.008507 0.000000 -0.002992 0.000000
# 3 -0.018983 -0.008507 0.045027 0.000000 0.006787 0.000000
# 4 0.000000 0.000000 0.000000 0.036876 0.000000 -0.013411
# 5 -0.010789 -0.002992 0.006787 0.000000 0.053642 0.000000
# 6 0.000000 0.000000 0.000000 -0.013411 0.000000 0.051989
#
#
# Mechanical properties :
#
#
# Convention : Reuss Voigt Hill
#
# Bulk Modulus (GPa) = 37.75488 44.23659 40.99573
# Shear Modulus (GPa) = 17.07291 21.93368 19.50330
#
# Velocity S-wave (km/s) = 3.06723 3.47655 3.27829
# Velocity P-wave (km/s) = 5.77481 6.36329 6.07618
#
# Compressibility (1/GPa) = 0.02648664
#
# Stress axis : x y z
#
# Youngs Moduli (GPa) = 43.65413 62.22001 22.20881
#
# Poissons Ratio (x) = 0.07900 0.42159
# Poissons Ratio (y) = 0.05542 0.18894
# Poissons Ratio (z) = 0.82869 0.52933
#
# Static dielectric constant tensor:
#      x y z
#    x 3.366110 0.000000 -0.016120 
#    y 0.000000 3.338810 0.000000 
#    z -0.016120 0.000000 3.210820 
# 
# 
# High freq. dielectric constant tensor:
#      x y z
#    x 1.698570 0.000000 0.003470 
#    y 0.000000 1.709430 0.000000 
#    z 0.003470 0.000000 1.685050 
# 
# From -- ./inp_files/58287.got.cif
#   From: 2010.06.25/outbox.cif.g09.slc.cpg/sg10_30_cif.got.tgz:58287.got - 2010.06.27 22:07:45.
