data_PCOD8063393
_publ_section_title
;
Structure prediction by ZEFSAII (Michael W. Deem and Ramdas Pophale) SiO2 
 PCOD8063393
Probable space group: P 2/M
;
_chemical_formula_sum "Si O2"
_cell_formula_units_Z 32
_cell_length_a 23.175194
_cell_length_b 9.354039
_cell_length_c 22.535884
_cell_angle_alpha 90.000000
_cell_angle_beta 160.605445
_cell_angle_gamma 90.000000
_cell_volume 1622.290959
_symmetry_space_group_name_H-M "P 2/M"
_symmetry_group_IT_number 10
_symmetry_cell_setting 'monoclinic'
loop_
_space_group_symop_operation_xyz
x,y,z
-x,y,-z
-x,-y,-z
x,-y,z
loop_
_atom_site_type_symbol
_atom_site_label
_atom_site_fract_x
_atom_site_fract_y
_atom_site_fract_z
Si Si1 0.217349 0.335303 0.348494
Si Si2 0.139837 0.670045 0.803951
Si Si3 0.832814 0.662482 0.301822
Si Si4 0.465296 0.167444 0.146705
Si Si5 0.611918 0.148315 0.162567
Si Si6 0.227209 0.662999 0.497011
Si Si7 0.066292 0.834488 0.998358
Si Si8 0.467209 0.833593 0.399666
O O1 0.225852 0.500000 0.335814
O O2 0.190805 0.323490 0.392508
O O3 0.398335 0.259355 0.507655
O O4 0.048430 0.261706 0.156278
O O5 0.168567 0.500000 0.837319
O O6 0.159590 0.732739 0.755981
O O7 0.947208 0.711998 0.638360
O O8 0.283194 0.751558 0.983221
O O9 0.795587 0.500000 0.253113
O O10 0.699095 0.712817 0.221072
O O11 0.000000 0.699113 0.500000
O O12 0.507471 0.198118 0.118937
O O13 0.615918 0.233133 0.333428
O O14 0.445420 0.000000 0.142303
O O15 0.719879 0.000000 0.283416
O O16 0.500000 0.092649 0.000000
O O17 0.275318 0.500000 0.561185
O O18 0.269657 0.791896 0.190582
O O19 0.039175 0.000000 0.954951
O O20 0.000000 0.805620 0.000000
O O21 0.500000 0.799122 0.500000
O O22 0.502755 0.000000 0.421063
#
# Coordination Sequence:
#
# PCOD8063393 Si02
#       8
#     4   4   4   4   4   4   4   4
#     4  11  24  40  61  91 126 161 200 251 302 352
#     4  10  21  39  62  84 114 157 201 248 300 357
#     4  10  20  33  54  84 111 142 191 243 290 352
#     4  11  23  39  62  89 118 155 200 249 303 360
#     4  10  20  35  53  79 116 147 176 229 299 364
#     4  10  24  45  63  83 118 163 206 248 299 354
#     4  10  20  38  64  91 123 164 202 239 288 348
#     4  10  20  38  64  92 126 165 202 241 290 351
#
# _framework density 19.725190999999999
#
# number of rings (size 3 to 8) (size 9 to 14) (size 15 to 20)
#    0.000    1.750    2.500    1.500    0.000    6.000 
#    0.000    3.750    0.000    0.000    0.000    0.000 
#    0.000    0.000    0.000    0.000    0.000    0.000 
#
# Total GULP energy -396456.391101 kJ/mol
# GULP energy per Si atom -12389.262222 kJ/mol
# Density = 1.968030 g / cm^3
# Si number density = 19.725191 Si / 1000 Ang^3
#
#
#
# Elastic Constant Matrix: (Units=GPa)
#
#
# Indices 1 2 3 4 5 6 
#
# 1 46.9047 29.3883 26.8976 0.0000 -3.0545 0.0000
# 2 29.3883 91.7868 64.0579 0.0000 2.3340 0.0000
# 3 26.8976 64.0579 144.1934 0.0000 0.9385 0.0000
# 4 0.0000 0.0000 0.0000 22.2376 0.0000 -7.6459
# 5 -3.0545 2.3340 0.9385 0.0000 26.4853 0.0000
# 6 0.0000 0.0000 0.0000 -7.6459 0.0000 24.7127
#
#
#
# Elastic Compliance Matrix: (Units=1/GPa)
#
#
# Indices 1 2 3 4 5 6 
#
# 1 0.027359 -0.007652 -0.001730 0.000000 0.003891 0.000000
# 2 -0.007652 0.017965 -0.006539 0.000000 -0.002234 0.000000
# 3 -0.001730 -0.006539 0.010163 0.000000 0.000017 0.000000
# 4 0.000000 0.000000 0.000000 0.050322 0.000000 0.015569
# 5 0.003891 -0.002234 0.000017 0.000000 0.038402 0.000000
# 6 0.000000 0.000000 0.000000 0.015569 0.000000 0.045282
#
#
# Mechanical properties :
#
#
# Convention : Reuss Voigt Hill
#
# Bulk Modulus (GPa) = 42.29018 58.17475 50.23246
# Shear Modulus (GPa) = 21.81346 25.52318 23.66832
#
# Velocity S-wave (km/s) = 3.32907 3.60104 3.46772
# Velocity P-wave (km/s) = 6.02189 6.84446 6.44631
#
# Compressibility (1/GPa) = 0.02364615
#
# Stress axis : x y z
#
# Youngs Moduli (GPa) = 36.55068 55.66308 98.39928
#
# Poissons Ratio (x) = 0.42592 0.17019
# Poissons Ratio (y) = 0.27968 0.64345
# Poissons Ratio (z) = 0.06322 0.36399
#
# Static dielectric constant tensor:
#      x y z
#    x 3.531390 0.000000 0.006570 
#    y 0.000000 3.599610 0.000000 
#    z 0.006570 0.000000 3.611120 
# 
# 
# High freq. dielectric constant tensor:
#      x y z
#    x 1.763550 0.000000 0.000990 
#    y 0.000000 1.772750 0.000000 
#    z 0.000990 0.000000 1.773370 
# 
# From -- ./inp_files/90648.got.cif
#   From: 2010.06.25/outbox.cif.g09.slc.cpg/sg10_46_cif.got.tgz:90648.got - 2010.06.27 22:07:45.
