data_PCOD8063452
_publ_section_title
;
Structure prediction by ZEFSAII (Michael W. Deem and Ramdas Pophale) SiO2 
 PCOD8063452
Probable space group: P 2/M
;
_chemical_formula_sum "Si O2"
_cell_formula_units_Z 28
_cell_length_a 14.472086
_cell_length_b 9.042943
_cell_length_c 18.863369
_cell_angle_alpha 90.000000
_cell_angle_beta 38.580221
_cell_angle_gamma 90.000000
_cell_volume 1539.476629
_symmetry_space_group_name_H-M "P 2/M"
_symmetry_group_IT_number 10
_symmetry_cell_setting 'monoclinic'
loop_
_space_group_symop_operation_xyz
x,y,z
-x,y,-z
-x,-y,-z
x,-y,z
loop_
_atom_site_type_symbol
_atom_site_label
_atom_site_fract_x
_atom_site_fract_y
_atom_site_fract_z
Si Si1 0.368669 0.673701 0.413099
Si Si2 0.678980 0.672154 0.160652
Si Si3 0.842053 0.828330 0.942772
Si Si4 0.167577 0.166619 0.807264
Si Si5 0.951596 0.672275 0.749034
Si Si6 0.749993 0.170631 0.393258
Si Si7 0.058354 0.326464 0.538016
O O1 0.360105 0.500000 0.436129
O O2 0.510280 0.711460 0.280625
O O3 0.383781 0.766327 0.478037
O O4 0.222680 0.732477 0.459119
O O5 0.703472 0.500000 0.134006
O O6 0.788133 0.721751 0.157910
O O7 0.715056 0.754825 0.066168
O O8 0.001599 0.795595 0.881777
O O9 0.834252 0.760998 0.867768
O O10 0.809015 0.000000 0.956055
O O11 0.280831 0.181998 0.672625
O O12 0.173655 0.000000 0.834288
O O13 0.931143 0.500000 0.777260
O O14 0.115483 0.720785 0.671197
O O15 0.938283 0.706780 0.672616
O O16 0.787169 0.000000 0.390181
O O17 0.074930 0.500000 0.516767
O O18 0.000000 0.252021 0.500000
#
# Coordination Sequence:
#
# PCOD8063452 Si02
#       7
#     4   4   4   4   4   4   4
#     4   9  19  33  47  69  99 125 154 194 238 284
#     4  11  22  32  45  67  95 127 161 200 242 278
#     4  10  20  34  50  67  92 127 166 201 231 272
#     4   9  19  33  47  66  91 122 163 205 237 271
#     4   9  16  28  49  75  99 121 151 193 236 276
#     4   9  17  30  48  68  93 126 161 195 233 279
#     4   8  14  28  53  79  98 118 146 185 233 282
#
# _framework density 18.187999000000001
#
# number of rings (size 3 to 8) (size 9 to 14) (size 15 to 20)
#    0.000    2.714    0.000    3.857    0.000    6.857 
#    0.000    2.857    0.000   11.571    0.000    6.000 
#    0.000    0.000    0.000    0.000    0.000    0.000 
#
# Total GULP energy -347018.623332 kJ/mol
# GULP energy per Si atom -12393.522262 kJ/mol
# Density = 1.814660 g / cm^3
# Si number density = 18.187999 Si / 1000 Ang^3
#
#
#
# Elastic Constant Matrix: (Units=GPa)
#
#
# Indices 1 2 3 4 5 6 
#
# 1 28.6965 15.4865 34.3428 0.0000 16.3140 0.0000
# 2 15.4865 75.3494 65.5395 0.0000 14.8257 0.0000
# 3 34.3428 65.5395 148.8035 0.0000 25.1375 0.0000
# 4 0.0000 0.0000 0.0000 28.4083 0.0000 1.0585
# 5 16.3140 14.8257 25.1375 0.0000 25.1158 0.0000
# 6 0.0000 0.0000 0.0000 1.0585 0.0000 6.7745
#
#
#
# Elastic Compliance Matrix: (Units=1/GPa)
#
#
# Indices 1 2 3 4 5 6 
#
# 1 0.064834 0.002166 -0.010334 0.000000 -0.033048 0.000000
# 2 0.002166 0.021903 -0.009297 0.000000 -0.005031 0.000000
# 3 -0.010334 -0.009297 0.013406 0.000000 -0.001217 0.000000
# 4 0.000000 0.000000 0.000000 0.035407 0.000000 -0.005532
# 5 -0.033048 -0.005031 -0.001217 0.000000 0.065470 0.000000
# 6 0.000000 0.000000 0.000000 -0.005532 0.000000 0.148477
#
#
# Mechanical properties :
#
#
# Convention : Reuss Voigt Hill
#
# Bulk Modulus (GPa) = 15.33453 53.73190 34.53322
# Shear Modulus (GPa) = 12.31031 21.22511 16.76771
#
# Velocity S-wave (km/s) = 2.60443 3.41982 3.03959
# Velocity P-wave (km/s) = 4.18252 6.72311 5.59883
#
# Compressibility (1/GPa) = 0.06521229
#
# Stress axis : x y z
#
# Youngs Moduli (GPa) = 15.42395 45.65631 74.59507
#
# Poissons Ratio (x) = -0.09890 0.77090
# Poissons Ratio (y) = -0.03341 0.69351
# Poissons Ratio (z) = 0.15940 0.42447
#
# Static dielectric constant tensor:
#      x y z
#    x 3.201520 0.000000 0.358030 
#    y 0.000000 3.317270 0.000000 
#    z 0.358030 0.000000 3.761110 
# 
# 
# High freq. dielectric constant tensor:
#      x y z
#    x 1.656180 0.000000 0.025250 
#    y 0.000000 1.700760 0.000000 
#    z 0.025250 0.000000 1.716910 
# 
# From -- ./inp_files/54677.got.cif
#   From: 2010.06.25/outbox.cif.g09.slc.cpg/sg10_28_cif.got.tgz:54677.got - 2010.06.27 22:07:45.
