data_PCOD8063620
_publ_section_title
;
Structure prediction by ZEFSAII (Michael W. Deem and Ramdas Pophale) SiO2 
 PCOD8063620
Probable space group: P 2/M
;
_chemical_formula_sum "Si O2"
_cell_formula_units_Z 32
_cell_length_a 28.871697
_cell_length_b 9.071210
_cell_length_c 6.928579
_cell_angle_alpha 90.000000
_cell_angle_beta 102.011351
_cell_angle_gamma 90.000000
_cell_volume 1774.875124
_symmetry_space_group_name_H-M "P 2/M"
_symmetry_group_IT_number 10
_symmetry_cell_setting 'monoclinic'
loop_
_space_group_symop_operation_xyz
x,y,z
-x,y,-z
-x,-y,-z
x,-y,z
loop_
_atom_site_type_symbol
_atom_site_label
_atom_site_fract_x
_atom_site_fract_y
_atom_site_fract_z
Si Si1 0.874345 0.174206 0.676581
Si Si2 0.631264 0.171041 0.847183
Si Si3 0.617634 0.671225 0.433748
Si Si4 0.802852 0.670950 0.345690
Si Si5 0.053842 0.328960 0.530233
Si Si6 0.125455 0.667816 0.925147
Si Si7 0.695982 0.670870 0.189174
Si Si8 0.552825 0.829251 0.091984
O O1 0.827106 0.235703 0.535363
O O2 0.921302 0.236478 0.616099
O O3 0.874484 0.000000 0.660185
O O4 0.874462 0.219502 0.899423
O O5 0.624320 0.250129 0.640550
O O6 0.640108 0.000000 0.818308
O O7 0.677291 0.236044 0.992482
O O8 0.584502 0.200906 0.931943
O O9 0.609060 0.500000 0.461935
O O10 0.664409 0.702171 0.349298
O O11 0.571538 0.735780 0.288311
O O12 0.806775 0.500000 0.408385
O O13 0.828177 0.698610 0.163339
O O14 0.748870 0.723445 0.282266
O O15 0.057223 0.500000 0.473687
O O16 0.078880 0.301878 0.756955
O O17 0.000000 0.275092 0.500000
O O18 0.125587 0.500000 0.002558
O O19 0.694634 0.500000 0.128300
O O20 0.553938 0.000000 0.153326
O O21 0.500000 0.775619 0.000000
#
# Coordination Sequence:
#
# PCOD8063620 Si02
#       8
#     4   4   4   4   4   4   4   4
#     4  11  22  34  51  77 110 140 166 206 258 310
#     4  10  20  34  53  76 104 136 169 209 256 308
#     4  10  20  34  53  77 106 136 168 211 259 308
#     4   9  19  37  58  76  98 134 178 217 251 295
#     4   9  19  37  59  79 100 133 178 220 254 296
#     4   9  18  34  55  76 100 132 171 213 252 296
#     4   9  19  36  56  77 101 132 172 215 256 299
#     4   9  19  36  55  74  99 134 175 215 255 303
#
# _framework density 18.029436
#
# number of rings (size 3 to 8) (size 9 to 14) (size 15 to 20)
#    0.000    2.500    0.000    2.625    0.000    6.000 
#    0.000   10.000    0.000    0.000    0.000    0.000 
#    0.000    0.000    0.000    0.000    0.000    0.000 
#
# Total GULP energy -396918.804147 kJ/mol
# GULP energy per Si atom -12403.712630 kJ/mol
# Density = 1.798840 g / cm^3
# Si number density = 18.029436 Si / 1000 Ang^3
#
#
#
# Elastic Constant Matrix: (Units=GPa)
#
#
# Indices 1 2 3 4 5 6 
#
# 1 142.9772 50.1200 53.9801 0.0000 20.1971 0.0000
# 2 50.1200 98.3155 69.1383 0.0000 7.6078 0.0000
# 3 53.9801 69.1383 123.7630 0.0000 8.9592 0.0000
# 4 0.0000 0.0000 0.0000 25.1019 0.0000 -1.8744
# 5 20.1971 7.6078 8.9592 0.0000 14.8519 0.0000
# 6 0.0000 0.0000 0.0000 -1.8744 0.0000 20.3964
#
#
#
# Elastic Compliance Matrix: (Units=1/GPa)
#
#
# Indices 1 2 3 4 5 6 
#
# 1 0.010429 -0.002991 -0.002052 0.000000 -0.011413 0.000000
# 2 -0.002991 0.017745 -0.008622 0.000000 0.000178 0.000000
# 3 -0.002052 -0.008622 0.013875 0.000000 -0.001163 0.000000
# 4 0.000000 0.000000 0.000000 0.040113 0.000000 0.003686
# 5 -0.011413 0.000178 -0.001163 0.000000 0.083463 0.000000
# 6 0.000000 0.000000 0.000000 0.003686 0.000000 0.049367
#
#
# Mechanical properties :
#
#
# Convention : Reuss Voigt Hill
#
# Bulk Modulus (GPa) = 67.92701 79.05916 73.49308
# Shear Modulus (GPa) = 20.22425 24.85786 22.54106
#
# Velocity S-wave (km/s) = 3.35287 3.71716 3.53970
# Velocity P-wave (km/s) = 7.26267 7.89736 7.58665
#
# Compressibility (1/GPa) = 0.01472169
#
# Stress axis : x y z
#
# Youngs Moduli (GPa) = 95.88266 56.35388 72.06973
#
# Poissons Ratio (x) = 0.16853 0.14789
# Poissons Ratio (y) = 0.28674 0.62135
# Poissons Ratio (z) = 0.19675 0.48586
#
# Static dielectric constant tensor:
#      x y z
#    x 3.532200 0.000000 0.069570 
#    y 0.000000 3.304670 0.000000 
#    z 0.069570 0.000000 3.243870 
# 
# 
# High freq. dielectric constant tensor:
#      x y z
#    x 1.702100 0.000000 0.004290 
#    y 0.000000 1.696290 0.000000 
#    z 0.004290 0.000000 1.698570 
# 
# From -- ./inp_files/13647.got.cif
#   From: 2010.06.25/outbox.cif.g09.slc.cpg/sg10_7_cif.got.tgz:13647.got - 2010.06.27 22:07:45.
