data_PCOD8063516
_publ_section_title
;
Structure prediction by ZEFSAII (Michael W. Deem and Ramdas Pophale) SiO2 
 PCOD8063516
Probable space group: P 2/M
;
_chemical_formula_sum "Si O2"
_cell_formula_units_Z 32
_cell_length_a 23.917630
_cell_length_b 8.993136
_cell_length_c 17.591888
_cell_angle_alpha 90.000000
_cell_angle_beta 149.751661
_cell_angle_gamma 90.000000
_cell_volume 1906.144833
_symmetry_space_group_name_H-M "P 2/M"
_symmetry_group_IT_number 10
_symmetry_cell_setting 'monoclinic'
loop_
_space_group_symop_operation_xyz
x,y,z
-x,y,-z
-x,-y,-z
x,-y,z
loop_
_atom_site_type_symbol
_atom_site_label
_atom_site_fract_x
_atom_site_fract_y
_atom_site_fract_z
Si Si1 0.485663 0.326498 0.070729
Si Si2 0.830475 0.324647 0.667322
Si Si3 0.306971 0.176025 0.619774
Si Si4 0.895122 0.172142 0.215634
Si Si5 0.941179 0.826729 0.101553
Si Si6 0.869291 0.164198 0.859704
Si Si7 0.140148 0.825554 0.555244
Si Si8 0.764615 0.325702 0.188206
O O1 0.510631 0.500000 0.113270
O O2 0.568542 0.228980 0.218290
O O3 0.500000 0.282846 0.000000
O O4 0.363109 0.280473 0.952607
O O5 0.823610 0.500000 0.652480
O O6 0.731947 0.251759 0.503678
O O7 0.812837 0.278669 0.735061
O O8 0.947724 0.269750 0.772703
O O9 0.228447 0.230036 0.596552
O O10 0.302465 0.000000 0.604512
O O11 0.878921 0.205972 0.107269
O O12 0.805111 0.269524 0.153991
O O13 0.018693 0.219920 0.384392
O O14 0.874431 0.000000 0.210181
O O15 0.977784 0.000000 0.139884
O O16 0.855587 0.787068 0.932255
O O17 0.818184 0.000000 0.786048
O O18 0.000000 0.159804 0.000000
O O19 0.160737 0.747150 0.659176
O O20 0.151135 0.000000 0.581119
O O21 0.780773 0.500000 0.213478
#
# Coordination Sequence:
#
# PCOD8063516 Si02
#       8
#     4   4   4   4   4   4   4   4
#     4  10  21  38  54  71  99 131 165 210 261 302
#     4  11  20  29  46  73 106 135 163 203 252 301
#     4  11  21  34  54  76  98 129 174 213 248 296
#     4  10  20  35  52  72 102 135 171 209 247 292
#     4   9  17  32  50  70  99 137 171 204 245 292
#     4   8  15  28  47  68  97 134 169 201 240 293
#     4  10  20  34  52  72  98 132 169 210 249 292
#     4  11  23  36  51  72 100 132 169 210 253 303
#
# _framework density 16.787811000000001
#
# number of rings (size 3 to 8) (size 9 to 14) (size 15 to 20)
#    0.000    2.000    2.500    3.000    0.000    6.500 
#    0.000    0.000    0.000    0.000    0.000    0.875 
#    0.000    7.000    0.000    0.000    0.000    0.000 
#
# Total GULP energy -396838.754127 kJ/mol
# GULP energy per Si atom -12401.211066 kJ/mol
# Density = 1.674960 g / cm^3
# Si number density = 16.787811 Si / 1000 Ang^3
#
#
#
# Elastic Constant Matrix: (Units=GPa)
#
#
# Indices 1 2 3 4 5 6 
#
# 1 112.5874 36.8035 57.8126 0.0000 -14.6647 0.0000
# 2 36.8035 66.2874 41.0152 0.0000 -8.2387 0.0000
# 3 57.8126 41.0152 78.1145 0.0000 -15.2356 0.0000
# 4 0.0000 0.0000 0.0000 25.0753 0.0000 2.8036
# 5 -14.6647 -8.2387 -15.2356 0.0000 29.8940 0.0000
# 6 0.0000 0.0000 0.0000 2.8036 0.0000 18.5545
#
#
#
# Elastic Compliance Matrix: (Units=1/GPa)
#
#
# Indices 1 2 3 4 5 6 
#
# 1 0.014609 -0.002095 -0.009357 0.000000 0.001820 0.000000
# 2 -0.002095 0.022647 -0.010353 0.000000 -0.000063 0.000000
# 3 -0.009357 -0.010353 0.026328 0.000000 0.005975 0.000000
# 4 0.000000 0.000000 0.000000 0.040565 0.000000 -0.006130
# 5 0.001820 -0.000063 0.005975 0.000000 0.037372 0.000000
# 6 0.000000 0.000000 0.000000 -0.006130 0.000000 0.054821
#
#
# Mechanical properties :
#
#
# Convention : Reuss Voigt Hill
#
# Bulk Modulus (GPa) = 50.06461 58.69469 54.37965
# Shear Modulus (GPa) = 20.27495 22.79528 21.53512
#
# Velocity S-wave (km/s) = 3.47899 3.68890 3.58548
# Velocity P-wave (km/s) = 6.78414 7.29263 7.04298
#
# Compressibility (1/GPa) = 0.01997419
#
# Stress axis : x y z
#
# Youngs Moduli (GPa) = 68.45317 44.15585 37.98262
#
# Poissons Ratio (x) = 0.09251 0.35539
# Poissons Ratio (y) = 0.14342 0.39323
# Poissons Ratio (z) = 0.64049 0.45714
#
# Static dielectric constant tensor:
#      x y z
#    x 3.305160 0.000000 -0.298410 
#    y 0.000000 3.086600 0.000000 
#    z -0.298410 0.000000 3.112110 
# 
# 
# High freq. dielectric constant tensor:
#      x y z
#    x 1.636280 0.000000 -0.025140 
#    y 0.000000 1.646950 0.000000 
#    z -0.025140 0.000000 1.629330 
# 
# From -- ./inp_files/79949.got.cif
#   From: 2010.06.25/outbox.cif.g09.slc.cpg/sg10_40_cif.got.tgz:79949.got - 2010.06.27 22:07:45.
