data_PCOD8063931
_publ_section_title
;
Structure prediction by ZEFSAII (Michael W. Deem and Ramdas Pophale) SiO2 
 PCOD8063931
Probable space group: P 2/M
;
_chemical_formula_sum "Si O2"
_cell_formula_units_Z 28
_cell_length_a 9.642708
_cell_length_b 14.142914
_cell_length_c 18.355283
_cell_angle_alpha 90.000000
_cell_angle_beta 36.222747
_cell_angle_gamma 90.000000
_cell_volume 1479.217698
_symmetry_space_group_name_H-M "P 2/M"
_symmetry_group_IT_number 10
_symmetry_cell_setting 'monoclinic'
loop_
_space_group_symop_operation_xyz
x,y,z
-x,y,-z
-x,-y,-z
x,-y,z
loop_
_atom_site_type_symbol
_atom_site_label
_atom_site_fract_x
_atom_site_fract_y
_atom_site_fract_z
Si Si1 0.939848 0.204411 0.694010
Si Si2 0.342675 0.000000 0.392860
Si Si3 0.817168 0.894232 0.014149
Si Si4 0.933252 0.758586 0.201163
Si Si5 0.413813 0.193456 0.409579
Si Si6 0.545078 0.747279 0.764395
Si Si7 0.822264 0.396557 0.139059
Si Si8 0.149845 0.000000 0.324419
O O1 0.930471 0.242208 0.780354
O O2 0.204098 0.217386 0.553217
O O3 0.762614 0.273853 0.725893
O O4 0.850074 0.095120 0.725036
O O5 0.476298 0.916109 0.376443
O O6 0.361991 0.000000 0.295232
O O7 0.073886 0.000000 0.529674
O O8 0.958482 0.846893 0.887851
O O9 0.723623 0.000000 0.030843
O O10 0.610482 0.826997 0.129900
O O11 0.000000 0.907624 0.000000
O O12 0.654319 0.760946 0.334873
O O13 0.959501 0.662496 0.143372
O O14 0.335090 0.218737 0.360985
O O15 0.399114 0.655272 0.803827
O O16 0.744599 0.500000 0.202773
O O17 0.000000 0.413726 0.000000
#
# Coordination Sequence:
#
# PCOD8063931 Si02
#       8
#     4   2   4   4   4   4   4   2
#     4  11  23  34  54  86 126 156 187 232 284 341
#     4   9  16  29  51  74 106 157 216 233 245 305
#     4  11  22  36  56  83 114 158 200 230 279 337
#     4  11  22  39  57  85 120 150 192 236 293 346
#     4  10  20  34  57  80 112 162 202 232 267 326
#     4  11  20  37  60  85 116 150 196 233 280 342
#     4  10  20  42  68  86 105 140 199 250 287 339
#     4   9  18  31  45  78 117 162 196 223 268 311
#
# _framework density 18.928923000000001
#
# number of rings (size 3 to 8) (size 9 to 14) (size 15 to 20)
#    0.000    1.571    5.714    0.857    4.000    0.571 
#    0.000    3.571    0.000   15.429    0.000    0.000 
#    0.000    0.000    0.000    0.000    0.000    0.000 
#
# Total GULP energy -346881.954737 kJ/mol
# GULP energy per Si atom -12388.641241 kJ/mol
# Density = 1.888584 g / cm^3
# Si number density = 18.928923 Si / 1000 Ang^3
#
#
#
# Elastic Constant Matrix: (Units=GPa)
#
#
# Indices 1 2 3 4 5 6 
#
# 1 110.6776 32.3643 14.3445 0.0000 23.1385 0.0000
# 2 32.3643 110.3744 27.0722 0.0000 11.6573 0.0000
# 3 14.3445 27.0722 52.1586 0.0000 15.5789 0.0000
# 4 0.0000 0.0000 0.0000 10.6950 0.0000 -17.4912
# 5 23.1385 11.6573 15.5789 0.0000 20.4274 0.0000
# 6 0.0000 0.0000 0.0000 -17.4912 0.0000 -52.3689
#
#
#
# Elastic Compliance Matrix: (Units=1/GPa)
#
#
# Indices 1 2 3 4 5 6 
#
# 1 0.012542 -0.002712 0.002252 0.000000 -0.014377 0.000000
# 2 -0.002712 0.011056 -0.005213 0.000000 0.000738 0.000000
# 3 0.002252 -0.005213 0.027366 0.000000 -0.020447 0.000000
# 4 0.000000 0.000000 0.000000 0.060470 0.000000 -0.020197
# 5 -0.014377 0.000738 -0.020447 0.000000 0.080411 0.000000
# 6 0.000000 0.000000 0.000000 -0.020197 0.000000 -0.012349
#
#
# Mechanical properties :
#
#
# Convention : Reuss Voigt Hill
#
# Bulk Modulus (GPa) = 25.24064 46.75251 35.99657
# Shear Modulus (GPa) = 24.50426 9.04600 16.77513
#
# Velocity S-wave (km/s) = 3.60188 2.18845 2.98017
# Velocity P-wave (km/s) = 5.53727 5.58017 5.55876
#
# Compressibility (1/GPa) = 0.03961865
#
# Stress axis : x y z
#
# Youngs Moduli (GPa) = 79.73280 90.44972 36.54212
#
# Poissons Ratio (x) = 0.24526 -0.08230
# Poissons Ratio (y) = 0.21620 0.19050
# Poissons Ratio (z) = -0.17958 0.47152
#
# Static dielectric constant tensor:
#      x y z
#    x 3.609040 0.000000 -0.159510 
#    y 0.000000 3.845760 0.000000 
#    z -0.159510 0.000000 3.662940 
# 
# 
# High freq. dielectric constant tensor:
#      x y z
#    x 1.725580 0.000000 -0.001580 
#    y 0.000000 1.705790 0.000000 
#    z -0.001580 0.000000 1.739680 
# 
# From -- ./inp_files/42707.got.cif
#   From: 2010.06.25/outbox.cif.g09.slc.cpg/sg10_22_cif.got.tgz:42707.got - 2010.06.27 22:07:45.
