data_PCOD8063281
_publ_section_title
;
Structure prediction by ZEFSAII (Michael W. Deem and Ramdas Pophale) SiO2 
 PCOD8063281
Probable space group: P 2/M
;
_chemical_formula_sum "Si O2"
_cell_formula_units_Z 32
_cell_length_a 11.487594
_cell_length_b 8.994574
_cell_length_c 27.458701
_cell_angle_alpha 90.000000
_cell_angle_beta 37.014299
_cell_angle_gamma 90.000000
_cell_volume 1708.033892
_symmetry_space_group_name_H-M "P 2/M"
_symmetry_group_IT_number 10
_symmetry_cell_setting 'monoclinic'
loop_
_space_group_symop_operation_xyz
x,y,z
-x,y,-z
-x,-y,-z
x,-y,z
loop_
_atom_site_type_symbol
_atom_site_label
_atom_site_fract_x
_atom_site_fract_y
_atom_site_fract_z
Si Si1 0.021133 0.824818 0.765435
Si Si2 0.298274 0.824054 0.386419
Si Si3 0.819913 0.175941 0.091312
Si Si4 0.274050 0.176878 0.770932
Si Si5 0.367770 0.668913 0.088642
Si Si6 0.536457 0.668230 0.836721
Si Si7 0.942340 0.824301 0.442293
Si Si8 0.980602 0.324747 0.680146
O O1 0.159183 0.764542 0.762330
O O2 0.076295 0.745084 0.696496
O O3 0.805015 0.785326 0.853213
O O4 0.041689 0.000000 0.751338
O O5 0.508579 0.756186 0.304353
O O6 0.230928 0.778958 0.463320
O O7 0.144376 0.766901 0.398019
O O8 0.302150 0.000000 0.382046
O O9 0.830473 0.229912 0.144140
O O10 0.614770 0.225089 0.138588
O O11 0.826400 0.000000 0.086059
O O12 0.000000 0.243343 0.000000
O O13 0.283200 0.000000 0.767071
O O14 0.287370 0.500000 0.110489
O O15 0.495339 0.681416 0.094754
O O16 0.500000 0.716090 0.000000
O O17 0.501262 0.500000 0.830544
O O18 0.754737 0.720062 0.751602
O O19 0.905923 0.739589 0.404022
O O20 0.946473 0.000000 0.431348
O O21 0.006081 0.500000 0.674903
#
# Coordination Sequence:
#
# PCOD8063281 Si02
#       8
#     4   4   4   4   4   4   4   4
#     4  10  20  33  52  75  98 133 179 217 252 304
#     4   8  15  29  51  80 109 137 169 211 258 306
#     4  10  21  34  51  76 105 134 164 207 261 305
#     4   9  18  33  50  72 107 140 166 207 262 311
#     4   9  19  35  53  72  99 133 168 213 266 306
#     4   9  19  34  50  71  97 129 170 205 244 304
#     4   9  16  29  55  84 104 130 175 216 252 304
#     4  10  20  35  53  74 105 137 167 212 266 308
#
# _framework density 18.734991000000001
#
# number of rings (size 3 to 8) (size 9 to 14) (size 15 to 20)
#    0.000    2.750    0.000    3.000    1.750    4.000 
#    0.000    3.125    0.000    7.500    0.000    0.000 
#    0.000    0.000    0.000    0.000    0.000    0.000 
#
# Total GULP energy -396721.100812 kJ/mol
# GULP energy per Si atom -12397.534400 kJ/mol
# Density = 1.869235 g / cm^3
# Si number density = 18.734991 Si / 1000 Ang^3
#
#
#
# Elastic Constant Matrix: (Units=GPa)
#
#
# Indices 1 2 3 4 5 6 
#
# 1 119.9786 28.6959 62.0774 0.0000 17.2743 0.0000
# 2 28.6959 37.9015 25.3762 0.0000 6.7466 0.0000
# 3 62.0774 25.3762 103.1007 0.0000 24.3949 0.0000
# 4 0.0000 0.0000 0.0000 18.2516 0.0000 1.4610
# 5 17.2743 6.7466 24.3949 0.0000 34.9158 0.0000
# 6 0.0000 0.0000 0.0000 1.4610 0.0000 19.5528
#
#
#
# Elastic Compliance Matrix: (Units=1/GPa)
#
#
# Indices 1 2 3 4 5 6 
#
# 1 0.013031 -0.005499 -0.006252 0.000000 -0.001016 0.000000
# 2 -0.005499 0.033930 -0.004951 0.000000 -0.000376 0.000000
# 3 -0.006252 -0.004951 0.016442 0.000000 -0.007438 0.000000
# 4 0.000000 0.000000 0.000000 0.055119 0.000000 -0.004119
# 5 -0.001016 -0.000376 -0.007438 0.000000 0.034412 0.000000
# 6 0.000000 0.000000 0.000000 -0.004119 0.000000 0.051451
#
#
# Mechanical properties :
#
#
# Convention : Reuss Voigt Hill
#
# Bulk Modulus (GPa) = 33.33532 54.80885 44.07209
# Shear Modulus (GPa) = 20.17831 24.19946 22.18888
#
# Velocity S-wave (km/s) = 3.28539 3.59788 3.44518
# Velocity P-wave (km/s) = 5.67657 6.82481 6.27700
#
# Compressibility (1/GPa) = 0.02999821
#
# Stress axis : x y z
#
# Youngs Moduli (GPa) = 76.73793 29.47283 60.81895
#
# Poissons Ratio (x) = 0.16208 0.38025
# Poissons Ratio (y) = 0.42200 0.30111
# Poissons Ratio (z) = 0.47978 0.14592
#
# Static dielectric constant tensor:
#      x y z
#    x 3.535890 0.000000 0.162890 
#    y 0.000000 3.086040 0.000000 
#    z 0.162890 0.000000 3.640980 
# 
# 
# High freq. dielectric constant tensor:
#      x y z
#    x 1.728380 0.000000 0.018620 
#    y 0.000000 1.697610 0.000000 
#    z 0.018620 0.000000 1.725170 
# 
# From -- ./inp_files/94926.got.cif
#   From: 2010.06.25/outbox.cif.g09.slc.cpg/sg10_48_cif.got.tgz:94926.got - 2010.06.27 22:07:45.
