data_PCOD8063333
_publ_section_title
;
Structure prediction by ZEFSAII (Michael W. Deem and Ramdas Pophale) SiO2 
 PCOD8063333
Probable space group: P 2/M
;
_chemical_formula_sum "Si O2"
_cell_formula_units_Z 32
_cell_length_a 24.460770
_cell_length_b 9.068445
_cell_length_c 15.130156
_cell_angle_alpha 90.000000
_cell_angle_beta 28.393428
_cell_angle_gamma 90.000000
_cell_volume 1595.945887
_symmetry_space_group_name_H-M "P 2/M"
_symmetry_group_IT_number 10
_symmetry_cell_setting 'monoclinic'
loop_
_space_group_symop_operation_xyz
x,y,z
-x,y,-z
-x,-y,-z
x,-y,z
loop_
_atom_site_type_symbol
_atom_site_label
_atom_site_fract_x
_atom_site_fract_y
_atom_site_fract_z
Si Si1 0.550871 0.337456 0.018327
Si Si2 0.503694 0.325496 0.598248
Si Si3 0.953765 0.333433 0.966772
Si Si4 0.119625 0.171370 0.372688
Si Si5 0.827948 0.829688 0.388140
Si Si6 0.635628 0.173696 0.058810
Si Si7 0.734875 0.172234 0.326904
Si Si8 0.207942 0.659862 0.400252
O O1 0.492943 0.500000 0.118588
O O2 0.544740 0.230635 0.112532
O O3 0.500000 0.266447 0.000000
O O4 0.684500 0.363790 0.815198
O O5 0.500000 0.285625 0.500000
O O6 0.502447 0.500000 0.615511
O O7 0.395711 0.253608 0.803910
O O8 0.618391 0.256789 0.474962
O O9 0.934005 0.500000 0.961279
O O10 0.049349 0.250728 0.773387
O O11 0.835425 0.243526 0.124785
O O12 0.000000 0.331575 0.000000
O O13 0.116010 0.254001 0.471644
O O14 0.000000 0.220688 0.500000
O O15 0.121805 0.000000 0.391545
O O16 0.230929 0.209769 0.153375
O O17 0.765430 0.801399 0.385343
O O18 0.750825 0.756222 0.574017
O O19 0.848517 0.000000 0.376492
O O20 0.614632 0.000000 0.098748
O O21 0.723564 0.000000 0.319891
O O22 0.159272 0.500000 0.499396
#
# Coordination Sequence:
#
# PCOD8063333 Si02
#       8
#     4   4   4   4   4   4   4   4
#     4   9  19  35  55  83 118 157 193 230 283 352
#     4  11  25  44  63  84 115 157 203 253 303 357
#     4   9  17  32  54  80 111 148 188 231 281 340
#     4   9  19  39  63  85 115 154 193 236 293 356
#     4  10  20  34  54  83 119 153 190 236 291 350
#     4  10  21  38  62  90 117 151 194 247 302 352
#     4  10  21  37  59  85 113 151 194 241 298 354
#     4  10  20  33  52  83 118 151 190 235 284 340
#
# _framework density 20.050806000000001
#
# number of rings (size 3 to 8) (size 9 to 14) (size 15 to 20)
#    0.000    2.250    0.000    2.250    1.750    5.500 
#    2.250    0.000    0.000    0.000    0.000    0.000 
#    0.000    0.000    0.000    0.000    0.000    0.000 
#
# Total GULP energy -396636.235338 kJ/mol
# GULP energy per Si atom -12394.882354 kJ/mol
# Density = 2.000517 g / cm^3
# Si number density = 20.050806 Si / 1000 Ang^3
#
#
#
# Elastic Constant Matrix: (Units=GPa)
#
#
# Indices 1 2 3 4 5 6 
#
# 1 93.5899 64.7520 38.4325 0.0000 5.3808 0.0000
# 2 64.7520 129.2577 46.9770 0.0000 9.7098 0.0000
# 3 38.4325 46.9770 71.6156 0.0000 1.8802 0.0000
# 4 0.0000 0.0000 0.0000 33.6025 0.0000 3.0432
# 5 5.3808 9.7098 1.8802 0.0000 30.0062 0.0000
# 6 0.0000 0.0000 0.0000 3.0432 0.0000 28.8927
#
#
#
# Elastic Compliance Matrix: (Units=1/GPa)
#
#
# Indices 1 2 3 4 5 6 
#
# 1 0.017528 -0.006991 -0.004806 0.000000 -0.000580 0.000000
# 2 -0.006991 0.013200 -0.004836 0.000000 -0.002715 0.000000
# 3 -0.004806 -0.004836 0.019683 0.000000 0.001193 0.000000
# 4 0.000000 0.000000 0.000000 0.030046 0.000000 -0.003165
# 5 -0.000580 -0.002715 0.001193 0.000000 0.034234 0.000000
# 6 0.000000 0.000000 0.000000 -0.003165 0.000000 0.034944
#
#
# Mechanical properties :
#
#
# Convention : Reuss Voigt Hill
#
# Bulk Modulus (GPa) = 58.31921 66.08734 62.20328
# Shear Modulus (GPa) = 26.50884 28.12040 27.31462
#
# Velocity S-wave (km/s) = 3.63999 3.74900 3.69490
# Velocity P-wave (km/s) = 6.84214 7.19524 7.02091
#
# Compressibility (1/GPa) = 0.01714701
#
# Stress axis : x y z
#
# Youngs Moduli (GPa) = 57.05024 75.75777 50.80483
#
# Poissons Ratio (x) = 0.52961 0.24415
# Poissons Ratio (y) = 0.39883 0.24568
# Poissons Ratio (z) = 0.27417 0.36635
#
# Static dielectric constant tensor:
#      x y z
#    x 3.487190 0.000000 0.061480 
#    y 0.000000 3.913950 0.000000 
#    z 0.061480 0.000000 3.709750 
# 
# 
# High freq. dielectric constant tensor:
#      x y z
#    x 1.762690 0.000000 0.002510 
#    y 0.000000 1.794640 0.000000 
#    z 0.002510 0.000000 1.779020 
# 
# From -- ./inp_files/71556.got.cif
#   From: 2010.06.25/outbox.cif.g09.slc.cpg/sg10_36_cif.got.tgz:71556.got - 2010.06.27 22:07:45.
