data_PCOD8063287
_publ_section_title
;
Structure prediction by ZEFSAII (Michael W. Deem and Ramdas Pophale) SiO2 
 PCOD8063287
Probable space group: P 2/M
;
_chemical_formula_sum "Si O2"
_cell_formula_units_Z 32
_cell_length_a 26.407012
_cell_length_b 9.586196
_cell_length_c 12.789633
_cell_angle_alpha 90.000000
_cell_angle_beta 31.976270
_cell_angle_gamma 90.000000
_cell_volume 1714.531119
_symmetry_space_group_name_H-M "P 2/M"
_symmetry_group_IT_number 10
_symmetry_cell_setting 'monoclinic'
loop_
_space_group_symop_operation_xyz
x,y,z
-x,y,-z
-x,-y,-z
x,-y,z
loop_
_atom_site_type_symbol
_atom_site_label
_atom_site_fract_x
_atom_site_fract_y
_atom_site_fract_z
Si Si1 0.217036 0.161738 0.246768
Si Si2 0.396914 0.654850 0.702953
Si Si3 0.095888 0.836302 0.651697
Si Si4 0.389754 0.346608 0.960197
Si Si5 0.885388 0.835436 0.014058
Si Si6 0.223121 0.837241 0.998236
Si Si7 0.435964 0.661394 0.213150
Si Si8 0.242261 0.833458 0.570539
O O1 0.127075 0.197410 0.477789
O O2 0.191929 0.205560 0.171012
O O3 0.243913 0.000000 0.204253
O O4 0.307669 0.240044 0.139257
O O5 0.500000 0.721666 0.500000
O O6 0.388645 0.500000 0.666292
O O7 0.383628 0.643316 0.848288
O O8 0.317359 0.756095 0.795117
O O9 0.172243 0.778462 0.601237
O O10 0.089265 0.000000 0.681505
O O11 0.990307 0.769963 0.853966
O O12 0.369392 0.500000 0.045842
O O13 0.495619 0.298395 0.809059
O O14 0.806292 0.783540 0.235522
O O15 0.893208 0.000000 0.011309
O O16 0.858249 0.794988 0.942295
O O17 0.247178 0.000000 0.950106
O O18 0.403114 0.500000 0.274469
O O19 0.343740 0.759186 0.378886
O O20 0.500000 0.693537 0.000000
O O21 0.258232 0.000000 0.538520
#
# Coordination Sequence:
#
# PCOD8063287 Si02
#       8
#     4   4   4   4   4   4   4   4
#     4   9  17  30  50  75  99 126 163 206 245 284
#     4   9  18  31  48  68  92 127 165 196 232 287
#     4   9  17  31  52  74  97 128 166 205 245 291
#     4   9  18  32  48  68  96 130 162 193 239 295
#     4   9  18  32  50  74 103 131 161 201 248 295
#     4   9  18  31  47  72 102 127 158 201 247 288
#     4  10  21  35  51  73 101 132 163 199 247 296
#     4  10  20  33  52  76  99 128 167 206 243 286
#
# _framework density 18.663995
#
# number of rings (size 3 to 8) (size 9 to 14) (size 15 to 20)
#    0.000    2.750    0.000    1.125    1.750    3.000 
#    0.000    2.500    0.000    3.750    0.000    3.500 
#    0.000    0.000    0.000    0.000    0.000    0.000 
#
# Total GULP energy -396597.766629 kJ/mol
# GULP energy per Si atom -12393.680207 kJ/mol
# Density = 1.862151 g / cm^3
# Si number density = 18.663995 Si / 1000 Ang^3
#
#
#
# Elastic Constant Matrix: (Units=GPa)
#
#
# Indices 1 2 3 4 5 6 
#
# 1 105.0785 32.2462 56.9601 0.0000 -14.2511 0.0000
# 2 32.2462 40.8797 42.7669 0.0000 -8.2667 0.0000
# 3 56.9601 42.7669 132.8739 0.0000 -16.4457 0.0000
# 4 0.0000 0.0000 0.0000 1.3570 0.0000 6.2936
# 5 -14.2511 -8.2667 -16.4457 0.0000 29.1096 0.0000
# 6 0.0000 0.0000 0.0000 6.2936 0.0000 12.2959
#
#
#
# Elastic Compliance Matrix: (Units=1/GPa)
#
#
# Indices 1 2 3 4 5 6 
#
# 1 0.013828 -0.006773 -0.003384 0.000000 0.002934 0.000000
# 2 -0.006773 0.040648 -0.009850 0.000000 0.002663 0.000000
# 3 -0.003384 -0.009850 0.012468 0.000000 0.002590 0.000000
# 4 0.000000 0.000000 0.000000 -0.536377 0.000000 0.274545
# 5 0.002934 0.002663 0.002590 0.000000 0.038008 0.000000
# 6 0.000000 0.000000 0.000000 0.274545 0.000000 -0.059198
#
#
# Mechanical properties :
#
#
# Convention : Reuss Voigt Hill
#
# Bulk Modulus (GPa) = 37.13623 60.30874 48.72248
# Shear Modulus (GPa) = -11.32165 18.34309 3.51072
#
# Velocity S-wave (km/s) = -2.46560 3.13838 1.37299
# Velocity P-wave (km/s) = 3.44018 6.74652 5.35492
#
# Compressibility (1/GPa) = 0.02692788
#
# Stress axis : x y z
#
# Youngs Moduli (GPa) = 72.31785 24.60150 80.20842
#
# Poissons Ratio (x) = 0.16664 0.27146
# Poissons Ratio (y) = 0.48984 0.79003
# Poissons Ratio (z) = 0.24475 0.24232
#
# Static dielectric constant tensor:
#      x y z
#    x 3.633710 0.000000 -0.046790 
#    y 0.000000 3.402970 0.000000 
#    z -0.046790 0.000000 3.618360 
# 
# 
# High freq. dielectric constant tensor:
#      x y z
#    x 1.733820 0.000000 0.001440 
#    y 0.000000 1.686500 0.000000 
#    z 0.001440 0.000000 1.724750 
# 
# From -- ./inp_files/72193.got.cif
#   From: 2010.06.25/outbox.cif.g09.slc.cpg/sg10_37_cif.got.tgz:72193.got - 2010.06.27 22:07:45.
