data_PCOD8063483
_publ_section_title
;
Structure prediction by ZEFSAII (Michael W. Deem and Ramdas Pophale) SiO2 
 PCOD8063483
Probable space group: P 2/M
;
_chemical_formula_sum "Si O2"
_cell_formula_units_Z 32
_cell_length_a 14.129423
_cell_length_b 18.360450
_cell_length_c 14.124716
_cell_angle_alpha 90.000000
_cell_angle_beta 147.997376
_cell_angle_gamma 90.000000
_cell_volume 1941.909600
_symmetry_space_group_name_H-M "P 2/M"
_symmetry_group_IT_number 10
_symmetry_cell_setting 'monoclinic'
loop_
_space_group_symop_operation_xyz
x,y,z
-x,y,-z
-x,-y,-z
x,-y,z
loop_
_atom_site_type_symbol
_atom_site_label
_atom_site_fract_x
_atom_site_fract_y
_atom_site_fract_z
Si Si1 0.293680 0.162891 0.089647
Si Si2 0.442847 0.078704 0.556877
Si Si3 0.493845 0.916960 0.103280
Si Si4 0.251589 0.316021 0.137403
Si Si5 0.442047 0.419267 0.558268
Si Si6 0.089182 0.162544 0.292958
Si Si7 0.861872 0.684208 0.747956
Si Si8 0.103005 0.083052 0.493560
O O1 0.398485 0.119742 0.257623
O O2 0.365571 0.140120 0.047308
O O3 0.319504 0.248247 0.132494
O O4 0.083554 0.143727 0.917463
O O5 0.500000 0.066799 0.500000
O O6 0.255804 0.118581 0.396616
O O7 0.417102 0.000000 0.585194
O O8 0.686122 0.911525 0.314182
O O9 0.419877 0.000000 0.047383
O O10 0.500000 0.892109 0.000000
O O11 0.401800 0.377801 0.251982
O O12 0.230070 0.293082 0.229880
O O13 0.062096 0.345550 0.937063
O O14 0.500000 0.426490 0.500000
O O15 0.417705 0.500000 0.581783
O O16 0.252958 0.377377 0.402767
O O17 0.133503 0.247761 0.319807
O O18 0.047024 0.140106 0.365180
O O19 0.000000 0.107936 0.500000
O O20 0.047050 0.000000 0.419600
#
# Coordination Sequence:
#
# PCOD8063483 Si02
#       8
#     4   4   4   4   4   4   4   4
#     4  11  21  34  52  71  96 132 168 210 254 304
#     4  11  23  35  47  67  95 129 173 217 252 295
#     4  10  20  34  51  72  97 127 165 212 264 312
#     4   9  18  31  47  69  97 131 166 198 238 289
#     4   9  17  29  47  71  99 131 163 197 239 286
#     4  11  21  34  52  71  96 132 168 210 254 304
#     4   9  18  31  47  69  97 131 166 198 238 289
#     4  10  20  34  51  72  97 127 165 212 264 312
#
# _framework density 16.478625000000001
#
# number of rings (size 3 to 8) (size 9 to 14) (size 15 to 20)
#    0.000    2.000    1.250    3.000    0.000    6.000 
#    0.000    3.750    0.000    0.000    0.000    0.000 
#    0.000    1.000    0.500    0.000    0.000    0.000 
#
# Total GULP energy -396725.737111 kJ/mol
# GULP energy per Si atom -12397.679285 kJ/mol
# Density = 1.644112 g / cm^3
# Si number density = 16.478625 Si / 1000 Ang^3
#
#
#
# Elastic Constant Matrix: (Units=GPa)
#
#
# Indices 1 2 3 4 5 6 
#
# 1 112.9182 34.3223 -32.6409 0.0000 84.7994 0.0000
# 2 34.3223 126.7174 91.4574 0.0000 -12.7536 0.0000
# 3 -32.6409 91.4574 202.5276 0.0000 -92.5600 0.0000
# 4 0.0000 0.0000 0.0000 21.8462 0.0000 1.5301
# 5 84.7994 -12.7536 -92.5600 0.0000 170.0222 0.0000
# 6 0.0000 0.0000 0.0000 1.5301 0.0000 16.9314
#
#
#
# Elastic Compliance Matrix: (Units=1/GPa)
#
#
# Indices 1 2 3 4 5 6 
#
# 1 0.018031 -0.007589 0.002613 0.000000 -0.008140 0.000000
# 2 -0.007589 0.015882 -0.008148 0.000000 0.000540 0.000000
# 3 0.002613 -0.008148 0.010867 0.000000 0.004002 0.000000
# 4 0.000000 0.000000 0.000000 0.046066 0.000000 -0.004163
# 5 -0.008140 0.000540 0.004002 0.000000 0.012160 0.000000
# 6 0.000000 0.000000 0.000000 -0.004163 0.000000 0.059438
#
#
# Mechanical properties :
#
#
# Convention : Reuss Voigt Hill
#
# Bulk Modulus (GPa) = 53.96106 69.82677 61.89392
# Shear Modulus (GPa) = 25.65805 65.02823 45.34314
#
# Velocity S-wave (km/s) = 3.95023 6.28871 5.25129
# Velocity P-wave (km/s) = 7.32277 9.75687 8.62611
#
# Compressibility (1/GPa) = 0.01853188
#
# Stress axis : x y z
#
# Youngs Moduli (GPa) = 55.46099 62.96273 92.02022
#
# Poissons Ratio (x) = 0.47781 -0.24044
# Poissons Ratio (y) = 0.42088 0.74981
# Poissons Ratio (z) = -0.14491 0.51304
#
# Static dielectric constant tensor:
#      x y z
#    x 3.029380 0.000000 0.075650 
#    y 0.000000 3.114470 0.000000 
#    z 0.075650 0.000000 3.289610 
# 
# 
# High freq. dielectric constant tensor:
#      x y z
#    x 1.610560 0.000000 0.012770 
#    y 0.000000 1.613140 0.000000 
#    z 0.012770 0.000000 1.654380 
# 
# From -- ./inp_files/67735.got.cif
#   From: 2010.06.25/outbox.cif.g09.slc.cpg/sg10_34_cif.got.tgz:67735.got - 2010.06.27 22:07:45.
