data_PCOD8063222
_publ_section_title
;
Structure prediction by ZEFSAII (Michael W. Deem and Ramdas Pophale) SiO2 
 PCOD8063222
Probable space group: P 2/M
;
_chemical_formula_sum "Si O2"
_cell_formula_units_Z 28
_cell_length_a 10.977500
_cell_length_b 10.104169
_cell_length_c 13.687666
_cell_angle_alpha 90.000000
_cell_angle_beta 77.807295
_cell_angle_gamma 90.000000
_cell_volume 1483.968885
_symmetry_space_group_name_H-M "P 2/M"
_symmetry_group_IT_number 10
_symmetry_cell_setting 'monoclinic'
loop_
_space_group_symop_operation_xyz
x,y,z
-x,y,-z
-x,-y,-z
x,-y,z
loop_
_atom_site_type_symbol
_atom_site_label
_atom_site_fract_x
_atom_site_fract_y
_atom_site_fract_z
Si Si1 0.060876 0.257660 0.392987
Si Si2 0.439735 0.155596 0.291493
Si Si3 0.179753 0.352703 0.662817
Si Si4 0.693339 0.647866 0.556416
Si Si5 0.276768 0.847761 0.799449
Si Si6 0.869864 0.154722 0.985522
Si Si7 0.215675 0.149058 0.203145
O O1 0.177359 0.347150 0.405541
O O2 0.110056 0.152061 0.305477
O O3 0.000000 0.187711 0.500000
O O4 0.958564 0.349087 0.358615
O O5 0.406790 0.242406 0.392549
O O6 0.578466 0.187252 0.233961
O O7 0.346886 0.205655 0.221275
O O8 0.419696 0.000000 0.319307
O O9 0.200352 0.500000 0.702413
O O10 0.281207 0.322923 0.561686
O O11 0.194036 0.243522 0.743857
O O12 0.638099 0.500000 0.579677
O O13 0.249984 0.000000 0.775015
O O14 0.238116 0.819748 0.917294
O O15 0.828283 0.222235 0.889353
O O16 0.894034 0.000000 0.963978
O O17 0.000000 0.219374 0.000000
O O18 0.241930 0.000000 0.168604
#
# Coordination Sequence:
#
# PCOD8063222 Si02
#       7
#     4   4   4   4   4   4   4
#     4   9  17  30  50  76 103 130 163 204 250 300
#     4   9  19  34  50  73 102 131 168 210 249 290
#     4  10  20  33  51  75 102 133 169 207 249 299
#     4   9  18  33  53  75 100 133 168 203 248 302
#     4  10  21  35  51  72 100 134 170 209 251 293
#     4   9  17  30  50  75 100 128 165 206 248 297
#     4   9  17  30  50  75 103 134 167 205 247 294
#
# _framework density 18.868319
#
# number of rings (size 3 to 8) (size 9 to 14) (size 15 to 20)
#    0.000    2.714    0.000    1.286    0.000    6.000 
#    0.000    8.571    0.000    7.286    0.000    5.000 
#    0.000    0.000    0.000    0.000    0.000    0.000 
#
# Total GULP energy -347021.657695 kJ/mol
# GULP energy per Si atom -12393.630632 kJ/mol
# Density = 1.882537 g / cm^3
# Si number density = 18.868319 Si / 1000 Ang^3
#
#
#
# Elastic Constant Matrix: (Units=GPa)
#
#
# Indices 1 2 3 4 5 6 
#
# 1 70.9076 18.6154 30.8958 0.0000 -13.8516 0.0000
# 2 18.6154 52.0486 30.5779 0.0000 -1.2251 0.0000
# 3 30.8958 30.5779 102.8057 0.0000 -0.3187 0.0000
# 4 0.0000 0.0000 0.0000 11.4138 0.0000 4.8348
# 5 -13.8516 -1.2251 -0.3187 0.0000 28.9135 0.0000
# 6 0.0000 0.0000 0.0000 4.8348 0.0000 12.9926
#
#
#
# Elastic Compliance Matrix: (Units=1/GPa)
#
#
# Indices 1 2 3 4 5 6 
#
# 1 0.018784 -0.003891 -0.004461 0.000000 0.008785 0.000000
# 2 -0.003891 0.024111 -0.006005 0.000000 -0.000909 0.000000
# 3 -0.004461 -0.006005 0.012847 0.000000 -0.002250 0.000000
# 4 0.000000 0.000000 0.000000 0.104008 0.000000 -0.038703
# 5 0.008785 -0.000909 -0.002250 0.000000 0.038731 0.000000
# 6 0.000000 0.000000 0.000000 -0.038703 0.000000 0.091369
#
#
# Mechanical properties :
#
#
# Convention : Reuss Voigt Hill
#
# Bulk Modulus (GPa) = 36.99753 42.88224 39.93989
# Shear Modulus (GPa) = 15.26385 20.37550 17.81967
#
# Velocity S-wave (km/s) = 2.84732 3.28972 3.07648
# Velocity P-wave (km/s) = 5.51910 6.09968 5.81664
#
# Compressibility (1/GPa) = 0.02702883
#
# Stress axis : x y z
#
# Youngs Moduli (GPa) = 53.23682 41.47514 77.84110
#
# Poissons Ratio (x) = 0.16138 0.34722
# Poissons Ratio (y) = 0.20714 0.46743
# Poissons Ratio (z) = 0.23747 0.24905
#
# Static dielectric constant tensor:
#      x y z
#    x 3.500740 0.000000 0.070090 
#    y 0.000000 3.095360 0.000000 
#    z 0.070090 0.000000 3.638100 
# 
# 
# High freq. dielectric constant tensor:
#      x y z
#    x 1.738580 0.000000 0.000570 
#    y 0.000000 1.692110 0.000000 
#    z 0.000570 0.000000 1.732260 
# 
# From -- ./inp_files/46012.got.cif
#   From: 2010.06.25/outbox.cif.g09.slc.cpg/sg10_24_cif.got.tgz:46012.got - 2010.06.27 22:07:45.
