data_PCOD8063955
_publ_section_title
;
Structure prediction by ZEFSAII (Michael W. Deem and Ramdas Pophale) SiO2 
 PCOD8063955
Probable space group: P 2/M
;
_chemical_formula_sum "Si O2"
_cell_formula_units_Z 24
_cell_length_a 23.219254
_cell_length_b 8.465487
_cell_length_c 11.557677
_cell_angle_alpha 90.000000
_cell_angle_beta 30.623351
_cell_angle_gamma 90.000000
_cell_volume 1157.238911
_symmetry_space_group_name_H-M "P 2/M"
_symmetry_group_IT_number 10
_symmetry_cell_setting 'monoclinic'
loop_
_space_group_symop_operation_xyz
x,y,z
-x,y,-z
-x,-y,-z
x,-y,z
loop_
_atom_site_type_symbol
_atom_site_label
_atom_site_fract_x
_atom_site_fract_y
_atom_site_fract_z
Si Si1 0.743266 0.316201 0.335491
Si Si2 0.617661 0.817316 0.345233
Si Si3 0.187949 0.683915 0.128036
Si Si4 0.372773 0.687023 0.231562
Si Si5 0.827997 0.684622 0.580009
Si Si6 0.942967 0.816542 0.850411
O O1 0.771606 0.500000 0.297608
O O2 0.648876 0.289000 0.401062
O O3 0.691438 0.247404 0.543782
O O4 0.859299 0.227979 0.100394
O O5 0.500000 0.755195 0.500000
O O6 0.612996 0.000000 0.390394
O O7 0.707791 0.793099 0.088133
O O8 0.220389 0.500000 0.063594
O O9 0.159645 0.731785 0.307580
O O10 0.084800 0.718990 0.219001
O O11 0.384230 0.500000 0.222563
O O12 0.295028 0.736514 0.256321
O O13 0.500000 0.759446 0.000000
O O14 0.844952 0.500000 0.529408
O O15 0.928298 0.774192 0.337668
O O16 0.928796 0.000000 0.848341
#
# Coordination Sequence:
#
# PCOD8063955 Si02
#       6
#     4   4   4   4   4   4
#     4  10  20  36  61  85 111 145 189 239 281 331
#     4  10  21  35  53  79 115 154 188 228 280 336
#     4  10  20  34  57  87 115 145 186 237 284 333
#     4   9  20  38  60  86 114 146 186 236 288 332
#     4  10  21  37  59  86 116 148 188 236 283 335
#     4  11  22  37  58  83 118 153 187 232 284 342
#
# _framework density 20.73902
#
# number of rings (size 3 to 8) (size 9 to 14) (size 15 to 20)
#    0.000    2.000    0.000    5.500    2.333    5.333 
#    0.000    5.000    0.000    2.500    0.000    0.000 
#    0.000    0.000    0.000    0.000    0.000    0.000 
#
# Total GULP energy -297589.044971 kJ/mol
# GULP energy per Si atom -12399.543540 kJ/mol
# Density = 2.069182 g / cm^3
# Si number density = 20.739020 Si / 1000 Ang^3
#
#
#
# Elastic Constant Matrix: (Units=GPa)
#
#
# Indices 1 2 3 4 5 6 
#
# 1 75.5458 16.5403 78.5699 0.0000 -4.3505 0.0000
# 2 16.5403 44.7550 16.1530 0.0000 3.2517 0.0000
# 3 78.5699 16.1530 128.8824 0.0000 -5.8447 0.0000
# 4 0.0000 0.0000 0.0000 20.0647 0.0000 -10.2198
# 5 -4.3505 3.2517 -5.8447 0.0000 41.5831 0.0000
# 6 0.0000 0.0000 0.0000 -10.2198 0.0000 10.2400
#
#
#
# Elastic Compliance Matrix: (Units=1/GPa)
#
#
# Indices 1 2 3 4 5 6 
#
# 1 0.037664 -0.006020 -0.022147 0.000000 0.001298 0.000000
# 2 -0.006020 0.024577 0.000477 0.000000 -0.002485 0.000000
# 3 -0.022147 0.000477 0.021229 0.000000 0.000629 0.000000
# 4 0.000000 0.000000 0.000000 0.101369 0.000000 0.101169
# 5 0.001298 -0.002485 0.000629 0.000000 0.024467 0.000000
# 6 0.000000 0.000000 0.000000 0.101169 0.000000 0.198625
#
#
# Mechanical properties :
#
#
# Convention : Reuss Voigt Hill
#
# Bulk Modulus (GPa) = 35.60093 52.41219 44.00656
# Shear Modulus (GPa) = 10.57808 23.57223 17.07515
#
# Velocity S-wave (km/s) = 2.26089 3.37503 2.87249
# Velocity P-wave (km/s) = 4.90091 6.36513 5.68040
#
# Compressibility (1/GPa) = 0.02808915
#
# Stress axis : x y z
#
# Youngs Moduli (GPa) = 26.55066 40.68822 47.10463
#
# Poissons Ratio (x) = 0.24496 1.04324
# Poissons Ratio (y) = 0.15985 -0.02248
# Poissons Ratio (z) = 0.58803 -0.01942
#
# Static dielectric constant tensor:
#      x y z
#    x 3.775430 0.000000 -0.060570 
#    y 0.000000 3.477340 0.000000 
#    z -0.060570 0.000000 3.906970 
# 
# 
# High freq. dielectric constant tensor:
#      x y z
#    x 1.805340 0.000000 -0.006250 
#    y 0.000000 1.791370 0.000000 
#    z -0.006250 0.000000 1.820340 
# 
# From -- ./inp_files/56542.got.cif
#   From: 2010.06.25/outbox.cif.g09.slc.cpg/sg10_29_cif.got.tgz:56542.got - 2010.06.27 22:07:45.
