data_PCOD8063963
_publ_section_title
;
Structure prediction by ZEFSAII (Michael W. Deem and Ramdas Pophale) SiO2 
 PCOD8063963
Probable space group: P 2/M
;
_chemical_formula_sum "Si O2"
_cell_formula_units_Z 32
_cell_length_a 12.039715
_cell_length_b 8.631967
_cell_length_c 16.201222
_cell_angle_alpha 90.000000
_cell_angle_beta 88.232248
_cell_angle_gamma 90.000000
_cell_volume 1682.933722
_symmetry_space_group_name_H-M "P 2/M"
_symmetry_group_IT_number 10
_symmetry_cell_setting 'monoclinic'
loop_
_space_group_symop_operation_xyz
x,y,z
-x,y,-z
-x,-y,-z
x,-y,z
loop_
_atom_site_type_symbol
_atom_site_label
_atom_site_fract_x
_atom_site_fract_y
_atom_site_fract_z
Si Si1 0.643692 0.179875 0.202398
Si Si2 0.849439 0.679218 0.285375
Si Si3 0.724225 0.821046 0.871718
Si Si4 0.120761 0.318598 0.524987
Si Si5 0.754451 0.819231 0.622281
Si Si6 0.073290 0.822084 0.241495
Si Si7 0.424549 0.319184 0.263408
Si Si8 0.622155 0.681145 0.025107
O O1 0.755944 0.213327 0.248828
O O2 0.540965 0.228906 0.262272
O O3 0.643019 0.278159 0.118933
O O4 0.636438 0.000000 0.180356
O O5 0.818710 0.500000 0.273769
O O6 0.860201 0.723955 0.380776
O O7 0.966053 0.713405 0.237565
O O8 0.851449 0.793074 0.841283
O O9 0.640916 0.719184 0.818940
O O10 0.692011 0.000000 0.858936
O O11 0.712069 0.771449 0.966995
O O12 0.131334 0.500000 0.507094
O O13 0.215552 0.231136 0.470854
O O14 0.000000 0.257284 0.500000
O O15 0.856315 0.774074 0.679592
O O16 0.644399 0.729814 0.654228
O O17 0.728326 0.000000 0.627867
O O18 0.034867 0.000000 0.248409
O O19 0.450018 0.500000 0.265499
O O20 0.639048 0.500000 0.011297
O O21 0.500000 0.735309 0.000000
#
# Coordination Sequence:
#
# PCOD8063963 Si02
#       8
#     4   4   4   4   4   4   4   4
#     4  12  25  41  61  84 118 157 195 240 292 350
#     4  11  23  39  60  85 119 157 196 238 289 351
#     4  10  20  35  58  89 120 152 192 241 291 341
#     4  10  20  36  58  88 119 153 195 242 292 345
#     4  10  20  34  57  88 119 152 193 243 292 342
#     4   9  19  35  55  84 119 153 192 235 287 343
#     4  11  21  36  58  85 118 153 193 240 291 347
#     4  11  22  37  60  90 119 151 194 243 290 343
#
# _framework density 19.014415
#
# number of rings (size 3 to 8) (size 9 to 14) (size 15 to 20)
#    0.000    1.500    2.500    4.500    0.000    4.250 
#    0.000    1.250    0.000    7.500    0.000    0.000 
#    0.000    0.000    0.000    0.000    0.000    0.000 
#
# Total GULP energy -396985.287829 kJ/mol
# GULP energy per Si atom -12405.790245 kJ/mol
# Density = 1.897114 g / cm^3
# Si number density = 19.014415 Si / 1000 Ang^3
#
#
#
# Elastic Constant Matrix: (Units=GPa)
#
#
# Indices 1 2 3 4 5 6 
#
# 1 103.4206 29.3237 47.8250 0.0000 -13.4799 0.0000
# 2 29.3237 63.2320 22.8708 0.0000 -6.4842 0.0000
# 3 47.8250 22.8708 93.6901 0.0000 -15.5853 0.0000
# 4 0.0000 0.0000 0.0000 28.6157 0.0000 -6.4683
# 5 -13.4799 -6.4842 -15.5853 0.0000 32.0546 0.0000
# 6 0.0000 0.0000 0.0000 -6.4683 0.0000 32.0985
#
#
#
# Elastic Compliance Matrix: (Units=1/GPa)
#
#
# Indices 1 2 3 4 5 6 
#
# 1 0.013727 -0.004100 -0.005640 0.000000 0.002201 0.000000
# 2 -0.004100 0.018645 -0.002304 0.000000 0.000927 0.000000
# 3 -0.005640 -0.002304 0.014843 0.000000 0.004379 0.000000
# 4 0.000000 0.000000 0.000000 0.036614 0.000000 0.007378
# 5 0.002201 0.000927 0.004379 0.000000 0.034439 0.000000
# 6 0.000000 0.000000 0.000000 0.007378 0.000000 0.032641
#
#
# Mechanical properties :
#
#
# Convention : Reuss Voigt Hill
#
# Bulk Modulus (GPa) = 43.24087 51.15354 47.19721
# Shear Modulus (GPa) = 27.36641 29.24197 28.30419
#
# Velocity S-wave (km/s) = 3.79785 3.92584 3.86238
# Velocity P-wave (km/s) = 6.48244 6.89279 6.69076
#
# Compressibility (1/GPa) = 0.02312627
#
# Stress axis : x y z
#
# Youngs Moduli (GPa) = 72.85046 53.63458 67.36994
#
# Poissons Ratio (x) = 0.21991 0.37996
# Poissons Ratio (y) = 0.29869 0.15524
# Poissons Ratio (z) = 0.41087 0.12359
#
# Static dielectric constant tensor:
#      x y z
#    x 3.442330 0.000000 -0.231750 
#    y 0.000000 3.450440 0.000000 
#    z -0.231750 0.000000 3.395850 
# 
# 
# High freq. dielectric constant tensor:
#      x y z
#    x 1.730350 0.000000 -0.025190 
#    y 0.000000 1.748100 0.000000 
#    z -0.025190 0.000000 1.729800 
# 
# From -- ./inp_files/63801.got.cif
#   From: 2010.06.25/outbox.cif.g09.slc.cpg/sg10_32_cif.got.tgz:63801.got - 2010.06.27 22:07:45.
