data_PCOD8063280
_publ_section_title
;
Structure prediction by ZEFSAII (Michael W. Deem and Ramdas Pophale) SiO2 
 PCOD8063280
Probable space group: P 2/M
;
_chemical_formula_sum "Si O2"
_cell_formula_units_Z 32
_cell_length_a 27.501762
_cell_length_b 8.361099
_cell_length_c 21.434391
_cell_angle_alpha 90.000000
_cell_angle_beta 18.779182
_cell_angle_gamma 90.000000
_cell_volume 1586.665241
_symmetry_space_group_name_H-M "P 2/M"
_symmetry_group_IT_number 10
_symmetry_cell_setting 'monoclinic'
loop_
_space_group_symop_operation_xyz
x,y,z
-x,y,-z
-x,-y,-z
x,-y,z
loop_
_atom_site_type_symbol
_atom_site_label
_atom_site_fract_x
_atom_site_fract_y
_atom_site_fract_z
Si Si1 0.975261 0.808976 0.842097
Si Si2 0.112977 0.809542 0.914254
Si Si3 0.551607 0.809729 0.503712
Si Si4 0.662917 0.685602 0.779115
Si Si5 0.696229 0.190678 0.100201
Si Si6 0.171545 0.812337 0.306666
Si Si7 0.612350 0.190614 0.066282
Si Si8 0.292724 0.813168 0.408924
O O1 0.140666 0.739103 0.623974
O O2 0.976218 0.000000 0.840953
O O3 0.928545 0.742675 0.966831
O O4 0.853725 0.747709 0.938479
O O5 0.277866 0.751539 0.692185
O O6 0.104726 0.000000 0.926401
O O7 0.000000 0.738669 0.000000
O O8 0.500000 0.740390 0.500000
O O9 0.443054 0.742291 0.689553
O O10 0.541483 0.000000 0.515004
O O11 0.657624 0.500000 0.768203
O O12 0.786256 0.718299 0.682182
O O13 0.709298 0.783776 0.662138
O O14 0.500000 0.747453 0.000000
O O15 0.674718 0.257752 0.056294
O O16 0.693997 0.000000 0.102451
O O17 0.000000 0.770015 0.500000
O O18 0.195193 0.000000 0.289357
O O19 0.275879 0.748945 0.123589
O O20 0.443951 0.259497 0.257187
O O21 0.609323 0.000000 0.071076
O O22 0.291651 0.000000 0.422969
#
# Coordination Sequence:
#
# PCOD8063280 Si02
#       8
#     4   4   4   4   4   4   4   4
#     4   9  17  27  40  63  93 129 169 207 248 300
#     4   9  16  23  33  53  86 127 168 203 242 296
#     4   9  14  22  34  49  77 124 168 198 234 289
#     4  11  23  39  58  78 103 138 176 214 263 314
#     4   9  16  25  38  58  89 127 169 206 245 300
#     4  10  21  36  57  82 107 135 174 217 261 310
#     4   9  18  30  44  68  97 127 163 207 254 304
#     4  10  20  33  52  75 102 132 168 213 262 309
#
# _framework density 20.168085999999999
#
# number of rings (size 3 to 8) (size 9 to 14) (size 15 to 20)
#    0.000    2.500    2.500    0.375    3.500    0.750 
#    0.000    0.000    0.000    0.000    0.000    0.000 
#    0.000    0.500    0.000    1.375    0.000    2.125 
#
# Total GULP energy -396746.683627 kJ/mol
# GULP energy per Si atom -12398.333863 kJ/mol
# Density = 2.012218 g / cm^3
# Si number density = 20.168086 Si / 1000 Ang^3
#
#
#
# Elastic Constant Matrix: (Units=GPa)
#
#
# Indices 1 2 3 4 5 6 
#
# 1 169.6288 -0.5652 73.8376 0.0000 -14.2361 0.0000
# 2 -0.5652 4.4921 5.2177 0.0000 -3.1852 0.0000
# 3 73.8376 5.2177 173.4793 0.0000 -15.3137 0.0000
# 4 0.0000 0.0000 0.0000 4.6012 0.0000 -2.4132
# 5 -14.2361 -3.1852 -15.3137 0.0000 38.2916 0.0000
# 6 0.0000 0.0000 0.0000 -2.4132 0.0000 2.2380
#
#
#
# Elastic Compliance Matrix: (Units=1/GPa)
#
#
# Indices 1 2 3 4 5 6 
#
# 1 0.007470 0.006063 -0.003185 0.000000 0.002008 0.000000
# 2 0.006063 0.246807 -0.008285 0.000000 0.019471 0.000000
# 3 -0.003185 -0.008285 0.007467 0.000000 0.001113 0.000000
# 4 0.000000 0.000000 0.000000 0.500247 0.000000 0.539415
# 5 0.002008 0.019471 0.001113 0.000000 0.028927 0.000000
# 6 0.000000 0.000000 0.000000 0.539415 0.000000 1.028477
#
#
# Mechanical properties :
#
#
# Convention : Reuss Voigt Hill
#
# Bulk Modulus (GPa) = 3.98516 56.06449 30.02483
# Shear Modulus (GPa) = 2.61253 26.96682 14.78967
#
# Velocity S-wave (km/s) = 1.13938 3.66061 2.71093
# Velocity P-wave (km/s) = 1.92644 6.76208 4.97177
#
# Compressibility (1/GPa) = 0.25093086
#
# Stress axis : x y z
#
# Youngs Moduli (GPa) = 133.86578 4.05175 133.91756
#
# Poissons Ratio (x) = -0.02456 0.42647
# Poissons Ratio (y) = -0.81159 1.10949
# Poissons Ratio (z) = 0.42631 0.03357
#
# Static dielectric constant tensor:
#      x y z
#    x 3.843100 0.000000 -0.060780 
#    y 0.000000 2.847680 0.000000 
#    z -0.060780 0.000000 3.973840 
# 
# 
# High freq. dielectric constant tensor:
#      x y z
#    x 1.799520 0.000000 -0.003550 
#    y 0.000000 1.709130 0.000000 
#    z -0.003550 0.000000 1.803110 
# 
# From -- ./inp_files/86786.got.cif
#   From: 2010.06.25/outbox.cif.g09.slc.cpg/sg10_44_cif.got.tgz:86786.got - 2010.06.27 22:07:45.
