data_PCOD8063110
_publ_section_title
;
Structure prediction by ZEFSAII (Michael W. Deem and Ramdas Pophale) SiO2 
 PCOD8063110
Probable space group: P 2/M
;
_chemical_formula_sum "Si O2"
_cell_formula_units_Z 28
_cell_length_a 19.663128
_cell_length_b 9.111327
_cell_length_c 15.438611
_cell_angle_alpha 90.000000
_cell_angle_beta 143.735798
_cell_angle_gamma 90.000000
_cell_volume 1636.078761
_symmetry_space_group_name_H-M "P 2/M"
_symmetry_group_IT_number 10
_symmetry_cell_setting 'monoclinic'
loop_
_space_group_symop_operation_xyz
x,y,z
-x,y,-z
-x,-y,-z
x,-y,z
loop_
_atom_site_type_symbol
_atom_site_label
_atom_site_fract_x
_atom_site_fract_y
_atom_site_fract_z
Si Si1 0.893556 0.824552 0.697392
Si Si2 0.151971 0.824792 0.978525
Si Si3 0.132549 0.669792 0.640864
Si Si4 0.511526 0.672089 0.111502
Si Si5 0.259698 0.825638 0.618799
Si Si6 0.272454 0.669201 0.952395
Si Si7 0.864405 0.160179 0.851917
O O1 0.816465 0.766371 0.539459
O O2 0.841973 0.759657 0.735987
O O3 0.024919 0.771208 0.818310
O O4 0.891847 0.000000 0.701301
O O5 0.247233 0.763090 0.011677
O O6 0.157716 0.000000 0.985034
O O7 0.179835 0.762090 0.104711
O O8 0.153413 0.500000 0.637222
O O9 0.204326 0.770399 0.650447
O O10 0.175291 0.702246 0.781380
O O11 0.000000 0.714330 0.500000
O O12 0.538485 0.500000 0.145203
O O13 0.613220 0.761177 0.261643
O O14 0.500000 0.720486 0.000000
O O15 0.395704 0.715957 0.041982
O O16 0.265310 0.000000 0.626055
O O17 0.271814 0.500000 0.978367
O O18 0.805695 0.000000 0.787596
O O19 0.000000 0.140287 0.000000
#
# Coordination Sequence:
#
# PCOD8063110 Si02
#       7
#     4   4   4   4   4   4   4
#     4   8  15  28  46  73 105 129 150 186 239 288
#     4   9  16  28  50  76  99 125 157 192 231 283
#     4  10  20  34  50  68  95 132 165 188 227 294
#     4  10  20  38  55  63  85 128 174 204 232 284
#     4  11  21  31  49  75 100 122 154 205 250 279
#     4  10  20  33  49  68  92 125 159 199 242 278
#     4   7  11  23  45  70  96 128 159 182 219 284
#
# _framework density 17.114090000000001
#
# number of rings (size 3 to 8) (size 9 to 14) (size 15 to 20)
#    0.000    2.714    1.429    3.000    0.000    1.714 
#    0.000    0.714    0.000    6.429    0.000    6.000 
#    0.000    0.000    0.000    0.000    0.000    0.000 
#
# Total GULP energy -347007.384965 kJ/mol
# GULP energy per Si atom -12393.120892 kJ/mol
# Density = 1.707514 g / cm^3
# Si number density = 17.114090 Si / 1000 Ang^3
#
#
#
# Elastic Constant Matrix: (Units=GPa)
#
#
# Indices 1 2 3 4 5 6 
#
# 1 135.8464 31.1290 38.7338 0.0000 -5.0981 0.0000
# 2 31.1290 30.1574 16.7581 0.0000 1.7374 0.0000
# 3 38.7338 16.7581 42.6682 0.0000 6.7921 0.0000
# 4 0.0000 0.0000 0.0000 16.5743 0.0000 8.1363
# 5 -5.0981 1.7374 6.7921 0.0000 25.5562 0.0000
# 6 0.0000 0.0000 0.0000 8.1363 0.0000 16.1383
#
#
#
# Elastic Compliance Matrix: (Units=1/GPa)
#
#
# Indices 1 2 3 4 5 6 
#
# 1 0.011722 -0.007712 -0.008424 0.000000 0.005102 0.000000
# 2 -0.007712 0.047555 -0.011399 0.000000 -0.001742 0.000000
# 3 -0.008424 -0.011399 0.037282 0.000000 -0.010814 0.000000
# 4 0.000000 0.000000 0.000000 0.080177 0.000000 -0.040422
# 5 0.005102 -0.001742 -0.010814 0.000000 0.043140 0.000000
# 6 0.000000 0.000000 0.000000 -0.040422 0.000000 0.082344
#
#
# Mechanical properties :
#
#
# Convention : Reuss Voigt Hill
#
# Bulk Modulus (GPa) = 24.10313 42.43488 33.26900
# Shear Modulus (GPa) = 13.47275 19.79051 16.63163
#
# Velocity S-wave (km/s) = 2.80881 3.40426 3.12077
# Velocity P-wave (km/s) = 4.96322 6.34831 5.69801
#
# Compressibility (1/GPa) = 0.04148839
#
# Stress axis : x y z
#
# Youngs Moduli (GPa) = 85.31029 21.02843 26.82231
#
# Poissons Ratio (x) = 0.16218 0.22595
# Poissons Ratio (y) = 0.65794 0.30575
# Poissons Ratio (z) = 0.71866 0.23970
#
# Static dielectric constant tensor:
#      x y z
#    x 3.347420 0.000000 -0.211840 
#    y 0.000000 2.854030 0.000000 
#    z -0.211840 0.000000 3.325570 
# 
# 
# High freq. dielectric constant tensor:
#      x y z
#    x 1.665700 0.000000 -0.013330 
#    y 0.000000 1.626730 0.000000 
#    z -0.013330 0.000000 1.648020 
# 
# From -- ./inp_files/54976.got.cif
#   From: 2010.06.25/outbox.cif.g09.slc.cpg/sg10_28_cif.got.tgz:54976.got - 2010.06.27 22:07:45.
