data_PCOD8063518
_publ_section_title
;
Structure prediction by ZEFSAII (Michael W. Deem and Ramdas Pophale) SiO2 
 PCOD8063518
Probable space group: P 2/M
;
_chemical_formula_sum "Si O2"
_cell_formula_units_Z 32
_cell_length_a 28.583751
_cell_length_b 9.693421
_cell_length_c 20.007406
_cell_angle_alpha 90.000000
_cell_angle_beta 159.941923
_cell_angle_gamma 90.000000
_cell_volume 1901.281160
_symmetry_space_group_name_H-M "P 2/M"
_symmetry_group_IT_number 10
_symmetry_cell_setting 'monoclinic'
loop_
_space_group_symop_operation_xyz
x,y,z
-x,y,-z
-x,-y,-z
x,-y,z
loop_
_atom_site_type_symbol
_atom_site_label
_atom_site_fract_x
_atom_site_fract_y
_atom_site_fract_z
Si Si1 0.873753 0.840747 0.002985
Si Si2 0.364880 0.661579 0.072533
Si Si3 0.818558 0.842719 0.547996
Si Si4 0.144685 0.163321 0.171322
Si Si5 0.818555 0.342719 0.047992
Si Si6 0.364878 0.838421 0.572531
Si Si7 0.144685 0.663320 0.671323
Si Si8 0.873755 0.659252 0.502988
O O1 0.792248 0.752504 0.948342
O O2 0.035100 0.811471 0.222740
O O3 0.840796 0.000000 0.972673
O O4 0.822801 0.794754 0.861367
O O5 0.398078 0.500000 0.107735
O O6 0.499999 0.750001 0.249998
O O7 0.296073 0.690002 0.051529
O O8 0.265360 0.717237 0.880635
O O9 0.703929 0.809997 0.448474
O O10 0.792251 0.747498 0.448344
O O11 0.810735 0.000000 0.513204
O O12 0.265360 0.217237 0.380634
O O13 0.133443 0.000000 0.163507
O O14 0.000000 0.228489 0.000000
O O15 0.810732 0.500000 0.013198
O O16 0.964898 0.311473 0.277257
O O17 0.398072 0.000000 0.607728
O O18 0.133444 0.500000 0.663512
O O19 0.177199 0.705240 0.638632
O O20 0.000000 0.728490 0.500000
O O21 0.840798 0.500000 0.472679
#
# Coordination Sequence:
#
# PCOD8063518 Si02
#       8
#     4   4   4   4   4   4   4   4
#     4   9  16  28  51  77  96 120 161 208 244 281
#     4  10  20  34  52  73 100 133 165 200 245 294
#     4   9  17  30  48  72 101 129 156 195 250 296
#     4   9  15  29  53  76  95 123 168 210 240 279
#     4   9  17  30  48  72 101 129 156 195 250 296
#     4  10  20  34  52  73 100 133 165 200 245 294
#     4   9  15  29  53  76  95 123 168 210 240 279
#     4   9  16  28  51  77  96 120 161 208 244 281
#
# _framework density 16.830756999999998
#
# number of rings (size 3 to 8) (size 9 to 14) (size 15 to 20)
#    0.000    2.750    2.500    0.000    0.000    1.000 
#    0.000    2.500    0.000    9.000    0.000    0.000 
#    0.000    0.000    0.000    0.000    0.000    0.000 
#
# Total GULP energy -396767.506067 kJ/mol
# GULP energy per Si atom -12398.984565 kJ/mol
# Density = 1.679245 g / cm^3
# Si number density = 16.830757 Si / 1000 Ang^3
#
#
#
# Elastic Constant Matrix: (Units=GPa)
#
#
# Indices 1 2 3 4 5 6 
#
# 1 132.3471 64.0338 75.1244 0.0000 -8.0290 0.0000
# 2 64.0338 58.6804 46.2746 0.0000 0.5054 0.0000
# 3 75.1244 46.2746 111.1038 0.0000 -5.9587 0.0000
# 4 0.0000 0.0000 0.0000 25.2573 0.0000 2.7919
# 5 -8.0290 0.5054 -5.9587 0.0000 25.7014 0.0000
# 6 0.0000 0.0000 0.0000 2.7919 0.0000 30.7728
#
#
#
# Elastic Compliance Matrix: (Units=1/GPa)
#
#
# Indices 1 2 3 4 5 6 
#
# 1 0.018985 -0.016146 -0.005850 0.000000 0.004892 0.000000
# 2 -0.016146 0.039337 -0.005851 0.000000 -0.007174 0.000000
# 3 -0.005850 -0.005851 0.015494 0.000000 0.001880 0.000000
# 4 0.000000 0.000000 0.000000 0.039994 0.000000 -0.003628
# 5 0.004892 -0.007174 0.001880 0.000000 0.041014 0.000000
# 6 0.000000 0.000000 0.000000 -0.003628 0.000000 0.032825
#
#
# Mechanical properties :
#
#
# Convention : Reuss Voigt Hill
#
# Bulk Modulus (GPa) = 55.18299 74.77744 64.98021
# Shear Modulus (GPa) = 20.04947 24.12620 22.08784
#
# Velocity S-wave (km/s) = 3.45518 3.79021 3.62657
# Velocity P-wave (km/s) = 6.98397 7.97996 7.49852
#
# Compressibility (1/GPa) = 0.01812153
#
# Stress axis : x y z
#
# Youngs Moduli (GPa) = 52.67185 25.42163 64.54227
#
# Poissons Ratio (x) = 0.41047 0.37757
# Poissons Ratio (y) = 0.85046 0.37762
# Poissons Ratio (z) = 0.30813 0.14873
#
# Static dielectric constant tensor:
#      x y z
#    x 3.286020 0.000000 -0.170110 
#    y 0.000000 2.927750 0.000000 
#    z -0.170110 0.000000 3.038030 
# 
# 
# High freq. dielectric constant tensor:
#      x y z
#    x 1.660660 0.000000 -0.009410 
#    y 0.000000 1.620120 0.000000 
#    z -0.009410 0.000000 1.628780 
# 
# From -- ./inp_files/69190.got.cif
#   From: 2010.06.25/outbox.cif.g09.slc.cpg/sg10_35_cif.got.tgz:69190.got - 2010.06.27 22:07:45.
