data_PCOD8063948
_publ_section_title
;
Structure prediction by ZEFSAII (Michael W. Deem and Ramdas Pophale) SiO2 
 PCOD8063948
Probable space group: P 2/M
;
_chemical_formula_sum "Si O2"
_cell_formula_units_Z 28
_cell_length_a 9.717605
_cell_length_b 9.142285
_cell_length_c 16.815437
_cell_angle_alpha 90.000000
_cell_angle_beta 83.194602
_cell_angle_gamma 90.000000
_cell_volume 1483.376649
_symmetry_space_group_name_H-M "P 2/M"
_symmetry_group_IT_number 10
_symmetry_cell_setting 'monoclinic'
loop_
_space_group_symop_operation_xyz
x,y,z
-x,y,-z
-x,-y,-z
x,-y,z
loop_
_atom_site_type_symbol
_atom_site_label
_atom_site_fract_x
_atom_site_fract_y
_atom_site_fract_z
Si Si1 0.062613 0.673318 0.681438
Si Si2 0.549168 0.833220 0.780525
Si Si3 0.378420 0.672673 0.066346
Si Si4 0.209030 0.169107 0.356291
Si Si5 0.234677 0.831142 0.799965
Si Si6 0.160414 0.339239 0.509425
Si Si7 0.159764 0.169614 0.982817
O O1 0.040744 0.500000 0.688240
O O2 0.131374 0.731671 0.756696
O O3 0.165857 0.714100 0.600892
O O4 0.911977 0.744975 0.680936
O O5 0.593602 0.725655 0.847008
O O6 0.647003 0.805588 0.698591
O O7 0.392573 0.800050 0.763469
O O8 0.560961 0.000000 0.810741
O O9 0.366464 0.500000 0.067799
O O10 0.500000 0.728017 0.000000
O O11 0.234674 0.738380 0.045774
O O12 0.234005 0.226597 0.444588
O O13 0.166585 0.000000 0.363024
O O14 0.218016 0.785841 0.892816
O O15 0.192921 0.000000 0.789931
O O16 0.229325 0.500000 0.495128
O O17 0.000000 0.350902 0.500000
O O18 0.186444 0.000000 0.998663
O O19 0.000000 0.210572 0.000000
#
# Coordination Sequence:
#
# PCOD8063948 Si02
#       7
#     4   4   4   4   4   4   4
#     4  10  21  36  56  82 114 148 179 221 277 330
#     4  10  22  39  58  80 110 148 186 224 274 328
#     4  11  23  38  58  84 111 144 186 226 271 327
#     4  10  20  34  57  86 110 139 185 231 268 320
#     4  10  21  38  57  79 110 147 185 228 273 320
#     4   8  16  33  54  78 110 146 181 218 270 328
#     4  10  22  39  60  83 109 145 187 229 274 323
#
# _framework density 18.875852999999999
#
# number of rings (size 3 to 8) (size 9 to 14) (size 15 to 20)
#    0.000    2.143    1.429    2.143    2.000    6.286 
#    0.000    0.714    0.000    4.286    0.000    0.000 
#    0.000    0.000    0.000    0.000    0.000    0.000 
#
# Total GULP energy -347247.120225 kJ/mol
# GULP energy per Si atom -12401.682865 kJ/mol
# Density = 1.883289 g / cm^3
# Si number density = 18.875853 Si / 1000 Ang^3
#
#
#
# Elastic Constant Matrix: (Units=GPa)
#
#
# Indices 1 2 3 4 5 6 
#
# 1 78.5472 33.2942 19.7340 0.0000 -13.7755 0.0000
# 2 33.2942 71.0550 20.6265 0.0000 -6.6414 0.0000
# 3 19.7340 20.6265 39.7057 0.0000 -11.6351 0.0000
# 4 0.0000 0.0000 0.0000 34.3602 0.0000 0.9717
# 5 -13.7755 -6.6414 -11.6351 0.0000 29.5928 0.0000
# 6 0.0000 0.0000 0.0000 0.9717 0.0000 14.3645
#
#
#
# Elastic Compliance Matrix: (Units=1/GPa)
#
#
# Indices 1 2 3 4 5 6 
#
# 1 0.017350 -0.006575 -0.003700 0.000000 0.005146 0.000000
# 2 -0.006575 0.019068 -0.007099 0.000000 -0.001572 0.000000
# 3 -0.003700 -0.007099 0.033613 0.000000 0.009900 0.000000
# 4 0.000000 0.000000 0.000000 0.029159 0.000000 -0.001972
# 5 0.005146 -0.001572 0.009900 0.000000 0.039727 0.000000
# 6 0.000000 0.000000 0.000000 -0.001972 0.000000 0.069750
#
#
# Mechanical properties :
#
#
# Convention : Reuss Voigt Hill
#
# Bulk Modulus (GPa) = 28.34054 37.40194 32.87124
# Shear Modulus (GPa) = 19.59441 23.37370 21.48406
#
# Velocity S-wave (km/s) = 3.22540 3.52275 3.37735
# Velocity P-wave (km/s) = 5.37752 6.03358 5.71497
#
# Compressibility (1/GPa) = 0.03528515
#
# Stress axis : x y z
#
# Youngs Moduli (GPa) = 57.63646 52.44382 29.75058
#
# Poissons Ratio (x) = 0.34481 0.11006
# Poissons Ratio (y) = 0.37895 0.21119
# Poissons Ratio (z) = 0.21323 0.37228
#
# Static dielectric constant tensor:
#      x y z
#    x 3.319300 0.000000 -0.139530 
#    y 0.000000 3.460990 0.000000 
#    z -0.139530 0.000000 3.668560 
# 
# 
# High freq. dielectric constant tensor:
#      x y z
#    x 1.719670 0.000000 -0.007190 
#    y 0.000000 1.734860 0.000000 
#    z -0.007190 0.000000 1.738130 
# 
# From -- ./inp_files/74407.got.cif
#   From: 2010.06.25/outbox.cif.g09.slc.cpg/sg10_38_cif.got.tgz:74407.got - 2010.06.27 22:07:45.
