data_PCOD8063112
_publ_section_title
;
Structure prediction by ZEFSAII (Michael W. Deem and Ramdas Pophale) SiO2 
 PCOD8063112
Probable space group: P 2/M
;
_chemical_formula_sum "Si O2"
_cell_formula_units_Z 32
_cell_length_a 19.825792
_cell_length_b 9.140249
_cell_length_c 14.252200
_cell_angle_alpha 90.000000
_cell_angle_beta 45.538493
_cell_angle_gamma 90.000000
_cell_volume 1843.312912
_symmetry_space_group_name_H-M "P 2/M"
_symmetry_group_IT_number 10
_symmetry_cell_setting 'monoclinic'
loop_
_space_group_symop_operation_xyz
x,y,z
-x,y,-z
-x,-y,-z
x,-y,z
loop_
_atom_site_type_symbol
_atom_site_label
_atom_site_fract_x
_atom_site_fract_y
_atom_site_fract_z
Si Si1 0.640569 0.671329 0.618799
Si Si2 0.489381 0.829024 0.116790
Si Si3 0.999795 0.326653 0.603879
Si Si4 0.484117 0.670986 0.621727
Si Si5 0.999639 0.673431 0.104024
Si Si6 0.352657 0.828364 0.888259
Si Si7 0.851273 0.325618 0.394746
Si Si8 0.844150 0.328314 0.902042
O O1 0.643392 0.500000 0.636924
O O2 0.599490 0.747646 0.751091
O O3 0.578928 0.707201 0.587046
O O4 0.745009 0.735911 0.498623
O O5 0.583670 0.790616 0.083127
O O6 0.467234 0.000000 0.140853
O O7 0.500000 0.772592 0.000000
O O8 0.005891 0.500000 0.591814
O O9 0.092396 0.268813 0.568462
O O10 0.000000 0.255884 0.500000
O O11 0.904183 0.283660 0.751636
O O12 0.500000 0.724839 0.500000
O O13 0.459131 0.500000 0.649058
O O14 0.396221 0.756693 0.752202
O O15 0.992510 0.500000 0.105136
O O16 0.907269 0.733180 0.248737
O O17 0.095632 0.715637 0.064670
O O18 0.000000 0.743907 0.000000
O O19 0.345465 0.000000 0.877925
O O20 0.250369 0.764384 0.007729
O O21 0.850214 0.500000 0.393974
O O22 0.819626 0.500000 0.926056
#
# Coordination Sequence:
#
# PCOD8063112 Si02
#       8
#     4   4   4   4   4   4   4   4
#     4   9  17  29  47  71  95 117 146 189 233 270
#     4   9  19  35  50  64  88 123 158 190 229 280
#     4   8  14  25  41  63  91 118 143 177 223 270
#     4   9  18  32  49  70  95 121 151 189 231 275
#     4   8  14  25  43  67  93 120 149 182 221 266
#     4  10  20  33  49  68  93 125 157 193 236 280
#     4   8  14  24  38  60  88 114 142 176 216 262
#     4   9  17  29  47  70  93 119 154 192 227 271
#
# _framework density 17.360047000000002
#
# number of rings (size 3 to 8) (size 9 to 14) (size 15 to 20)
#    0.000    3.250    0.000    1.875    0.000    3.000 
#    0.000    5.000    0.000    3.750    0.000    0.000 
#    0.000    0.000    0.000    0.000    0.000    0.000 
#
# Total GULP energy -396692.678305 kJ/mol
# GULP energy per Si atom -12396.646197 kJ/mol
# Density = 1.732054 g / cm^3
# Si number density = 17.360047 Si / 1000 Ang^3
#
#
#
# Elastic Constant Matrix: (Units=GPa)
#
#
# Indices 1 2 3 4 5 6 
#
# 1 108.8499 27.5045 101.6183 0.0000 8.2575 0.0000
# 2 27.5045 30.0786 38.1042 0.0000 -2.3137 0.0000
# 3 101.6183 38.1042 160.1200 0.0000 3.2098 0.0000
# 4 0.0000 0.0000 0.0000 7.2744 0.0000 3.9369
# 5 8.2575 -2.3137 3.2098 0.0000 42.3070 0.0000
# 6 0.0000 0.0000 0.0000 3.9369 0.0000 14.0409
#
#
#
# Elastic Compliance Matrix: (Units=1/GPa)
#
#
# Indices 1 2 3 4 5 6 
#
# 1 0.023388 -0.004248 -0.013757 0.000000 -0.003753 0.000000
# 2 -0.004248 0.048879 -0.009020 0.000000 0.004186 0.000000
# 3 -0.013757 -0.009020 0.017104 0.000000 0.000894 0.000000
# 4 0.000000 0.000000 0.000000 0.162061 0.000000 -0.045440
# 5 -0.003753 0.004186 0.000894 0.000000 0.024530 0.000000
# 6 0.000000 0.000000 0.000000 -0.045440 0.000000 0.083961
#
#
# Mechanical properties :
#
#
# Convention : Reuss Voigt Hill
#
# Bulk Modulus (GPa) = 28.31051 70.38916 49.34983
# Shear Modulus (GPa) = 11.74406 21.51257 16.62832
#
# Velocity S-wave (km/s) = 2.60378 3.52405 3.09827
# Velocity P-wave (km/s) = 5.03814 7.56262 6.42558
#
# Compressibility (1/GPa) = 0.03532257
#
# Stress axis : x y z
#
# Youngs Moduli (GPa) = 42.75734 20.45853 58.46424
#
# Poissons Ratio (x) = 0.08690 0.80428
# Poissons Ratio (y) = 0.18162 0.52735
# Poissons Ratio (z) = 0.58820 0.18454
#
# Static dielectric constant tensor:
#      x y z
#    x 3.479840 0.000000 0.166150 
#    y 0.000000 2.804720 0.000000 
#    z 0.166150 0.000000 3.518000 
# 
# 
# High freq. dielectric constant tensor:
#      x y z
#    x 1.673410 0.000000 0.001460 
#    y 0.000000 1.625740 0.000000 
#    z 0.001460 0.000000 1.678840 
# 
# From -- ./inp_files/69999.got.cif
#   From: 2010.06.25/outbox.cif.g09.slc.cpg/sg10_35_cif.got.tgz:69999.got - 2010.06.27 22:07:45.
