data_PCOD8063261
_publ_section_title
;
Structure prediction by ZEFSAII (Michael W. Deem and Ramdas Pophale) SiO2 
 PCOD8063261
Probable space group: P 2/M
;
_chemical_formula_sum "Si O2"
_cell_formula_units_Z 24
_cell_length_a 9.578820
_cell_length_b 8.763781
_cell_length_c 20.090730
_cell_angle_alpha 90.000000
_cell_angle_beta 49.248152
_cell_angle_gamma 90.000000
_cell_volume 1277.635789
_symmetry_space_group_name_H-M "P 2/M"
_symmetry_group_IT_number 10
_symmetry_cell_setting 'monoclinic'
loop_
_space_group_symop_operation_xyz
x,y,z
-x,y,-z
-x,-y,-z
x,-y,z
loop_
_atom_site_type_symbol
_atom_site_label
_atom_site_fract_x
_atom_site_fract_y
_atom_site_fract_z
Si Si1 0.532570 0.179946 0.286923
Si Si2 0.107358 0.679994 0.775398
Si Si3 0.888636 0.680029 0.971554
Si Si4 0.153441 0.323208 0.397250
Si Si5 0.542325 0.176116 0.131814
Si Si6 0.123566 0.178076 0.266086
O O1 0.695908 0.237183 0.283214
O O2 0.346051 0.263923 0.367458
O O3 0.578523 0.226201 0.196645
O O4 0.503170 0.000000 0.303211
O O5 0.138271 0.500000 0.770112
O O6 0.979768 0.741612 0.875383
O O7 0.013964 0.722842 0.735181
O O8 0.895973 0.500000 0.970393
O O9 0.676239 0.731395 0.041218
O O10 0.000000 0.748345 0.000000
O O11 0.171042 0.500000 0.371897
O O12 0.096846 0.225862 0.350576
O O13 0.000000 0.295440 0.500000
O O14 0.332154 0.212797 0.177573
O O15 0.587836 0.000000 0.108022
O O16 0.077374 0.000000 0.273244
#
# Coordination Sequence:
#
# PCOD8063261 Si02
#       6
#     4   4   4   4   4   4
#     4  10  20  35  57  84 113 148 187 227 276 331
#     4  11  22  36  55  81 114 152 190 234 283 326
#     4  10  20  33  51  78 110 147 192 235 275 323
#     4  10  21  39  64  90 113 141 179 223 273 335
#     4   9  19  34  53  77 106 147 191 231 274 324
#     4  10  22  39  57  82 115 148 185 229 282 335
#
# _framework density 18.784697000000001
#
# number of rings (size 3 to 8) (size 9 to 14) (size 15 to 20)
#    0.000    2.000    1.667    3.000    0.000    7.000 
#    0.000    4.167    0.000    5.000    0.000    0.000 
#    0.000    0.000    0.000    0.000    0.000    0.000 
#
# Total GULP energy -297694.263886 kJ/mol
# GULP energy per Si atom -12403.927662 kJ/mol
# Density = 1.874194 g / cm^3
# Si number density = 18.784697 Si / 1000 Ang^3
#
#
#
# Elastic Constant Matrix: (Units=GPa)
#
#
# Indices 1 2 3 4 5 6 
#
# 1 101.1766 16.0076 36.5918 0.0000 -11.6208 0.0000
# 2 16.0076 49.0411 33.7469 0.0000 -7.9745 0.0000
# 3 36.5918 33.7469 98.3895 0.0000 -16.6100 0.0000
# 4 0.0000 0.0000 0.0000 24.9854 0.0000 -6.6415
# 5 -11.6208 -7.9745 -16.6100 0.0000 21.9517 0.0000
# 6 0.0000 0.0000 0.0000 -6.6415 0.0000 31.8225
#
#
#
# Elastic Compliance Matrix: (Units=1/GPa)
#
#
# Indices 1 2 3 4 5 6 
#
# 1 0.011654 -0.000880 -0.003491 0.000000 0.003208 0.000000
# 2 -0.000880 0.026952 -0.008418 0.000000 0.002955 0.000000
# 3 -0.003491 -0.008418 0.015501 0.000000 0.006823 0.000000
# 4 0.000000 0.000000 0.000000 0.042374 0.000000 0.008844
# 5 0.003208 0.002955 0.006823 0.000000 0.053489 0.000000
# 6 0.000000 0.000000 0.000000 0.008844 0.000000 0.033270
#
#
# Mechanical properties :
#
#
# Convention : Reuss Voigt Hill
#
# Bulk Modulus (GPa) = 35.05210 46.81110 40.93160
# Shear Modulus (GPa) = 22.90138 26.56932 24.73535
#
# Velocity S-wave (km/s) = 3.49542 3.76495 3.63269
# Velocity P-wave (km/s) = 5.91532 6.62372 6.27952
#
# Compressibility (1/GPa) = 0.02852896
#
# Stress axis : x y z
#
# Youngs Moduli (GPa) = 85.80812 37.10354 64.51177
#
# Poissons Ratio (x) = 0.03266 0.22519
# Poissons Ratio (y) = 0.07553 0.54306
# Poissons Ratio (z) = 0.29952 0.31233
#
# Static dielectric constant tensor:
#      x y z
#    x 3.407050 0.000000 -0.113890 
#    y 0.000000 3.404530 0.000000 
#    z -0.113890 0.000000 3.344690 
# 
# 
# High freq. dielectric constant tensor:
#      x y z
#    x 1.726590 0.000000 -0.012880 
#    y 0.000000 1.735280 0.000000 
#    z -0.012880 0.000000 1.716750 
# 
# From -- ./inp_files/27307.got.cif
#   From: 2010.06.25/outbox.cif.g09.slc.cpg/sg10_14_cif.got.tgz:27307.got - 2010.06.27 22:07:45.
