data_PCOD8063996
_publ_section_title
;
Structure prediction by ZEFSAII (Michael W. Deem and Ramdas Pophale) SiO2 
 PCOD8063996
Probable space group: P 2/M
;
_chemical_formula_sum "Si O2"
_cell_formula_units_Z 30
_cell_length_a 12.310469
_cell_length_b 13.481037
_cell_length_c 18.894505
_cell_angle_alpha 90.000000
_cell_angle_beta 151.287162
_cell_angle_gamma 90.000000
_cell_volume 1506.449294
_symmetry_space_group_name_H-M "P 2/M"
_symmetry_group_IT_number 10
_symmetry_cell_setting 'monoclinic'
loop_
_space_group_symop_operation_xyz
x,y,z
-x,y,-z
-x,-y,-z
x,-y,z
loop_
_atom_site_type_symbol
_atom_site_label
_atom_site_fract_x
_atom_site_fract_y
_atom_site_fract_z
Si Si1 0.877604 0.290889 0.283476
Si Si2 0.545183 0.615195 0.201709
Si Si3 0.287391 0.883708 0.059036
Si Si4 0.801823 0.614472 0.774777
Si Si5 0.335021 0.612591 0.571697
Si Si6 0.000000 0.763965 0.000000
Si Si7 0.190256 0.113342 0.665190
Si Si8 0.848515 0.714372 0.108082
O O1 0.756254 0.358614 0.272441
O O2 0.850373 0.175774 0.287170
O O3 0.771745 0.303931 0.144765
O O4 0.139824 0.317355 0.431333
O O5 0.501550 0.500000 0.174303
O O6 0.585804 0.650281 0.305493
O O7 0.319423 0.665124 0.044413
O O8 0.557242 0.864348 0.218271
O O9 0.232958 0.000000 0.022500
O O10 0.168401 0.831153 0.922352
O O11 0.184221 0.836993 0.070897
O O12 0.883390 0.500000 0.832008
O O13 0.530603 0.617712 0.623908
O O14 0.885173 0.689524 0.881064
O O15 0.905769 0.661247 0.761784
O O16 0.245568 0.500000 0.527679
O O17 0.000000 0.145837 0.500000
O O18 0.158838 0.000000 0.668971
#
# Coordination Sequence:
#
# PCOD8063996 Si02
#       8
#     4   4   4   4   4   2   4   4
#     4  12  24  37  59  84 124 157 197 243 292 357
#     4  11  22  37  58  86 118 153 197 245 296 352
#     4  10  21  39  62  89 121 153 197 249 299 357
#     4  10  21  37  59  86 121 158 200 244 290 352
#     4  10  22  39  61  86 112 156 204 249 297 342
#     4  10  20  34  62  96 118 152 198 248 304 342
#     4  10  22  39  63  91 119 154 197 250 306 354
#     4  11  24  39  56  88 119 163 196 235 297 355
#
# _framework density 19.914377999999999
#
# number of rings (size 3 to 8) (size 9 to 14) (size 15 to 20)
#    0.000    1.467    1.333    4.400    1.867    5.867 
#    0.000    2.667    0.000    0.000    0.000    2.800 
#    0.000    0.000    0.000    0.000    0.000    0.000 
#
# Total GULP energy -371878.737035 kJ/mol
# GULP energy per Si atom -12395.957901 kJ/mol
# Density = 1.986905 g / cm^3
# Si number density = 19.914378 Si / 1000 Ang^3
#
#
#
# Elastic Constant Matrix: (Units=GPa)
#
#
# Indices 1 2 3 4 5 6 
#
# 1 96.1342 39.7545 37.4337 0.0000 9.6273 0.0000
# 2 39.7545 115.4847 38.8242 0.0000 9.3154 0.0000
# 3 37.4337 38.8242 65.5987 0.0000 10.2353 0.0000
# 4 0.0000 0.0000 0.0000 41.1943 0.0000 -3.5240
# 5 9.6273 9.3154 10.2353 0.0000 32.3231 0.0000
# 6 0.0000 0.0000 0.0000 -3.5240 0.0000 40.4143
#
#
#
# Elastic Compliance Matrix: (Units=1/GPa)
#
#
# Indices 1 2 3 4 5 6 
#
# 1 0.014065 -0.002625 -0.006246 0.000000 -0.001455 0.000000
# 2 -0.002625 0.011340 -0.005077 0.000000 -0.000879 0.000000
# 3 -0.006246 -0.005077 0.022401 0.000000 -0.003770 0.000000
# 4 0.000000 0.000000 0.000000 0.024458 0.000000 0.002133
# 5 -0.001455 -0.000879 -0.003770 0.000000 0.032818 0.000000
# 6 0.000000 0.000000 0.000000 0.002133 0.000000 0.024930
#
#
# Mechanical properties :
#
#
# Convention : Reuss Voigt Hill
#
# Bulk Modulus (GPa) = 50.22050 56.58250 53.40150
# Shear Modulus (GPa) = 30.38691 33.53336 31.96014
#
# Velocity S-wave (km/s) = 3.91049 4.10796 4.01044
# Velocity P-wave (km/s) = 6.75738 7.13968 6.95116
#
# Compressibility (1/GPa) = 0.01991219
#
# Stress axis : x y z
#
# Youngs Moduli (GPa) = 71.09682 88.18101 44.64024
#
# Poissons Ratio (x) = 0.23145 0.27882
# Poissons Ratio (y) = 0.18661 0.22663
# Poissons Ratio (z) = 0.44406 0.44768
#
# Static dielectric constant tensor:
#      x y z
#    x 4.042870 0.000000 0.267240 
#    y 0.000000 3.866880 0.000000 
#    z 0.267240 0.000000 3.474790 
# 
# 
# High freq. dielectric constant tensor:
#      x y z
#    x 1.782840 0.000000 0.017210 
#    y 0.000000 1.786170 0.000000 
#    z 0.017210 0.000000 1.762760 
# 
# From -- ./inp_files/76942.got.cif
#   From: 2010.06.25/outbox.cif.g09.slc.cpg/sg10_39_cif.got.tgz:76942.got - 2010.06.27 22:07:45.
