data_PCOD8063491
_publ_section_title
;
Structure prediction by ZEFSAII (Michael W. Deem and Ramdas Pophale) SiO2 
 PCOD8063491
Probable space group: P 2/M
;
_chemical_formula_sum "Si O2"
_cell_formula_units_Z 32
_cell_length_a 23.611894
_cell_length_b 9.205331
_cell_length_c 15.719542
_cell_angle_alpha 90.000000
_cell_angle_beta 151.858393
_cell_angle_gamma 90.000000
_cell_volume 1611.506699
_symmetry_space_group_name_H-M "P 2/M"
_symmetry_group_IT_number 10
_symmetry_cell_setting 'monoclinic'
loop_
_space_group_symop_operation_xyz
x,y,z
-x,y,-z
-x,-y,-z
x,-y,z
loop_
_atom_site_type_symbol
_atom_site_label
_atom_site_fract_x
_atom_site_fract_y
_atom_site_fract_z
Si Si1 0.690836 0.336902 0.630575
Si Si2 0.634793 0.673193 0.161581
Si Si3 0.454317 0.165504 0.277250
Si Si4 0.141303 0.668780 0.440875
Si Si5 0.085768 0.663115 0.184654
Si Si6 0.246741 0.834930 0.127886
Si Si7 0.297330 0.668133 0.934541
Si Si8 0.900154 0.665149 0.200545
O O1 0.647924 0.500000 0.596641
O O2 0.580925 0.236446 0.461957
O O3 0.777518 0.339350 0.664786
O O4 0.764249 0.269364 0.806082
O O5 0.633320 0.500000 0.162585
O O6 0.730335 0.734104 0.358080
O O7 0.685141 0.727562 0.137427
O O8 0.500000 0.734106 0.000000
O O9 0.380317 0.174942 0.266632
O O10 0.473501 0.000000 0.274346
O O11 0.388938 0.247545 0.115071
O O12 0.162353 0.500000 0.449121
O O13 0.091091 0.739580 0.285610
O O14 0.044170 0.689045 0.388912
O O15 0.033359 0.500000 0.126235
O O16 0.000000 0.742444 0.000000
O O17 0.215497 0.000000 0.112163
O O18 0.152956 0.781110 0.934399
O O19 0.333532 0.500000 0.986865
O O20 0.159498 0.691885 0.785177
O O21 0.869532 0.500000 0.130797
#
# Coordination Sequence:
#
# PCOD8063491 Si02
#       8
#     4   4   4   4   4   4   4   4
#     4  11  21  31  51  78 103 135 179 227 266 311
#     4   9  18  30  49  79 112 141 173 219 271 323
#     4  10  21  35  51  73 104 142 178 214 265 324
#     4   9  17  30  50  77 108 142 176 217 273 324
#     4   9  18  31  48  75 106 136 174 216 261 315
#     4  10  20  34  51  73 105 143 178 214 264 323
#     4   9  18  32  52  80 106 132 174 223 267 311
#     4   9  17  31  53  78 105 134 172 223 268 311
#
# _framework density 19.857192999999999
#
# number of rings (size 3 to 8) (size 9 to 14) (size 15 to 20)
#    0.000    2.500    0.000    2.250    1.750    5.500 
#    0.000    2.500    0.000    7.875    0.000    3.500 
#    0.000    0.000    0.000    0.000    0.000    0.000 
#
# Total GULP energy -396583.587960 kJ/mol
# GULP energy per Si atom -12393.237124 kJ/mol
# Density = 1.981200 g / cm^3
# Si number density = 19.857193 Si / 1000 Ang^3
#
#
#
# Elastic Constant Matrix: (Units=GPa)
#
#
# Indices 1 2 3 4 5 6 
#
# 1 121.1767 18.3525 54.7759 0.0000 -5.0846 0.0000
# 2 18.3525 44.7538 8.4060 0.0000 -2.8870 0.0000
# 3 54.7759 8.4060 103.4111 0.0000 1.6743 0.0000
# 4 0.0000 0.0000 0.0000 0.8300 0.0000 5.6555
# 5 -5.0846 -2.8870 1.6743 0.0000 32.6281 0.0000
# 6 0.0000 0.0000 0.0000 5.6555 0.0000 6.1295
#
#
#
# Elastic Compliance Matrix: (Units=1/GPa)
#
#
# Indices 1 2 3 4 5 6 
#
# 1 0.011494 -0.003503 -0.005832 0.000000 0.001780 0.000000
# 2 -0.003503 0.023904 -0.000113 0.000000 0.001575 0.000000
# 3 -0.005832 -0.000113 0.012794 0.000000 -0.001575 0.000000
# 4 0.000000 0.000000 0.000000 -0.227885 0.000000 0.210264
# 5 0.001780 0.001575 -0.001575 0.000000 0.031146 0.000000
# 6 0.000000 0.000000 0.000000 0.210264 0.000000 -0.030859
#
#
# Mechanical properties :
#
#
# Convention : Reuss Voigt Hill
#
# Bulk Modulus (GPa) = 34.13539 48.04562 41.09051
# Shear Modulus (GPa) = -33.16881 20.43798 -6.36542
#
# Velocity S-wave (km/s) = -4.09145 3.21167 -1.79236
# Velocity P-wave (km/s) = 2.25658 6.16451 4.05642
#
# Compressibility (1/GPa) = 0.02929511
#
# Stress axis : x y z
#
# Youngs Moduli (GPa) = 87.00103 41.83425 78.16037
#
# Poissons Ratio (x) = 0.14655 0.45586
# Poissons Ratio (y) = 0.30478 0.00883
# Poissons Ratio (z) = 0.50742 0.00473
#
# Static dielectric constant tensor:
#      x y z
#    x 3.878650 0.000000 -0.008710 
#    y 0.000000 3.247580 0.000000 
#    z -0.008710 0.000000 3.647120 
# 
# 
# High freq. dielectric constant tensor:
#      x y z
#    x 1.782630 0.000000 0.006510 
#    y 0.000000 1.725350 0.000000 
#    z 0.006510 0.000000 1.771310 
# 
# From -- ./inp_files/71603.got.cif
#   From: 2010.06.25/outbox.cif.g09.slc.cpg/sg10_36_cif.got.tgz:71603.got - 2010.06.27 22:07:45.
