data_PCOD8063680
_publ_section_title
;
Structure prediction by ZEFSAII (Michael W. Deem and Ramdas Pophale) SiO2 
 PCOD8063680
Probable space group: P 2/M
;
_chemical_formula_sum "Si O2"
_cell_formula_units_Z 28
_cell_length_a 14.515775
_cell_length_b 9.090829
_cell_length_c 19.940090
_cell_angle_alpha 90.000000
_cell_angle_beta 32.714629
_cell_angle_gamma 90.000000
_cell_volume 1422.101188
_symmetry_space_group_name_H-M "P 2/M"
_symmetry_group_IT_number 10
_symmetry_cell_setting 'monoclinic'
loop_
_space_group_symop_operation_xyz
x,y,z
-x,y,-z
-x,-y,-z
x,-y,z
loop_
_atom_site_type_symbol
_atom_site_label
_atom_site_fract_x
_atom_site_fract_y
_atom_site_fract_z
Si Si1 0.500953 0.671321 0.788921
Si Si2 0.760855 0.830364 0.434504
Si Si3 0.823336 0.827201 0.644328
Si Si4 0.598112 0.171981 0.280773
Si Si5 0.127451 0.171321 0.780694
Si Si6 0.809413 0.669218 0.930792
Si Si7 0.083188 0.326479 0.281260
O O1 0.544865 0.500000 0.753380
O O2 0.673542 0.763542 0.689992
O O3 0.398824 0.729535 0.787230
O O4 0.381806 0.698507 0.926720
O O5 0.570680 0.795118 0.573244
O O6 0.774394 0.789081 0.348068
O O7 0.889207 0.731264 0.399497
O O8 0.809692 0.000000 0.417737
O O9 0.813384 0.749841 0.722483
O O10 0.000000 0.789371 0.500000
O O11 0.797082 0.000000 0.669304
O O12 0.758119 0.224292 0.227234
O O13 0.609942 0.000000 0.254744
O O14 0.943461 0.247031 0.895936
O O15 0.093889 0.000000 0.806606
O O16 0.859896 0.500000 0.905333
O O17 0.822998 0.720605 0.845176
O O18 0.084433 0.500000 0.292345
#
# Coordination Sequence:
#
# PCOD8063680 Si02
#       7
#     4   4   4   4   4   4   4
#     4  11  24  40  57  78 108 146 185 223 266 320
#     4   9  17  32  54  81 113 145 179 222 273 325
#     4  11  24  41  60  84 113 141 171 214 270 326
#     4  10  20  34  53  80 113 146 182 227 275 318
#     4   9  18  33  56  82 108 144 186 225 268 322
#     4   9  21  40  57  78 110 145 181 224 271 315
#     4  10  20  36  59  83 109 142 180 223 269 318
#
# _framework density 19.689174000000001
#
# number of rings (size 3 to 8) (size 9 to 14) (size 15 to 20)
#    0.000    2.143    0.000    2.571    0.000   10.286 
#    0.000    5.714    0.000    4.286    0.000    0.000 
#    0.000    0.000    0.000    0.000    0.000    0.000 
#
# Total GULP energy -347317.960422 kJ/mol
# GULP energy per Si atom -12404.212872 kJ/mol
# Density = 1.964436 g / cm^3
# Si number density = 19.689174 Si / 1000 Ang^3
#
#
#
# Elastic Constant Matrix: (Units=GPa)
#
#
# Indices 1 2 3 4 5 6 
#
# 1 114.8829 44.5956 27.6722 0.0000 2.4384 0.0000
# 2 44.5956 71.8352 38.0496 0.0000 0.9713 0.0000
# 3 27.6722 38.0496 74.8850 0.0000 -1.0891 0.0000
# 4 0.0000 0.0000 0.0000 23.5870 0.0000 5.6259
# 5 2.4384 0.9713 -1.0891 0.0000 19.5014 0.0000
# 6 0.0000 0.0000 0.0000 5.6259 0.0000 29.7513
#
#
#
# Elastic Compliance Matrix: (Units=1/GPa)
#
#
# Indices 1 2 3 4 5 6 
#
# 1 0.011534 -0.006674 -0.000888 0.000000 -0.001159 0.000000
# 2 -0.006674 0.022953 -0.009208 0.000000 -0.000823 0.000000
# 3 -0.000888 -0.009208 0.018384 0.000000 0.001596 0.000000
# 4 0.000000 0.000000 0.000000 0.044399 0.000000 -0.008396
# 5 -0.001159 -0.000823 0.001596 0.000000 0.051554 0.000000
# 6 0.000000 0.000000 0.000000 -0.008396 0.000000 0.035200
#
#
# Mechanical properties :
#
#
# Convention : Reuss Voigt Hill
#
# Bulk Modulus (GPa) = 51.73280 53.58200 52.65740
# Shear Modulus (GPa) = 22.32088 24.65364 23.48726
#
# Velocity S-wave (km/s) = 3.37064 3.54240 3.45759
# Velocity P-wave (km/s) = 6.44050 6.63359 6.53776
#
# Compressibility (1/GPa) = 0.01933009
#
# Stress axis : x y z
#
# Youngs Moduli (GPa) = 86.70149 43.56793 54.39614
#
# Poissons Ratio (x) = 0.29079 0.04828
# Poissons Ratio (y) = 0.57868 0.50088
# Poissons Ratio (z) = 0.07696 0.40117
#
# Static dielectric constant tensor:
#      x y z
#    x 3.705730 0.000000 0.075020 
#    y 0.000000 3.542680 0.000000 
#    z 0.075020 0.000000 3.543860 
# 
# 
# High freq. dielectric constant tensor:
#      x y z
#    x 1.772880 0.000000 0.002770 
#    y 0.000000 1.764450 0.000000 
#    z 0.002770 0.000000 1.765070 
# 
# From -- ./inp_files/49625.got.cif
#   From: 2010.06.25/outbox.cif.g09.slc.cpg/sg10_25_cif.got.tgz:49625.got - 2010.06.27 22:07:45.
