data_PCOD8063584
_publ_section_title
;
Structure prediction by ZEFSAII (Michael W. Deem and Ramdas Pophale) SiO2 
 PCOD8063584
Probable space group: P 2/M
;
_chemical_formula_sum "Si O2"
_cell_formula_units_Z 28
_cell_length_a 17.687198
_cell_length_b 9.353481
_cell_length_c 21.714293
_cell_angle_alpha 90.000000
_cell_angle_beta 27.656652
_cell_angle_gamma 90.000000
_cell_volume 1667.466010
_symmetry_space_group_name_H-M "P 2/M"
_symmetry_group_IT_number 10
_symmetry_cell_setting 'monoclinic'
loop_
_space_group_symop_operation_xyz
x,y,z
-x,y,-z
-x,-y,-z
x,-y,z
loop_
_atom_site_type_symbol
_atom_site_label
_atom_site_fract_x
_atom_site_fract_y
_atom_site_fract_z
Si Si1 0.156854 0.660285 0.843300
Si Si2 0.335084 0.840056 0.806975
Si Si3 0.765564 0.831652 0.922591
Si Si4 0.479828 0.833123 0.214130
Si Si5 0.020488 0.158069 0.119894
Si Si6 0.310029 0.668709 0.140957
Si Si7 0.817837 0.165862 0.650377
O O1 0.213717 0.500000 0.788549
O O2 0.307251 0.740840 0.767656
O O3 0.115155 0.733447 0.807956
O O4 0.000000 0.664036 0.000000
O O5 0.480094 0.774346 0.745819
O O6 0.375923 0.000000 0.753856
O O7 0.175462 0.842968 0.963946
O O8 0.922021 0.799226 0.852859
O O9 0.786895 0.742191 0.844999
O O10 0.752425 0.000000 0.916544
O O11 0.602436 0.772127 0.073824
O O12 0.294815 0.801107 0.328023
O O13 0.520237 0.000000 0.189231
O O14 0.942309 0.000000 0.177041
O O15 0.280360 0.500000 0.160737
O O16 0.235729 0.731541 0.256596
O O17 0.500000 0.708177 0.000000
O O18 0.000000 0.203700 0.500000
O O19 0.799083 0.000000 0.683890
#
# Coordination Sequence:
#
# PCOD8063584 Si02
#       7
#     4   4   4   4   4   4   4
#     4   9  15  21  30  49  79 113 144 177 219 264
#     4   8  13  22  36  52  75 110 147 181 217 265
#     4   9  16  28  47  66  86 117 156 197 233 270
#     4   8  14  26  44  65  87 113 150 194 236 272
#     4   8  14  23  36  55  78 109 147 182 223 270
#     4  11  22  33  47  70  97 126 159 194 237 287
#     4  10  20  34  53  73  93 122 160 201 243 283
#
# _framework density 16.791945999999999
#
# number of rings (size 3 to 8) (size 9 to 14) (size 15 to 20)
#    0.000    3.000    1.429    2.571    0.000    3.143 
#    0.000    2.857    0.000    0.000    0.000    0.000 
#    0.000    1.143    0.000   13.143    0.000    7.286 
#
# Total GULP energy -347026.983515 kJ/mol
# GULP energy per Si atom -12393.820840 kJ/mol
# Density = 1.675373 g / cm^3
# Si number density = 16.791946 Si / 1000 Ang^3
#
#
#
# Elastic Constant Matrix: (Units=GPa)
#
#
# Indices 1 2 3 4 5 6 
#
# 1 162.2906 76.9696 37.1963 0.0000 -10.0651 0.0000
# 2 76.9696 96.7277 28.0423 0.0000 0.3850 0.0000
# 3 37.1963 28.0423 43.6065 0.0000 -5.2581 0.0000
# 4 0.0000 0.0000 0.0000 10.5856 0.0000 2.8455
# 5 -10.0651 0.3850 -5.2581 0.0000 12.4324 0.0000
# 6 0.0000 0.0000 0.0000 2.8455 0.0000 12.9857
#
#
#
# Elastic Compliance Matrix: (Units=1/GPa)
#
#
# Indices 1 2 3 4 5 6 
#
# 1 0.011220 -0.007939 -0.003520 0.000000 0.007841 0.000000
# 2 -0.007939 0.018522 -0.006305 0.000000 -0.009667 0.000000
# 3 -0.003520 -0.006305 0.031264 0.000000 0.010568 0.000000
# 4 0.000000 0.000000 0.000000 0.100381 0.000000 -0.021996
# 5 0.007841 -0.009667 0.010568 0.000000 0.091552 0.000000
# 6 0.000000 0.000000 0.000000 -0.021996 0.000000 0.081827
#
#
# Mechanical properties :
#
#
# Convention : Reuss Voigt Hill
#
# Bulk Modulus (GPa) = 39.24909 65.22678 52.23794
# Shear Modulus (GPa) = 13.20011 17.89519 15.54765
#
# Velocity S-wave (km/s) = 2.80678 3.26805 3.04616
# Velocity P-wave (km/s) = 5.82482 7.29168 6.59914
#
# Compressibility (1/GPa) = 0.02547830
#
# Stress axis : x y z
#
# Youngs Moduli (GPa) = 89.12683 53.99033 31.98609
#
# Poissons Ratio (x) = 0.42862 0.11259
# Poissons Ratio (y) = 0.70757 0.20167
# Poissons Ratio (z) = 0.31372 0.34040
#
# Static dielectric constant tensor:
#      x y z
#    x 3.559600 0.000000 -0.138410 
#    y 0.000000 3.095880 0.000000 
#    z -0.138410 0.000000 2.528290 
# 
# 
# High freq. dielectric constant tensor:
#      x y z
#    x 1.670310 0.000000 -0.006570 
#    y 0.000000 1.633300 0.000000 
#    z -0.006570 0.000000 1.569980 
# 
# From -- ./inp_files/79228.got.cif
#   From: 2010.06.25/outbox.cif.g09.slc.cpg/sg10_40_cif.got.tgz:79228.got - 2010.06.27 22:07:45.
