data_PCOD8063621
_publ_section_title
;
Structure prediction by ZEFSAII (Michael W. Deem and Ramdas Pophale) SiO2 
 PCOD8063621
Probable space group: P 2/M
;
_chemical_formula_sum "Si O2"
_cell_formula_units_Z 32
_cell_length_a 14.852947
_cell_length_b 8.408747
_cell_length_c 30.533944
_cell_angle_alpha 90.000000
_cell_angle_beta 28.822780
_cell_angle_gamma 90.000000
_cell_volume 1838.509143
_symmetry_space_group_name_H-M "P 2/M"
_symmetry_group_IT_number 10
_symmetry_cell_setting 'monoclinic'
loop_
_space_group_symop_operation_xyz
x,y,z
-x,y,-z
-x,-y,-z
x,-y,z
loop_
_atom_site_type_symbol
_atom_site_label
_atom_site_fract_x
_atom_site_fract_y
_atom_site_fract_z
Si Si1 0.713443 0.186018 0.108134
Si Si2 0.368975 0.183677 0.378390
Si Si3 0.664654 0.683620 0.701678
Si Si4 0.954460 0.685571 0.082291
Si Si5 0.735864 0.686160 0.439644
Si Si6 0.669245 0.183336 0.377398
Si Si7 0.030321 0.814158 0.585101
Si Si8 0.740599 0.682056 0.257894
O O1 0.512605 0.268741 0.193444
O O2 0.815177 0.214791 0.111025
O O3 0.689853 0.000000 0.110143
O O4 0.833420 0.261812 0.017375
O O5 0.325878 0.210386 0.345903
O O6 0.542674 0.288680 0.319269
O O7 0.188171 0.234800 0.482940
O O8 0.418503 0.000000 0.365624
O O9 0.651951 0.500000 0.693621
O O10 0.846461 0.714399 0.653130
O O11 0.925856 0.500000 0.083755
O O12 0.905424 0.723620 0.153512
O O13 0.727027 0.500000 0.452837
O O14 0.544970 0.765673 0.537723
O O15 0.765197 0.717111 0.375471
O O16 0.905069 0.765857 0.393808
O O17 0.774433 0.213157 0.286799
O O18 0.679513 0.000000 0.385982
O O19 0.984134 0.000000 0.602668
O O20 0.749074 0.500000 0.268884
#
# Coordination Sequence:
#
# PCOD8063621 Si02
#       8
#     4   4   4   4   4   4   4   4
#     4  11  21  34  53  75 102 136 176 219 263 312
#     4  11  22  35  52  74 106 142 180 220 258 307
#     4  12  24  37  53  74 104 142 183 222 260 308
#     4  10  20  34  53  76 105 136 171 216 266 315
#     4  11  21  35  54  76 103 136 177 220 264 313
#     4  11  21  34  53  76 106 139 174 217 264 312
#     4  11  23  38  54  75 104 140 181 221 263 310
#     4  11  21  33  53  79 108 141 176 214 261 316
#
# _framework density 17.405408000000001
#
# number of rings (size 3 to 8) (size 9 to 14) (size 15 to 20)
#    0.000    1.000    2.500    7.875    0.000    4.500 
#    0.000    0.000    0.000    0.000    0.000    0.875 
#    0.000    7.000    0.000    0.000    0.000    0.000 
#
# Total GULP energy -396992.805589 kJ/mol
# GULP energy per Si atom -12406.025175 kJ/mol
# Density = 1.736579 g / cm^3
# Si number density = 17.405408 Si / 1000 Ang^3
#
#
#
# Elastic Constant Matrix: (Units=GPa)
#
#
# Indices 1 2 3 4 5 6 
#
# 1 78.2304 3.4356 45.7769 0.0000 9.1054 0.0000
# 2 3.4356 72.5815 26.9434 0.0000 3.4746 0.0000
# 3 45.7769 26.9434 109.5749 0.0000 6.2823 0.0000
# 4 0.0000 0.0000 0.0000 24.3888 0.0000 1.3244
# 5 9.1054 3.4746 6.2823 0.0000 24.4065 0.0000
# 6 0.0000 0.0000 0.0000 1.3244 0.0000 28.3245
#
#
#
# Elastic Compliance Matrix: (Units=1/GPa)
#
#
# Indices 1 2 3 4 5 6 
#
# 1 0.017761 0.002251 -0.007689 0.000000 -0.004968 0.000000
# 2 0.002251 0.015483 -0.004642 0.000000 -0.001849 0.000000
# 3 -0.007689 -0.004642 0.013476 0.000000 0.000060 0.000000
# 4 0.000000 0.000000 0.000000 0.041107 0.000000 -0.001922
# 5 -0.004968 -0.001849 0.000060 0.000000 0.043074 0.000000
# 6 0.000000 0.000000 0.000000 -0.001922 0.000000 0.035395
#
#
# Mechanical properties :
#
#
# Convention : Reuss Voigt Hill
#
# Bulk Modulus (GPa) = 37.64793 45.85539 41.75166
# Shear Modulus (GPa) = 25.60065 27.70602 26.65334
#
# Velocity S-wave (km/s) = 3.83932 3.99407 3.91746
# Velocity P-wave (km/s) = 6.42890 6.90455 6.67097
#
# Compressibility (1/GPa) = 0.02656189
#
# Stress axis : x y z
#
# Youngs Moduli (GPa) = 56.30238 64.58866 74.20503
#
# Poissons Ratio (x) = -0.14541 0.57055
# Poissons Ratio (y) = -0.12675 0.34442
# Poissons Ratio (z) = 0.43290 0.29979
#
# Static dielectric constant tensor:
#      x y z
#    x 3.112090 0.000000 0.157710 
#    y 0.000000 3.351490 0.000000 
#    z 0.157710 0.000000 3.356970 
# 
# 
# High freq. dielectric constant tensor:
#      x y z
#    x 1.649400 0.000000 0.014230 
#    y 0.000000 1.692430 0.000000 
#    z 0.014230 0.000000 1.660030 
# 
# From -- ./inp_files/95251.got.cif
#   From: 2010.06.25/outbox.cif.g09.slc.cpg/sg10_48_cif.got.tgz:95251.got - 2010.06.27 22:07:45.
