data_PCOD8063782
_publ_section_title
;
Structure prediction by ZEFSAII (Michael W. Deem and Ramdas Pophale) SiO2 
 PCOD8063782
Probable space group: P 2/M
;
_chemical_formula_sum "Si O2"
_cell_formula_units_Z 32
_cell_length_a 33.069096
_cell_length_b 8.726431
_cell_length_c 11.580866
_cell_angle_alpha 90.000000
_cell_angle_beta 29.712008
_cell_angle_gamma 90.000000
_cell_volume 1656.406722
_symmetry_space_group_name_H-M "P 2/M"
_symmetry_group_IT_number 10
_symmetry_cell_setting 'monoclinic'
loop_
_space_group_symop_operation_xyz
x,y,z
-x,y,-z
-x,-y,-z
x,-y,z
loop_
_atom_site_type_symbol
_atom_site_label
_atom_site_fract_x
_atom_site_fract_y
_atom_site_fract_z
Si Si1 0.686925 0.179952 0.472357
Si Si2 0.527586 0.327625 0.800186
Si Si3 0.021239 0.324066 0.257375
Si Si4 0.823750 0.677352 0.985496
Si Si5 0.633304 0.180331 0.860261
Si Si6 0.226187 0.318619 0.352201
Si Si7 0.847358 0.821265 0.691467
Si Si8 0.078523 0.679845 0.868245
O O1 0.610514 0.230468 0.582395
O O2 0.767451 0.265433 0.229245
O O3 0.672617 0.230644 0.640322
O O4 0.699435 0.000000 0.429494
O O5 0.543731 0.500000 0.716569
O O6 0.500000 0.325210 0.000000
O O7 0.456361 0.252292 0.900383
O O8 0.990583 0.500000 0.325249
O O9 0.943215 0.216313 0.458610
O O10 0.080903 0.300287 0.217930
O O11 0.074663 0.280103 0.012551
O O12 0.805514 0.500000 0.006656
O O13 0.805947 0.774613 0.915058
O O14 0.688149 0.240710 0.829258
O O15 0.623822 0.000000 0.890412
O O16 0.236427 0.500000 0.333964
O O17 0.198457 0.272955 0.293464
O O18 0.160212 0.252934 0.607899
O O19 0.835182 0.000000 0.699232
O O20 0.078927 0.500000 0.843664
O O21 0.000000 0.753760 0.000000
#
# Coordination Sequence:
#
# PCOD8063782 Si02
#       8
#     4   4   4   4   4   4   4   4
#     4  10  20  35  56  84 119 150 177 221 280 330
#     4   9  17  31  54  83 114 148 186 222 263 320
#     4  10  20  37  58  80 105 139 184 231 277 328
#     4  11  23  38  58  80 105 142 191 236 273 324
#     4  10  20  34  54  85 121 149 178 219 276 332
#     4  11  21  36  58  80 108 146 190 230 271 326
#     4  12  25  39  54  75 107 145 186 233 286 332
#     4   9  16  30  54  79 104 135 174 221 271 320
#
# _framework density 19.318926000000001
#
# number of rings (size 3 to 8) (size 9 to 14) (size 15 to 20)
#    0.000    1.750    1.250    4.125    0.000    6.500 
#    0.000    1.875    0.000    0.750    0.000    5.250 
#    0.000    0.000    0.000    0.000    0.000    0.000 
#
# Total GULP energy -396885.932584 kJ/mol
# GULP energy per Si atom -12402.685393 kJ/mol
# Density = 1.927496 g / cm^3
# Si number density = 19.318926 Si / 1000 Ang^3
#
#
#
# Elastic Constant Matrix: (Units=GPa)
#
#
# Indices 1 2 3 4 5 6 
#
# 1 73.8274 14.3781 20.5435 0.0000 -10.4651 0.0000
# 2 14.3781 58.3385 15.4012 0.0000 -5.3894 0.0000
# 3 20.5435 15.4012 48.7251 0.0000 -17.7142 0.0000
# 4 0.0000 0.0000 0.0000 31.1307 0.0000 -3.1656
# 5 -10.4651 -5.3894 -17.7142 0.0000 31.7261 0.0000
# 6 0.0000 0.0000 0.0000 -3.1656 0.0000 25.8264
#
#
#
# Elastic Compliance Matrix: (Units=1/GPa)
#
#
# Indices 1 2 3 4 5 6 
#
# 1 0.015713 -0.002324 -0.005206 0.000000 0.001881 0.000000
# 2 -0.002324 0.019046 -0.005198 0.000000 -0.000433 0.000000
# 3 -0.005206 -0.005198 0.029380 0.000000 0.013804 0.000000
# 4 0.000000 0.000000 0.000000 0.032528 0.000000 0.003987
# 5 0.001881 -0.000433 0.013804 0.000000 0.039774 0.000000
# 6 0.000000 0.000000 0.000000 0.003987 0.000000 0.039209
#
#
# Mechanical properties :
#
#
# Convention : Reuss Voigt Hill
#
# Bulk Modulus (GPa) = 25.85163 31.28182 28.56673
# Shear Modulus (GPa) = 23.36431 26.44117 24.90274
#
# Velocity S-wave (km/s) = 3.48142 3.70356 3.59421
# Velocity P-wave (km/s) = 5.43791 5.87503 5.66069
#
# Compressibility (1/GPa) = 0.03868228
#
# Stress axis : x y z
#
# Youngs Moduli (GPa) = 63.64073 52.50343 34.03701
#
# Poissons Ratio (x) = 0.12204 0.17721
# Poissons Ratio (y) = 0.14793 0.17692
# Poissons Ratio (z) = 0.33133 0.27290
#
# Static dielectric constant tensor:
#      x y z
#    x 3.459450 0.000000 -0.121580 
#    y 0.000000 3.396910 0.000000 
#    z -0.121580 0.000000 3.476340 
# 
# 
# High freq. dielectric constant tensor:
#      x y z
#    x 1.744300 0.000000 -0.015010 
#    y 0.000000 1.746310 0.000000 
#    z -0.015010 0.000000 1.738790 
# 
# From -- ./inp_files/58080.got.cif
#   From: 2010.06.25/outbox.cif.g09.slc.cpg/sg10_30_cif.got.tgz:58080.got - 2010.06.27 22:07:45.
