data_PCOD8063971
_publ_section_title
;
Structure prediction by ZEFSAII (Michael W. Deem and Ramdas Pophale) SiO2 
 PCOD8063971
Probable space group: P 2/M
;
_chemical_formula_sum "Si O2"
_cell_formula_units_Z 22
_cell_length_a 21.758749
_cell_length_b 11.333057
_cell_length_c 20.693400
_cell_angle_alpha 90.000000
_cell_angle_beta 166.834838
_cell_angle_gamma 90.000000
_cell_volume 1162.219397
_symmetry_space_group_name_H-M "P 2/M"
_symmetry_group_IT_number 10
_symmetry_cell_setting 'monoclinic'
loop_
_space_group_symop_operation_xyz
x,y,z
-x,y,-z
-x,-y,-z
x,-y,z
loop_
_atom_site_type_symbol
_atom_site_label
_atom_site_fract_x
_atom_site_fract_y
_atom_site_fract_z
Si Si1 0.768835 0.500000 0.314990
Si Si2 0.742991 0.629342 0.412170
Si Si3 0.546000 0.749163 0.414527
Si Si4 0.728445 0.751320 0.005920
Si Si5 0.065602 0.364146 0.993522
Si Si6 0.329052 0.000000 0.486501
Si Si7 0.859350 0.000000 0.109845
O O1 0.787313 0.616617 0.379997
O O2 0.000000 0.500000 0.500000
O O3 0.500000 0.500000 0.000000
O O4 0.658921 0.500000 0.354328
O O5 0.502893 0.722155 0.178721
O O6 0.021176 0.663389 0.731762
O O7 0.408040 0.737343 0.203580
O O8 0.802873 0.662694 0.680906
O O9 0.665509 0.880905 0.551052
O O10 0.321183 0.716458 0.236962
O O11 0.853601 0.881664 0.147483
O O12 0.147245 0.500000 0.066994
O O13 0.000000 0.334084 0.000000
O O14 0.093036 0.000000 0.296716
O O15 0.593410 0.000000 0.797626
#
# Coordination Sequence:
#
# PCOD8063971 Si02
#       7
#     2   4   4   4   4   2   2
#     4  10  20  38  58  82 118 164 189 212 279 324
#     4  10  22  33  55  86 122 139 186 239 264 321
#     4  11  22  37  61  79 110 149 181 232 300 330
#     4  11  20  36  54  88 115 145 183 232 285 338
#     4  11  24  41  56  78 107 147 197 231 274 354
#     4  10  20  38  55  84 106 139 192 230 270 364
#     4  10  20  34  58  76 117 159 180 212 282 352
#
# _framework density 18.929300000000001
#
# number of rings (size 3 to 8) (size 9 to 14) (size 15 to 20)
#    0.545    0.909    0.000    8.182    0.000    5.818 
#    0.000    2.727    0.000    0.000    0.000   12.727 
#    0.000    0.000    0.000    0.000    0.000    0.000 
#
# Total GULP energy -272696.034617 kJ/mol
# GULP energy per Si atom -12395.274301 kJ/mol
# Density = 1.888622 g / cm^3
# Si number density = 18.929300 Si / 1000 Ang^3
#
#
#
# Elastic Constant Matrix: (Units=GPa)
#
#
# Indices 1 2 3 4 5 6 
#
# 1 85.6724 68.2603 39.9829 0.0000 23.2877 0.0000
# 2 68.2603 119.1366 52.9961 0.0000 18.8494 0.0000
# 3 39.9829 52.9961 134.4937 0.0000 25.7957 0.0000
# 4 0.0000 0.0000 0.0000 30.1132 0.0000 15.7652
# 5 23.2877 18.8494 25.7957 0.0000 44.1459 0.0000
# 6 0.0000 0.0000 0.0000 15.7652 0.0000 17.0166
#
#
#
# Elastic Compliance Matrix: (Units=1/GPa)
#
#
# Indices 1 2 3 4 5 6 
#
# 1 0.023479 -0.011954 -0.000983 0.000000 -0.006707 0.000000
# 2 -0.011954 0.016467 -0.003149 0.000000 0.001115 0.000000
# 3 -0.000983 -0.003149 0.009698 0.000000 -0.003804 0.000000
# 4 0.000000 0.000000 0.000000 0.064485 0.000000 -0.059743
# 5 -0.006707 0.001115 -0.003804 0.000000 0.027937 0.000000
# 6 0.000000 0.000000 0.000000 -0.059743 0.000000 0.114116
#
#
# Mechanical properties :
#
#
# Convention : Reuss Voigt Hill
#
# Bulk Modulus (GPa) = 57.23448 73.53128 65.38288
# Shear Modulus (GPa) = 16.99656 30.12602 23.56129
#
# Velocity S-wave (km/s) = 2.99974 3.99369 3.53186
# Velocity P-wave (km/s) = 6.50381 7.75858 7.15874
#
# Compressibility (1/GPa) = 0.01747199
#
# Stress axis : x y z
#
# Youngs Moduli (GPa) = 42.59204 60.72719 103.11535
#
# Poissons Ratio (x) = 0.72592 0.10138
# Poissons Ratio (y) = 0.50913 0.32469
# Poissons Ratio (z) = 0.04188 0.19122
#
# Static dielectric constant tensor:
#      x y z
#    x 3.277270 0.000000 0.067780 
#    y 0.000000 0.107480 0.000000 
#    z 0.067780 0.000000 3.570060 
# 
# 
# High freq. dielectric constant tensor:
#      x y z
#    x 1.704910 0.000000 0.011470 
#    y 0.000000 1.737760 0.000000 
#    z 0.011470 0.000000 1.759290 
# 
# From -- ./inp_files/90760.got.cif
#   From: 2010.06.25/outbox.cif.g09.slc.cpg/sg10_46_cif.got.tgz:90760.got - 2010.06.27 22:07:45.
