data_PCOD8063770
_publ_section_title
;
Structure prediction by ZEFSAII (Michael W. Deem and Ramdas Pophale) SiO2 
 PCOD8063770
Probable space group: P 2/M
;
_chemical_formula_sum "Si O2"
_cell_formula_units_Z 28
_cell_length_a 8.681312
_cell_length_b 10.922848
_cell_length_c 15.597393
_cell_angle_alpha 90.000000
_cell_angle_beta 69.501609
_cell_angle_gamma 90.000000
_cell_volume 1385.368968
_symmetry_space_group_name_H-M "P 2/M"
_symmetry_group_IT_number 10
_symmetry_cell_setting 'monoclinic'
loop_
_space_group_symop_operation_xyz
x,y,z
-x,y,-z
-x,-y,-z
x,-y,z
loop_
_atom_site_type_symbol
_atom_site_label
_atom_site_fract_x
_atom_site_fract_y
_atom_site_fract_z
Si Si1 0.800665 0.862789 0.832321
Si Si2 0.510421 0.860368 0.401289
Si Si3 0.988991 0.635733 0.595642
Si Si4 0.146486 0.768827 0.717051
Si Si5 0.806675 0.140953 0.026642
Si Si6 0.645806 0.709872 0.715081
Si Si7 0.699327 0.636358 0.165011
O O1 0.687442 0.784038 0.792755
O O2 0.996215 0.847963 0.782034
O O3 0.753920 0.000000 0.818781
O O4 0.754802 0.833144 0.939234
O O5 0.500000 0.804390 0.500000
O O6 0.693503 0.852775 0.326095
O O7 0.384421 0.793258 0.362523
O O8 0.453297 0.000000 0.415881
O O9 0.064211 0.500000 0.577440
O O10 0.801797 0.625835 0.664425
O O11 0.000000 0.697458 0.500000
O O12 0.103075 0.715494 0.633629
O O13 0.182279 0.659133 0.776849
O O14 0.716781 0.247604 0.097914
O O15 0.756983 0.000000 0.063333
O O16 0.000000 0.157315 0.000000
O O17 0.487903 0.627853 0.766104
O O18 0.742904 0.500000 0.118242
#
# Coordination Sequence:
#
# PCOD8063770 Si02
#       7
#     4   4   4   4   4   4   4
#     4  10  20  37  59  84 112 148 192 238 289 343
#     4  10  20  34  54  82 115 150 189 234 285 341
#     4  10  20  36  57  79 107 146 190 235 283 336
#     4  10  20  35  56  82 110 148 190 237 284 341
#     4  10  21  39  62  88 115 148 194 243 287 343
#     4  10  22  37  55  83 117 151 188 236 287 344
#     4  11  23  39  59  86 120 155 192 237 291 348
#
# _framework density 20.211223
#
# number of rings (size 3 to 8) (size 9 to 14) (size 15 to 20)
#    0.000    1.857    1.429    2.571    0.000    3.714 
#    0.000    3.571    0.000   13.714    0.000    0.000 
#    0.000    0.000    0.000    0.000    0.000    0.000 
#
# Total GULP energy -347097.920700 kJ/mol
# GULP energy per Si atom -12396.354311 kJ/mol
# Density = 2.016522 g / cm^3
# Si number density = 20.211223 Si / 1000 Ang^3
#
#
#
# Elastic Constant Matrix: (Units=GPa)
#
#
# Indices 1 2 3 4 5 6 
#
# 1 62.9217 8.3373 19.8159 0.0000 19.3460 0.0000
# 2 8.3373 97.1925 47.8288 0.0000 16.5830 0.0000
# 3 19.8159 47.8288 98.9980 0.0000 20.0253 0.0000
# 4 0.0000 0.0000 0.0000 23.4232 0.0000 -4.6543
# 5 19.3460 16.5830 20.0253 0.0000 28.3244 0.0000
# 6 0.0000 0.0000 0.0000 -4.6543 0.0000 2.2493
#
#
#
# Elastic Compliance Matrix: (Units=1/GPa)
#
#
# Indices 1 2 3 4 5 6 
#
# 1 0.020480 0.001591 -0.002159 0.000000 -0.013393 0.000000
# 2 0.001591 0.013990 -0.006068 0.000000 -0.004986 0.000000
# 3 -0.002159 -0.006068 0.014526 0.000000 -0.005242 0.000000
# 4 0.000000 0.000000 0.000000 0.072505 0.000000 0.150031
# 5 -0.013393 -0.004986 -0.005242 0.000000 0.051078 0.000000
# 6 0.000000 0.000000 0.000000 0.150031 0.000000 0.755043
#
#
# Mechanical properties :
#
#
# Convention : Reuss Voigt Hill
#
# Bulk Modulus (GPa) = 27.99415 45.67512 36.83464
# Shear Modulus (GPa) = 5.24768 23.00805 14.12787
#
# Velocity S-wave (km/s) = 1.61309 3.37765 2.64675
# Velocity P-wave (km/s) = 4.16537 6.15299 5.25403
#
# Compressibility (1/GPa) = 0.03572174
#
# Stress axis : x y z
#
# Youngs Moduli (GPa) = 48.82895 71.48213 68.84419
#
# Poissons Ratio (x) = -0.11370 0.14861
# Poissons Ratio (y) = -0.07767 0.41778
# Poissons Ratio (z) = 0.10540 0.43379
#
# Static dielectric constant tensor:
#      x y z
#    x 3.616020 0.000000 0.133810 
#    y 0.000000 3.443300 0.000000 
#    z 0.133810 0.000000 3.801630 
# 
# 
# High freq. dielectric constant tensor:
#      x y z
#    x 1.793740 0.000000 0.010170 
#    y 0.000000 1.778110 0.000000 
#    z 0.010170 0.000000 1.795320 
# 
# From -- ./inp_files/28182.got.cif
#   From: 2010.06.25/outbox.cif.g09.slc.cpg/sg10_15_cif.got.tgz:28182.got - 2010.06.27 22:07:45.
