data_PCOD8063943
_publ_section_title
;
Structure prediction by ZEFSAII (Michael W. Deem and Ramdas Pophale) SiO2 
 PCOD8063943
Probable space group: P 2/M
;
_chemical_formula_sum "Si O2"
_cell_formula_units_Z 28
_cell_length_a 16.894136
_cell_length_b 18.691947
_cell_length_c 9.765265
_cell_angle_alpha 90.000000
_cell_angle_beta 153.648895
_cell_angle_gamma 90.000000
_cell_volume 1368.771568
_symmetry_space_group_name_H-M "P 2/M"
_symmetry_group_IT_number 10
_symmetry_cell_setting 'monoclinic'
loop_
_space_group_symop_operation_xyz
x,y,z
-x,y,-z
-x,-y,-z
x,-y,z
loop_
_atom_site_type_symbol
_atom_site_label
_atom_site_fract_x
_atom_site_fract_y
_atom_site_fract_z
Si Si1 0.809775 0.181257 0.229233
Si Si2 0.699863 0.296553 0.857201
Si Si3 0.466812 0.578111 0.287077
Si Si4 0.804621 0.338889 0.729433
Si Si5 0.294932 0.221903 0.653012
Si Si6 0.479269 0.920024 0.318159
Si Si7 0.190540 0.920075 0.353344
O O1 0.806438 0.231221 0.359522
O O2 0.000000 0.142419 0.500000
O O3 0.792149 0.230685 0.070177
O O4 0.649871 0.124246 0.982310
O O5 0.500000 0.277165 0.500000
O O6 0.688778 0.361613 0.954481
O O7 0.817085 0.311248 0.904322
O O8 0.500000 0.570437 0.500000
O O9 0.408388 0.500000 0.137874
O O10 0.643404 0.603020 0.475324
O O11 0.771369 0.274293 0.570249
O O12 0.000000 0.373113 0.000000
O O13 0.259415 0.138434 0.566411
O O14 0.500000 0.237929 0.000000
O O15 0.500000 0.884712 0.500000
O O16 0.677470 0.920757 0.569113
O O17 0.399877 0.000000 0.206540
O O18 0.183595 0.000000 0.410364
O O19 0.000000 0.896960 0.000000
#
# Coordination Sequence:
#
# PCOD8063943 Si02
#       7
#     4   4   4   4   4   4   4
#     4  12  25  37  57  85 119 152 188 237 289 337
#     4   9  19  37  59  79 109 155 190 228 272 342
#     4   8  16  32  57  86 112 144 186 231 279 328
#     4  10  20  34  57  85 113 146 188 234 279 334
#     4  12  23  37  56  85 115 149 188 242 286 333
#     4  10  23  41  61  83 112 150 194 240 287 348
#     4  10  23  41  61  82 109 150 193 237 291 345
#
# _framework density 20.456298
#
# number of rings (size 3 to 8) (size 9 to 14) (size 15 to 20)
#    0.000    2.143    1.429    3.429    4.000    1.429 
#    0.000    0.000    0.000    4.286    0.000    0.000 
#    0.000    1.143    0.000    0.000    0.000    0.000 
#
# Total GULP energy -346870.480786 kJ/mol
# GULP energy per Si atom -12388.231457 kJ/mol
# Density = 2.040974 g / cm^3
# Si number density = 20.456298 Si / 1000 Ang^3
#
#
#
# Elastic Constant Matrix: (Units=GPa)
#
#
# Indices 1 2 3 4 5 6 
#
# 1 113.0348 20.7569 40.6328 0.0000 14.1468 0.0000
# 2 20.7569 85.3078 32.7722 0.0000 -3.8575 0.0000
# 3 40.6328 32.7722 71.2655 0.0000 17.9372 0.0000
# 4 0.0000 0.0000 0.0000 7.6969 0.0000 4.1079
# 5 14.1468 -3.8575 17.9372 0.0000 31.8078 0.0000
# 6 0.0000 0.0000 0.0000 4.1079 0.0000 15.1125
#
#
#
# Elastic Compliance Matrix: (Units=1/GPa)
#
#
# Indices 1 2 3 4 5 6 
#
# 1 0.011226 -0.000659 -0.005618 0.000000 -0.001905 0.000000
# 2 -0.000659 0.015455 -0.008480 0.000000 0.006950 0.000000
# 3 -0.005618 -0.008480 0.024200 0.000000 -0.012177 0.000000
# 4 0.000000 0.000000 0.000000 0.151968 0.000000 -0.041308
# 5 -0.001905 0.006950 -0.012177 0.000000 0.039996 0.000000
# 6 0.000000 0.000000 0.000000 -0.041308 0.000000 0.077399
#
#
# Mechanical properties :
#
#
# Convention : Reuss Voigt Hill
#
# Bulk Modulus (GPa) = 46.80533 50.88132 48.84333
# Shear Modulus (GPa) = 14.01033 22.61987 18.31510
#
# Velocity S-wave (km/s) = 2.61988 3.32891 2.99545
# Velocity P-wave (km/s) = 5.66410 6.30101 5.99102
#
# Compressibility (1/GPa) = 0.02136509
#
# Stress axis : x y z
#
# Youngs Moduli (GPa) = 89.08084 64.70474 41.32273
#
# Poissons Ratio (x) = 0.04266 0.23215
# Poissons Ratio (y) = 0.05874 0.35043
# Poissons Ratio (z) = 0.50045 0.54872
#
# Static dielectric constant tensor:
#      x y z
#    x 3.817710 0.000000 0.104200 
#    y 0.000000 4.198050 0.000000 
#    z 0.104200 0.000000 3.622820 
# 
# 
# High freq. dielectric constant tensor:
#      x y z
#    x 1.809200 0.000000 0.014170 
#    y 0.000000 1.787390 0.000000 
#    z 0.014170 0.000000 1.777390 
# 
# From -- ./inp_files/30495.got.cif
#   From: 2010.06.25/outbox.cif.g09.slc.cpg/sg10_16_cif.got.tgz:30495.got - 2010.06.27 22:07:45.
