data_PCOD8063544
_publ_section_title
;
Structure prediction by ZEFSAII (Michael W. Deem and Ramdas Pophale) SiO2 
 PCOD8063544
Probable space group: P 2/M
;
_chemical_formula_sum "Si O2"
_cell_formula_units_Z 28
_cell_length_a 14.082187
_cell_length_b 9.057139
_cell_length_c 12.382352
_cell_angle_alpha 90.000000
_cell_angle_beta 76.042798
_cell_angle_gamma 90.000000
_cell_volume 1532.671771
_symmetry_space_group_name_H-M "P 2/M"
_symmetry_group_IT_number 10
_symmetry_cell_setting 'monoclinic'
loop_
_space_group_symop_operation_xyz
x,y,z
-x,y,-z
-x,-y,-z
x,-y,z
loop_
_atom_site_type_symbol
_atom_site_label
_atom_site_fract_x
_atom_site_fract_y
_atom_site_fract_z
Si Si1 0.806714 0.174460 0.450198
Si Si2 0.002551 0.331267 0.666752
Si Si3 0.932756 0.330324 0.113396
Si Si4 0.217455 0.673814 0.329928
Si Si5 0.582219 0.174512 0.117856
Si Si6 0.367131 0.175107 0.133465
Si Si7 0.743942 0.825817 0.233174
O O1 0.918984 0.228038 0.414156
O O2 0.751421 0.252137 0.565021
O O3 0.749001 0.223443 0.357118
O O4 0.804658 0.000000 0.467159
O O5 0.026273 0.500000 0.627343
O O6 0.007141 0.309485 0.793408
O O7 0.895158 0.284454 0.659428
O O8 0.905920 0.500000 0.098979
O O9 0.832834 0.240457 0.141176
O O10 0.000000 0.265777 0.000000
O O11 0.234868 0.500000 0.330635
O O12 0.280324 0.740028 0.215873
O O13 0.470136 0.228034 0.158156
O O14 0.643831 0.231747 0.204574
O O15 0.580409 0.000000 0.115031
O O16 0.632224 0.226183 0.991974
O O17 0.351546 0.000000 0.149959
O O18 0.753068 0.000000 0.221967
#
# Coordination Sequence:
#
# PCOD8063544 Si02
#       7
#     4   4   4   4   4   4   4
#     4  10  20  34  52  75 101 132 173 212 246 294
#     4   9  19  34  49  69 101 139 170 202 250 296
#     4   9  18  31  47  70 102 135 167 201 239 296
#     4  11  22  34  51  74 104 136 169 209 252 295
#     4   8  16  34  57  78 102 130 162 205 258 305
#     4   9  18  34  56  79 101 129 166 207 251 302
#     4   9  18  33  53  75  99 130 166 206 252 297
#
# _framework density 18.268750000000001
#
# number of rings (size 3 to 8) (size 9 to 14) (size 15 to 20)
#    0.000    2.714    0.000    2.143    2.000    3.714 
#    0.000    2.857    0.000    4.286    0.000    0.000 
#    0.000    0.000    0.000    0.000    0.000    0.000 
#
# Total GULP energy -347156.156973 kJ/mol
# GULP energy per Si atom -12398.434178 kJ/mol
# Density = 1.822717 g / cm^3
# Si number density = 18.268750 Si / 1000 Ang^3
#
#
#
# Elastic Constant Matrix: (Units=GPa)
#
#
# Indices 1 2 3 4 5 6 
#
# 1 90.7812 30.2426 34.0103 0.0000 19.4654 0.0000
# 2 30.2426 47.1885 30.2175 0.0000 0.1662 0.0000
# 3 34.0103 30.2175 85.0745 0.0000 2.1249 0.0000
# 4 0.0000 0.0000 0.0000 -21.9207 0.0000 40.1880
# 5 19.4654 0.1662 2.1249 0.0000 19.5858 0.0000
# 6 0.0000 0.0000 0.0000 40.1880 0.0000 -20.2025
#
#
#
# Elastic Compliance Matrix: (Units=1/GPa)
#
#
# Indices 1 2 3 4 5 6 
#
# 1 0.020072 -0.010314 -0.003875 0.000000 -0.019440 0.000000
# 2 -0.010314 0.032744 -0.007777 0.000000 0.010816 0.000000
# 3 -0.003875 -0.007777 0.016012 0.000000 0.002180 0.000000
# 4 0.000000 0.000000 0.000000 0.017234 0.000000 0.034284
# 5 -0.019440 0.010816 0.002180 0.000000 0.070050 0.000000
# 6 0.000000 0.000000 0.000000 0.034284 0.000000 0.018700
#
#
# Mechanical properties :
#
#
# Convention : Reuss Voigt Hill
#
# Bulk Modulus (GPa) = 40.16937 45.77610 42.97273
# Shear Modulus (GPa) = 22.02244 4.06410 13.04327
#
# Velocity S-wave (km/s) = 3.47576 1.49313 2.67491
# Velocity P-wave (km/s) = 6.17605 5.29944 5.75446
#
# Compressibility (1/GPa) = 0.02489459
#
# Stress axis : x y z
#
# Youngs Moduli (GPa) = 49.82177 30.54028 62.45509
#
# Poissons Ratio (x) = 0.31498 0.24202
# Poissons Ratio (y) = 0.51384 0.48573
# Poissons Ratio (z) = 0.19307 0.23752
#
# Static dielectric constant tensor:
#      x y z
#    x 3.604680 0.000000 0.259490 
#    y 0.000000 3.172660 0.000000 
#    z 0.259490 0.000000 3.510940 
# 
# 
# High freq. dielectric constant tensor:
#      x y z
#    x 1.700100 0.000000 0.011320 
#    y 0.000000 1.690920 0.000000 
#    z 0.011320 0.000000 1.714550 
# 
# From -- ./inp_files/49187.got.cif
#   From: 2010.06.25/outbox.cif.g09.slc.cpg/sg10_25_cif.got.tgz:49187.got - 2010.06.27 22:07:45.
