data_PCOD8063589
_publ_section_title
;
Structure prediction by ZEFSAII (Michael W. Deem and Ramdas Pophale) SiO2 
 PCOD8063589
Probable space group: P 2/M
;
_chemical_formula_sum "Si O2"
_cell_formula_units_Z 28
_cell_length_a 22.044171
_cell_length_b 11.815349
_cell_length_c 19.171419
_cell_angle_alpha 90.000000
_cell_angle_beta 19.994311
_cell_angle_gamma 90.000000
_cell_volume 1707.370504
_symmetry_space_group_name_H-M "P 2/M"
_symmetry_group_IT_number 10
_symmetry_cell_setting 'monoclinic'
loop_
_space_group_symop_operation_xyz
x,y,z
-x,y,-z
-x,-y,-z
x,-y,z
loop_
_atom_site_type_symbol
_atom_site_label
_atom_site_fract_x
_atom_site_fract_y
_atom_site_fract_z
Si Si1 0.263249 0.000000 0.321105
Si Si2 0.652381 0.000000 0.931956
Si Si3 0.418768 0.634129 0.243693
Si Si4 0.017372 0.634747 0.059867
Si Si5 0.762894 0.242832 0.820210
Si Si6 0.405375 0.365251 0.671866
Si Si7 0.153985 0.242827 0.429129
Si Si8 0.338143 0.634702 0.485588
O O1 0.153814 0.113319 0.457080
O O2 0.307709 0.000000 0.192298
O O3 0.442306 0.000000 0.173073
O O4 0.735273 0.886682 0.875609
O O5 0.420527 0.500000 0.238361
O O6 0.264126 0.677215 0.360640
O O7 0.378388 0.679569 0.364854
O O8 0.611090 0.677217 0.013663
O O9 0.013618 0.500000 0.062087
O O10 0.853888 0.681217 0.282546
O O11 0.000000 0.681568 0.000000
O O12 0.202022 0.678074 0.893923
O O13 0.756108 0.249464 0.743887
O O14 0.951439 0.286081 0.645667
O O15 0.500000 0.318440 0.500000
O O16 0.410674 0.500000 0.665034
O O17 0.509662 0.318785 0.626774
O O18 0.337311 0.500000 0.488077
#
# Coordination Sequence:
#
# PCOD8063589 Si02
#       8
#     2   2   4   4   4   4   4   4
#     4   9  15  29  55  80  95 109 142 200 265 309
#     4   9  15  29  55  80  95 109 142 200 265 309
#     4  11  23  35  45  62  98 141 175 198 226 277
#     4   9  14  22  39  59  77 100 140 192 236 272
#     4  10  20  34  53  74  94 121 160 207 254 293
#     4   9  14  22  39  59  77 100 140 192 236 272
#     4  10  20  34  53  74  94 121 160 207 254 293
#     4   9  18  29  39  57  84 118 157 195 231 270
#
# _framework density 16.399488000000002
#
# number of rings (size 3 to 8) (size 9 to 14) (size 15 to 20)
#    0.000    2.429    2.857    0.857    0.000    4.571 
#    0.000    4.286    0.000    0.000    0.000    0.000 
#    0.000    0.000    0.000    5.143    0.000    2.571 
#
# Total GULP energy -347096.256044 kJ/mol
# GULP energy per Si atom -12396.294859 kJ/mol
# Density = 1.636216 g / cm^3
# Si number density = 16.399488 Si / 1000 Ang^3
#
#
#
# Elastic Constant Matrix: (Units=GPa)
#
#
# Indices 1 2 3 4 5 6 
#
# 1 109.9922 31.9586 80.8207 0.0000 -7.7329 0.0000
# 2 31.9586 49.9598 31.1792 0.0000 0.8296 0.0000
# 3 80.8207 31.1792 131.3174 0.0000 -15.6462 0.0000
# 4 0.0000 0.0000 0.0000 10.2517 0.0000 -6.9368
# 5 -7.7329 0.8296 -15.6462 0.0000 26.7588 0.0000
# 6 0.0000 0.0000 0.0000 -6.9368 0.0000 3.9038
#
#
#
# Elastic Compliance Matrix: (Units=1/GPa)
#
#
# Indices 1 2 3 4 5 6 
#
# 1 0.017728 -0.005278 -0.009704 0.000000 -0.000387 0.000000
# 2 -0.005278 0.025536 -0.003322 0.000000 -0.004260 0.000000
# 3 -0.009704 -0.003322 0.015107 0.000000 0.006132 0.000000
# 4 0.000000 0.000000 0.000000 -0.482000 0.000000 -0.856493
# 5 -0.000387 -0.004260 0.006132 0.000000 0.040976 0.000000
# 6 0.000000 0.000000 0.000000 -0.856493 0.000000 -1.265786
#
#
# Mechanical properties :
#
#
# Convention : Reuss Voigt Hill
#
# Bulk Modulus (GPa) = 45.94937 64.35405 55.15171
# Shear Modulus (GPa) = -3.11609 18.00360 7.44375
#
# Velocity S-wave (km/s) = -1.37994 3.31692 2.13281
# Velocity P-wave (km/s) = 5.05377 7.34820 6.30621
#
# Compressibility (1/GPa) = 0.02176308
#
# Stress axis : x y z
#
# Youngs Moduli (GPa) = 56.40732 39.15968 66.19451
#
# Poissons Ratio (x) = 0.20668 0.64235
# Poissons Ratio (y) = 0.29771 0.21992
# Poissons Ratio (z) = 0.54738 0.13010
#
# Static dielectric constant tensor:
#      x y z
#    x 3.142190 0.000000 -0.142140 
#    y 0.000000 2.705460 0.000000 
#    z -0.142140 0.000000 3.271850 
# 
# 
# High freq. dielectric constant tensor:
#      x y z
#    x 1.623110 0.000000 -0.019970 
#    y 0.000000 1.573820 0.000000 
#    z -0.019970 0.000000 1.641350 
# 
# From -- ./inp_files/79529.got.cif
#   From: 2010.06.25/outbox.cif.g09.slc.cpg/sg10_40_cif.got.tgz:79529.got - 2010.06.27 22:07:45.
