data_PCOD8063186
_publ_section_title
;
Structure prediction by ZEFSAII (Michael W. Deem and Ramdas Pophale) SiO2 
 PCOD8063186
Probable space group: P 2/M
;
_chemical_formula_sum "Si O2"
_cell_formula_units_Z 28
_cell_length_a 9.349677
_cell_length_b 9.241462
_cell_length_c 29.929407
_cell_angle_alpha 90.000000
_cell_angle_beta 142.709160
_cell_angle_gamma 90.000000
_cell_volume 1566.781936
_symmetry_space_group_name_H-M "P 2/M"
_symmetry_group_IT_number 10
_symmetry_cell_setting 'monoclinic'
loop_
_space_group_symop_operation_xyz
x,y,z
-x,y,-z
-x,-y,-z
x,-y,z
loop_
_atom_site_type_symbol
_atom_site_label
_atom_site_fract_x
_atom_site_fract_y
_atom_site_fract_z
Si Si1 0.184515 0.169208 0.136772
Si Si2 0.655525 0.827834 0.997575
Si Si3 0.104445 0.336751 0.711878
Si Si4 0.526080 0.340433 0.276408
Si Si5 0.221868 0.833335 0.429381
Si Si6 0.535800 0.170248 0.144886
Si Si7 0.048902 0.669486 0.562796
O O1 0.310702 0.233719 0.212174
O O2 0.325041 0.209303 0.126690
O O3 0.921228 0.233784 0.067517
O O4 0.175840 0.000000 0.142455
O O5 0.663755 0.000000 0.999946
O O6 0.500000 0.767974 0.000000
O O7 0.542297 0.774298 0.923154
O O8 0.034238 0.500000 0.708592
O O9 0.287562 0.338246 0.717180
O O10 0.224356 0.254771 0.783399
O O11 0.873180 0.250158 0.638169
O O12 0.417383 0.500000 0.255404
O O13 0.675447 0.294319 0.357474
O O14 0.500000 0.817917 0.500000
O O15 0.124372 0.764292 0.450434
O O16 0.140325 0.000000 0.406288
O O17 0.589844 0.000000 0.159236
O O18 0.999686 0.500000 0.560127
O O19 0.000000 0.712595 0.500000
#
# Coordination Sequence:
#
# PCOD8063186 Si02
#       7
#     4   4   4   4   4   4   4
#     4   9  16  27  46  69  88 113 153 193 227 269
#     4   9  17  29  45  66  93 123 151 183 229 282
#     4   9  17  30  49  71  94 122 158 197 238 285
#     4   8  15  28  46  68  92 118 151 193 236 275
#     4  10  20  33  50  74 102 130 163 204 246 287
#     4   9  16  28  48  70  90 114 151 197 234 270
#     4   9  18  33  52  73  99 132 167 201 242 294
#
# _framework density 17.871024999999999
#
# number of rings (size 3 to 8) (size 9 to 14) (size 15 to 20)
#    0.000    3.000    0.000    2.143    0.000    6.571 
#    0.000    2.143    0.000   10.286    0.000    0.000 
#    0.000    0.000    0.000    0.000    0.000    0.000 
#
# Total GULP energy -347114.090880 kJ/mol
# GULP energy per Si atom -12396.931817 kJ/mol
# Density = 1.783035 g / cm^3
# Si number density = 17.871025 Si / 1000 Ang^3
#
#
#
# Elastic Constant Matrix: (Units=GPa)
#
#
# Indices 1 2 3 4 5 6 
#
# 1 62.7685 35.7938 60.8741 0.0000 -6.4891 0.0000
# 2 35.7938 75.9364 63.2853 0.0000 1.3620 0.0000
# 3 60.8741 63.2853 176.5209 0.0000 -16.0520 0.0000
# 4 0.0000 0.0000 0.0000 26.5927 0.0000 -4.2923
# 5 -6.4891 1.3620 -16.0520 0.0000 23.1352 0.0000
# 6 0.0000 0.0000 0.0000 -4.2923 0.0000 11.7975
#
#
#
# Elastic Compliance Matrix: (Units=1/GPa)
#
#
# Indices 1 2 3 4 5 6 
#
# 1 0.026506 -0.007436 -0.006147 0.000000 0.003608 0.000000
# 2 -0.007436 0.021728 -0.005904 0.000000 -0.007461 0.000000
# 3 -0.006147 -0.005904 0.010435 0.000000 0.005863 0.000000
# 4 0.000000 0.000000 0.000000 0.039950 0.000000 0.014535
# 5 0.003608 -0.007461 0.005863 0.000000 0.048743 0.000000
# 6 0.000000 0.000000 0.000000 0.014535 0.000000 0.090052
#
#
# Mechanical properties :
#
#
# Convention : Reuss Voigt Hill
#
# Bulk Modulus (GPa) = 50.77347 70.57026 60.67186
# Shear Modulus (GPa) = 17.67070 22.65658 20.16364
#
# Velocity S-wave (km/s) = 3.14792 3.56446 3.36264
# Velocity P-wave (km/s) = 6.45641 7.51764 7.00714
#
# Compressibility (1/GPa) = 0.01969533
#
# Stress axis : x y z
#
# Youngs Moduli (GPa) = 37.72697 46.02301 95.83435
#
# Poissons Ratio (x) = 0.34223 0.58908
# Poissons Ratio (y) = 0.28054 0.56581
# Poissons Ratio (z) = 0.23190 0.27172
#
# Static dielectric constant tensor:
#      x y z
#    x 3.006810 0.000000 -0.081820 
#    y 0.000000 3.269330 0.000000 
#    z -0.081820 0.000000 3.708020 
# 
# 
# High freq. dielectric constant tensor:
#      x y z
#    x 1.650540 0.000000 -0.004070 
#    y 0.000000 1.676660 0.000000 
#    z -0.004070 0.000000 1.711510 
# 
# From -- ./inp_files/94535.got.cif
#   From: 2010.06.25/outbox.cif.g09.slc.cpg/sg10_48_cif.got.tgz:94535.got - 2010.06.27 22:07:45.
