data_PCOD8063052
_publ_section_title
;
Structure prediction by ZEFSAII (Michael W. Deem and Ramdas Pophale) SiO2 
 PCOD8063052
Probable space group: P 2/M
;
_chemical_formula_sum "Si O2"
_cell_formula_units_Z 28
_cell_length_a 14.847852
_cell_length_b 8.722679
_cell_length_c 12.421417
_cell_angle_alpha 90.000000
_cell_angle_beta 121.481630
_cell_angle_gamma 90.000000
_cell_volume 1371.941982
_symmetry_space_group_name_H-M "P 2/M"
_symmetry_group_IT_number 10
_symmetry_cell_setting 'monoclinic'
loop_
_space_group_symop_operation_xyz
x,y,z
-x,y,-z
-x,-y,-z
x,-y,z
loop_
_atom_site_type_symbol
_atom_site_label
_atom_site_fract_x
_atom_site_fract_y
_atom_site_fract_z
Si Si1 0.405493 0.831671 0.022282
Si Si2 0.823708 0.817714 0.669719
Si Si3 0.794814 0.681172 0.870992
Si Si4 0.828916 0.824543 0.124638
Si Si5 0.559646 0.672026 0.751757
Si Si6 0.994933 0.319458 0.622028
Si Si7 0.409288 0.821555 0.519346
O O1 0.288833 0.813587 0.898469
O O2 0.408370 0.000000 0.081806
O O3 0.500000 0.820948 0.000000
O O4 0.420500 0.688708 0.109764
O O5 0.858660 0.746197 0.807190
O O6 0.898443 0.764722 0.620190
O O7 0.707176 0.753002 0.566791
O O8 0.826986 0.000000 0.680955
O O9 0.813157 0.500000 0.894688
O O10 0.671581 0.720540 0.767419
O O11 0.833708 0.761555 0.004940
O O12 0.898811 0.725212 0.249241
O O13 0.869866 0.000000 0.147939
O O14 0.528576 0.500000 0.702602
O O15 0.459374 0.782137 0.666225
O O16 0.977132 0.500000 0.618732
O O17 0.000000 0.266917 0.500000
O O18 0.500000 0.743650 0.500000
O O19 0.402864 0.000000 0.493043
#
# Coordination Sequence:
#
# PCOD8063052 Si02
#       7
#     4   4   4   4   4   4   4
#     4   9  19  36  58  85 117 154 197 244 294 349
#     4  11  23  39  63  92 121 159 208 255 300 358
#     4  10  20  36  59  90 126 158 194 242 303 364
#     4  10  21  39  65  91 119 157 202 252 301 355
#     4  10  20  32  52  83 120 159 194 238 291 350
#     4  11  26  47  66  86 119 160 202 252 307 361
#     4  10  20  35  56  84 121 160 195 237 292 350
#
# _framework density 20.409026000000001
#
# number of rings (size 3 to 8) (size 9 to 14) (size 15 to 20)
#    0.000    1.857    1.429    2.143    0.000    6.286 
#    0.000    7.143    0.000    0.000    0.000    0.000 
#    0.000    0.000    0.000    0.000    0.000    0.000 
#
# Total GULP energy -346993.798215 kJ/mol
# GULP energy per Si atom -12392.635651 kJ/mol
# Density = 2.036257 g / cm^3
# Si number density = 20.409026 Si / 1000 Ang^3
#
#
#
# Elastic Constant Matrix: (Units=GPa)
#
#
# Indices 1 2 3 4 5 6 
#
# 1 121.8386 33.5320 56.3267 0.0000 -3.6512 0.0000
# 2 33.5320 66.2074 27.0767 0.0000 -6.2150 0.0000
# 3 56.3267 27.0767 106.2577 0.0000 0.8312 0.0000
# 4 0.0000 0.0000 0.0000 34.1087 0.0000 -2.7354
# 5 -3.6512 -6.2150 0.8312 0.0000 28.9281 0.0000
# 6 0.0000 0.0000 0.0000 -2.7354 0.0000 24.0890
#
#
#
# Elastic Compliance Matrix: (Units=1/GPa)
#
#
# Indices 1 2 3 4 5 6 
#
# 1 0.011678 -0.003686 -0.005257 0.000000 0.000833 0.000000
# 2 -0.003686 0.018441 -0.002773 0.000000 0.003576 0.000000
# 3 -0.005257 -0.002773 0.012917 0.000000 -0.001631 0.000000
# 4 0.000000 0.000000 0.000000 0.029587 0.000000 0.003360
# 5 0.000833 0.003576 -0.001631 0.000000 0.035489 0.000000
# 6 0.000000 0.000000 0.000000 0.003360 0.000000 0.041894
#
#
# Mechanical properties :
#
#
# Convention : Reuss Voigt Hill
#
# Bulk Modulus (GPa) = 51.01376 58.68603 54.84990
# Shear Modulus (GPa) = 27.78187 29.24972 28.51579
#
# Velocity S-wave (km/s) = 3.69352 3.78984 3.74199
# Velocity P-wave (km/s) = 6.57567 6.92588 6.75305
#
# Compressibility (1/GPa) = 0.01960256
#
# Stress axis : x y z
#
# Youngs Moduli (GPa) = 85.63449 54.22779 77.41469
#
# Poissons Ratio (x) = 0.19988 0.40700
# Poissons Ratio (y) = 0.31565 0.21468
# Poissons Ratio (z) = 0.45022 0.15038
#
# Static dielectric constant tensor:
#      x y z
#    x 3.804030 0.000000 0.108360 
#    y 0.000000 3.706080 0.000000 
#    z 0.108360 0.000000 3.716080 
# 
# 
# High freq. dielectric constant tensor:
#      x y z
#    x 1.792850 0.000000 0.008340 
#    y 0.000000 1.800110 0.000000 
#    z 0.008340 0.000000 1.794490 
# 
# From -- ./inp_files/49649.got.cif
#   From: 2010.06.25/outbox.cif.g09.slc.cpg/sg10_25_cif.got.tgz:49649.got - 2010.06.27 22:07:45.
