data_PCOD8063010
_publ_section_title
;
Structure prediction by ZEFSAII (Michael W. Deem and Ramdas Pophale) SiO2 
 PCOD8063010
Probable space group: P 2/M
;
_chemical_formula_sum "Si O2"
_cell_formula_units_Z 28
_cell_length_a 20.127314
_cell_length_b 9.080342
_cell_length_c 25.648833
_cell_angle_alpha 90.000000
_cell_angle_beta 158.947666
_cell_angle_gamma 90.000000
_cell_volume 1683.901914
_symmetry_space_group_name_H-M "P 2/M"
_symmetry_group_IT_number 10
_symmetry_cell_setting 'monoclinic'
loop_
_space_group_symop_operation_xyz
x,y,z
-x,y,-z
-x,-y,-z
x,-y,z
loop_
_atom_site_type_symbol
_atom_site_label
_atom_site_fract_x
_atom_site_fract_y
_atom_site_fract_z
Si Si1 0.099150 0.831376 0.127064
Si Si2 0.182666 0.171662 0.372717
Si Si3 0.471687 0.326380 0.420310
Si Si4 0.123471 0.172510 0.933072
Si Si5 0.759598 0.834508 0.470786
Si Si6 0.160811 0.832221 0.581680
Si Si7 0.509840 0.325893 0.217301
O O1 0.274509 0.726233 0.255719
O O2 0.961329 0.788295 0.072857
O O3 0.164381 0.000000 0.181400
O O4 0.000000 0.804774 0.000000
O O5 0.370807 0.255902 0.499389
O O6 0.136084 0.207904 0.399307
O O7 0.017069 0.226981 0.214851
O O8 0.216036 0.000000 0.386806
O O9 0.500000 0.272555 0.500000
O O10 0.484148 0.500000 0.424224
O O11 0.168700 0.000000 0.961191
O O12 0.307024 0.265073 0.058463
O O13 0.901888 0.827202 0.525625
O O14 0.584496 0.728600 0.328912
O O15 0.678394 0.000000 0.416619
O O16 0.350999 0.738002 0.725646
O O17 0.000000 0.762700 0.500000
O O18 0.200679 0.000000 0.628803
O O19 0.507197 0.500000 0.212941
#
# Coordination Sequence:
#
# PCOD8063010 Si02
#       7
#     4   4   4   4   4   4   4
#     4  10  22  37  54  73  94 128 175 220 256 297
#     4  10  20  35  57  75  97 134 175 219 254 298
#     4  11  23  37  52  74 104 134 167 211 264 316
#     4  10  20  35  52  72  99 133 173 213 254 298
#     4   8  17  33  52  78 102 127 169 211 248 294
#     4   8  15  31  55  79 105 134 166 208 249 289
#     4  10  20  32  50  77 108 137 164 200 250 304
#
# _framework density 16.628046999999999
#
# number of rings (size 3 to 8) (size 9 to 14) (size 15 to 20)
#    0.857    1.571    1.429    1.286    2.000    2.857 
#    0.000    0.000    0.000    0.857    0.000    6.000 
#    0.000    0.000    0.000    0.000    0.000    0.000 
#
# Total GULP energy -347002.655032 kJ/mol
# GULP energy per Si atom -12392.951965 kJ/mol
# Density = 1.659020 g / cm^3
# Si number density = 16.628047 Si / 1000 Ang^3
#
#
#
# Elastic Constant Matrix: (Units=GPa)
#
#
# Indices 1 2 3 4 5 6 
#
# 1 109.3169 36.8587 61.1169 0.0000 8.6600 0.0000
# 2 36.8587 65.8670 44.6551 0.0000 9.0049 0.0000
# 3 61.1169 44.6551 104.1255 0.0000 9.5928 0.0000
# 4 0.0000 0.0000 0.0000 5.8396 0.0000 -3.0787
# 5 8.6600 9.0049 9.5928 0.0000 21.2011 0.0000
# 6 0.0000 0.0000 0.0000 -3.0787 0.0000 12.1245
#
#
#
# Elastic Compliance Matrix: (Units=1/GPa)
#
#
# Indices 1 2 3 4 5 6 
#
# 1 0.014118 -0.003075 -0.006842 0.000000 -0.001365 0.000000
# 2 -0.003075 0.022629 -0.007440 0.000000 -0.004989 0.000000
# 3 -0.006842 -0.007440 0.016969 0.000000 -0.001723 0.000000
# 4 0.000000 0.000000 0.000000 0.197714 0.000000 0.050205
# 5 -0.001365 -0.004989 -0.001723 0.000000 0.050623 0.000000
# 6 0.000000 0.000000 0.000000 0.050205 0.000000 0.095226
#
#
# Mechanical properties :
#
#
# Convention : Reuss Voigt Hill
#
# Bulk Modulus (GPa) = 52.62677 62.73009 57.67843
# Shear Modulus (GPa) = 11.40696 16.94495 14.17595
#
# Velocity S-wave (km/s) = 2.62202 3.19573 2.92298
# Velocity P-wave (km/s) = 6.39412 7.17107 6.79371
#
# Compressibility (1/GPa) = 0.01900173
#
# Stress axis : x y z
#
# Youngs Moduli (GPa) = 70.83194 44.19107 58.92991
#
# Poissons Ratio (x) = 0.13589 0.40320
# Poissons Ratio (y) = 0.21781 0.43845
# Poissons Ratio (z) = 0.48464 0.32879
#
# Static dielectric constant tensor:
#      x y z
#    x 3.169490 0.000000 -0.090450 
#    y 0.000000 3.018660 0.000000 
#    z -0.090450 0.000000 2.986600 
# 
# 
# High freq. dielectric constant tensor:
#      x y z
#    x 1.634290 0.000000 -0.004240 
#    y 0.000000 1.635730 0.000000 
#    z -0.004240 0.000000 1.624830 
# 
# From -- ./inp_files/93551.got.cif
#   From: 2010.06.25/outbox.cif.g09.slc.cpg/sg10_47_cif.got.tgz:93551.got - 2010.06.27 22:07:45.
