data_PCOD8063051
_publ_section_title
;
Structure prediction by ZEFSAII (Michael W. Deem and Ramdas Pophale) SiO2 
 PCOD8063051
Probable space group: P 2/M
;
_chemical_formula_sum "Si O2"
_cell_formula_units_Z 32
_cell_length_a 27.098068
_cell_length_b 13.605757
_cell_length_c 9.492020
_cell_angle_alpha 90.000000
_cell_angle_beta 152.522388
_cell_angle_gamma 90.000000
_cell_volume 1614.727123
_symmetry_space_group_name_H-M "P 2/M"
_symmetry_group_IT_number 10
_symmetry_cell_setting 'monoclinic'
loop_
_space_group_symop_operation_xyz
x,y,z
-x,y,-z
-x,-y,-z
x,-y,z
loop_
_atom_site_type_symbol
_atom_site_label
_atom_site_fract_x
_atom_site_fract_y
_atom_site_fract_z
Si Si1 0.495210 0.885449 0.320770
Si Si2 0.975518 0.612692 0.276290
Si Si3 0.304454 0.762498 0.272651
Si Si4 0.271352 0.383789 0.413884
Si Si5 0.830329 0.265737 0.328448
Si Si6 0.807068 0.109666 0.784936
Si Si7 0.705533 0.762139 0.291935
Si Si8 0.035988 0.892278 0.446316
O O1 0.500000 0.882435 0.500000
O O2 0.598757 0.834693 0.517428
O O3 0.484784 0.000000 0.243972
O O4 0.399475 0.816245 0.028120
O O5 0.994892 0.500000 0.291709
O O6 0.000000 0.637240 0.500000
O O7 0.061949 0.669500 0.400781
O O8 0.854795 0.642187 0.927664
O O9 0.337322 0.670434 0.456050
O O10 0.219960 0.830388 0.141728
O O11 0.255353 0.709212 0.010361
O O12 0.293553 0.500000 0.467104
O O13 0.314846 0.337653 0.670186
O O14 0.777947 0.274330 0.347112
O O15 0.865010 0.154375 0.384708
O O16 0.764075 0.158936 0.535895
O O17 0.758957 0.000000 0.675516
O O18 0.934337 0.105694 0.086374
O O19 0.000000 0.836835 0.500000
O O20 0.077312 0.000000 0.593872
#
# Coordination Sequence:
#
# PCOD8063051 Si02
#       8
#     4   4   4   4   4   4   4   4
#     4  11  24  43  66  93 123 159 209 263 311 366
#     4  10  20  36  63  96 124 158 204 250 298 364
#     4  11  21  38  66  91 114 158 214 258 305 361
#     4  10  23  43  66  94 129 163 201 254 314 373
#     4  12  21  35  60  89 122 159 202 251 307 358
#     4  10  21  37  55  84 121 157 199 250 304 368
#     4  11  25  41  59  88 126 162 200 256 318 370
#     4  10  20  32  52  83 119 159 203 243 292 369
#
# _framework density 19.817589999999999
#
# number of rings (size 3 to 8) (size 9 to 14) (size 15 to 20)
#    0.000    1.375    3.750    2.625    0.000    6.000 
#    0.000    6.875    0.000    0.750    0.000    0.000 
#    0.000    0.000    0.000    0.000    0.000    0.000 
#
# Total GULP energy -396635.683931 kJ/mol
# GULP energy per Si atom -12394.865123 kJ/mol
# Density = 1.977248 g / cm^3
# Si number density = 19.817590 Si / 1000 Ang^3
#
#
#
# Elastic Constant Matrix: (Units=GPa)
#
#
# Indices 1 2 3 4 5 6 
#
# 1 94.5517 44.5560 26.0028 0.0000 -0.4143 0.0000
# 2 44.5560 132.3946 28.0744 0.0000 1.9913 0.0000
# 3 26.0028 28.0744 71.9183 0.0000 -2.7890 0.0000
# 4 0.0000 0.0000 0.0000 -10.5064 0.0000 -9.6495
# 5 -0.4143 1.9913 -2.7890 0.0000 29.3883 0.0000
# 6 0.0000 0.0000 0.0000 -9.6495 0.0000 19.7193
#
#
#
# Elastic Compliance Matrix: (Units=1/GPa)
#
#
# Indices 1 2 3 4 5 6 
#
# 1 0.013263 -0.003761 -0.003322 0.000000 0.000127 0.000000
# 2 -0.003761 0.009323 -0.002315 0.000000 -0.000904 0.000000
# 3 -0.003322 -0.002315 0.016073 0.000000 0.001635 0.000000
# 4 0.000000 0.000000 0.000000 -0.065667 0.000000 -0.032134
# 5 0.000127 -0.000904 0.001635 0.000000 0.034245 0.000000
# 6 0.000000 0.000000 0.000000 -0.032134 0.000000 0.034987
#
#
# Mechanical properties :
#
#
# Convention : Reuss Voigt Hill
#
# Bulk Modulus (GPa) = 50.34458 55.12567 52.73513
# Shear Modulus (GPa) = 73.91922 21.06898 47.49410
#
# Velocity S-wave (km/s) = 6.11398 3.26413 4.90078
# Velocity P-wave (km/s) = 8.67757 6.48714 7.66104
#
# Compressibility (1/GPa) = 0.01986311
#
# Stress axis : x y z
#
# Youngs Moduli (GPa) = 75.39962 107.25808 62.21651
#
# Poissons Ratio (x) = 0.40338 0.20670
# Poissons Ratio (y) = 0.28357 0.14402
# Poissons Ratio (z) = 0.25050 0.24828
#
# Static dielectric constant tensor:
#      x y z
#    x 3.359670 0.000000 0.152170 
#    y 0.000000 3.793910 0.000000 
#    z 0.152170 0.000000 3.177460 
# 
# 
# High freq. dielectric constant tensor:
#      x y z
#    x 1.759490 0.000000 -0.008980 
#    y 0.000000 1.781860 0.000000 
#    z -0.008980 0.000000 1.768500 
# 
# From -- ./inp_files/36388.got.cif
#   From: 2010.06.25/outbox.cif.g09.slc.cpg/sg10_19_cif.got.tgz:36388.got - 2010.06.27 22:07:45.
