data_PCOD8063219
_publ_section_title
;
Structure prediction by ZEFSAII (Michael W. Deem and Ramdas Pophale) SiO2 
 PCOD8063219
Probable space group: P 2/M
;
_chemical_formula_sum "Si O2"
_cell_formula_units_Z 32
_cell_length_a 8.998638
_cell_length_b 14.641339
_cell_length_c 22.456020
_cell_angle_alpha 90.000000
_cell_angle_beta 145.015389
_cell_angle_gamma 90.000000
_cell_volume 1696.348304
_symmetry_space_group_name_H-M "P 2/M"
_symmetry_group_IT_number 10
_symmetry_cell_setting 'monoclinic'
loop_
_space_group_symop_operation_xyz
x,y,z
-x,y,-z
-x,-y,-z
x,-y,z
loop_
_atom_site_type_symbol
_atom_site_label
_atom_site_fract_x
_atom_site_fract_y
_atom_site_fract_z
Si Si1 0.582173 0.897431 0.196938
Si Si2 0.258850 0.602397 0.453950
Si Si3 0.739564 0.893194 0.380189
Si Si4 0.243284 0.895604 0.878447
Si Si5 0.305536 0.393516 0.720906
Si Si6 0.256274 0.734994 0.112567
Si Si7 0.505951 0.398950 0.657061
Si Si8 0.757072 0.778290 0.757806
O O1 0.751122 0.871974 0.312197
O O2 0.737707 0.887373 0.186722
O O3 0.333334 0.832477 0.110027
O O4 0.475884 0.000000 0.169061
O O5 0.500000 0.654095 0.500000
O O6 0.247932 0.500000 0.423585
O O7 0.294077 0.599437 0.536019
O O8 0.975092 0.646422 0.350885
O O9 0.499536 0.840693 0.331490
O O10 0.000000 0.860517 0.500000
O O11 0.696077 0.000000 0.377225
O O12 0.005182 0.830584 0.815212
O O13 0.178558 0.000000 0.875263
O O14 0.500000 0.865082 0.000000
O O15 0.331060 0.500000 0.744222
O O16 0.517561 0.337423 0.827179
O O17 0.350492 0.374294 0.665878
O O18 0.184649 0.749065 0.156717
O O19 0.000000 0.693967 0.000000
O O20 0.639476 0.500000 0.705956
O O21 0.713358 0.318988 0.709628
#
# Coordination Sequence:
#
# PCOD8063219 Si02
#       8
#     4   4   4   4   4   4   4   4
#     4   9  19  34  52  75 103 133 166 207 255 305
#     4   9  17  30  49  73  98 126 164 207 250 295
#     4   9  18  34  54  76 105 137 167 204 252 308
#     4  10  20  35  55  78 104 133 168 214 262 303
#     4   9  18  32  50  72 100 133 166 205 250 295
#     4  10  20  33  51  74  99 131 171 211 250 297
#     4   9  18  32  49  70  99 133 167 205 249 296
#     4  10  20  33  53  76  99 132 172 209 250 303
#
# _framework density 18.864051
#
# number of rings (size 3 to 8) (size 9 to 14) (size 15 to 20)
#    0.000    2.625    0.000    1.500    0.000    6.500 
#    0.000    0.625    0.000    3.375    0.000    0.000 
#    0.000    0.000    0.000    0.000    0.000    0.000 
#
# Total GULP energy -396495.387977 kJ/mol
# GULP energy per Si atom -12390.480874 kJ/mol
# Density = 1.882112 g / cm^3
# Si number density = 18.864051 Si / 1000 Ang^3
#
#
#
# Elastic Constant Matrix: (Units=GPa)
#
#
# Indices 1 2 3 4 5 6 
#
# 1 72.1510 42.1166 57.5663 0.0000 16.1690 0.0000
# 2 42.1166 82.6221 60.7399 0.0000 17.7139 0.0000
# 3 57.5663 60.7399 146.6519 0.0000 26.4654 0.0000
# 4 0.0000 0.0000 0.0000 23.9448 0.0000 8.0416
# 5 16.1690 17.7139 26.4654 0.0000 25.1631 0.0000
# 6 0.0000 0.0000 0.0000 8.0416 0.0000 18.3799
#
#
#
# Elastic Compliance Matrix: (Units=1/GPa)
#
#
# Indices 1 2 3 4 5 6 
#
# 1 0.023218 -0.006878 -0.005489 0.000000 -0.004305 0.000000
# 2 -0.006878 0.020144 -0.004791 0.000000 -0.004722 0.000000
# 3 -0.005489 -0.004791 0.011988 0.000000 -0.005709 0.000000
# 4 0.000000 0.000000 0.000000 0.048956 0.000000 -0.021419
# 5 -0.004305 -0.004722 -0.005709 0.000000 0.051835 0.000000
# 6 0.000000 0.000000 0.000000 -0.021419 0.000000 0.063778
#
#
# Mechanical properties :
#
#
# Convention : Reuss Voigt Hill
#
# Bulk Modulus (GPa) = 47.53915 69.14118 58.34017
# Shear Modulus (GPa) = 19.13897 22.89770 21.01834
#
# Velocity S-wave (km/s) = 3.18869 3.48778 3.34159
# Velocity P-wave (km/s) = 6.22998 7.27677 6.77363
#
# Compressibility (1/GPa) = 0.02103529
#
# Stress axis : x y z
#
# Youngs Moduli (GPa) = 43.06932 49.64301 83.41671
#
# Poissons Ratio (x) = 0.34142 0.45784
# Poissons Ratio (y) = 0.29621 0.39967
# Poissons Ratio (z) = 0.23639 0.23785
#
# Static dielectric constant tensor:
#      x y z
#    x 3.384370 0.000000 -0.063700 
#    y 0.000000 3.720200 0.000000 
#    z -0.063700 0.000000 3.459300 
# 
# 
# High freq. dielectric constant tensor:
#      x y z
#    x 1.720080 0.000000 -0.003790 
#    y 0.000000 1.733230 0.000000 
#    z -0.003790 0.000000 1.721580 
# 
# From -- ./inp_files/53974.got.cif
#   From: 2010.06.25/outbox.cif.g09.slc.cpg/sg10_27_cif.got.tgz:53974.got - 2010.06.27 22:07:45.
