data_PCOD8063345
_publ_section_title
;
Structure prediction by ZEFSAII (Michael W. Deem and Ramdas Pophale) SiO2 
 PCOD8063345
Probable space group: P 2/M
;
_chemical_formula_sum "Si O2"
_cell_formula_units_Z 32
_cell_length_a 24.081656
_cell_length_b 9.169517
_cell_length_c 25.280234
_cell_angle_alpha 90.000000
_cell_angle_beta 17.713715
_cell_angle_gamma 90.000000
_cell_volume 1698.479535
_symmetry_space_group_name_H-M "P 2/M"
_symmetry_group_IT_number 10
_symmetry_cell_setting 'monoclinic'
loop_
_space_group_symop_operation_xyz
x,y,z
-x,y,-z
-x,-y,-z
x,-y,z
loop_
_atom_site_type_symbol
_atom_site_label
_atom_site_fract_x
_atom_site_fract_y
_atom_site_fract_z
Si Si1 0.051607 0.832085 0.202769
Si Si2 0.561852 0.673220 0.999998
Si Si3 0.946041 0.666565 0.693359
Si Si4 0.438243 0.327231 0.500000
Si Si5 0.457140 0.832085 0.797236
Si Si6 0.056124 0.329026 0.801426
Si Si7 0.658972 0.329025 0.198578
Si Si8 0.667240 0.333435 0.693361
O O1 0.940008 0.753875 0.257680
O O2 0.999667 0.760407 0.305187
O O3 0.993218 0.000000 0.256437
O O4 0.265949 0.810967 0.000003
O O5 0.557566 0.500000 0.999994
O O6 0.765518 0.728923 0.828677
O O7 0.500000 0.741411 0.000000
O O8 0.422873 0.728919 0.171322
O O9 0.912511 0.500000 0.742126
O O10 0.113582 0.676358 0.499998
O O11 0.500000 0.258234 0.500000
O O12 0.442502 0.500000 0.499992
O O13 0.232108 0.275441 0.674571
O O14 0.581241 0.275431 0.325436
O O15 0.455369 0.753868 0.742321
O O16 0.610035 0.760415 0.694820
O O17 0.506078 0.000000 0.743573
O O18 0.065950 0.500000 0.780007
O O19 0.874222 0.290316 0.000002
O O20 0.625960 0.500000 0.220003
O O21 0.603238 0.500000 0.742122
#
# Coordination Sequence:
#
# PCOD8063345 Si02
#       8
#     4   4   4   4   4   4   4   4
#     4  10  20  34  53  77 107 140 175 218 266 314
#     4   9  18  34  55  79 109 141 174 217 262 307
#     4  10  20  33  53  80 107 139 175 213 261 315
#     4   9  18  32  51  77 105 133 172 217 258 309
#     4  10  20  34  53  77 107 140 175 218 266 314
#     4   9  18  32  51  75 103 136 171 212 261 311
#     4   9  18  32  51  75 103 136 171 212 261 311
#     4  10  20  33  53  80 107 139 175 213 261 315
#
# _framework density 18.840378999999999
#
# number of rings (size 3 to 8) (size 9 to 14) (size 15 to 20)
#    0.000    2.500    1.250    0.750    1.750    2.500 
#    0.000    5.000    0.000    3.000    0.000    5.250 
#    0.000    0.000    0.000    0.000    0.000    0.000 
#
# Total GULP energy -396816.287885 kJ/mol
# GULP energy per Si atom -12400.508996 kJ/mol
# Density = 1.879750 g / cm^3
# Si number density = 18.840379 Si / 1000 Ang^3
#
#
#
# Elastic Constant Matrix: (Units=GPa)
#
#
# Indices 1 2 3 4 5 6 
#
# 1 164.9317 40.9770 84.6075 0.0000 3.3142 0.0000
# 2 40.9770 51.3704 28.5493 0.0000 1.1440 0.0000
# 3 84.6075 28.5493 127.3248 0.0000 0.1503 0.0000
# 4 0.0000 0.0000 0.0000 13.3151 0.0000 -1.3085
# 5 3.3142 1.1440 0.1503 0.0000 22.4445 0.0000
# 6 0.0000 0.0000 0.0000 -1.3085 0.0000 -0.9119
#
#
#
# Elastic Compliance Matrix: (Units=1/GPa)
#
#
# Indices 1 2 3 4 5 6 
#
# 1 0.010244 -0.004983 -0.005688 0.000000 -0.001221 0.000000
# 2 -0.004983 0.024688 -0.002224 0.000000 -0.000508 0.000000
# 3 -0.005688 -0.002224 0.012131 0.000000 0.000872 0.000000
# 4 0.000000 0.000000 0.000000 0.065821 0.000000 -0.094450
# 5 -0.001221 -0.000508 0.000872 0.000000 0.044755 0.000000
# 6 0.000000 0.000000 0.000000 -0.094450 0.000000 -0.961101
#
#
# Mechanical properties :
#
#
# Convention : Reuss Voigt Hill
#
# Bulk Modulus (GPa) = 47.00712 72.43273 59.71992
# Shear Modulus (GPa) = -6.48861 19.60242 6.55691
#
# Velocity S-wave (km/s) = -1.85781 3.22910 1.86756
# Velocity P-wave (km/s) = 4.51690 7.24097 6.03465
#
# Compressibility (1/GPa) = 0.02127337
#
# Stress axis : x y z
#
# Youngs Moduli (GPa) = 97.62287 40.50492 82.43068
#
# Poissons Ratio (x) = 0.20182 0.46888
# Poissons Ratio (y) = 0.48642 0.18334
# Poissons Ratio (z) = 0.55529 0.09009
#
# Static dielectric constant tensor:
#      x y z
#    x 3.538740 0.000000 -0.003640 
#    y 0.000000 3.139920 0.000000 
#    z -0.003640 0.000000 3.578740 
# 
# 
# High freq. dielectric constant tensor:
#      x y z
#    x 1.724450 0.000000 -0.001800 
#    y 0.000000 1.695910 0.000000 
#    z -0.001800 0.000000 1.744050 
# 
# From -- ./inp_files/90541.got.cif
#   From: 2010.06.25/outbox.cif.g09.slc.cpg/sg10_46_cif.got.tgz:90541.got - 2010.06.27 22:07:45.
