data_PCOD8063469
_publ_section_title
;
Structure prediction by ZEFSAII (Michael W. Deem and Ramdas Pophale) SiO2 
 PCOD8063469
Probable space group: P 2/M
;
_chemical_formula_sum "Si O2"
_cell_formula_units_Z 28
_cell_length_a 24.335206
_cell_length_b 9.013900
_cell_length_c 18.663874
_cell_angle_alpha 90.000000
_cell_angle_beta 156.365655
_cell_angle_gamma 90.000000
_cell_volume 1641.283966
_symmetry_space_group_name_H-M "P 2/M"
_symmetry_group_IT_number 10
_symmetry_cell_setting 'monoclinic'
loop_
_space_group_symop_operation_xyz
x,y,z
-x,y,-z
-x,-y,-z
x,-y,z
loop_
_atom_site_type_symbol
_atom_site_label
_atom_site_fract_x
_atom_site_fract_y
_atom_site_fract_z
Si Si1 0.645440 0.833853 0.634495
Si Si2 0.868861 0.674662 0.169656
Si Si3 0.607334 0.325295 0.066784
Si Si4 0.762422 0.335614 0.896815
Si Si5 0.525875 0.666415 0.367589
Si Si6 0.603795 0.176494 0.914883
Si Si7 0.089890 0.674478 0.542823
O O1 0.500000 0.829254 0.500000
O O2 0.761892 0.771026 0.827337
O O3 0.641162 0.738536 0.556563
O O4 0.687303 0.000000 0.663992
O O5 0.833177 0.500000 0.135254
O O6 0.017040 0.713850 0.380136
O O7 0.870100 0.718519 0.086629
O O8 0.754788 0.764467 0.076817
O O9 0.610155 0.500000 0.052442
O O10 0.755458 0.264650 0.270393
O O11 0.500000 0.287005 0.000000
O O12 0.561011 0.235909 0.941459
O O13 0.800005 0.500000 0.914359
O O14 0.615739 0.336955 0.759265
O O15 0.572396 0.500000 0.402898
O O16 0.509062 0.763441 0.275985
O O17 0.603318 0.000000 0.912208
O O18 0.096457 0.500000 0.561497
O O19 0.000000 0.744410 0.500000
#
# Coordination Sequence:
#
# PCOD8063469 Si02
#       7
#     4   4   4   4   4   4   4
#     4   9  15  22  33  52  81 114 146 180 223 269
#     4   9  16  28  45  64  87 118 155 191 228 271
#     4  10  20  34  51  69  90 120 157 194 233 277
#     4   8  14  22  34  53  79 112 147 181 219 265
#     4   9  16  26  40  56  79 113 153 188 221 267
#     4  11  20  29  43  64  91 118 150 190 234 276
#     4   9  15  27  50  71  89 115 154 197 232 269
#
# _framework density 17.059813999999999
#
# number of rings (size 3 to 8) (size 9 to 14) (size 15 to 20)
#    0.000    2.714    1.429    3.000    0.000    5.429 
#    0.000    1.429    0.000    0.000    0.000    0.000 
#    0.000    1.143    0.000   13.429    0.000    5.714 
#
# Total GULP energy -347057.422104 kJ/mol
# GULP energy per Si atom -12394.907932 kJ/mol
# Density = 1.702099 g / cm^3
# Si number density = 17.059814 Si / 1000 Ang^3
#
#
#
# Elastic Constant Matrix: (Units=GPa)
#
#
# Indices 1 2 3 4 5 6 
#
# 1 80.7128 48.1747 65.8118 0.0000 -28.1302 0.0000
# 2 48.1747 100.8055 37.2879 0.0000 -20.6910 0.0000
# 3 65.8118 37.2879 97.3177 0.0000 -31.9665 0.0000
# 4 0.0000 0.0000 0.0000 9.1225 0.0000 -7.0103
# 5 -28.1302 -20.6910 -31.9665 0.0000 35.3405 0.0000
# 6 0.0000 0.0000 0.0000 -7.0103 0.0000 17.7952
#
#
#
# Elastic Compliance Matrix: (Units=1/GPa)
#
#
# Indices 1 2 3 4 5 6 
#
# 1 0.034066 -0.008448 -0.017810 0.000000 0.006060 0.000000
# 2 -0.008448 0.014050 0.001171 0.000000 0.002560 0.000000
# 3 -0.017810 0.001171 0.024812 0.000000 0.008952 0.000000
# 4 0.000000 0.000000 0.000000 0.157211 0.000000 0.061932
# 5 0.006060 0.002560 0.008952 0.000000 0.042716 0.000000
# 6 0.000000 0.000000 0.000000 0.061932 0.000000 0.080592
#
#
# Mechanical properties :
#
#
# Convention : Reuss Voigt Hill
#
# Bulk Modulus (GPa) = 43.95015 64.59832 54.27424
# Shear Modulus (GPa) = 12.15936 20.95576 16.55756
#
# Velocity S-wave (km/s) = 2.67263 3.50861 3.11876
# Velocity P-wave (km/s) = 5.94494 7.37305 6.69717
#
# Compressibility (1/GPa) = 0.02275305
#
# Stress axis : x y z
#
# Youngs Moduli (GPa) = 29.35480 71.17466 40.30386
#
# Poissons Ratio (x) = 0.60131 0.71780
# Poissons Ratio (y) = 0.24800 -0.04719
# Poissons Ratio (z) = 0.52280 -0.08334
#
# Static dielectric constant tensor:
#      x y z
#    x 2.974900 0.000000 -0.499870 
#    y 0.000000 3.112200 0.000000 
#    z -0.499870 0.000000 3.245300 
# 
# 
# High freq. dielectric constant tensor:
#      x y z
#    x 1.623070 0.000000 -0.053680 
#    y 0.000000 1.645830 0.000000 
#    z -0.053680 0.000000 1.637310 
# 
# From -- ./inp_files/83405.got.cif
#   From: 2010.06.25/outbox.cif.g09.slc.cpg/sg10_42_cif.got.tgz:83405.got - 2010.06.27 22:07:45.
