data_PCOD8063193
_publ_section_title
;
Structure prediction by ZEFSAII (Michael W. Deem and Ramdas Pophale) SiO2 
 PCOD8063193
Probable space group: P 2/M
;
_chemical_formula_sum "Si O2"
_cell_formula_units_Z 28
_cell_length_a 9.028778
_cell_length_b 9.007311
_cell_length_c 28.949859
_cell_angle_alpha 90.000000
_cell_angle_beta 38.767755
_cell_angle_gamma 90.000000
_cell_volume 1474.210344
_symmetry_space_group_name_H-M "P 2/M"
_symmetry_group_IT_number 10
_symmetry_cell_setting 'monoclinic'
loop_
_space_group_symop_operation_xyz
x,y,z
-x,y,-z
-x,-y,-z
x,-y,z
loop_
_atom_site_type_symbol
_atom_site_label
_atom_site_fract_x
_atom_site_fract_y
_atom_site_fract_z
Si Si1 0.972503 0.671065 0.280601
Si Si2 0.196748 0.825571 0.853033
Si Si3 0.904056 0.676654 0.571669
Si Si4 0.762399 0.676653 0.428331
Si Si5 0.624492 0.671065 0.280601
Si Si6 0.175938 0.332819 0.000000
Si Si7 0.538090 0.174429 0.853033
O O1 0.053297 0.500000 0.265464
O O2 0.861546 0.730882 0.355163
O O3 0.775502 0.691033 0.289799
O O4 0.195519 0.770571 0.214152
O O5 0.266284 0.770571 0.785847
O O6 0.402872 0.780662 0.838852
O O7 0.948114 0.750212 0.927176
O O8 0.155329 0.000000 0.862470
O O9 0.913113 0.500000 0.568081
O O10 0.637360 0.730884 0.644837
O O11 0.000000 0.741840 0.500000
O O12 0.067633 0.739266 0.572947
O O13 0.500000 0.741840 0.500000
O O14 0.753519 0.500000 0.431920
O O15 0.619376 0.500000 0.265466
O O16 0.238376 0.500000 0.000000
O O17 0.416004 0.249788 0.927177
O O18 0.000000 0.330254 0.000000
O O19 0.532321 0.000000 0.862471
#
# Coordination Sequence:
#
# PCOD8063193 Si02
#       7
#     4   4   4   4   4   4   4
#     4  10  20  33  50  74 104 138 177 219 261 307
#     4  10  20  34  53  77 105 137 173 213 259 312
#     4   9  16  27  46  73 104 136 171 214 262 309
#     4   9  16  27  46  73 104 136 171 214 262 309
#     4  10  20  33  50  74 104 138 177 219 261 307
#     4   9  17  31  54  81 106 133 168 212 260 309
#     4  10  20  34  53  77 105 137 173 213 259 312
#
# _framework density 18.993219
#
# number of rings (size 3 to 8) (size 9 to 14) (size 15 to 20)
#    0.000    2.429    0.000    3.000    0.000    8.571 
#    0.000    0.714    0.000    5.143    0.000    0.000 
#    0.000    0.000    0.000    0.000    0.000    0.000 
#
# Total GULP energy -347261.389692 kJ/mol
# GULP energy per Si atom -12402.192489 kJ/mol
# Density = 1.894999 g / cm^3
# Si number density = 18.993219 Si / 1000 Ang^3
#
#
#
# Elastic Constant Matrix: (Units=GPa)
#
#
# Indices 1 2 3 4 5 6 
#
# 1 96.9070 31.0334 64.9850 0.0000 -1.7098 0.0000
# 2 31.0334 63.2055 49.3034 0.0000 -0.9396 0.0000
# 3 64.9850 49.3034 181.2486 0.0000 -2.6270 0.0000
# 4 0.0000 0.0000 0.0000 1.2957 0.0000 0.9211
# 5 -1.7098 -0.9396 -2.6270 0.0000 32.6335 0.0000
# 6 0.0000 0.0000 0.0000 0.9211 0.0000 19.2080
#
#
#
# Elastic Compliance Matrix: (Units=1/GPa)
#
#
# Indices 1 2 3 4 5 6 
#
# 1 0.014284 -0.003830 -0.004075 0.000000 0.000310 0.000000
# 2 -0.003830 0.021110 -0.004368 0.000000 0.000055 0.000000
# 3 -0.004075 -0.004368 0.008171 0.000000 0.000318 0.000000
# 4 0.000000 0.000000 0.000000 0.799028 0.000000 -0.038315
# 5 0.000310 0.000055 0.000318 0.000000 0.030687 0.000000
# 6 0.000000 0.000000 0.000000 -0.038315 0.000000 0.053899
#
#
# Mechanical properties :
#
#
# Convention : Reuss Voigt Hill
#
# Bulk Modulus (GPa) = 52.58010 70.22276 61.40143
# Shear Modulus (GPa) = 5.21885 23.69671 14.45778
#
# Velocity S-wave (km/s) = 1.65943 3.53603 2.76199
# Velocity P-wave (km/s) = 5.60494 7.32967 6.52455
#
# Compressibility (1/GPa) = 0.01901860
#
# Stress axis : x y z
#
# Youngs Moduli (GPa) = 70.00943 47.37026 122.37990
#
# Poissons Ratio (x) = 0.18142 0.49870
# Poissons Ratio (y) = 0.26813 0.53461
# Poissons Ratio (z) = 0.28529 0.20694
#
# Static dielectric constant tensor:
#      x y z
#    x 3.402100 0.000000 -0.014210 
#    y 0.000000 3.171350 0.000000 
#    z -0.014210 0.000000 3.678370 
# 
# 
# High freq. dielectric constant tensor:
#      x y z
#    x 1.727590 0.000000 -0.001510 
#    y 0.000000 1.705120 0.000000 
#    z -0.001510 0.000000 1.757020 
# 
# From -- ./inp_files/38057.got.cif
#   From: 2010.06.25/outbox.cif.g09.slc.cpg/sg10_20_cif.got.tgz:38057.got - 2010.06.27 22:07:45.
