data_PCOD8063951
_publ_section_title
;
Structure prediction by ZEFSAII (Michael W. Deem and Ramdas Pophale) SiO2 
 PCOD8063951
Probable space group: P 2/M
;
_chemical_formula_sum "Si O2"
_cell_formula_units_Z 16
_cell_length_a 9.366856
_cell_length_b 12.201846
_cell_length_c 9.167226
_cell_angle_alpha 90.000000
_cell_angle_beta 51.756947
_cell_angle_gamma 90.000000
_cell_volume 822.893797
_symmetry_space_group_name_H-M "P 2/M"
_symmetry_group_IT_number 10
_symmetry_cell_setting 'monoclinic'
loop_
_space_group_symop_operation_xyz
x,y,z
-x,y,-z
-x,-y,-z
x,-y,z
loop_
_atom_site_type_symbol
_atom_site_label
_atom_site_fract_x
_atom_site_fract_y
_atom_site_fract_z
Si Si1 0.447799 0.500000 0.705724
Si Si2 0.035926 0.726636 0.647671
Si Si3 0.189537 0.697592 0.949415
Si Si4 0.841434 0.500000 0.482260
Si Si5 0.710040 0.125944 0.332911
O O1 0.500000 0.500000 0.500000
O O2 0.340924 0.607097 0.823874
O O3 0.637260 0.500000 0.676237
O O4 0.135741 0.611339 0.624788
O O5 0.167819 0.823882 0.614749
O O6 0.000000 0.741729 0.500000
O O7 0.844559 0.722579 0.856988
O O8 0.249600 0.812951 0.843412
O O9 0.000000 0.657348 0.000000
O O10 0.000000 0.500000 0.500000
O O11 0.500000 0.140716 0.500000
O O12 0.764968 0.000000 0.279590
#
# Coordination Sequence:
#
# PCOD8063951 Si02
#       5
#     2   4   4   2   4
#     4  12  20  33  60  86 112 146 191 231 271 328
#     4  10  21  38  57  80 113 147 185 228 275 333
#     4  10  20  34  57  86 113 145 188 232 279 330
#     4  10  21  37  53  78 117 148 176 221 280 330
#     4  10  21  38  58  81 110 145 187 233 280 328
#
# _framework density 19.443580000000001
#
# number of rings (size 3 to 8) (size 9 to 14) (size 15 to 20)
#    0.000    1.750    0.000    6.375    0.000    5.000 
#    0.000   16.250    0.000    3.000    0.000    0.000 
#    0.000    0.000    0.000    0.000    0.000    0.000 
#
# Total GULP energy -198314.721994 kJ/mol
# GULP energy per Si atom -12394.670125 kJ/mol
# Density = 1.939933 g / cm^3
# Si number density = 19.443580 Si / 1000 Ang^3
#
#
#
# Elastic Constant Matrix: (Units=GPa)
#
#
# Indices 1 2 3 4 5 6 
#
# 1 90.3106 63.0152 74.2410 0.0000 -10.9205 0.0000
# 2 63.0152 177.9201 85.3959 0.0000 -10.1609 0.0000
# 3 74.2410 85.3959 169.8011 0.0000 6.3145 0.0000
# 4 0.0000 0.0000 0.0000 21.6824 0.0000 -15.7277
# 5 -10.9205 -10.1609 6.3145 0.0000 40.2387 0.0000
# 6 0.0000 0.0000 0.0000 -15.7277 0.0000 23.5569
#
#
#
# Elastic Compliance Matrix: (Units=1/GPa)
#
#
# Indices 1 2 3 4 5 6 
#
# 1 0.020098 -0.003252 -0.007368 0.000000 0.005790 0.000000
# 2 -0.003252 0.008187 -0.002756 0.000000 0.001617 0.000000
# 3 -0.007368 -0.002756 0.010659 0.000000 -0.004368 0.000000
# 4 0.000000 0.000000 0.000000 0.089431 0.000000 0.059708
# 5 0.005790 0.001617 -0.004368 0.000000 0.027517 0.000000
# 6 0.000000 0.000000 0.000000 0.059708 0.000000 0.082315
#
#
# Mechanical properties :
#
#
# Convention : Reuss Voigt Hill
#
# Bulk Modulus (GPa) = 82.00451 98.14845 90.07648
# Shear Modulus (GPa) = 18.58583 31.45424 25.02003
#
# Velocity S-wave (km/s) = 3.09509 4.02645 3.59109
# Velocity P-wave (km/s) = 7.41889 8.49733 7.97636
#
# Compressibility (1/GPa) = 0.01219445
#
# Stress axis : x y z
#
# Youngs Moduli (GPa) = 49.75528 122.14029 93.81759
#
# Poissons Ratio (x) = 0.39715 0.69120
# Poissons Ratio (y) = 0.16178 0.25856
# Poissons Ratio (z) = 0.36657 0.33662
#
# Static dielectric constant tensor:
#      x y z
#    x 3.419990 0.000000 -0.240060 
#    y 0.000000 3.833860 0.000000 
#    z -0.240060 0.000000 3.990470 
# 
# 
# High freq. dielectric constant tensor:
#      x y z
#    x 1.739290 0.000000 -0.013500 
#    y 0.000000 1.763750 0.000000 
#    z -0.013500 0.000000 1.771850 
# 
# From -- ./inp_files/17609.got.cif
#   From: 2010.06.25/outbox.cif.g09.slc.cpg/sg10_9_cif.got.tgz:17609.got - 2010.06.27 22:07:45.
