data_PCOD8063181
_publ_section_title
;
Structure prediction by ZEFSAII (Michael W. Deem and Ramdas Pophale) SiO2 
 PCOD8063181
Probable space group: P 2/M
;
_chemical_formula_sum "Si O2"
_cell_formula_units_Z 28
_cell_length_a 23.726412
_cell_length_b 9.632216
_cell_length_c 20.777381
_cell_angle_alpha 90.000000
_cell_angle_beta 19.378751
_cell_angle_gamma 90.000000
_cell_volume 1575.579266
_symmetry_space_group_name_H-M "P 2/M"
_symmetry_group_IT_number 10
_symmetry_cell_setting 'monoclinic'
loop_
_space_group_symop_operation_xyz
x,y,z
-x,y,-z
-x,-y,-z
x,-y,z
loop_
_atom_site_type_symbol
_atom_site_label
_atom_site_fract_x
_atom_site_fract_y
_atom_site_fract_z
Si Si1 0.695592 0.348323 0.289379
Si Si2 0.242868 0.165252 0.395238
Si Si3 0.113527 0.834853 0.166471
Si Si4 0.852018 0.850388 0.211562
Si Si5 0.812073 0.165142 0.688563
Si Si6 0.135729 0.161220 0.997148
Si Si7 0.387720 0.165253 0.973111
O O1 0.500000 0.375847 0.500000
O O2 0.787581 0.500000 0.187425
O O3 0.731005 0.273593 0.319793
O O4 0.743762 0.254675 0.176642
O O5 0.250724 0.218747 0.313168
O O6 0.415723 0.216483 0.245287
O O7 0.071100 0.224718 0.613241
O O8 0.236356 0.000000 0.403435
O O9 0.151627 0.785980 0.052950
O O10 0.106838 0.000000 0.177906
O O11 0.266680 0.776818 0.046288
O O12 0.939060 0.819966 0.186770
O O13 0.755521 0.000000 0.318073
O O14 0.000000 0.860062 0.000000
O O15 0.000000 0.223701 0.500000
O O16 0.816426 0.000000 0.684765
O O17 0.684916 0.220149 0.880577
O O18 0.190705 0.000000 0.930692
O O19 0.382018 0.000000 0.977671
#
# Coordination Sequence:
#
# PCOD8063181 Si02
#       7
#     4   4   4   4   4   4   4
#     4  10  20  33  50  73  96 117 149 191 229 272
#     4   9  15  22  33  49  73 107 149 192 227 267
#     4   9  16  27  38  53  83 115 147 186 223 272
#     4   8  15  29  48  68  90 116 147 184 225 270
#     4   9  13  19  31  46  69 104 146 193 233 262
#     4   9  18  32  48  68  94 122 152 188 233 281
#     4   9  15  22  33  50  73 108 151 188 228 269
#
# _framework density 17.771241
#
# number of rings (size 3 to 8) (size 9 to 14) (size 15 to 20)
#    0.000    3.000    1.429    1.714    0.000    5.429 
#    2.571    0.000    0.000    0.000    0.000    0.000 
#    0.000    0.000    0.000    2.571    0.000    6.571 
#
# Total GULP energy -346890.017599 kJ/mol
# GULP energy per Si atom -12388.929200 kJ/mol
# Density = 1.773079 g / cm^3
# Si number density = 17.771241 Si / 1000 Ang^3
#
#
#
# Elastic Constant Matrix: (Units=GPa)
#
#
# Indices 1 2 3 4 5 6 
#
# 1 140.3927 30.4979 55.7692 0.0000 -6.5792 0.0000
# 2 30.4979 52.6891 22.3215 0.0000 0.1101 0.0000
# 3 55.7692 22.3215 87.4983 0.0000 -18.0494 0.0000
# 4 0.0000 0.0000 0.0000 9.8786 0.0000 -5.3720
# 5 -6.5792 0.1101 -18.0494 0.0000 28.7958 0.0000
# 6 0.0000 0.0000 0.0000 -5.3720 0.0000 -3.8147
#
#
#
# Elastic Compliance Matrix: (Units=1/GPa)
#
#
# Indices 1 2 3 4 5 6 
#
# 1 0.010124 -0.003369 -0.005873 0.000000 -0.001355 0.000000
# 2 -0.003369 0.022809 -0.004420 0.000000 -0.003627 0.000000
# 3 -0.005873 -0.004420 0.018406 0.000000 0.010212 0.000000
# 4 0.000000 0.000000 0.000000 0.057328 0.000000 -0.080730
# 5 -0.001355 -0.003627 0.010212 0.000000 0.040832 0.000000
# 6 0.000000 0.000000 0.000000 -0.080730 0.000000 -0.148456
#
#
# Mechanical properties :
#
#
# Convention : Reuss Voigt Hill
#
# Bulk Modulus (GPa) = 41.63872 55.30635 48.47253
# Shear Modulus (GPa) = 137.46469 18.43805 77.95137
#
# Velocity S-wave (km/s) = 8.80456 3.22455 6.63016
# Velocity P-wave (km/s) = 11.26240 6.71211 9.27076
#
# Compressibility (1/GPa) = 0.02401611
#
# Stress axis : x y z
#
# Youngs Moduli (GPa) = 98.77281 43.84160 54.32977
#
# Poissons Ratio (x) = 0.14772 0.31908
# Poissons Ratio (y) = 0.33280 0.24011
# Poissons Ratio (z) = 0.58009 0.19376
#
# Static dielectric constant tensor:
#      x y z
#    x 3.769940 0.000000 -0.179920 
#    y 0.000000 2.801870 0.000000 
#    z -0.179920 0.000000 3.249410 
# 
# 
# High freq. dielectric constant tensor:
#      x y z
#    x 1.697920 0.000000 -0.012620 
#    y 0.000000 1.611790 0.000000 
#    z -0.012620 0.000000 1.675390 
# 
# From -- ./inp_files/86434.got.cif
#   From: 2010.06.25/outbox.cif.g09.slc.cpg/sg10_44_cif.got.tgz:86434.got - 2010.06.27 22:07:45.
