data_PCOD8063254
_publ_section_title
;
Structure prediction by ZEFSAII (Michael W. Deem and Ramdas Pophale) SiO2 
 PCOD8063254
Probable space group: P 2/M
;
_chemical_formula_sum "Si O2"
_cell_formula_units_Z 28
_cell_length_a 26.030819
_cell_length_b 8.823234
_cell_length_c 9.107797
_cell_angle_alpha 90.000000
_cell_angle_beta 135.695089
_cell_angle_gamma 90.000000
_cell_volume 1461.103059
_symmetry_space_group_name_H-M "P 2/M"
_symmetry_group_IT_number 10
_symmetry_cell_setting 'monoclinic'
loop_
_space_group_symop_operation_xyz
x,y,z
-x,y,-z
-x,-y,-z
x,-y,z
loop_
_atom_site_type_symbol
_atom_site_label
_atom_site_fract_x
_atom_site_fract_y
_atom_site_fract_z
Si Si1 0.996909 0.821355 0.327053
Si Si2 0.276967 0.324721 0.211468
Si Si3 0.424591 0.826017 0.207394
Si Si4 0.737978 0.825972 0.129417
Si Si5 0.132243 0.678028 0.435797
Si Si6 0.136403 0.676169 0.108844
Si Si7 0.437738 0.674623 0.543814
O O1 0.063958 0.753648 0.374718
O O2 0.000000 0.761228 0.500000
O O3 0.003857 0.000000 0.335475
O O4 0.920107 0.772139 0.101548
O O5 0.274515 0.500000 0.155244
O O6 0.217923 0.290597 0.216431
O O7 0.357272 0.287747 0.447655
O O8 0.259853 0.220953 0.036352
O O9 0.428620 0.715164 0.354219
O O10 0.494184 0.773183 0.247554
O O11 0.435082 0.000000 0.277182
O O12 0.344269 0.805018 0.970285
O O13 0.791633 0.723465 0.333778
O O14 0.763604 0.000000 0.191438
O O15 0.122711 0.500000 0.428456
O O16 0.133199 0.731838 0.269547
O O17 0.115459 0.500000 0.052180
O O18 0.458041 0.500000 0.606512
#
# Coordination Sequence:
#
# PCOD8063254 Si02
#       7
#     4   4   4   4   4   4   4
#     4  11  24  40  59  84 110 135 168 210 255 305
#     4   9  18  33  53  77 106 138 173 217 264 308
#     4   9  16  26  42  67 101 136 168 210 261 306
#     4  10  20  33  51  77 107 138 176 219 262 310
#     4  11  23  38  57  79 105 139 176 213 256 307
#     4  10  22  39  57  79 107 139 175 212 255 308
#     4   9  15  24  43  71 100 131 169 212 258 306
#
# _framework density 19.163602999999998
#
# number of rings (size 3 to 8) (size 9 to 14) (size 15 to 20)
#    0.000    2.143    0.000    4.286    0.000    9.143 
#    0.000    0.000    0.000    0.857    0.000    6.000 
#    0.000    0.000    0.000    0.000    0.000    0.000 
#
# Total GULP energy -347074.612849 kJ/mol
# GULP energy per Si atom -12395.521887 kJ/mol
# Density = 1.911999 g / cm^3
# Si number density = 19.163603 Si / 1000 Ang^3
#
#
#
# Elastic Constant Matrix: (Units=GPa)
#
#
# Indices 1 2 3 4 5 6 
#
# 1 135.9591 45.7722 84.3714 0.0000 19.3560 0.0000
# 2 45.7722 48.3653 20.2249 0.0000 6.0231 0.0000
# 3 84.3714 20.2249 33.9346 0.0000 17.6669 0.0000
# 4 0.0000 0.0000 0.0000 17.4734 0.0000 9.7223
# 5 19.3560 6.0231 17.6669 0.0000 35.6601 0.0000
# 6 0.0000 0.0000 0.0000 9.7223 0.0000 22.5827
#
#
#
# Elastic Compliance Matrix: (Units=1/GPa)
#
#
# Indices 1 2 3 4 5 6 
#
# 1 -0.010126 -0.002478 0.031768 0.000000 -0.009824 0.000000
# 2 -0.002478 0.027528 -0.011489 0.000000 0.002387 0.000000
# 3 0.031768 -0.011489 -0.046764 0.000000 0.007865 0.000000
# 4 0.000000 0.000000 0.000000 0.075257 0.000000 -0.032400
# 5 -0.009824 0.002387 0.007865 0.000000 0.029075 0.000000
# 6 0.000000 0.000000 0.000000 -0.032400 0.000000 0.058230
#
#
# Mechanical properties :
#
#
# Convention : Reuss Voigt Hill
#
# Bulk Modulus (GPa) = 160.24629 57.66623 108.95626
# Shear Modulus (GPa) = 50.16173 19.66927 34.91550
#
# Velocity S-wave (km/s) = 5.12175 3.20720 4.27308
# Velocity P-wave (km/s) = 10.89854 6.62357 9.01803
#
# Compressibility (1/GPa) = 0.00624039
#
# Stress axis : x y z
#
# Youngs Moduli (GPa) = -98.75121 36.32665 -21.38393
#
# Poissons Ratio (x) = 0.09001 0.67933
# Poissons Ratio (y) = -0.24468 -0.24568
# Poissons Ratio (z) = 3.13717 0.41736
#
# Static dielectric constant tensor:
#      x y z
#    x 3.863310 0.000000 0.504360 
#    y 0.000000 3.582770 0.000000 
#    z 0.504360 0.000000 3.641110 
# 
# 
# High freq. dielectric constant tensor:
#      x y z
#    x 1.741010 0.000000 0.040720 
#    y 0.000000 1.752820 0.000000 
#    z 0.040720 0.000000 1.732570 
# 
# From -- ./inp_files/37309.got.cif
#   From: 2010.06.25/outbox.cif.g09.slc.cpg/sg10_19_cif.got.tgz:37309.got - 2010.06.27 22:07:45.
