data_PCOD8063063
_publ_section_title
;
Structure prediction by ZEFSAII (Michael W. Deem and Ramdas Pophale) SiO2 
 PCOD8063063
Probable space group: P 2/M
;
_chemical_formula_sum "Si O2"
_cell_formula_units_Z 30
_cell_length_a 20.243875
_cell_length_b 12.926710
_cell_length_c 10.998464
_cell_angle_alpha 90.000000
_cell_angle_beta 147.242947
_cell_angle_gamma 90.000000
_cell_volume 1557.304593
_symmetry_space_group_name_H-M "P 2/M"
_symmetry_group_IT_number 10
_symmetry_cell_setting 'monoclinic'
loop_
_space_group_symop_operation_xyz
x,y,z
-x,y,-z
-x,-y,-z
x,-y,z
loop_
_atom_site_type_symbol
_atom_site_label
_atom_site_fract_x
_atom_site_fract_y
_atom_site_fract_z
Si Si1 0.733637 0.673628 0.212131
Si Si2 0.957830 0.615351 0.712132
Si Si3 0.802771 0.378322 0.059315
Si Si4 0.536359 0.385296 0.234570
Si Si5 0.242425 0.881954 0.336712
Si Si6 0.000000 0.238757 0.000000
Si Si7 0.630389 0.807442 0.236622
Si Si8 0.390277 0.722261 0.413398
O O1 0.831936 0.613065 0.444325
O O2 0.708827 0.787135 0.234929
O O3 0.782726 0.687368 0.151152
O O4 0.607059 0.611366 0.016003
O O5 0.985594 0.500000 0.803887
O O6 0.948651 0.691161 0.812133
O O7 0.063993 0.650382 0.784469
O O8 0.789347 0.500000 0.067746
O O9 0.706352 0.344920 0.809539
O O10 0.589877 0.500000 0.294798
O O11 0.609066 0.306105 0.262109
O O12 0.553994 0.354773 0.401418
O O13 0.295753 0.879293 0.556516
O O14 0.331190 0.823290 0.381913
O O15 0.233146 0.000000 0.279994
O O16 0.108988 0.832614 0.121924
O O17 0.500000 0.859345 0.000000
O O18 0.500000 0.763538 0.500000
#
# Coordination Sequence:
#
# PCOD8063063 Si02
#       8
#     4   4   4   4   4   2   4   4
#     4  11  20  35  55  82 123 162 201 226 276 347
#     4  11  23  37  57  87 125 160 199 239 287 351
#     4  11  22  35  55  87 126 166 200 230 278 352
#     4  10  20  32  53  86 124 161 196 231 279 349
#     4  11  24  44  68  89 108 147 205 262 313 353
#     4  12  22  44  64  90 114 156 196 256 310 348
#     4   9  21  38  57  88 118 150 191 246 301 349
#     4  11  22  39  60  88 123 157 195 245 298 352
#
# _framework density 19.264054000000002
#
# number of rings (size 3 to 8) (size 9 to 14) (size 15 to 20)
#    0.000    1.333    4.000    2.400    0.000    5.600 
#    0.000    0.000    0.000    0.000    0.000    1.867 
#    0.000    0.000    0.000    0.000    0.000    0.000 
#
# Total GULP energy -372043.355277 kJ/mol
# GULP energy per Si atom -12401.445176 kJ/mol
# Density = 1.922021 g / cm^3
# Si number density = 19.264054 Si / 1000 Ang^3
#
#
#
# Elastic Constant Matrix: (Units=GPa)
#
#
# Indices 1 2 3 4 5 6 
#
# 1 93.0793 28.4102 36.9797 0.0000 -2.0656 0.0000
# 2 28.4102 67.4576 30.9534 0.0000 3.9768 0.0000
# 3 36.9797 30.9534 117.3450 0.0000 -5.3258 0.0000
# 4 0.0000 0.0000 0.0000 14.7281 0.0000 -0.4349
# 5 -2.0656 3.9768 -5.3258 0.0000 37.3618 0.0000
# 6 0.0000 0.0000 0.0000 -0.4349 0.0000 14.4752
#
#
#
# Elastic Compliance Matrix: (Units=1/GPa)
#
#
# Indices 1 2 3 4 5 6 
#
# 1 0.013256 -0.004239 -0.003025 0.000000 0.000753 0.000000
# 2 -0.004239 0.018446 -0.003653 0.000000 -0.002719 0.000000
# 3 -0.003025 -0.003653 0.010517 0.000000 0.001721 0.000000
# 4 0.000000 0.000000 0.000000 0.067958 0.000000 0.002042
# 5 0.000753 -0.002719 0.001721 0.000000 0.027342 0.000000
# 6 0.000000 0.000000 0.000000 0.002042 0.000000 0.069145
#
#
# Mechanical properties :
#
#
# Convention : Reuss Voigt Hill
#
# Bulk Modulus (GPa) = 49.05779 52.28539 50.67159
# Shear Modulus (GPa) = 21.25013 25.41559 23.33286
#
# Velocity S-wave (km/s) = 3.32489 3.63620 3.48402
# Velocity P-wave (km/s) = 6.34517 6.69549 6.52268
#
# Compressibility (1/GPa) = 0.02038412
#
# Stress axis : x y z
#
# Youngs Moduli (GPa) = 75.43778 54.21227 95.08479
#
# Poissons Ratio (x) = 0.22981 0.28764
# Poissons Ratio (y) = 0.31979 0.34736
# Poissons Ratio (z) = 0.22820 0.19805
#
# Static dielectric constant tensor:
#      x y z
#    x 3.728620 0.000000 -0.037020 
#    y 0.000000 3.139000 0.000000 
#    z -0.037020 0.000000 3.721550 
# 
# 
# High freq. dielectric constant tensor:
#      x y z
#    x 1.758480 0.000000 -0.000870 
#    y 0.000000 1.708360 0.000000 
#    z -0.000870 0.000000 1.769390 
# 
# From -- ./inp_files/55943.got.cif
#   From: 2010.06.25/outbox.cif.g09.slc.cpg/sg10_28_cif.got.tgz:55943.got - 2010.06.27 22:07:45.
