data_PCOD8063077
_publ_section_title
;
Structure prediction by ZEFSAII (Michael W. Deem and Ramdas Pophale) SiO2 
 PCOD8063077
Probable space group: P 2/M
;
_chemical_formula_sum "Si O2"
_cell_formula_units_Z 28
_cell_length_a 11.980351
_cell_length_b 8.814626
_cell_length_c 14.188054
_cell_angle_alpha 90.000000
_cell_angle_beta 107.088331
_cell_angle_gamma 90.000000
_cell_volume 1432.146078
_symmetry_space_group_name_H-M "P 2/M"
_symmetry_group_IT_number 10
_symmetry_cell_setting 'monoclinic'
loop_
_space_group_symop_operation_xyz
x,y,z
-x,y,-z
-x,-y,-z
x,-y,z
loop_
_atom_site_type_symbol
_atom_site_label
_atom_site_fract_x
_atom_site_fract_y
_atom_site_fract_z
Si Si1 0.383543 0.179677 0.415799
Si Si2 0.667961 0.320077 0.797710
Si Si3 0.226719 0.179072 0.858204
Si Si4 0.920869 0.819296 0.347885
Si Si5 0.834674 0.819773 0.522912
Si Si6 0.536560 0.669720 0.116226
Si Si7 0.864485 0.180310 0.965205
O O1 0.500000 0.226148 0.500000
O O2 0.373574 0.261509 0.313556
O O3 0.280300 0.243792 0.456003
O O4 0.376726 0.000000 0.397079
O O5 0.680533 0.500000 0.799998
O O6 0.568711 0.265081 0.846677
O O7 0.793343 0.250585 0.859564
O O8 0.130697 0.245414 0.762020
O O9 0.351422 0.224057 0.847161
O O10 0.219786 0.000000 0.860519
O O11 0.197172 0.242837 0.954602
O O12 0.843122 0.761631 0.417213
O O13 0.053092 0.760176 0.391095
O O14 0.919322 0.000000 0.347072
O O15 0.832339 0.000000 0.523342
O O16 0.569188 0.500000 0.157507
O O17 0.500000 0.669956 0.000000
O O18 0.857590 0.000000 0.954548
O O19 0.000000 0.232992 0.000000
#
# Coordination Sequence:
#
# PCOD8063077 Si02
#       7
#     4   4   4   4   4   4   4
#     4  10  22  37  58  86 114 146 187 238 292 341
#     4  11  24  41  60  81 111 157 198 234 283 340
#     4  10  20  32  56  88 112 140 183 233 281 332
#     4   8  15  28  50  80 109 139 176 221 273 334
#     4   8  15  30  51  76 110 144 175 220 280 334
#     4  10  21  39  57  75 108 149 186 226 276 331
#     4  10  22  38  58  88 122 152 186 234 289 341
#
# _framework density 19.551076999999999
#
# number of rings (size 3 to 8) (size 9 to 14) (size 15 to 20)
#    0.000    2.429    1.429    1.286    4.000    2.000 
#    0.000    0.000    0.000    0.000    0.000    2.000 
#    0.000    0.000    0.000    0.000    0.000    0.000 
#
# Total GULP energy -347098.942405 kJ/mol
# GULP energy per Si atom -12396.390800 kJ/mol
# Density = 1.950658 g / cm^3
# Si number density = 19.551077 Si / 1000 Ang^3
#
#
#
# Elastic Constant Matrix: (Units=GPa)
#
#
# Indices 1 2 3 4 5 6 
#
# 1 155.0345 27.2473 66.5726 0.0000 1.9478 0.0000
# 2 27.2473 28.1285 30.1317 0.0000 3.3611 0.0000
# 3 66.5726 30.1317 140.2590 0.0000 11.3809 0.0000
# 4 0.0000 0.0000 0.0000 12.1715 0.0000 -3.7408
# 5 1.9478 3.3611 11.3809 0.0000 30.2980 0.0000
# 6 0.0000 0.0000 0.0000 -3.7408 0.0000 13.9996
#
#
#
# Elastic Compliance Matrix: (Units=1/GPa)
#
#
# Indices 1 2 3 4 5 6 
#
# 1 0.008684 -0.005242 -0.003092 0.000000 0.001185 0.000000
# 2 -0.005242 0.049403 -0.007950 0.000000 -0.002157 0.000000
# 3 -0.003092 -0.007950 0.010539 0.000000 -0.002878 0.000000
# 4 0.000000 0.000000 0.000000 0.089510 0.000000 0.023917
# 5 0.001185 -0.002157 -0.002878 0.000000 0.034250 0.000000
# 6 0.000000 0.000000 0.000000 0.023917 0.000000 0.077821
#
#
# Mechanical properties :
#
#
# Convention : Reuss Voigt Hill
#
# Bulk Modulus (GPa) = 27.73303 63.48060 45.60682
# Shear Modulus (GPa) = 15.88346 24.59185 20.23765
#
# Velocity S-wave (km/s) = 2.85337 3.55043 3.22081
# Velocity P-wave (km/s) = 5.00713 7.02474 6.09993
#
# Compressibility (1/GPa) = 0.03605809
#
# Stress axis : x y z
#
# Youngs Moduli (GPa) = 115.15166 20.24180 94.88833
#
# Poissons Ratio (x) = 0.10610 0.29339
# Poissons Ratio (y) = 0.60357 0.75439
# Poissons Ratio (z) = 0.35604 0.16093
#
# Static dielectric constant tensor:
#      x y z
#    x 4.085310 0.000000 0.094910 
#    y 0.000000 3.139380 0.000000 
#    z 0.094910 0.000000 3.891470 
# 
# 
# High freq. dielectric constant tensor:
#      x y z
#    x 1.772240 0.000000 0.001130 
#    y 0.000000 1.716290 0.000000 
#    z 0.001130 0.000000 1.772250 
# 
# From -- ./inp_files/63516.got.cif
#   From: 2010.06.25/outbox.cif.g09.slc.cpg/sg10_32_cif.got.tgz:63516.got - 2010.06.27 22:07:45.
