data_PCOD8063170
_publ_section_title
;
Structure prediction by ZEFSAII (Michael W. Deem and Ramdas Pophale) SiO2 
 PCOD8063170
Probable space group: P 2/M
;
_chemical_formula_sum "Si O2"
_cell_formula_units_Z 32
_cell_length_a 14.409236
_cell_length_b 9.320574
_cell_length_c 14.397923
_cell_angle_alpha 90.000000
_cell_angle_beta 97.282550
_cell_angle_gamma 90.000000
_cell_volume 1918.076129
_symmetry_space_group_name_H-M "P 2/M"
_symmetry_group_IT_number 10
_symmetry_cell_setting 'monoclinic'
loop_
_space_group_symop_operation_xyz
x,y,z
-x,y,-z
-x,-y,-z
x,-y,z
loop_
_atom_site_type_symbol
_atom_site_label
_atom_site_fract_x
_atom_site_fract_y
_atom_site_fract_z
Si Si1 0.230801 0.663206 0.391237
Si Si2 0.704118 0.332523 0.959555
Si Si3 0.087624 0.334868 0.076815
Si Si4 0.539165 0.330144 0.798155
Si Si5 0.918053 0.838973 0.551696
Si Si6 0.584403 0.162439 0.081990
Si Si7 0.882512 0.160660 0.747765
Si Si8 0.556593 0.336180 0.591265
O O1 0.198041 0.500000 0.373976
O O2 0.173237 0.737262 0.468748
O O3 0.210308 0.747784 0.291854
O O4 0.337939 0.675213 0.429721
O O5 0.696382 0.500000 0.983532
O O6 0.672340 0.242627 0.045904
O O7 0.811789 0.288927 0.952790
O O8 0.637085 0.295378 0.863266
O O9 0.091929 0.500000 0.107570
O O10 0.063980 0.238055 0.162549
O O11 0.000000 0.305007 0.000000
O O12 0.520913 0.500000 0.799452
O O13 0.450676 0.249779 0.832464
O O14 0.544737 0.270154 0.692913
O O15 0.949317 0.841981 0.664585
O O16 0.000000 0.771848 0.500000
O O17 0.893534 0.000000 0.514011
O O18 0.613486 0.000000 0.113336
O O19 0.500000 0.159722 0.000000
O O20 0.853016 0.000000 0.773348
O O21 0.500000 0.258321 0.500000
O O22 0.523000 0.500000 0.594561
#
# Coordination Sequence:
#
# PCOD8063170 Si02
#       8
#     4   4   4   4   4   4   4   4
#     4   9  16  28  49  74  98 121 160 206 240 277
#     4   9  17  30  49  71  94 123 158 192 238 289
#     4  10  20  33  50  73 101 129 159 202 245 281
#     4   9  16  28  49  71  92 125 161 192 234 285
#     4   8  16  31  50  72  98 127 159 197 243 291
#     4   9  17  29  46  71  97 119 151 199 241 275
#     4   9  18  31  49  71  96 128 163 196 237 287
#     4   9  17  29  47  72 101 130 160 197 240 286
#
# _framework density 16.683384
#
# number of rings (size 3 to 8) (size 9 to 14) (size 15 to 20)
#    0.750    2.250    0.000    1.500    0.000    4.500 
#    0.000    3.750    2.750    3.375    0.000    0.000 
#    0.000    0.000    0.000    0.000    0.000    0.000 
#
# Total GULP energy -396435.067072 kJ/mol
# GULP energy per Si atom -12388.595846 kJ/mol
# Density = 1.664541 g / cm^3
# Si number density = 16.683384 Si / 1000 Ang^3
#
#
#
# Elastic Constant Matrix: (Units=GPa)
#
#
# Indices 1 2 3 4 5 6 
#
# 1 89.0789 44.1088 64.0716 0.0000 -11.3700 0.0000
# 2 44.1088 79.0545 42.4784 0.0000 -3.3581 0.0000
# 3 64.0716 42.4784 85.6365 0.0000 -6.7019 0.0000
# 4 0.0000 0.0000 0.0000 17.5860 0.0000 -8.0086
# 5 -11.3700 -3.3581 -6.7019 0.0000 24.9715 0.0000
# 6 0.0000 0.0000 0.0000 -8.0086 0.0000 9.7878
#
#
#
# Elastic Compliance Matrix: (Units=1/GPa)
#
#
# Indices 1 2 3 4 5 6 
#
# 1 0.027121 -0.005762 -0.016882 0.000000 0.007043 0.000000
# 2 -0.005762 0.018470 -0.004966 0.000000 -0.001472 0.000000
# 3 -0.016882 -0.004966 0.026678 0.000000 -0.001195 0.000000
# 4 0.000000 0.000000 0.000000 0.090636 0.000000 0.074160
# 5 0.007043 -0.001472 -0.001195 0.000000 0.042734 0.000000
# 6 0.000000 0.000000 0.000000 0.074160 0.000000 0.162847
#
#
# Mechanical properties :
#
#
# Convention : Reuss Voigt Hill
#
# Bulk Modulus (GPa) = 58.65457 61.67639 60.16548
# Shear Modulus (GPa) = 11.64446 17.34315 14.49381
#
# Velocity S-wave (km/s) = 2.64477 3.22770 2.95067
# Velocity P-wave (km/s) = 6.67535 7.13721 6.91014
#
# Compressibility (1/GPa) = 0.01704897
#
# Stress axis : x y z
#
# Youngs Moduli (GPa) = 36.87235 54.14113 37.48405
#
# Poissons Ratio (x) = 0.31194 0.63281
# Poissons Ratio (y) = 0.21245 0.18616
# Poissons Ratio (z) = 0.62248 0.26888
#
# Static dielectric constant tensor:
#      x y z
#    x 2.960400 0.000000 -0.134050 
#    y 0.000000 3.144290 0.000000 
#    z -0.134050 0.000000 3.066750 
# 
# 
# High freq. dielectric constant tensor:
#      x y z
#    x 1.623620 0.000000 -0.018010 
#    y 0.000000 1.637590 0.000000 
#    z -0.018010 0.000000 1.623040 
# 
# From -- ./inp_files/66198.got.cif
#   From: 2010.06.25/outbox.cif.g09.slc.cpg/sg10_34_cif.got.tgz:66198.got - 2010.06.27 22:07:45.
