data_PCOD8063373
_publ_section_title
;
Structure prediction by ZEFSAII (Michael W. Deem and Ramdas Pophale) SiO2 
 PCOD8063373
Probable space group: P 2/M
;
_chemical_formula_sum "Si O2"
_cell_formula_units_Z 32
_cell_length_a 24.269517
_cell_length_b 9.287197
_cell_length_c 14.174750
_cell_angle_alpha 90.000000
_cell_angle_beta 149.840101
_cell_angle_gamma 90.000000
_cell_volume 1605.179960
_symmetry_space_group_name_H-M "P 2/M"
_symmetry_group_IT_number 10
_symmetry_cell_setting 'monoclinic'
loop_
_space_group_symop_operation_xyz
x,y,z
-x,y,-z
-x,-y,-z
x,-y,z
loop_
_atom_site_type_symbol
_atom_site_label
_atom_site_fract_x
_atom_site_fract_y
_atom_site_fract_z
Si Si1 0.107485 0.334342 0.205807
Si Si2 0.777569 0.836739 0.312247
Si Si3 0.398224 0.168855 0.413206
Si Si4 0.621401 0.335724 0.219330
Si Si5 0.049067 0.157634 0.283654
Si Si6 0.125571 0.670692 0.710022
Si Si7 0.820089 0.831538 0.019856
Si Si8 0.652302 0.333814 0.479826
O O1 0.084025 0.500000 0.187888
O O2 0.120601 0.267255 0.328350
O O3 0.217674 0.308460 0.309914
O O4 0.000000 0.260876 0.000000
O O5 0.693460 0.768922 0.261991
O O6 0.899643 0.840359 0.536329
O O7 0.787643 0.739651 0.234378
O O8 0.739417 0.000000 0.230949
O O9 0.500000 0.217620 0.500000
O O10 0.410503 0.243999 0.533330
O O11 0.399207 0.000000 0.434159
O O12 0.288708 0.216465 0.196358
O O13 0.667351 0.500000 0.283741
O O14 0.620818 0.282186 0.327613
O O15 0.500000 0.329100 0.000000
O O16 0.921484 0.199732 0.100112
O O17 0.061436 0.000000 0.256007
O O18 0.140951 0.500000 0.731818
O O19 0.163295 0.731670 0.865665
O O20 0.000000 0.712848 0.500000
O O21 0.816240 0.000000 0.043912
O O22 0.620204 0.500000 0.445183
#
# Coordination Sequence:
#
# PCOD8063373 Si02
#       8
#     4   4   4   4   4   4   4   4
#     4  10  20  33  53  83 116 149 187 233 287 348
#     4  11  22  37  59  86 118 156 197 243 295 353
#     4  10  23  42  63  87 116 154 200 248 294 344
#     4  10  22  41  63  88 121 159 200 245 293 350
#     4  10  20  33  54  83 114 151 190 234 292 352
#     4  11  23  37  58  88 121 159 201 247 301 362
#     4  10  21  39  60  85 120 157 197 247 301 357
#     4  10  21  38  60  86 116 152 192 238 293 345
#
# _framework density 19.935459000000002
#
# number of rings (size 3 to 8) (size 9 to 14) (size 15 to 20)
#    0.000    1.750    2.500    1.500    0.000    4.750 
#    0.000    2.500    0.000    0.000    0.000    0.000 
#    0.000    0.000    0.000    0.000    0.000    0.000 
#
# Total GULP energy -396773.999520 kJ/mol
# GULP energy per Si atom -12399.187485 kJ/mol
# Density = 1.989009 g / cm^3
# Si number density = 19.935459 Si / 1000 Ang^3
#
#
#
# Elastic Constant Matrix: (Units=GPa)
#
#
# Indices 1 2 3 4 5 6 
#
# 1 133.2253 68.7168 29.1351 0.0000 -2.9538 0.0000
# 2 68.7168 82.1274 26.6310 0.0000 -0.4993 0.0000
# 3 29.1351 26.6310 70.1164 0.0000 1.1778 0.0000
# 4 0.0000 0.0000 0.0000 -765.6262 0.0000 423.6074
# 5 -2.9538 -0.4993 1.1778 0.0000 27.1659 0.0000
# 6 0.0000 0.0000 0.0000 423.6074 0.0000 -191.3347
#
#
#
# Elastic Compliance Matrix: (Units=1/GPa)
#
#
# Indices 1 2 3 4 5 6 
#
# 1 0.013387 -0.010700 -0.001521 0.000000 0.001325 0.000000
# 2 -0.010700 0.022445 -0.004069 0.000000 -0.000574 0.000000
# 3 -0.001521 -0.004069 0.016456 0.000000 -0.000954 0.000000
# 4 0.000000 0.000000 0.000000 0.005806 0.000000 0.012855
# 5 0.001325 -0.000574 -0.000954 0.000000 0.036986 0.000000
# 6 0.000000 0.000000 0.000000 0.012855 0.000000 0.023234
#
#
# Mechanical properties :
#
#
# Convention : Reuss Voigt Hill
#
# Bulk Modulus (GPa) = 50.74196 59.38165 55.06181
# Shear Modulus (GPa) = 31.75362 -175.22658 -71.73648
#
# Velocity S-wave (km/s) = 3.99535 -9.38551 -6.00520
# Velocity P-wave (km/s) = 6.84047 9.35942 4.51700
#
# Compressibility (1/GPa) = 0.01970755
#
# Stress axis : x y z
#
# Youngs Moduli (GPa) = 74.69980 44.55393 60.76989
#
# Poissons Ratio (x) = 0.47671 0.09243
# Poissons Ratio (y) = 0.79927 0.24728
# Poissons Ratio (z) = 0.11362 0.18129
#
# Static dielectric constant tensor:
#      x y z
#    x 3.485000 0.000000 -0.017040 
#    y 0.000000 3.573020 0.000000 
#    z -0.017040 0.000000 3.747740 
# 
# 
# High freq. dielectric constant tensor:
#      x y z
#    x 1.776850 0.000000 -0.001590 
#    y 0.000000 1.773610 0.000000 
#    z -0.001590 0.000000 1.777090 
# 
# From -- ./inp_files/71576.got.cif
#   From: 2010.06.25/outbox.cif.g09.slc.cpg/sg10_36_cif.got.tgz:71576.got - 2010.06.27 22:07:45.
