data_PCOD8063508
_publ_section_title
;
Structure prediction by ZEFSAII (Michael W. Deem and Ramdas Pophale) SiO2 
 PCOD8063508
Probable space group: P 2/M
;
_chemical_formula_sum "Si O2"
_cell_formula_units_Z 28
_cell_length_a 21.607705
_cell_length_b 9.025929
_cell_length_c 22.955633
_cell_angle_alpha 90.000000
_cell_angle_beta 160.273494
_cell_angle_gamma 90.000000
_cell_volume 1511.134735
_symmetry_space_group_name_H-M "P 2/M"
_symmetry_group_IT_number 10
_symmetry_cell_setting 'monoclinic'
loop_
_space_group_symop_operation_xyz
x,y,z
-x,y,-z
-x,-y,-z
x,-y,z
loop_
_atom_site_type_symbol
_atom_site_label
_atom_site_fract_x
_atom_site_fract_y
_atom_site_fract_z
Si Si1 0.877708 0.676155 0.308409
Si Si2 0.428860 0.329260 0.306504
Si Si3 0.802263 0.174983 0.802277
Si Si4 0.184077 0.670746 0.306399
Si Si5 0.208625 0.675643 0.000013
Si Si6 0.347183 0.322652 0.999958
Si Si7 0.739065 0.323845 0.308359
O O1 0.871971 0.500000 0.302239
O O2 0.786776 0.739614 0.169148
O O3 0.764202 0.732666 0.264199
O O4 0.088826 0.730615 0.500032
O O5 0.372241 0.500000 0.265601
O O6 0.352712 0.236430 0.292701
O O7 0.649344 0.311258 0.500077
O O8 0.344105 0.268223 0.171115
O O9 0.767095 0.236621 0.707176
O O10 0.786098 0.000000 0.786055
O O11 0.000000 0.228295 0.000000
O O12 0.158763 0.500000 0.265431
O O13 0.997991 0.731955 0.170882
O O14 0.212955 0.500000 0.999826
O O15 0.277676 0.742374 0.999953
O O16 0.346802 0.500000 0.999974
O O17 0.551445 0.260378 0.169064
O O18 0.732456 0.500000 0.302185
#
# Coordination Sequence:
#
# PCOD8063508 Si02
#       7
#     4   4   4   4   4   4   4
#     4   8  13  20  30  46  69  98 135 180 225 265
#     4  10  20  34  52  71  93 124 156 187 232 283
#     4  11  22  35  54  77  97 118 149 192 237 277
#     4  10  20  34  52  71  93 124 156 187 232 283
#     4   9  18  30  42  60  86 115 151 194 228 267
#     4   9  15  22  34  50  71 103 141 182 226 262
#     4   8  13  20  30  46  69  98 135 180 225 265
#
# _framework density 18.529121
#
# number of rings (size 3 to 8) (size 9 to 14) (size 15 to 20)
#    0.000    2.714    1.429    2.143    0.000    5.714 
#    0.000    5.714    0.000    0.000    0.000    0.000 
#    0.000    0.000    0.000    0.000    0.000   11.429 
#
# Total GULP energy -347118.109043 kJ/mol
# GULP energy per Si atom -12397.075323 kJ/mol
# Density = 1.848695 g / cm^3
# Si number density = 18.529121 Si / 1000 Ang^3
#
#
#
# Elastic Constant Matrix: (Units=GPa)
#
#
# Indices 1 2 3 4 5 6 
#
# 1 163.8027 14.6897 96.4600 0.0000 3.1581 0.0000
# 2 14.6897 19.7143 17.7248 0.0000 -0.3184 0.0000
# 3 96.4600 17.7248 166.3752 0.0000 -3.7766 0.0000
# 4 0.0000 0.0000 0.0000 10.3180 0.0000 -1.2453
# 5 3.1581 -0.3184 -3.7766 0.0000 17.5926 0.0000
# 6 0.0000 0.0000 0.0000 -1.2453 0.0000 -2.3100
#
#
#
# Elastic Compliance Matrix: (Units=1/GPa)
#
#
# Indices 1 2 3 4 5 6 
#
# 1 0.009509 -0.002341 -0.005329 0.000000 -0.002893 0.000000
# 2 -0.002341 0.056675 -0.004671 0.000000 0.000443 0.000000
# 3 -0.005329 -0.004671 0.009665 0.000000 0.002947 0.000000
# 4 0.000000 0.000000 0.000000 0.090997 0.000000 -0.049056
# 5 -0.002893 0.000443 0.002947 0.000000 0.058002 0.000000
# 6 0.000000 0.000000 0.000000 -0.049056 0.000000 -0.406449
#
#
# Mechanical properties :
#
#
# Convention : Reuss Voigt Hill
#
# Bulk Modulus (GPa) = 19.54370 67.51571 43.52970
# Shear Modulus (GPa) = -35.74929 19.85462 -7.94733
#
# Velocity S-wave (km/s) = -4.39721 3.27698 -2.07326
# Velocity P-wave (km/s) = 3.90002 7.12986 4.22047
#
# Compressibility (1/GPa) = 0.05116739
#
# Stress axis : x y z
#
# Youngs Moduli (GPa) = 105.16410 17.64441 103.46783
#
# Poissons Ratio (x) = 0.04130 0.55142
# Poissons Ratio (y) = 0.24615 0.48328
# Poissons Ratio (z) = 0.56046 0.08241
#
# Static dielectric constant tensor:
#      x y z
#    x 3.562740 0.000000 -0.022290 
#    y 0.000000 2.712340 0.000000 
#    z -0.022290 0.000000 3.785110 
# 
# 
# High freq. dielectric constant tensor:
#      x y z
#    x 1.715900 0.000000 -0.002360 
#    y 0.000000 1.643840 0.000000 
#    z -0.002360 0.000000 1.739430 
# 
# From -- ./inp_files/86469.got.cif
#   From: 2010.06.25/outbox.cif.g09.slc.cpg/sg10_44_cif.got.tgz:86469.got - 2010.06.27 22:07:45.
