data_PCOD8063903
_publ_section_title
;
Structure prediction by ZEFSAII (Michael W. Deem and Ramdas Pophale) SiO2 
 PCOD8063903
Probable space group: P 2/M
;
_chemical_formula_sum "Si O2"
_cell_formula_units_Z 32
_cell_length_a 25.699396
_cell_length_b 8.822931
_cell_length_c 14.957929
_cell_angle_alpha 90.000000
_cell_angle_beta 150.708604
_cell_angle_gamma 90.000000
_cell_volume 1659.355438
_symmetry_space_group_name_H-M "P 2/M"
_symmetry_group_IT_number 10
_symmetry_cell_setting 'monoclinic'
loop_
_space_group_symop_operation_xyz
x,y,z
-x,y,-z
-x,-y,-z
x,-y,z
loop_
_atom_site_type_symbol
_atom_site_label
_atom_site_fract_x
_atom_site_fract_y
_atom_site_fract_z
Si Si1 0.488910 0.175999 0.260613
Si Si2 0.215486 0.323072 0.704208
Si Si3 0.826386 0.679181 0.997084
Si Si4 0.065227 0.323083 0.319405
Si Si5 0.744780 0.180186 0.052185
Si Si6 0.110277 0.820655 0.206063
Si Si7 0.572389 0.176057 0.026678
Si Si8 0.289462 0.180881 0.337740
O O1 0.593646 0.247499 0.463195
O O2 0.491154 0.000000 0.285006
O O3 0.377818 0.240428 0.133398
O O4 0.494792 0.206495 0.163635
O O5 0.216826 0.500000 0.730063
O O6 0.118592 0.280586 0.493679
O O7 0.201209 0.227803 0.773495
O O8 0.323214 0.278548 0.814639
O O9 0.813958 0.500000 0.979215
O O10 0.739912 0.752070 0.802189
O O11 0.809296 0.741441 0.070435
O O12 0.943039 0.730126 0.139844
O O13 0.074962 0.500000 0.315200
O O14 0.125475 0.239140 0.329200
O O15 0.750188 0.000000 0.051356
O O16 0.206996 0.761659 0.289583
O O17 0.109304 0.000000 0.208010
O O18 0.000000 0.757387 0.000000
O O19 0.606241 0.000000 0.083903
O O20 0.500000 0.227521 0.000000
O O21 0.288274 0.000000 0.330210
#
# Coordination Sequence:
#
# PCOD8063903 Si02
#       8
#     4   4   4   4   4   4   4   4
#     4   8  17  34  55  80 110 145 182 222 277 333
#     4  10  21  38  57  81 113 148 187 230 278 333
#     4  11  23  39  58  81 110 148 189 231 281 336
#     4  10  23  39  56  80 115 155 188 222 278 344
#     4  10  21  40  62  83 109 144 186 235 285 333
#     4  10  20  34  56  85 114 144 185 237 278 316
#     4   9  18  33  55  82 112 148 189 229 274 330
#     4  10  20  36  57  83 114 147 185 228 276 331
#
# _framework density 19.284596000000001
#
# number of rings (size 3 to 8) (size 9 to 14) (size 15 to 20)
#    0.000    2.250    1.250    1.875    1.750    3.500 
#    0.000    8.125    0.000    0.000    0.000    0.000 
#    0.000    0.000    0.000    0.000    0.000    0.000 
#
# Total GULP energy -396840.982479 kJ/mol
# GULP energy per Si atom -12401.280702 kJ/mol
# Density = 1.924070 g / cm^3
# Si number density = 19.284596 Si / 1000 Ang^3
#
#
#
# Elastic Constant Matrix: (Units=GPa)
#
#
# Indices 1 2 3 4 5 6 
#
# 1 95.8589 17.2535 9.5352 0.0000 -9.0326 0.0000
# 2 17.2535 28.5829 20.7488 0.0000 -0.6088 0.0000
# 3 9.5352 20.7488 90.4891 0.0000 -14.3756 0.0000
# 4 0.0000 0.0000 0.0000 26.2617 0.0000 -3.4380
# 5 -9.0326 -0.6088 -14.3756 0.0000 17.6838 0.0000
# 6 0.0000 0.0000 0.0000 -3.4380 0.0000 28.6070
#
#
#
# Elastic Compliance Matrix: (Units=1/GPa)
#
#
# Indices 1 2 3 4 5 6 
#
# 1 0.012547 -0.008799 0.001912 0.000000 0.007661 0.000000
# 2 -0.008799 0.048986 -0.012345 0.000000 -0.012844 0.000000
# 3 0.001912 -0.012345 0.015810 0.000000 0.013404 0.000000
# 4 0.000000 0.000000 0.000000 0.038687 0.000000 0.004649
# 5 0.007661 -0.012844 0.013404 0.000000 0.070916 0.000000
# 6 0.000000 0.000000 0.000000 0.004649 0.000000 0.035515
#
#
# Mechanical properties :
#
#
# Convention : Reuss Voigt Hill
#
# Bulk Modulus (GPa) = 25.72117 34.44509 30.08313
# Shear Modulus (GPa) = 18.25584 25.67005 21.96295
#
# Velocity S-wave (km/s) = 3.08011 3.65241 3.37840
# Velocity P-wave (km/s) = 5.10060 5.97386 5.55442
#
# Compressibility (1/GPa) = 0.03887847
#
# Stress axis : x y z
#
# Youngs Moduli (GPa) = 79.69800 20.41419 63.25214
#
# Poissons Ratio (x) = 0.17963 -0.12097
# Poissons Ratio (y) = 0.70127 0.78088
# Poissons Ratio (z) = -0.15242 0.25202
#
# Static dielectric constant tensor:
#      x y z
#    x 3.552590 0.000000 0.076150 
#    y 0.000000 3.294560 0.000000 
#    z 0.076150 0.000000 3.746010 
# 
# 
# High freq. dielectric constant tensor:
#      x y z
#    x 1.755820 0.000000 -0.003570 
#    y 0.000000 1.732060 0.000000 
#    z -0.003570 0.000000 1.754620 
# 
# From -- ./inp_files/66484.got.cif
#   From: 2010.06.25/outbox.cif.g09.slc.cpg/sg10_34_cif.got.tgz:66484.got - 2010.06.27 22:07:45.
