data_PCOD8063941
_publ_section_title
;
Structure prediction by ZEFSAII (Michael W. Deem and Ramdas Pophale) SiO2 
 PCOD8063941
Probable space group: P 2/M
;
_chemical_formula_sum "Si O2"
_cell_formula_units_Z 26
_cell_length_a 19.930528
_cell_length_b 9.396573
_cell_length_c 8.217884
_cell_angle_alpha 90.000000
_cell_angle_beta 128.120820
_cell_angle_gamma 90.000000
_cell_volume 1210.774844
_symmetry_space_group_name_H-M "P 2/M"
_symmetry_group_IT_number 10
_symmetry_cell_setting 'monoclinic'
loop_
_space_group_symop_operation_xyz
x,y,z
-x,y,-z
-x,-y,-z
x,-y,z
loop_
_atom_site_type_symbol
_atom_site_label
_atom_site_fract_x
_atom_site_fract_y
_atom_site_fract_z
Si Si1 0.446681 0.837916 0.771969
Si Si2 0.314725 0.660051 0.166087
Si Si3 0.733004 0.169609 0.596830
Si Si4 0.893895 0.840952 0.636107
Si Si5 0.500000 0.744509 0.500000
Si Si6 0.959794 0.339065 0.261711
Si Si7 0.811682 0.160435 0.162436
O O1 0.350438 0.776046 0.628572
O O2 0.485707 0.831222 0.646486
O O3 0.441060 0.000000 0.814363
O O4 0.500000 0.760997 0.000000
O O5 0.279761 0.500000 0.107074
O O6 0.268566 0.749945 0.236429
O O7 0.416657 0.650959 0.336936
O O8 0.278111 0.750325 0.957054
O O9 0.819766 0.217759 0.641186
O O10 0.727870 0.000000 0.614551
O O11 0.854549 0.847889 0.399649
O O12 0.974072 0.735005 0.764592
O O13 0.923469 0.000000 0.730974
O O14 0.940747 0.500000 0.174288
O O15 0.874135 0.245204 0.132634
O O16 0.000000 0.341633 0.500000
O O17 0.795410 0.000000 0.072316
#
# Coordination Sequence:
#
# PCOD8063941 Si02
#       7
#     4   4   4   4   2   4   4
#     4   9  18  32  56  86 116 148 193 246 293 348
#     4  11  23  39  57  78 111 150 190 233 283 341
#     4   9  19  36  55  80 111 144 183 232 288 338
#     4   9  18  33  56  83 113 145 182 231 284 336
#     4  10  22  38  58  78 117 158 197 238 301 346
#     4   9  17  31  52  80 115 149 184 225 275 335
#     4  10  20  34  57  85 111 143 187 233 282 337
#
# _framework density 21.473852000000001
#
# number of rings (size 3 to 8) (size 9 to 14) (size 15 to 20)
#    0.000    2.462    0.000    1.846    2.154    4.923 
#    0.000    0.769    0.000    6.923    0.000    0.000 
#    0.000    0.000    0.000    0.000    0.000    0.000 
#
# Total GULP energy -322106.534009 kJ/mol
# GULP energy per Si atom -12388.712846 kJ/mol
# Density = 2.142498 g / cm^3
# Si number density = 21.473852 Si / 1000 Ang^3
#
#
#
# Elastic Constant Matrix: (Units=GPa)
#
#
# Indices 1 2 3 4 5 6 
#
# 1 98.8712 28.9800 -0.9148 0.0000 10.5043 0.0000
# 2 28.9800 120.5105 11.8554 0.0000 21.1335 0.0000
# 3 -0.9148 11.8554 48.8111 0.0000 10.2609 0.0000
# 4 0.0000 0.0000 0.0000 22.0937 0.0000 5.7055
# 5 10.5043 21.1335 10.2609 0.0000 27.8865 0.0000
# 6 0.0000 0.0000 0.0000 5.7055 0.0000 19.1013
#
#
#
# Elastic Compliance Matrix: (Units=1/GPa)
#
#
# Indices 1 2 3 4 5 6 
#
# 1 0.011113 -0.002289 0.001387 0.000000 -0.002961 0.000000
# 2 -0.002289 0.010076 -0.001156 0.000000 -0.006348 0.000000
# 3 0.001387 -0.001156 0.022457 0.000000 -0.007909 0.000000
# 4 0.000000 0.000000 0.000000 0.049045 0.000000 -0.014650
# 5 -0.002961 -0.006348 -0.007909 0.000000 0.044696 0.000000
# 6 0.000000 0.000000 0.000000 -0.014650 0.000000 0.056728
#
#
# Mechanical properties :
#
#
# Convention : Reuss Voigt Hill
#
# Bulk Modulus (GPa) = 25.29846 38.67045 31.98445
# Shear Modulus (GPa) = 23.65111 29.03445 26.34278
#
# Velocity S-wave (km/s) = 3.32232 3.68106 3.50628
# Velocity P-wave (km/s) = 5.15012 6.00951 5.59633
#
# Compressibility (1/GPa) = 0.03952810
#
# Stress axis : x y z
#
# Youngs Moduli (GPa) = 89.98739 99.25044 44.53053
#
# Poissons Ratio (x) = 0.22723 -0.06176
# Poissons Ratio (y) = 0.20603 0.05146
# Poissons Ratio (z) = -0.12480 0.11470
#
# Static dielectric constant tensor:
#      x y z
#    x 3.897990 0.000000 0.217520 
#    y 0.000000 3.780110 0.000000 
#    z 0.217520 0.000000 4.195060 
# 
# 
# High freq. dielectric constant tensor:
#      x y z
#    x 1.833090 0.000000 0.018650 
#    y 0.000000 1.821530 0.000000 
#    z 0.018650 0.000000 1.851980 
# 
# From -- ./inp_files/34187.got.cif
#   From: 2010.06.25/outbox.cif.g09.slc.cpg/sg10_18_cif.got.tgz:34187.got - 2010.06.27 22:07:45.
