data_PCOD8063344
_publ_section_title
;
Structure prediction by ZEFSAII (Michael W. Deem and Ramdas Pophale) SiO2 
 PCOD8063344
Probable space group: P 2/M
;
_chemical_formula_sum "Si O2"
_cell_formula_units_Z 32
_cell_length_a 22.019781
_cell_length_b 9.004006
_cell_length_c 27.331439
_cell_angle_alpha 90.000000
_cell_angle_beta 18.046475
_cell_angle_gamma 90.000000
_cell_volume 1678.712516
_symmetry_space_group_name_H-M "P 2/M"
_symmetry_group_IT_number 10
_symmetry_cell_setting 'monoclinic'
loop_
_space_group_symop_operation_xyz
x,y,z
-x,y,-z
-x,-y,-z
x,-y,z
loop_
_atom_site_type_symbol
_atom_site_label
_atom_site_fract_x
_atom_site_fract_y
_atom_site_fract_z
Si Si1 0.932446 0.168421 0.840313
Si Si2 0.803739 0.328012 0.677318
Si Si3 0.589572 0.826495 0.030750
Si Si4 0.195253 0.827855 0.546554
Si Si5 0.195077 0.167473 0.818715
Si Si6 0.856830 0.326909 0.750541
Si Si7 0.024406 0.327889 0.092795
Si Si8 0.407974 0.326538 0.737165
O O1 0.967772 0.280909 0.857098
O O2 0.105613 0.193601 0.668979
O O3 0.933830 0.000000 0.859170
O O4 0.724831 0.205113 0.974188
O O5 0.761070 0.500000 0.698712
O O6 0.626705 0.231175 0.791029
O O7 0.823442 0.297410 0.719395
O O8 0.000000 0.274668 0.500000
O O9 0.589370 0.000000 0.017959
O O10 0.670926 0.738931 0.921490
O O11 0.403859 0.749489 0.383418
O O12 0.056371 0.754315 0.612620
O O13 0.218744 0.000000 0.515338
O O14 0.363960 0.257909 0.717475
O O15 0.150974 0.241059 0.800074
O O16 0.269390 0.000000 0.753569
O O17 0.000000 0.172354 0.000000
O O18 0.875469 0.500000 0.748686
O O19 0.973523 0.500000 0.128053
O O20 0.231832 0.291850 0.909104
O O21 0.445464 0.500000 0.701671
#
# Coordination Sequence:
#
# PCOD8063344 Si02
#       8
#     4   4   4   4   4   4   4   4
#     4   9  20  37  54  76 106 138 174 217 263 312
#     4  10  22  38  55  79 111 142 174 217 266 313
#     4  10  21  37  57  80 106 139 179 219 261 313
#     4  10  21  37  56  79 107 139 177 220 265 312
#     4   9  17  31  52  76 104 140 178 216 261 312
#     4  10  20  36  58  80 104 139 179 216 260 315
#     4  10  20  33  53  80 107 138 176 218 263 313
#     4  10  20  34  53  79 109 139 175 218 263 314
#
# _framework density 19.062228999999999
#
# number of rings (size 3 to 8) (size 9 to 14) (size 15 to 20)
#    0.000    2.250    0.000    3.375    0.000    9.750 
#    0.000    4.375    0.000    3.750    0.000    0.000 
#    0.000    0.000    0.000    0.000    0.000    0.000 
#
# Total GULP energy -396935.028126 kJ/mol
# GULP energy per Si atom -12404.219629 kJ/mol
# Density = 1.901884 g / cm^3
# Si number density = 19.062229 Si / 1000 Ang^3
#
#
#
# Elastic Constant Matrix: (Units=GPa)
#
#
# Indices 1 2 3 4 5 6 
#
# 1 37.3933 10.1771 -15.3683 0.0000 2.7999 0.0000
# 2 10.1771 81.8836 5.7892 0.0000 -3.6329 0.0000
# 3 -15.3683 5.7892 28.6013 0.0000 -9.7586 0.0000
# 4 0.0000 0.0000 0.0000 32.5719 0.0000 -7.2390
# 5 2.7999 -3.6329 -9.7586 0.0000 21.5677 0.0000
# 6 0.0000 0.0000 0.0000 -7.2390 0.0000 32.2311
#
#
#
# Elastic Compliance Matrix: (Units=1/GPa)
#
#
# Indices 1 2 3 4 5 6 
#
# 1 0.037469 -0.006077 0.022887 0.000000 0.004468 0.000000
# 2 -0.006077 0.013398 -0.005839 0.000000 0.000404 0.000000
# 3 0.022887 -0.005839 0.055692 0.000000 0.021244 0.000000
# 4 0.000000 0.000000 0.000000 0.032314 0.000000 0.007258
# 5 0.004468 0.000404 0.021244 0.000000 0.055466 0.000000
# 6 0.000000 0.000000 0.000000 0.007258 0.000000 0.032656
#
#
# Mechanical properties :
#
#
# Convention : Reuss Voigt Hill
#
# Bulk Modulus (GPa) = 7.78203 16.56377 12.17290
# Shear Modulus (GPa) = 20.17055 27.09282 23.63169
#
# Velocity S-wave (km/s) = 3.25644 3.77408 3.52478
# Velocity P-wave (km/s) = 4.26972 5.26306 4.79219
#
# Compressibility (1/GPa) = 0.12850118
#
# Stress axis : x y z
#
# Youngs Moduli (GPa) = 26.68902 74.63531 17.95596
#
# Poissons Ratio (x) = 0.45354 -0.41097
# Poissons Ratio (y) = 0.16218 0.10485
# Poissons Ratio (z) = -0.61084 0.43583
#
# Static dielectric constant tensor:
#      x y z
#    x 3.412160 0.000000 -0.134100 
#    y 0.000000 3.581830 0.000000 
#    z -0.134100 0.000000 3.408720 
# 
# 
# High freq. dielectric constant tensor:
#      x y z
#    x 1.740820 0.000000 -0.013660 
#    y 0.000000 1.753570 0.000000 
#    z -0.013660 0.000000 1.728850 
# 
# From -- ./inp_files/86828.got.cif
#   From: 2010.06.25/outbox.cif.g09.slc.cpg/sg10_44_cif.got.tgz:86828.got - 2010.06.27 22:07:45.
