data_PCOD8063617
_publ_section_title
;
Structure prediction by ZEFSAII (Michael W. Deem and Ramdas Pophale) SiO2 
 PCOD8063617
Probable space group: P 2/M
;
_chemical_formula_sum "Si O2"
_cell_formula_units_Z 24
_cell_length_a 24.367937
_cell_length_b 8.939014
_cell_length_c 18.150990
_cell_angle_alpha 90.000000
_cell_angle_beta 160.831072
_cell_angle_gamma 90.000000
_cell_volume 1298.229911
_symmetry_space_group_name_H-M "P 2/M"
_symmetry_group_IT_number 10
_symmetry_cell_setting 'monoclinic'
loop_
_space_group_symop_operation_xyz
x,y,z
-x,y,-z
-x,-y,-z
x,-y,z
loop_
_atom_site_type_symbol
_atom_site_label
_atom_site_fract_x
_atom_site_fract_y
_atom_site_fract_z
Si Si1 0.631705 0.175970 0.365597
Si Si2 0.497379 0.177407 0.580275
Si Si3 0.323490 0.823549 0.743545
Si Si4 0.830120 0.824257 0.754768
Si Si5 0.335848 0.676341 0.077582
Si Si6 0.983278 0.675805 0.562293
O O1 0.681826 0.230025 0.348011
O O2 0.790212 0.215216 0.619046
O O3 0.465563 0.257951 0.182815
O O4 0.591434 0.000000 0.317006
O O5 0.500000 0.233324 0.500000
O O6 0.321069 0.234805 0.387482
O O7 0.640786 0.254532 0.811187
O O8 0.521547 0.000000 0.617164
O O9 0.174678 0.750197 0.599661
O O10 0.302645 0.000000 0.723605
O O11 0.500000 0.769934 0.000000
O O12 0.845691 0.000000 0.785271
O O13 0.000000 0.746769 0.000000
O O14 0.361725 0.500000 0.113465
O O15 0.150143 0.720769 0.817444
O O16 0.952432 0.500000 0.523682
O O17 0.000000 0.735140 0.500000
#
# Coordination Sequence:
#
# PCOD8063617 Si02
#       6
#     4   4   4   4   4   4
#     4   9  18  33  52  74 101 132 167 209 258 310
#     4   9  18  32  51  74 100 134 173 210 255 310
#     4  10  21  35  53  79 105 130 167 216 265 308
#     4   8  14  26  45  68  93 122 158 199 240 288
#     4  10  20  34  53  76 103 137 176 217 259 303
#     4  10  22  38  54  75 104 140 179 213 253 311
#
# _framework density 18.486708
#
# number of rings (size 3 to 8) (size 9 to 14) (size 15 to 20)
#    0.000    2.667    0.000    2.500    0.000    4.333 
#    0.000    3.333    0.000    8.000    0.000    0.000 
#    0.000    0.000    0.000    0.000    0.000    0.000 
#
# Total GULP energy -297550.636494 kJ/mol
# GULP energy per Si atom -12397.943187 kJ/mol
# Density = 1.844463 g / cm^3
# Si number density = 18.486708 Si / 1000 Ang^3
#
#
#
# Elastic Constant Matrix: (Units=GPa)
#
#
# Indices 1 2 3 4 5 6 
#
# 1 172.2130 38.0935 88.8552 0.0000 -20.7631 0.0000
# 2 38.0935 40.1899 43.6168 0.0000 -2.2142 0.0000
# 3 88.8552 43.6168 165.2485 0.0000 -13.3875 0.0000
# 4 0.0000 0.0000 0.0000 22.3878 0.0000 1.2788
# 5 -20.7631 -2.2142 -13.3875 0.0000 28.9296 0.0000
# 6 0.0000 0.0000 0.0000 1.2788 0.0000 24.4349
#
#
#
# Elastic Compliance Matrix: (Units=1/GPa)
#
#
# Indices 1 2 3 4 5 6 
#
# 1 0.009119 -0.004870 -0.003239 0.000000 0.004673 0.000000
# 2 -0.004870 0.037548 -0.007628 0.000000 -0.004152 0.000000
# 3 -0.003239 -0.007628 0.009944 0.000000 0.001693 0.000000
# 4 0.000000 0.000000 0.000000 0.044801 0.000000 -0.002345
# 5 0.004673 -0.004152 0.001693 0.000000 0.038386 0.000000
# 6 0.000000 0.000000 0.000000 -0.002345 0.000000 0.041048
#
#
# Mechanical properties :
#
#
# Convention : Reuss Voigt Hill
#
# Bulk Modulus (GPa) = 39.78470 79.86469 59.82469
# Shear Modulus (GPa) = 22.65523 28.95618 25.80571
#
# Velocity S-wave (km/s) = 3.50449 3.96197 3.74024
# Velocity P-wave (km/s) = 6.15977 8.01402 7.14728
#
# Compressibility (1/GPa) = 0.02513529
#
# Stress axis : x y z
#
# Youngs Moduli (GPa) = 109.66437 26.63248 100.56517
#
# Poissons Ratio (x) = 0.12971 0.32574
# Poissons Ratio (y) = 0.53410 0.76714
# Poissons Ratio (z) = 0.35522 0.20316
#
# Static dielectric constant tensor:
#      x y z
#    x 3.558940 0.000000 -0.210440 
#    y 0.000000 3.124720 0.000000 
#    z -0.210440 0.000000 3.689060 
# 
# 
# High freq. dielectric constant tensor:
#      x y z
#    x 1.724040 0.000000 -0.012110 
#    y 0.000000 1.690660 0.000000 
#    z -0.012110 0.000000 1.727400 
# 
# From -- ./inp_files/27201.got.cif
#   From: 2010.06.25/outbox.cif.g09.slc.cpg/sg10_14_cif.got.tgz:27201.got - 2010.06.27 22:07:45.
