data_PCOD8063282
_publ_section_title
;
Structure prediction by ZEFSAII (Michael W. Deem and Ramdas Pophale) SiO2 
 PCOD8063282
Probable space group: P 2/M
;
_chemical_formula_sum "Si O2"
_cell_formula_units_Z 28
_cell_length_a 19.639963
_cell_length_b 9.184277
_cell_length_c 16.902110
_cell_angle_alpha 90.000000
_cell_angle_beta 30.976387
_cell_angle_gamma 90.000000
_cell_volume 1569.162357
_symmetry_space_group_name_H-M "P 2/M"
_symmetry_group_IT_number 10
_symmetry_cell_setting 'monoclinic'
loop_
_space_group_symop_operation_xyz
x,y,z
-x,y,-z
-x,-y,-z
x,-y,z
loop_
_atom_site_type_symbol
_atom_site_label
_atom_site_fract_x
_atom_site_fract_y
_atom_site_fract_z
Si Si1 0.966405 0.332977 0.624317
Si Si2 0.732212 0.173300 0.935357
Si Si3 0.159047 0.827807 0.671846
Si Si4 0.145016 0.172673 0.025824
Si Si5 0.851023 0.172481 0.147470
Si Si6 0.508570 0.330054 0.900449
Si Si7 0.228312 0.330692 0.453365
O O1 0.929692 0.500000 0.680597
O O2 0.842650 0.230488 0.765171
O O3 0.000000 0.314966 0.500000
O O4 0.091944 0.279248 0.549497
O O5 0.767667 0.231164 0.988394
O O6 0.726902 0.000000 0.936002
O O7 0.591396 0.237978 0.052905
O O8 0.215418 0.777596 0.702991
O O9 0.248682 0.752991 0.515770
O O10 0.006877 0.774771 0.814203
O O11 0.170740 0.000000 0.649684
O O12 0.144489 0.000000 0.027810
O O13 0.209070 0.227256 0.877328
O O14 0.851220 0.000000 0.147349
O O15 0.000000 0.230608 0.000000
O O16 0.473386 0.500000 0.927400
O O17 0.654433 0.293194 0.723884
O O18 0.500000 0.280284 0.000000
O O19 0.226027 0.500000 0.475016
#
# Coordination Sequence:
#
# PCOD8063282 Si02
#       7
#     4   4   4   4   4   4   4
#     4  10  20  35  54  74  98 133 173 208 249 307
#     4  11  21  33  53  81 108 130 160 213 268 304
#     4   9  15  27  49  75 103 133 165 204 250 299
#     4   8  14  26  45  74 107 133 161 200 249 300
#     4   7  11  21  42  70  99 134 168 194 233 296
#     4  10  22  41  58  70  94 138 184 214 245 303
#     4  10  20  33  52  75  99 130 170 216 256 296
#
# _framework density 17.843914999999999
#
# number of rings (size 3 to 8) (size 9 to 14) (size 15 to 20)
#    0.000    2.714    1.429    3.000    0.000    3.429 
#    0.000    1.429    0.000    6.429    0.000    6.000 
#    0.000    0.000    0.000    0.000    0.000    0.000 
#
# Total GULP energy -346938.472089 kJ/mol
# GULP energy per Si atom -12390.659717 kJ/mol
# Density = 1.780330 g / cm^3
# Si number density = 17.843915 Si / 1000 Ang^3
#
#
#
# Elastic Constant Matrix: (Units=GPa)
#
#
# Indices 1 2 3 4 5 6 
#
# 1 98.7720 25.9506 29.0241 0.0000 23.8363 0.0000
# 2 25.9506 35.4706 23.6921 0.0000 4.1182 0.0000
# 3 29.0241 23.6921 64.0228 0.0000 18.7943 0.0000
# 4 0.0000 0.0000 0.0000 24.8870 0.0000 -0.9783
# 5 23.8363 4.1182 18.7943 0.0000 34.1815 0.0000
# 6 0.0000 0.0000 0.0000 -0.9783 0.0000 11.3832
#
#
#
# Elastic Compliance Matrix: (Units=1/GPa)
#
#
# Indices 1 2 3 4 5 6 
#
# 1 0.014960 -0.009470 -0.000656 0.000000 -0.008931 0.000000
# 2 -0.009470 0.043841 -0.014690 0.000000 0.009399 0.000000
# 3 -0.000656 -0.014690 0.024683 0.000000 -0.011345 0.000000
# 4 0.000000 0.000000 0.000000 0.040318 0.000000 0.003465
# 5 -0.008931 0.009399 -0.011345 0.000000 0.040589 0.000000
# 6 0.000000 0.000000 0.000000 0.003465 0.000000 0.088147
#
#
# Mechanical properties :
#
#
# Convention : Reuss Voigt Hill
#
# Bulk Modulus (GPa) = 29.53921 39.51099 34.52510
# Shear Modulus (GPa) = 15.95129 22.06358 19.00744
#
# Velocity S-wave (km/s) = 2.99312 3.52017 3.26729
# Velocity P-wave (km/s) = 5.34183 6.22196 5.79862
#
# Compressibility (1/GPa) = 0.03385331
#
# Stress axis : x y z
#
# Youngs Moduli (GPa) = 66.84287 22.80952 40.51361
#
# Poissons Ratio (x) = 0.21601 0.02657
# Poissons Ratio (y) = 0.63301 0.59513
# Poissons Ratio (z) = 0.04384 0.33507
#
# Static dielectric constant tensor:
#      x y z
#    x 3.787190 0.000000 0.339170 
#    y 0.000000 2.998060 0.000000 
#    z 0.339170 0.000000 3.185330 
# 
# 
# High freq. dielectric constant tensor:
#      x y z
#    x 1.701390 0.000000 0.028330 
#    y 0.000000 1.656840 0.000000 
#    z 0.028330 0.000000 1.670050 
# 
# From -- ./inp_files/37015.got.cif
#   From: 2010.06.25/outbox.cif.g09.slc.cpg/sg10_19_cif.got.tgz:37015.got - 2010.06.27 22:07:45.
