data_PCOD8063739
_publ_section_title
;
Structure prediction by ZEFSAII (Michael W. Deem and Ramdas Pophale) SiO2 
 PCOD8063739
Probable space group: P 2/M
;
_chemical_formula_sum "Si O2"
_cell_formula_units_Z 28
_cell_length_a 20.324573
_cell_length_b 8.516561
_cell_length_c 23.336185
_cell_angle_alpha 90.000000
_cell_angle_beta 19.771272
_cell_angle_gamma 90.000000
_cell_volume 1366.388049
_symmetry_space_group_name_H-M "P 2/M"
_symmetry_group_IT_number 10
_symmetry_cell_setting 'monoclinic'
loop_
_space_group_symop_operation_xyz
x,y,z
-x,y,-z
-x,-y,-z
x,-y,z
loop_
_atom_site_type_symbol
_atom_site_label
_atom_site_fract_x
_atom_site_fract_y
_atom_site_fract_z
Si Si1 0.830300 0.180462 0.101565
Si Si2 0.763583 0.171556 0.034468
Si Si3 0.432615 0.187416 0.914760
Si Si4 0.492270 0.677852 0.439262
Si Si5 0.940795 0.684714 0.719475
Si Si6 0.877565 0.183204 0.544203
Si Si7 0.157373 0.827158 0.646345
O O1 0.792291 0.265145 0.070969
O O2 0.635275 0.193283 0.296843
O O3 0.889996 0.000000 0.041604
O O4 0.000000 0.263660 0.000000
O O5 0.623964 0.255366 0.102275
O O6 0.673191 0.000000 0.123094
O O7 0.969056 0.148826 0.837743
O O8 0.656432 0.239926 0.740032
O O9 0.408752 0.000000 0.935953
O O10 0.280372 0.253167 0.087067
O O11 0.500000 0.708006 0.500000
O O12 0.556304 0.500000 0.372782
O O13 0.287339 0.709489 0.577149
O O14 0.934657 0.500000 0.732076
O O15 0.016009 0.726777 0.594530
O O16 0.101412 0.754465 0.630984
O O17 0.000000 0.220917 0.500000
O O18 0.876657 0.000000 0.529343
O O19 0.253767 0.000000 0.557569
#
# Coordination Sequence:
#
# PCOD8063739 Si02
#       7
#     4   4   4   4   4   4   4
#     4  10  20  34  54  80 108 143 192 244 292 348
#     4   8  16  32  55  82 106 137 186 243 294 340
#     4   9  19  38  62  87 119 161 209 254 303 363
#     4  11  24  38  52  78 117 155 191 238 299 359
#     4  11  23  39  61  92 129 163 200 250 316 379
#     4  10  22  40  64  93 124 163 213 263 305 357
#     4  10  20  38  63  85 110 149 198 246 292 351
#
# _framework density 20.491983000000001
#
# number of rings (size 3 to 8) (size 9 to 14) (size 15 to 20)
#    0.000    2.143    0.000    3.857    2.000    4.000 
#    0.000    6.429    0.000    0.000    0.000    0.000 
#    0.000    0.000    0.000    0.000    0.000    0.000 
#
# Total GULP energy -346939.115894 kJ/mol
# GULP energy per Si atom -12390.682711 kJ/mol
# Density = 2.044534 g / cm^3
# Si number density = 20.491983 Si / 1000 Ang^3
#
#
#
# Elastic Constant Matrix: (Units=GPa)
#
#
# Indices 1 2 3 4 5 6 
#
# 1 139.6858 36.1899 72.2827 0.0000 -3.1464 0.0000
# 2 36.1899 60.7294 23.6347 0.0000 7.1665 0.0000
# 3 72.2827 23.6347 95.3981 0.0000 -9.7198 0.0000
# 4 0.0000 0.0000 0.0000 15.2091 0.0000 -1.0898
# 5 -3.1464 7.1665 -9.7198 0.0000 35.7736 0.0000
# 6 0.0000 0.0000 0.0000 -1.0898 0.0000 33.4195
#
#
#
# Elastic Compliance Matrix: (Units=1/GPa)
#
#
# Indices 1 2 3 4 5 6 
#
# 1 0.012691 -0.004159 -0.008626 0.000000 -0.000394 0.000000
# 2 -0.004159 0.020506 -0.002452 0.000000 -0.005140 0.000000
# 3 -0.008626 -0.002452 0.018099 0.000000 0.004650 0.000000
# 4 0.000000 0.000000 0.000000 0.065904 0.000000 0.002149
# 5 -0.000394 -0.005140 0.004650 0.000000 0.030212 0.000000
# 6 0.000000 0.000000 0.000000 0.002149 0.000000 0.029993
#
#
# Mechanical properties :
#
#
# Convention : Reuss Voigt Hill
#
# Bulk Modulus (GPa) = 48.02717 62.22532 55.12625
# Shear Modulus (GPa) = 23.27511 27.79416 25.53464
#
# Velocity S-wave (km/s) = 3.37384 3.68685 3.53381
# Velocity P-wave (km/s) = 6.21812 6.96817 6.60380
#
# Compressibility (1/GPa) = 0.02082155
#
# Stress axis : x y z
#
# Youngs Moduli (GPa) = 78.79474 48.76565 55.25028
#
# Poissons Ratio (x) = 0.20284 0.47657
# Poissons Ratio (y) = 0.32775 0.13550
# Poissons Ratio (z) = 0.67966 0.11960
#
# Static dielectric constant tensor:
#      x y z
#    x 3.710650 0.000000 0.081840 
#    y 0.000000 3.562050 0.000000 
#    z 0.081840 0.000000 3.511410 
# 
# 
# High freq. dielectric constant tensor:
#      x y z
#    x 1.814570 0.000000 -0.002220 
#    y 0.000000 1.771730 0.000000 
#    z -0.002220 0.000000 1.800630 
# 
# From -- ./inp_files/86538.got.cif
#   From: 2010.06.25/outbox.cif.g09.slc.cpg/sg10_44_cif.got.tgz:86538.got - 2010.06.27 22:07:45.
