data_PCOD8063824
_publ_section_title
;
Structure prediction by ZEFSAII (Michael W. Deem and Ramdas Pophale) SiO2 
 PCOD8063824
Probable space group: P 2/M
;
_chemical_formula_sum "Si O2"
_cell_formula_units_Z 24
_cell_length_a 10.175347
_cell_length_b 9.194115
_cell_length_c 13.338262
_cell_angle_alpha 90.000000
_cell_angle_beta 101.342845
_cell_angle_gamma 90.000000
_cell_volume 1223.465607
_symmetry_space_group_name_H-M "P 2/M"
_symmetry_group_IT_number 10
_symmetry_cell_setting 'monoclinic'
loop_
_space_group_symop_operation_xyz
x,y,z
-x,y,-z
-x,-y,-z
x,-y,z
loop_
_atom_site_type_symbol
_atom_site_label
_atom_site_fract_x
_atom_site_fract_y
_atom_site_fract_z
Si Si1 0.801833 0.831073 0.101958
Si Si2 0.365598 0.828026 0.535727
Si Si3 0.060422 0.668233 0.200123
Si Si4 0.701903 0.830932 0.865253
Si Si5 0.407498 0.172592 0.766983
Si Si6 0.894521 0.667739 0.565751
O O1 0.703875 0.767553 0.172928
O O2 0.940090 0.744151 0.122879
O O3 0.835111 0.000000 0.124881
O O4 0.729974 0.805768 0.985947
O O5 0.500000 0.777974 0.500000
O O6 0.371315 0.771448 0.650772
O O7 0.241580 0.757622 0.460250
O O8 0.348128 0.000000 0.528245
O O9 0.062818 0.500000 0.170430
O O10 0.199302 0.739703 0.188957
O O11 0.040066 0.690233 0.315658
O O12 0.553564 0.770308 0.820687
O O13 0.716233 0.000000 0.837995
O O14 0.409013 0.000000 0.772493
O O15 0.860295 0.500000 0.539551
O O16 0.000000 0.727618 0.500000
#
# Coordination Sequence:
#
# PCOD8063824 Si02
#       6
#     4   4   4   4   4   4
#     4  10  20  35  57  82 106 139 181 219 260 312
#     4  10  20  34  55  83 111 139 173 217 268 316
#     4  11  23  37  54  78 109 143 177 218 267 314
#     4  10  20  36  58  81 107 140 177 218 263 314
#     4   9  18  34  56  82 110 138 174 220 265 312
#     4  10  22  39  56  76 105 142 182 220 261 313
#
# _framework density 19.616408
#
# number of rings (size 3 to 8) (size 9 to 14) (size 15 to 20)
#    0.000    2.000    0.000    3.500    0.000    8.000 
#    0.000    1.667    0.000    2.000    0.000    0.000 
#    0.000    0.000    0.000    0.000    0.000    0.000 
#
# Total GULP energy -297725.296647 kJ/mol
# GULP energy per Si atom -12405.220694 kJ/mol
# Density = 1.957176 g / cm^3
# Si number density = 19.616408 Si / 1000 Ang^3
#
#
#
# Elastic Constant Matrix: (Units=GPa)
#
#
# Indices 1 2 3 4 5 6 
#
# 1 98.0136 29.3370 7.5105 0.0000 1.4302 0.0000
# 2 29.3370 50.0257 22.2572 0.0000 2.2765 0.0000
# 3 7.5105 22.2572 64.1519 0.0000 -3.3856 0.0000
# 4 0.0000 0.0000 0.0000 57.1764 0.0000 18.4236
# 5 1.4302 2.2765 -3.3856 0.0000 44.2694 0.0000
# 6 0.0000 0.0000 0.0000 18.4236 0.0000 24.1232
#
#
#
# Elastic Compliance Matrix: (Units=1/GPa)
#
#
# Indices 1 2 3 4 5 6 
#
# 1 0.012463 -0.007883 0.001281 0.000000 0.000101 0.000000
# 2 -0.007883 0.028777 -0.009163 0.000000 -0.001926 0.000000
# 3 0.001281 -0.009163 0.018715 0.000000 0.001861 0.000000
# 4 0.000000 0.000000 0.000000 0.023199 0.000000 -0.017718
# 5 0.000101 -0.001926 0.001861 0.000000 0.022827 0.000000
# 6 0.000000 0.000000 0.000000 -0.017718 0.000000 0.054985
#
#
# Mechanical properties :
#
#
# Convention : Reuss Voigt Hill
#
# Bulk Modulus (GPa) = 35.17970 36.71118 35.94544
# Shear Modulus (GPa) = 24.75608 35.31955 30.03782
#
# Velocity S-wave (km/s) = 3.55633 4.24785 3.91738
# Velocity P-wave (km/s) = 5.90221 6.54325 6.23098
#
# Compressibility (1/GPa) = 0.02842548
#
# Stress axis : x y z
#
# Youngs Moduli (GPa) = 80.24022 34.74995 53.43252
#
# Poissons Ratio (x) = 0.27394 -0.06846
# Poissons Ratio (y) = 0.63255 0.48959
# Poissons Ratio (z) = -0.10281 0.31841
#
# Static dielectric constant tensor:
#      x y z
#    x 3.702030 0.000000 -0.129910 
#    y 0.000000 3.310080 0.000000 
#    z -0.129910 0.000000 3.707900 
# 
# 
# High freq. dielectric constant tensor:
#      x y z
#    x 1.777230 0.000000 -0.002990 
#    y 0.000000 1.735220 0.000000 
#    z -0.002990 0.000000 1.780380 
# 
# From -- ./inp_files/27342.got.cif
#   From: 2010.06.25/outbox.cif.g09.slc.cpg/sg10_14_cif.got.tgz:27342.got - 2010.06.27 22:07:45.
