data_PCOD8063319
_publ_section_title
;
Structure prediction by ZEFSAII (Michael W. Deem and Ramdas Pophale) SiO2 
 PCOD8063319
Probable space group: P 2/M
;
_chemical_formula_sum "Si O2"
_cell_formula_units_Z 32
_cell_length_a 24.822046
_cell_length_b 8.728105
_cell_length_c 24.650828
_cell_angle_alpha 90.000000
_cell_angle_beta 162.471195
_cell_angle_gamma 90.000000
_cell_volume 1608.506157
_symmetry_space_group_name_H-M "P 2/M"
_symmetry_group_IT_number 10
_symmetry_cell_setting 'monoclinic'
loop_
_space_group_symop_operation_xyz
x,y,z
-x,y,-z
-x,-y,-z
x,-y,z
loop_
_atom_site_type_symbol
_atom_site_label
_atom_site_fract_x
_atom_site_fract_y
_atom_site_fract_z
Si Si1 0.687349 0.819352 0.944193
Si Si2 0.149915 0.172941 0.719056
Si Si3 0.309522 0.318034 0.169466
Si Si4 0.965364 0.320307 0.287055
Si Si5 0.744860 0.829450 0.291404
Si Si6 0.972091 0.318217 0.912919
Si Si7 0.578488 0.681712 0.519445
Si Si8 0.659143 0.817122 0.322560
O O1 0.658890 0.771737 0.855273
O O2 0.512843 0.761915 0.809436
O O3 0.710961 0.000000 0.972258
O O4 0.865594 0.738247 0.137527
O O5 0.161698 0.276292 0.783880
O O6 0.266373 0.245746 0.780149
O O7 0.947695 0.166750 0.505622
O O8 0.214846 0.000000 0.795683
O O9 0.312506 0.500000 0.162138
O O10 0.466155 0.262621 0.360064
O O11 0.123693 0.261354 0.017299
O O12 0.989341 0.500000 0.307269
O O13 0.162090 0.247495 0.478011
O O14 0.636827 0.753818 0.238327
O O15 0.672283 0.000000 0.212992
O O16 0.981282 0.500000 0.926001
O O17 0.781880 0.261851 0.707180
O O18 0.000000 0.249375 0.000000
O O19 0.500000 0.751173 0.500000
O O20 0.567837 0.500000 0.513096
O O21 0.678823 0.000000 0.340279
#
# Coordination Sequence:
#
# PCOD8063319 Si02
#       8
#     4   4   4   4   4   4   4   4
#     4  11  24  41  59  78 108 151 198 239 278 331
#     4   8  13  26  50  78 108 141 180 227 278 337
#     4  10  20  33  52  80 111 140 178 230 276 320
#     4  11  22  36  57  83 113 147 184 233 290 344
#     4   7  11  24  50  79 103 134 183 234 275 324
#     4   9  15  26  48  80 113 142 173 210 260 317
#     4   9  15  26  48  79 110 138 169 212 264 316
#     4   9  19  38  61  81 105 146 196 240 280 329
#
# _framework density 19.894234999999998
#
# number of rings (size 3 to 8) (size 9 to 14) (size 15 to 20)
#    0.000    2.750    1.250    3.000    0.000    2.000 
#    0.000    6.875    0.000    4.500    0.000    0.000 
#    0.000    0.000    0.000    0.000    0.000    0.000 
#
# Total GULP energy -396503.770631 kJ/mol
# GULP energy per Si atom -12390.742832 kJ/mol
# Density = 1.984895 g / cm^3
# Si number density = 19.894235 Si / 1000 Ang^3
#
#
#
# Elastic Constant Matrix: (Units=GPa)
#
#
# Indices 1 2 3 4 5 6 
#
# 1 117.8287 15.9523 34.2798 0.0000 6.7240 0.0000
# 2 15.9523 40.0387 15.6899 0.0000 0.8418 0.0000
# 3 34.2798 15.6899 90.6237 0.0000 4.9339 0.0000
# 4 0.0000 0.0000 0.0000 16.9987 0.0000 -4.9634
# 5 6.7240 0.8418 4.9339 0.0000 33.8126 0.0000
# 6 0.0000 0.0000 0.0000 -4.9634 0.0000 25.2223
#
#
#
# Elastic Compliance Matrix: (Units=1/GPa)
#
#
# Indices 1 2 3 4 5 6 
#
# 1 0.009855 -0.002646 -0.003192 0.000000 -0.001428 0.000000
# 2 -0.002646 0.027504 -0.003782 0.000000 0.000393 0.000000
# 3 -0.003192 -0.003782 0.012960 0.000000 -0.001162 0.000000
# 4 0.000000 0.000000 0.000000 0.062414 0.000000 0.012282
# 5 -0.001428 0.000393 -0.001162 0.000000 0.030019 0.000000
# 6 0.000000 0.000000 0.000000 0.012282 0.000000 0.042064
#
#
# Mechanical properties :
#
#
# Convention : Reuss Voigt Hill
#
# Bulk Modulus (GPa) = 32.17609 42.25943 37.21776
# Shear Modulus (GPa) = 23.31907 27.37800 25.34854
#
# Velocity S-wave (km/s) = 3.42739 3.71371 3.57342
# Velocity P-wave (km/s) = 5.64547 6.29897 5.98115
#
# Compressibility (1/GPa) = 0.03107898
#
# Stress axis : x y z
#
# Youngs Moduli (GPa) = 101.46874 36.35847 77.15900
#
# Poissons Ratio (x) = 0.09619 0.24630
# Poissons Ratio (y) = 0.26845 0.29185
# Poissons Ratio (z) = 0.32390 0.13753
#
# Static dielectric constant tensor:
#      x y z
#    x 4.006310 0.000000 0.049240 
#    y 0.000000 3.076020 0.000000 
#    z 0.049240 0.000000 3.636490 
# 
# 
# High freq. dielectric constant tensor:
#      x y z
#    x 1.787800 0.000000 -0.000850 
#    y 0.000000 1.716170 0.000000 
#    z -0.000850 0.000000 1.775180 
# 
# From -- ./inp_files/90673.got.cif
#   From: 2010.06.25/outbox.cif.g09.slc.cpg/sg10_46_cif.got.tgz:90673.got - 2010.06.27 22:07:45.
