data_PCOD8063278
_publ_section_title
;
Structure prediction by ZEFSAII (Michael W. Deem and Ramdas Pophale) SiO2 
 PCOD8063278
Probable space group: P 2/M
;
_chemical_formula_sum "Si O2"
_cell_formula_units_Z 32
_cell_length_a 23.105957
_cell_length_b 8.700716
_cell_length_c 14.436458
_cell_angle_alpha 90.000000
_cell_angle_beta 36.121148
_cell_angle_gamma 90.000000
_cell_volume 1710.879405
_symmetry_space_group_name_H-M "P 2/M"
_symmetry_group_IT_number 10
_symmetry_cell_setting 'monoclinic'
loop_
_space_group_symop_operation_xyz
x,y,z
-x,y,-z
-x,-y,-z
x,-y,z
loop_
_atom_site_type_symbol
_atom_site_label
_atom_site_fract_x
_atom_site_fract_y
_atom_site_fract_z
Si Si1 0.183405 0.679428 0.057303
Si Si2 0.909166 0.316441 0.008591
Si Si3 0.292608 0.674070 0.422816
Si Si4 0.678507 0.681802 0.965974
Si Si5 0.007052 0.828118 0.382054
Si Si6 0.509621 0.180873 0.881385
Si Si7 0.115846 0.181602 0.761093
Si Si8 0.185919 0.328386 0.375587
O O1 0.193522 0.500000 0.037696
O O2 0.165312 0.741390 0.976347
O O3 0.282199 0.737459 0.982847
O O4 0.088536 0.713697 0.240797
O O5 0.908800 0.500000 0.021099
O O6 0.020330 0.263879 0.839958
O O7 0.871799 0.234929 0.149134
O O8 0.291832 0.500000 0.462365
O O9 0.400729 0.744312 0.290894
O O10 0.214346 0.773205 0.580655
O O11 0.269964 0.678720 0.343521
O O12 0.654736 0.500000 0.992812
O O13 0.766185 0.724822 0.782485
O O14 0.584197 0.778109 0.059305
O O15 0.900703 0.783774 0.479477
O O16 0.000000 0.810915 0.500000
O O17 0.033068 0.000000 0.316192
O O18 0.525384 0.000000 0.863264
O O19 0.500000 0.242990 0.000000
O O20 0.099997 0.000000 0.777526
O O21 0.142650 0.500000 0.421944
#
# Coordination Sequence:
#
# PCOD8063278 Si02
#       8
#     4   4   4   4   4   4   4   4
#     4  10  21  36  56  78 106 146 188 227 270 323
#     4  10  20  37  60  86 114 147 187 228 274 332
#     4  11  22  37  58  82 108 144 187 232 278 328
#     4  10  20  36  55  77 105 144 188 226 266 322
#     4  11  22  31  44  71 108 146 181 219 265 318
#     4  11  23  37  55  81 113 147 185 232 282 330
#     4  11  22  37  58  86 116 147 182 229 284 332
#     4  10  20  33  52  74 103 143 185 223 264 317
#
# _framework density 18.703831999999998
#
# number of rings (size 3 to 8) (size 9 to 14) (size 15 to 20)
#    0.000    1.500    2.500    4.125    0.000    7.000 
#    0.000    0.000    0.000    0.750    0.000    5.250 
#    0.000    0.000    0.000    0.000    0.000    0.000 
#
# Total GULP energy -396734.430000 kJ/mol
# GULP energy per Si atom -12397.950938 kJ/mol
# Density = 1.866126 g / cm^3
# Si number density = 18.703832 Si / 1000 Ang^3
#
#
#
# Elastic Constant Matrix: (Units=GPa)
#
#
# Indices 1 2 3 4 5 6 
#
# 1 125.6058 31.0983 34.9716 0.0000 -10.4032 0.0000
# 2 31.0983 45.6609 20.3310 0.0000 3.9780 0.0000
# 3 34.9716 20.3310 71.3450 0.0000 -5.0756 0.0000
# 4 0.0000 0.0000 0.0000 26.0184 0.0000 1.3704
# 5 -10.4032 3.9780 -5.0756 0.0000 22.4155 0.0000
# 6 0.0000 0.0000 0.0000 1.3704 0.0000 16.3111
#
#
#
# Elastic Compliance Matrix: (Units=1/GPa)
#
#
# Indices 1 2 3 4 5 6 
#
# 1 0.010893 -0.006525 -0.003088 0.000000 0.005514 0.000000
# 2 -0.006525 0.029860 -0.006000 0.000000 -0.009686 0.000000
# 3 -0.003088 -0.006000 0.017495 0.000000 0.003593 0.000000
# 4 0.000000 0.000000 0.000000 0.038605 0.000000 -0.003243
# 5 0.005514 -0.009686 0.003593 0.000000 0.049704 0.000000
# 6 0.000000 0.000000 0.000000 -0.003243 0.000000 0.061581
#
#
# Mechanical properties :
#
#
# Convention : Reuss Voigt Hill
#
# Bulk Modulus (GPa) = 37.00497 46.15704 41.58101
# Shear Modulus (GPa) = 20.13121 23.36305 21.74713
#
# Velocity S-wave (km/s) = 3.28428 3.53810 3.41355
# Velocity P-wave (km/s) = 5.84890 6.43602 6.14947
#
# Compressibility (1/GPa) = 0.02702340
#
# Stress axis : x y z
#
# Youngs Moduli (GPa) = 91.79950 33.49009 57.15758
#
# Poissons Ratio (x) = 0.21851 0.17651
# Poissons Ratio (y) = 0.59895 0.34294
# Poissons Ratio (z) = 0.28348 0.20094
#
# Static dielectric constant tensor:
#      x y z
#    x 3.778810 0.000000 0.004280 
#    y 0.000000 3.464260 0.000000 
#    z 0.004280 0.000000 3.208590 
# 
# 
# High freq. dielectric constant tensor:
#      x y z
#    x 1.730720 0.000000 -0.003320 
#    y 0.000000 1.727980 0.000000 
#    z -0.003320 0.000000 1.701130 
# 
# From -- ./inp_files/71506.got.cif
#   From: 2010.06.25/outbox.cif.g09.slc.cpg/sg10_36_cif.got.tgz:71506.got - 2010.06.27 22:07:45.
