data_PCOD8063102
_publ_section_title
;
Structure prediction by ZEFSAII (Michael W. Deem and Ramdas Pophale) SiO2 
 PCOD8063102
Probable space group: P 2/M
;
_chemical_formula_sum "Si O2"
_cell_formula_units_Z 24
_cell_length_a 21.799341
_cell_length_b 9.238745
_cell_length_c 9.558507
_cell_angle_alpha 90.000000
_cell_angle_beta 44.920208
_cell_angle_gamma 90.000000
_cell_volume 1359.332667
_symmetry_space_group_name_H-M "P 2/M"
_symmetry_group_IT_number 10
_symmetry_cell_setting 'monoclinic'
loop_
_space_group_symop_operation_xyz
x,y,z
-x,y,-z
-x,-y,-z
x,-y,z
loop_
_atom_site_type_symbol
_atom_site_label
_atom_site_fract_x
_atom_site_fract_y
_atom_site_fract_z
Si Si1 0.627319 0.666060 0.070773
Si Si2 0.524372 0.829528 0.806377
Si Si3 0.223722 0.330709 0.387212
Si Si4 0.238801 0.669346 0.908621
Si Si5 0.903473 0.328258 0.644254
Si Si6 0.278952 0.171464 0.564337
O O1 0.599207 0.500000 0.108456
O O2 0.540564 0.761064 0.202162
O O3 0.674805 0.699122 0.140251
O O4 0.690458 0.704786 0.840437
O O5 0.621260 0.779673 0.612745
O O6 0.513494 0.000000 0.815213
O O7 0.500000 0.771943 0.000000
O O8 0.219472 0.500000 0.432104
O O9 0.139910 0.281503 0.432401
O O10 0.223012 0.236447 0.528102
O O11 0.231930 0.500000 0.881413
O O12 0.240643 0.765213 0.768022
O O13 0.154973 0.723401 0.131071
O O14 0.906437 0.500000 0.644039
O O15 0.000000 0.260796 0.500000
O O16 0.268921 0.000000 0.579807
#
# Coordination Sequence:
#
# PCOD8063102 Si02
#       6
#     4   4   4   4   4   4
#     4   9  18  32  51  74  98 130 170 211 253 294
#     4  10  20  33  48  69  99 135 177 214 242 285
#     4   9  17  31  53  78 101 128 165 207 251 297
#     4   9  19  35  53  76 105 131 162 207 255 300
#     4   8  15  32  59  84 101 123 162 208 250 299
#     4  11  22  34  49  72 103 139 172 205 248 295
#
# _framework density 17.655722000000001
#
# number of rings (size 3 to 8) (size 9 to 14) (size 15 to 20)
#    0.000    2.667    1.667    2.500    0.000    3.000 
#    0.000    6.667    0.000    7.000    0.000    0.000 
#    0.000    0.000    0.000    0.000    0.000    0.000 
#
# Total GULP energy -297596.305399 kJ/mol
# GULP energy per Si atom -12399.846058 kJ/mol
# Density = 1.761554 g / cm^3
# Si number density = 17.655722 Si / 1000 Ang^3
#
#
#
# Elastic Constant Matrix: (Units=GPa)
#
#
# Indices 1 2 3 4 5 6 
#
# 1 138.0159 48.0065 74.6062 0.0000 -2.0214 0.0000
# 2 48.0065 46.5445 38.8890 0.0000 5.3740 0.0000
# 3 74.6062 38.8890 101.4047 0.0000 7.8701 0.0000
# 4 0.0000 0.0000 0.0000 18.9206 0.0000 -1.5842
# 5 -2.0214 5.3740 7.8701 0.0000 33.8709 0.0000
# 6 0.0000 0.0000 0.0000 -1.5842 0.0000 3.3349
#
#
#
# Elastic Compliance Matrix: (Units=1/GPa)
#
#
# Indices 1 2 3 4 5 6 
#
# 1 0.014568 -0.009236 -0.007492 0.000000 0.004076 0.000000
# 2 -0.009236 0.037639 -0.007264 0.000000 -0.004835 0.000000
# 3 -0.007492 -0.007264 0.018437 0.000000 -0.003579 0.000000
# 4 0.000000 0.000000 0.000000 0.055042 0.000000 0.026146
# 5 0.004076 -0.004835 -0.003579 0.000000 0.031366 0.000000
# 6 0.000000 0.000000 0.000000 0.026146 0.000000 0.312275
#
#
# Mechanical properties :
#
#
# Convention : Reuss Voigt Hill
#
# Bulk Modulus (GPa) = 44.13256 67.66315 55.89786
# Shear Modulus (GPa) = 9.52629 19.52284 14.52457
#
# Velocity S-wave (km/s) = 2.32536 3.32889 2.87131
# Velocity P-wave (km/s) = 5.67980 7.29261 6.53614
#
# Compressibility (1/GPa) = 0.02265901
#
# Stress axis : x y z
#
# Youngs Moduli (GPa) = 68.64425 26.56854 54.23822
#
# Poissons Ratio (x) = 0.24539 0.40636
# Poissons Ratio (y) = 0.63401 0.39398
# Poissons Ratio (z) = 0.51430 0.19299
#
# Static dielectric constant tensor:
#      x y z
#    x 3.437440 0.000000 -0.111650 
#    y 0.000000 2.985670 0.000000 
#    z -0.111650 0.000000 3.236430 
# 
# 
# High freq. dielectric constant tensor:
#      x y z
#    x 1.687040 0.000000 0.005080 
#    y 0.000000 1.660890 0.000000 
#    z 0.005080 0.000000 1.670060 
# 
# From -- ./inp_files/27981.got.cif
#   From: 2010.06.25/outbox.cif.g09.slc.cpg/sg10_14_cif.got.tgz:27981.got - 2010.06.27 22:07:45.
