data_PCOD8063468
_publ_section_title
;
Structure prediction by ZEFSAII (Michael W. Deem and Ramdas Pophale) SiO2 
 PCOD8063468
Probable space group: P 2/M
;
_chemical_formula_sum "Si O2"
_cell_formula_units_Z 28
_cell_length_a 20.698799
_cell_length_b 7.852943
_cell_length_c 26.361057
_cell_angle_alpha 90.000000
_cell_angle_beta 158.498148
_cell_angle_gamma 90.000000
_cell_volume 1570.548965
_symmetry_space_group_name_H-M "P 2/M"
_symmetry_group_IT_number 10
_symmetry_cell_setting 'monoclinic'
loop_
_space_group_symop_operation_xyz
x,y,z
-x,y,-z
-x,-y,-z
x,-y,z
loop_
_atom_site_type_symbol
_atom_site_label
_atom_site_fract_x
_atom_site_fract_y
_atom_site_fract_z
Si Si1 0.933113 0.798034 0.108473
Si Si2 0.436807 0.305742 0.399390
Si Si3 0.939413 0.805211 0.903136
Si Si4 0.048820 0.189039 0.717604
Si Si5 0.513356 0.500000 0.092932
Si Si6 0.210425 0.500000 0.787636
Si Si7 0.218743 0.199264 0.394986
Si Si8 0.649862 0.190631 0.977841
O O1 0.957555 0.721587 0.069697
O O2 0.088799 0.722096 0.257339
O O3 0.955136 0.000000 0.124748
O O4 0.741068 0.752223 0.991337
O O5 0.500000 0.231367 0.500000
O O6 0.377886 0.500000 0.362412
O O7 0.269989 0.202202 0.257365
O O8 0.592693 0.289904 0.472005
O O9 0.999169 0.000000 0.949569
O O10 0.000000 0.714147 0.000000
O O11 0.091058 0.330458 0.705942
O O12 0.863544 0.234594 0.609430
O O13 0.039965 0.000000 0.685980
O O14 0.198174 0.187255 0.869345
O O15 0.703770 0.500000 0.205400
O O16 0.498663 0.329303 0.116396
O O17 0.360136 0.500000 0.939530
O O18 0.245369 0.000000 0.405822
O O19 0.565963 0.000000 0.912539
#
# Coordination Sequence:
#
# PCOD8063468 Si02
#       8
#     4   4   4   4   2   2   4   4
#     4   8  14  27  45  63  84 113 150 195 241 275
#     4  11  22  32  44  70  96 121 158 201 247 285
#     4  10  20  34  51  68  90 125 163 199 246 294
#     4   8  15  25  37  57  79 111 150 181 228 279
#     4   9  16  24  34  58  78 111 154 177 223 277
#     4   9  16  24  36  52  84 116 140 184 227 269
#     4   9  16  28  47  64  83 114 155 200 235 269
#     4   8  14  25  38  55  80 109 147 192 226 265
#
# _framework density 17.828161000000001
#
# number of rings (size 3 to 8) (size 9 to 14) (size 15 to 20)
#    0.000    3.000    1.429    2.143    1.000    1.429 
#    2.571    2.857    0.000    0.000    0.000    0.000 
#    0.000    0.000    0.000    2.571    0.000   22.714 
#
# Total GULP energy -346995.956428 kJ/mol
# GULP energy per Si atom -12392.712730 kJ/mol
# Density = 1.778758 g / cm^3
# Si number density = 17.828161 Si / 1000 Ang^3
#
#
#
# Elastic Constant Matrix: (Units=GPa)
#
#
# Indices 1 2 3 4 5 6 
#
# 1 137.0175 54.9386 45.5613 0.0000 31.5008 0.0000
# 2 54.9386 77.5884 17.5467 0.0000 16.7770 0.0000
# 3 45.5613 17.5467 43.8057 0.0000 4.8994 0.0000
# 4 0.0000 0.0000 0.0000 10.5962 0.0000 7.4813
# 5 31.5008 16.7770 4.8994 0.0000 26.0110 0.0000
# 6 0.0000 0.0000 0.0000 7.4813 0.0000 18.4970
#
#
#
# Elastic Compliance Matrix: (Units=1/GPa)
#
#
# Indices 1 2 3 4 5 6 
#
# 1 0.018213 -0.006271 -0.014727 0.000000 -0.015238 0.000000
# 2 -0.006271 0.018303 -0.000346 0.000000 -0.004146 0.000000
# 3 -0.014727 -0.000346 0.037044 0.000000 0.011080 0.000000
# 4 0.000000 0.000000 0.000000 0.132095 0.000000 -0.053427
# 5 -0.015238 -0.004146 0.011080 0.000000 0.057487 0.000000
# 6 0.000000 0.000000 0.000000 -0.053427 0.000000 0.075672
#
#
# Mechanical properties :
#
#
# Convention : Reuss Voigt Hill
#
# Bulk Modulus (GPa) = 32.38962 54.94499 43.66730
# Shear Modulus (GPa) = 12.76183 20.37850 16.57016
#
# Velocity S-wave (km/s) = 2.67839 3.38457 3.05198
# Velocity P-wave (km/s) = 5.26993 6.79411 6.07997
#
# Compressibility (1/GPa) = 0.03087409
#
# Stress axis : x y z
#
# Youngs Moduli (GPa) = 54.90578 54.63457 26.99463
#
# Poissons Ratio (x) = 0.34260 0.39755
# Poissons Ratio (y) = 0.34430 0.00934
# Poissons Ratio (z) = 0.80859 0.01889
#
# Static dielectric constant tensor:
#      x y z
#    x 3.561540 0.000000 0.226080 
#    y 0.000000 3.308890 0.000000 
#    z 0.226080 0.000000 2.773030 
# 
# 
# High freq. dielectric constant tensor:
#      x y z
#    x 1.682490 0.000000 0.034690 
#    y 0.000000 1.686410 0.000000 
#    z 0.034690 0.000000 1.619290 
# 
# From -- ./inp_files/86712.got.cif
#   From: 2010.06.25/outbox.cif.g09.slc.cpg/sg10_44_cif.got.tgz:86712.got - 2010.06.27 22:07:45.
