data_PCOD8063535
_publ_section_title
;
Structure prediction by ZEFSAII (Michael W. Deem and Ramdas Pophale) SiO2 
 PCOD8063535
Probable space group: P 2/M
;
_chemical_formula_sum "Si O2"
_cell_formula_units_Z 28
_cell_length_a 29.171038
_cell_length_b 8.976352
_cell_length_c 9.046910
_cell_angle_alpha 90.000000
_cell_angle_beta 38.779238
_cell_angle_gamma 90.000000
_cell_volume 1483.710788
_symmetry_space_group_name_H-M "P 2/M"
_symmetry_group_IT_number 10
_symmetry_cell_setting 'monoclinic'
loop_
_space_group_symop_operation_xyz
x,y,z
-x,y,-z
-x,-y,-z
x,-y,z
loop_
_atom_site_type_symbol
_atom_site_label
_atom_site_fract_x
_atom_site_fract_y
_atom_site_fract_z
Si Si1 0.208052 0.173073 0.379107
Si Si2 0.067200 0.828122 0.930406
Si Si3 0.210209 0.676284 0.065704
Si Si4 0.341616 0.821596 0.569393
Si Si5 0.343327 0.177944 0.231404
Si Si6 0.500081 0.162428 0.174674
Si Si7 0.070118 0.323645 0.235742
O O1 0.141957 0.199149 0.656596
O O2 0.193513 0.271774 0.272920
O O3 0.281343 0.232850 0.274941
O O4 0.215138 0.000000 0.316712
O O5 0.056477 0.000000 0.000190
O O6 0.069021 0.733696 0.073187
O O7 0.000000 0.771280 0.000000
O O8 0.218203 0.500000 0.041511
O O9 0.143541 0.732786 0.131626
O O10 0.284758 0.750030 0.823843
O O11 0.323828 0.768665 0.446689
O O12 0.422921 0.760148 0.413127
O O13 0.338648 0.000000 0.589124
O O14 0.348643 0.000000 0.220254
O O15 0.422880 0.244516 0.977712
O O16 0.500657 0.000000 0.249304
O O17 0.500000 0.141884 0.000000
O O18 0.067477 0.500000 0.238733
O O19 0.000000 0.260017 0.500000
#
# Coordination Sequence:
#
# PCOD8063535 Si02
#       7
#     4   4   4   4   4   4   4
#     4  10  20  34  52  74 102 136 171 207 251 302
#     4  10  21  36  56  84 111 132 161 206 257 303
#     4  11  23  36  50  72 103 136 172 212 249 292
#     4   9  16  30  54  78 100 129 164 207 260 308
#     4   8  14  27  50  78 101 124 165 215 253 295
#     4   7  11  22  45  76 101 122 158 208 254 297
#     4  10  22  39  57  77 102 136 175 208 242 292
#
# _framework density 18.871603
#
# number of rings (size 3 to 8) (size 9 to 14) (size 15 to 20)
#    0.000    2.714    0.000    3.857    0.000    3.429 
#    0.000    1.429    0.000    9.000    0.000    0.000 
#    0.000    0.000    0.000    0.000    0.000    0.000 
#
# Total GULP energy -347018.229529 kJ/mol
# GULP energy per Si atom -12393.508197 kJ/mol
# Density = 1.882865 g / cm^3
# Si number density = 18.871603 Si / 1000 Ang^3
#
#
#
# Elastic Constant Matrix: (Units=GPa)
#
#
# Indices 1 2 3 4 5 6 
#
# 1 120.6120 15.8257 49.1091 0.0000 -19.1336 0.0000
# 2 15.8257 18.5483 20.8407 0.0000 -4.6130 0.0000
# 3 49.1091 20.8407 107.8482 0.0000 -20.0874 0.0000
# 4 0.0000 0.0000 0.0000 10.6137 0.0000 4.5558
# 5 -19.1336 -4.6130 -20.0874 0.0000 36.3251 0.0000
# 6 0.0000 0.0000 0.0000 4.5558 0.0000 21.9385
#
#
#
# Elastic Compliance Matrix: (Units=1/GPa)
#
#
# Indices 1 2 3 4 5 6 
#
# 1 0.010798 -0.004550 -0.003440 0.000000 0.003207 0.000000
# 2 -0.004550 0.070861 -0.011585 0.000000 0.000196 0.000000
# 3 -0.003440 -0.011585 0.013897 0.000000 0.004402 0.000000
# 4 0.000000 0.000000 0.000000 0.103438 0.000000 -0.021480
# 5 0.003207 0.000196 0.004402 0.000000 0.031678 0.000000
# 6 0.000000 0.000000 0.000000 -0.021480 0.000000 0.050043
#
#
# Mechanical properties :
#
#
# Convention : Reuss Voigt Hill
#
# Bulk Modulus (GPa) = 17.72861 46.50660 32.11760
# Shear Modulus (GPa) = 14.76382 24.52433 19.64408
#
# Velocity S-wave (km/s) = 2.80005 3.60882 3.22985
# Velocity P-wave (km/s) = 4.45740 6.48552 5.56464
#
# Compressibility (1/GPa) = 0.05640601
#
# Stress axis : x y z
#
# Youngs Moduli (GPa) = 92.61398 14.11217 71.95617
#
# Poissons Ratio (x) = 0.06421 0.24754
# Poissons Ratio (y) = 0.42136 0.83362
# Poissons Ratio (z) = 0.31860 0.16349
#
# Static dielectric constant tensor:
#      x y z
#    x 3.675300 0.000000 -0.434090 
#    y 0.000000 3.030430 0.000000 
#    z -0.434090 0.000000 3.703500 
# 
# 
# High freq. dielectric constant tensor:
#      x y z
#    x 1.736540 0.000000 -0.020690 
#    y 0.000000 1.686350 0.000000 
#    z -0.020690 0.000000 1.746600 
# 
# From -- ./inp_files/36990.got.cif
#   From: 2010.06.25/outbox.cif.g09.slc.cpg/sg10_19_cif.got.tgz:36990.got - 2010.06.27 22:07:45.
