data_PCOD8063982
_publ_section_title
;
Structure prediction by ZEFSAII (Michael W. Deem and Ramdas Pophale) SiO2 
 PCOD8063982
Probable space group: P 2/M
;
_chemical_formula_sum "Si O2"
_cell_formula_units_Z 28
_cell_length_a 10.435417
_cell_length_b 15.407680
_cell_length_c 22.601584
_cell_angle_alpha 90.000000
_cell_angle_beta 155.168671
_cell_angle_gamma 90.000000
_cell_volume 1526.095997
_symmetry_space_group_name_H-M "P 2/M"
_symmetry_group_IT_number 10
_symmetry_cell_setting 'monoclinic'
loop_
_space_group_symop_operation_xyz
x,y,z
-x,y,-z
-x,-y,-z
x,-y,z
loop_
_atom_site_type_symbol
_atom_site_label
_atom_site_fract_x
_atom_site_fract_y
_atom_site_fract_z
Si Si1 0.205537 0.097030 0.838513
Si Si2 0.206571 0.659107 0.335621
Si Si3 0.251682 0.260798 0.777653
Si Si4 0.366716 0.403566 0.285989
Si Si5 0.156413 0.250293 0.505094
Si Si6 0.045921 0.725849 0.950451
Si Si7 0.750135 0.174742 0.726784
O O1 0.184677 0.165602 0.776651
O O2 0.909600 0.095492 0.758927
O O3 0.233692 0.000000 0.823687
O O4 0.500000 0.122848 0.000000
O O5 0.500000 0.654108 0.500000
O O6 0.221183 0.585035 0.291332
O O7 0.192441 0.746167 0.292596
O O8 0.902285 0.661416 0.248318
O O9 0.108163 0.261739 0.652907
O O10 0.602870 0.284142 0.919474
O O11 0.458171 0.500000 0.302256
O O12 0.662007 0.341221 0.412237
O O13 0.123449 0.363451 0.138132
O O14 0.384053 0.170273 0.582843
O O15 0.000000 0.223121 0.500000
O O16 0.908149 0.807331 0.856476
O O17 0.000000 0.745852 0.000000
#
# Coordination Sequence:
#
# PCOD8063982 Si02
#       7
#     4   4   4   4   4   4   4
#     4  10  20  34  58  88 116 142 171 226 285 320
#     4   9  16  32  53  76 101 136 175 218 269 321
#     4  11  18  34  59  82 104 140 189 223 261 330
#     4  10  22  37  52  77 113 142 176 234 288 323
#     4  10  20  36  58  79 105 148 191 221 260 326
#     4  10  20  35  55  77 104 146 190 222 264 317
#     4   9  18  33  53  81 108 139 178 224 263 322
#
# _framework density 18.347469
#
# number of rings (size 3 to 8) (size 9 to 14) (size 15 to 20)
#    0.000    2.429    4.286    1.714    0.000    0.857 
#    0.000    3.571    0.000    5.143    0.000    0.000 
#    0.000    0.000    0.000    0.000    0.000    0.000 
#
# Total GULP energy -346889.339563 kJ/mol
# GULP energy per Si atom -12388.904984 kJ/mol
# Density = 1.830571 g / cm^3
# Si number density = 18.347469 Si / 1000 Ang^3
#
#
#
# Elastic Constant Matrix: (Units=GPa)
#
#
# Indices 1 2 3 4 5 6 
#
# 1 79.1002 7.2276 8.8828 0.0000 -4.4796 0.0000
# 2 7.2276 60.6502 14.4763 0.0000 0.4172 0.0000
# 3 8.8828 14.4763 82.1463 0.0000 -6.8748 0.0000
# 4 0.0000 0.0000 0.0000 18.2021 0.0000 1.3705
# 5 -4.4796 0.4172 -6.8748 0.0000 41.5621 0.0000
# 6 0.0000 0.0000 0.0000 1.3705 0.0000 12.6098
#
#
#
# Elastic Compliance Matrix: (Units=1/GPa)
#
#
# Indices 1 2 3 4 5 6 
#
# 1 0.012950 -0.001297 -0.001069 0.000000 0.001232 0.000000
# 2 -0.001297 0.017361 -0.002987 0.000000 -0.000808 0.000000
# 3 -0.001069 -0.002987 0.012988 0.000000 0.002063 0.000000
# 4 0.000000 0.000000 0.000000 0.055392 0.000000 -0.006020
# 5 0.001232 -0.000808 0.002063 0.000000 0.024543 0.000000
# 6 0.000000 0.000000 0.000000 -0.006020 0.000000 0.079958
#
#
# Mechanical properties :
#
#
# Convention : Reuss Voigt Hill
#
# Bulk Modulus (GPa) = 30.67971 31.45225 31.06598
# Shear Modulus (GPa) = 22.24584 27.22881 24.73733
#
# Velocity S-wave (km/s) = 3.48584 3.85653 3.67586
# Velocity P-wave (km/s) = 5.74101 6.08360 5.91479
#
# Compressibility (1/GPa) = 0.03259483
#
# Stress axis : x y z
#
# Youngs Moduli (GPa) = 77.21728 57.60039 76.99416
#
# Poissons Ratio (x) = 0.07469 0.08229
# Poissons Ratio (y) = 0.10013 0.22997
# Poissons Ratio (z) = 0.08253 0.17205
#
# Static dielectric constant tensor:
#      x y z
#    x 3.851930 0.000000 0.116540 
#    y 0.000000 3.143860 0.000000 
#    z 0.116540 0.000000 3.611550 
# 
# 
# High freq. dielectric constant tensor:
#      x y z
#    x 1.720040 0.000000 -0.001730 
#    y 0.000000 1.665100 0.000000 
#    z -0.001730 0.000000 1.722550 
# 
# From -- ./inp_files/89022.got.cif
#   From: 2010.06.25/outbox.cif.g09.slc.cpg/sg10_45_cif.got.tgz:89022.got - 2010.06.27 22:07:45.
