data_PCOD8063264
_publ_section_title
;
Structure prediction by ZEFSAII (Michael W. Deem and Ramdas Pophale) SiO2 
 PCOD8063264
Probable space group: P 2/M
;
_chemical_formula_sum "Si O2"
_cell_formula_units_Z 32
_cell_length_a 24.047726
_cell_length_b 13.928502
_cell_length_c 9.112701
_cell_angle_alpha 90.000000
_cell_angle_beta 32.006790
_cell_angle_gamma 90.000000
_cell_volume 1617.773095
_symmetry_space_group_name_H-M "P 2/M"
_symmetry_group_IT_number 10
_symmetry_cell_setting 'monoclinic'
loop_
_space_group_symop_operation_xyz
x,y,z
-x,y,-z
-x,-y,-z
x,-y,z
loop_
_atom_site_type_symbol
_atom_site_label
_atom_site_fract_x
_atom_site_fract_y
_atom_site_fract_z
Si Si1 0.829636 0.888531 0.728643
Si Si2 0.218412 0.760696 0.626458
Si Si3 0.553559 0.893473 0.534406
Si Si4 0.890755 0.389927 0.322562
Si Si5 0.744292 0.755035 0.135968
Si Si6 0.030291 0.105802 0.099866
Si Si7 0.664709 0.110470 0.854019
Si Si8 0.892675 0.387595 0.658867
O O1 0.727238 0.858512 0.861779
O O2 0.931371 0.854411 0.411876
O O3 0.832519 0.000000 0.755147
O O4 0.827244 0.835864 0.892371
O O5 0.195323 0.674686 0.566146
O O6 0.265450 0.722843 0.673371
O O7 0.298332 0.832355 0.370962
O O8 0.119678 0.816548 0.913265
O O9 0.500000 0.905310 0.500000
O O10 0.631655 0.803162 0.353583
O O11 0.604854 0.000000 0.456242
O O12 0.459494 0.871173 0.858273
O O13 0.855668 0.500000 0.382827
O O14 0.902467 0.361333 0.465707
O O15 0.000000 0.369174 0.000000
O O16 0.784380 0.660251 0.960171
O O17 0.064620 0.000000 0.080322
O O18 0.000000 0.096734 0.000000
O O19 0.692419 0.000000 0.761665
O O20 0.878292 0.500000 0.716919
O O21 0.000000 0.352709 0.500000
#
# Coordination Sequence:
#
# PCOD8063264 Si02
#       8
#     4   4   4   4   4   4   4   4
#     4  10  20  35  55  81 116 161 207 247 294 357
#     4  12  24  35  56  88 123 160 199 245 304 369
#     4  10  21  40  64  88 118 163 214 262 307 353
#     4  10  22  40  62  87 119 161 200 239 296 368
#     4  12  25  36  59  90 122 155 203 254 306 359
#     4  10  20  33  51  78 116 159 198 235 289 360
#     4  10  20  37  61  84 113 159 210 255 298 350
#     4  10  23  43  67  95 125 156 199 252 304 364
#
# _framework density 19.780277000000002
#
# number of rings (size 3 to 8) (size 9 to 14) (size 15 to 20)
#    0.000    1.500    2.500    2.625    3.500    4.000 
#    0.000    2.500    0.000    1.125    0.000    1.750 
#    0.000    0.000    0.000    0.000    0.000    0.000 
#
# Total GULP energy -396516.202042 kJ/mol
# GULP energy per Si atom -12391.131314 kJ/mol
# Density = 1.973526 g / cm^3
# Si number density = 19.780277 Si / 1000 Ang^3
#
#
#
# Elastic Constant Matrix: (Units=GPa)
#
#
# Indices 1 2 3 4 5 6 
#
# 1 85.8569 42.2653 48.2978 0.0000 22.1036 0.0000
# 2 42.2653 83.8443 55.8367 0.0000 1.5224 0.0000
# 3 48.2978 55.8367 122.9656 0.0000 9.6612 0.0000
# 4 0.0000 0.0000 0.0000 23.9043 0.0000 1.0017
# 5 22.1036 1.5224 9.6612 0.0000 35.5602 0.0000
# 6 0.0000 0.0000 0.0000 1.0017 0.0000 26.7475
#
#
#
# Elastic Compliance Matrix: (Units=1/GPa)
#
#
# Indices 1 2 3 4 5 6 
#
# 1 0.020381 -0.007641 -0.003643 0.000000 -0.011351 0.000000
# 2 -0.007641 0.020031 -0.006540 0.000000 0.005669 0.000000
# 3 -0.003643 -0.006540 0.012602 0.000000 -0.000879 0.000000
# 4 0.000000 0.000000 0.000000 0.041899 0.000000 -0.001569
# 5 -0.011351 0.005669 -0.000879 0.000000 0.035173 0.000000
# 6 0.000000 0.000000 0.000000 -0.001569 0.000000 0.037445
#
#
# Mechanical properties :
#
#
# Convention : Reuss Voigt Hill
#
# Bulk Modulus (GPa) = 57.58766 65.05181 61.31974
# Shear Modulus (GPa) = 23.92689 26.99353 25.46021
#
# Velocity S-wave (km/s) = 3.48175 3.69815 3.59158
# Velocity P-wave (km/s) = 6.73352 7.15498 6.94745
#
# Compressibility (1/GPa) = 0.01736483
#
# Stress axis : x y z
#
# Youngs Moduli (GPa) = 49.06553 49.92223 79.35168
#
# Poissons Ratio (x) = 0.38147 0.28911
# Poissons Ratio (y) = 0.37493 0.51895
# Poissons Ratio (z) = 0.17877 0.32649
#
# Static dielectric constant tensor:
#      x y z
#    x 3.422170 0.000000 0.270190 
#    y 0.000000 3.602210 0.000000 
#    z 0.270190 0.000000 3.790100 
# 
# 
# High freq. dielectric constant tensor:
#      x y z
#    x 1.754380 0.000000 0.024610 
#    y 0.000000 1.760860 0.000000 
#    z 0.024610 0.000000 1.776210 
# 
# From -- ./inp_files/36348.got.cif
#   From: 2010.06.25/outbox.cif.g09.slc.cpg/sg10_19_cif.got.tgz:36348.got - 2010.06.27 22:07:45.
