data_PCOD8063984
_publ_section_title
;
Structure prediction by ZEFSAII (Michael W. Deem and Ramdas Pophale) SiO2 
 PCOD8063984
Probable space group: P 2/M
;
_chemical_formula_sum "Si O2"
_cell_formula_units_Z 24
_cell_length_a 22.531699
_cell_length_b 8.902383
_cell_length_c 11.309963
_cell_angle_alpha 90.000000
_cell_angle_beta 31.216720
_cell_angle_gamma 90.000000
_cell_volume 1175.771692
_symmetry_space_group_name_H-M "P 2/M"
_symmetry_group_IT_number 10
_symmetry_cell_setting 'monoclinic'
loop_
_space_group_symop_operation_xyz
x,y,z
-x,y,-z
-x,-y,-z
x,-y,z
loop_
_atom_site_type_symbol
_atom_site_label
_atom_site_fract_x
_atom_site_fract_y
_atom_site_fract_z
Si Si1 0.754564 0.178771 0.326763
Si Si2 0.617060 0.170945 0.339754
Si Si3 0.057436 0.673694 0.129300
Si Si4 0.813811 0.672786 0.621169
Si Si5 0.368678 0.177774 0.223870
Si Si6 0.164220 0.828251 0.172866
O O1 0.672926 0.243249 0.361559
O O2 0.697345 0.231566 0.545989
O O3 0.769431 0.000000 0.294324
O O4 0.879612 0.252622 0.091963
O O5 0.500000 0.254751 0.500000
O O6 0.587643 0.000000 0.424279
O O7 0.701518 0.180569 0.085008
O O8 0.092346 0.500000 0.079056
O O9 0.092278 0.756109 0.190242
O O10 0.919941 0.691794 0.348588
O O11 0.782063 0.500000 0.694036
O O12 0.700039 0.755753 0.769705
O O13 0.857246 0.739998 0.670429
O O14 0.367714 0.000000 0.213772
O O15 0.500000 0.236672 0.000000
O O16 0.124118 0.000000 0.256304
#
# Coordination Sequence:
#
# PCOD8063984 Si02
#       6
#     4   4   4   4   4   4
#     4   9  19  36  58  85 114 146 190 242 287 335
#     4   8  15  28  52  82 110 142 179 226 282 335
#     4  10  21  38  59  84 118 156 191 234 291 348
#     4  11  24  39  57  83 118 159 196 234 287 347
#     4  10  23  41  62  86 114 151 195 242 290 341
#     4  10  20  34  58  89 118 150 190 239 290 341
#
# _framework density 20.412126000000001
#
# number of rings (size 3 to 8) (size 9 to 14) (size 15 to 20)
#    0.000    2.333    0.000    3.000    2.333    6.333 
#    0.000    3.333    0.000    2.500    0.000    0.000 
#    0.000    0.000    0.000    0.000    0.000    0.000 
#
# Total GULP energy -297541.925049 kJ/mol
# GULP energy per Si atom -12397.580210 kJ/mol
# Density = 2.036567 g / cm^3
# Si number density = 20.412126 Si / 1000 Ang^3
#
#
#
# Elastic Constant Matrix: (Units=GPa)
#
#
# Indices 1 2 3 4 5 6 
#
# 1 50.8897 26.1110 39.3298 0.0000 0.7055 0.0000
# 2 26.1110 53.9551 38.3741 0.0000 -3.7088 0.0000
# 3 39.3298 38.3741 114.6691 0.0000 -3.8212 0.0000
# 4 0.0000 0.0000 0.0000 10.6256 0.0000 -9.8548
# 5 0.7055 -3.7088 -3.8212 0.0000 36.1591 0.0000
# 6 0.0000 0.0000 0.0000 -9.8548 0.0000 15.5646
#
#
#
# Elastic Compliance Matrix: (Units=1/GPa)
#
#
# Indices 1 2 3 4 5 6 
#
# 1 0.030206 -0.009652 -0.007208 0.000000 -0.002341 0.000000
# 2 -0.009652 0.027505 -0.005814 0.000000 0.002395 0.000000
# 3 -0.007208 -0.005814 0.013170 0.000000 0.000936 0.000000
# 4 0.000000 0.000000 0.000000 0.227994 0.000000 0.144355
# 5 -0.002341 0.002395 0.000936 0.000000 0.028046 0.000000
# 6 0.000000 0.000000 0.000000 0.144355 0.000000 0.155647
#
#
# Mechanical properties :
#
#
# Convention : Reuss Voigt Hill
#
# Bulk Modulus (GPa) = 39.16682 47.46041 43.31362
# Shear Modulus (GPa) = 9.32093 20.18314 14.75203
#
# Velocity S-wave (km/s) = 2.13922 3.14790 2.69124
# Velocity P-wave (km/s) = 5.03303 6.04268 5.56081
#
# Compressibility (1/GPa) = 0.02553182
#
# Stress axis : x y z
#
# Youngs Moduli (GPa) = 33.10605 36.35729 75.93068
#
# Poissons Ratio (x) = 0.35093 0.54732
# Poissons Ratio (y) = 0.31955 0.44147
# Poissons Ratio (z) = 0.23863 0.21139
#
# Static dielectric constant tensor:
#      x y z
#    x 3.597090 0.000000 -0.103870 
#    y 0.000000 3.471110 0.000000 
#    z -0.103870 0.000000 3.999860 
# 
# 
# High freq. dielectric constant tensor:
#      x y z
#    x 1.788300 0.000000 -0.005540 
#    y 0.000000 1.775180 0.000000 
#    z -0.005540 0.000000 1.812200 
# 
# From -- ./inp_files/56533.got.cif
#   From: 2010.06.25/outbox.cif.g09.slc.cpg/sg10_29_cif.got.tgz:56533.got - 2010.06.27 22:07:45.
