data_PCOD8063187
_publ_section_title
;
Structure prediction by ZEFSAII (Michael W. Deem and Ramdas Pophale) SiO2 
 PCOD8063187
Probable space group: P 2/M
;
_chemical_formula_sum "Si O2"
_cell_formula_units_Z 28
_cell_length_a 28.931289
_cell_length_b 9.232252
_cell_length_c 9.111707
_cell_angle_alpha 90.000000
_cell_angle_beta 38.759063
_cell_angle_gamma 90.000000
_cell_volume 1523.638709
_symmetry_space_group_name_H-M "P 2/M"
_symmetry_group_IT_number 10
_symmetry_cell_setting 'monoclinic'
loop_
_space_group_symop_operation_xyz
x,y,z
-x,y,-z
-x,-y,-z
x,-y,z
loop_
_atom_site_type_symbol
_atom_site_label
_atom_site_fract_x
_atom_site_fract_y
_atom_site_fract_z
Si Si1 0.072108 0.169278 0.240795
Si Si2 0.652700 0.829789 0.957310
Si Si3 0.923821 0.832856 0.108768
Si Si4 0.507886 0.161605 0.655452
Si Si5 0.794344 0.329532 0.586723
Si Si6 0.640502 0.665825 0.289034
Si Si7 0.196780 0.663432 0.094217
O O1 0.146321 0.234793 0.122235
O O2 0.000000 0.234397 0.500000
O O3 0.076883 0.000000 0.258475
O O4 0.065627 0.207073 0.086614
O O5 0.719779 0.747420 0.709805
O O6 0.670093 0.000000 0.921770
O O7 0.573125 0.801829 0.075102
O O8 0.647401 0.767882 0.132813
O O9 0.862495 0.728367 0.325773
O O10 0.900405 0.000000 0.188812
O O11 0.000000 0.798668 0.000000
O O12 0.500000 0.172534 0.500000
O O13 0.571253 0.272863 0.556011
O O14 0.531842 0.000000 0.642722
O O15 0.785656 0.500000 0.584749
O O16 0.806344 0.289786 0.727541
O O17 0.624544 0.500000 0.281953
O O18 0.719315 0.675489 0.176726
O O19 0.167686 0.500000 0.150491
#
# Coordination Sequence:
#
# PCOD8063187 Si02
#       7
#     4   4   4   4   4   4   4
#     4  10  21  36  55  78  99 125 164 203 243 294
#     4   9  16  26  41  63  94 130 166 205 248 292
#     4  10  21  37  56  77 101 129 162 202 248 296
#     4   8  14  23  36  59  91 127 165 202 245 293
#     4  10  20  33  50  74 102 133 170 206 246 297
#     4   9  16  25  39  63  95 129 166 205 245 292
#     4   9  19  33  48  71 102 134 167 203 245 292
#
# _framework density 18.37706
#
# number of rings (size 3 to 8) (size 9 to 14) (size 15 to 20)
#    0.000    2.714    0.000    3.857    0.000    8.857 
#    0.000    0.000    0.000    0.000    0.000    1.000 
#    0.000    8.000    0.000    0.000    0.000    0.000 
#
# Total GULP energy -347012.405284 kJ/mol
# GULP energy per Si atom -12393.300189 kJ/mol
# Density = 1.833523 g / cm^3
# Si number density = 18.377060 Si / 1000 Ang^3
#
#
#
# Elastic Constant Matrix: (Units=GPa)
#
#
# Indices 1 2 3 4 5 6 
#
# 1 84.0671 52.9870 63.7976 0.0000 -20.2619 0.0000
# 2 52.9870 98.4116 67.9007 0.0000 -19.3329 0.0000
# 3 63.7976 67.9007 106.6609 0.0000 -28.8857 0.0000
# 4 0.0000 0.0000 0.0000 25.7516 0.0000 -3.5032
# 5 -20.2619 -19.3329 -28.8857 0.0000 27.4332 0.0000
# 6 0.0000 0.0000 0.0000 -3.5032 0.0000 19.6805
#
#
#
# Elastic Compliance Matrix: (Units=1/GPa)
#
#
# Indices 1 2 3 4 5 6 
#
# 1 0.023397 -0.005189 -0.009794 0.000000 0.003311 0.000000
# 2 -0.005189 0.019286 -0.009136 0.000000 0.000139 0.000000
# 3 -0.009794 -0.009136 0.024267 0.000000 0.011879 0.000000
# 4 0.000000 0.000000 0.000000 0.039796 0.000000 0.007084
# 5 0.003311 0.000139 0.011879 0.000000 0.051504 0.000000
# 6 0.000000 0.000000 0.000000 0.007084 0.000000 0.052073
#
#
# Mechanical properties :
#
#
# Convention : Reuss Voigt Hill
#
# Bulk Modulus (GPa) = 53.44553 73.16782 63.30667
# Shear Modulus (GPa) = 18.88219 21.53668 20.20943
#
# Velocity S-wave (km/s) = 3.20892 3.42706 3.31978
# Velocity P-wave (km/s) = 6.54793 7.45392 7.01557
#
# Compressibility (1/GPa) = 0.01871064
#
# Stress axis : x y z
#
# Youngs Moduli (GPa) = 42.74102 51.84987 41.20775
#
# Poissons Ratio (x) = 0.26906 0.40360
# Poissons Ratio (y) = 0.22179 0.37649
# Poissons Ratio (z) = 0.41862 0.47372
#
# Static dielectric constant tensor:
#      x y z
#    x 3.306710 0.000000 -0.598680 
#    y 0.000000 3.444010 0.000000 
#    z -0.598680 0.000000 3.718950 
# 
# 
# High freq. dielectric constant tensor:
#      x y z
#    x 1.681530 0.000000 -0.043500 
#    y 0.000000 1.718130 0.000000 
#    z -0.043500 0.000000 1.704870 
# 
# From -- ./inp_files/37931.got.cif
#   From: 2010.06.25/outbox.cif.g09.slc.cpg/sg10_19_cif.got.tgz:37931.got - 2010.06.27 22:07:45.
