data_PCOD8063822
_publ_section_title
;
Structure prediction by ZEFSAII (Michael W. Deem and Ramdas Pophale) SiO2 
 PCOD8063822
Probable space group: P 2/M
;
_chemical_formula_sum "Si O2"
_cell_formula_units_Z 28
_cell_length_a 11.911377
_cell_length_b 14.396051
_cell_length_c 9.834600
_cell_angle_alpha 90.000000
_cell_angle_beta 123.511259
_cell_angle_gamma 90.000000
_cell_volume 1406.086825
_symmetry_space_group_name_H-M "P 2/M"
_symmetry_group_IT_number 10
_symmetry_cell_setting 'monoclinic'
loop_
_space_group_symop_operation_xyz
x,y,z
-x,y,-z
-x,-y,-z
x,-y,z
loop_
_atom_site_type_symbol
_atom_site_label
_atom_site_fract_x
_atom_site_fract_y
_atom_site_fract_z
Si Si1 0.692715 0.778415 0.035358
Si Si2 0.598734 0.392128 0.440607
Si Si3 0.652041 0.106418 0.554885
Si Si4 0.595329 0.222791 0.262188
Si Si5 0.154233 0.108831 0.073385
Si Si6 0.867750 0.392077 0.759370
Si Si7 0.164005 0.608625 0.960535
O O1 0.691638 0.790554 0.196998
O O2 0.722259 0.668478 0.037741
O O3 0.552979 0.813141 0.875995
O O4 0.808155 0.839891 0.041943
O O5 0.500000 0.367614 0.500000
O O6 0.584008 0.500000 0.390829
O O7 0.568620 0.329763 0.289248
O O8 0.751010 0.362288 0.579136
O O9 0.500000 0.119703 0.500000
O O10 0.668837 0.165427 0.429513
O O11 0.753990 0.144040 0.738752
O O12 0.685561 0.000000 0.543034
O O13 0.178127 0.000000 0.066504
O O14 0.000000 0.132747 0.000000
O O15 0.857330 0.500000 0.784261
O O16 0.015647 0.371151 0.796622
O O17 0.842806 0.349014 0.891405
O O18 0.203636 0.500000 0.976471
#
# Coordination Sequence:
#
# PCOD8063822 Si02
#       7
#     4   4   4   4   4   4   4
#     4  11  24  38  57  87 120 163 195 238 309 348
#     4  10  20  34  55  82 115 158 203 250 297 340
#     4  10  20  39  67  91 112 150 196 242 297 350
#     4  11  24  38  56  88 125 154 199 247 289 364
#     4  10  23  43  67  94 120 150 197 249 296 357
#     4   8  16  31  53  79 103 142 202 252 288 331
#     4   9  18  33  53  80 114 153 198 241 286 348
#
# _framework density 19.913423000000002
#
# number of rings (size 3 to 8) (size 9 to 14) (size 15 to 20)
#    0.000    2.143    1.429    2.143    4.000    2.857 
#    0.000    5.714    0.000    5.143    0.000    0.000 
#    0.000    0.000    0.000    0.000    0.000    0.000 
#
# Total GULP energy -347088.942903 kJ/mol
# GULP energy per Si atom -12396.033675 kJ/mol
# Density = 1.986810 g / cm^3
# Si number density = 19.913423 Si / 1000 Ang^3
#
#
#
# Elastic Constant Matrix: (Units=GPa)
#
#
# Indices 1 2 3 4 5 6 
#
# 1 107.3147 46.9967 54.9747 0.0000 -12.2012 0.0000
# 2 46.9967 76.0813 42.3428 0.0000 -17.4823 0.0000
# 3 54.9747 42.3428 98.4690 0.0000 -10.9435 0.0000
# 4 0.0000 0.0000 0.0000 20.5528 0.0000 3.1750
# 5 -12.2012 -17.4823 -10.9435 0.0000 35.2943 0.0000
# 6 0.0000 0.0000 0.0000 3.1750 0.0000 19.1501
#
#
#
# Elastic Compliance Matrix: (Units=1/GPa)
#
#
# Indices 1 2 3 4 5 6 
#
# 1 0.014888 -0.005910 -0.005721 0.000000 0.000445 0.000000
# 2 -0.005910 0.021185 -0.005045 0.000000 0.006886 0.000000
# 3 -0.005721 -0.005045 0.015557 0.000000 0.000347 0.000000
# 4 0.000000 0.000000 0.000000 0.049934 0.000000 -0.008279
# 5 0.000445 0.006886 0.000347 0.000000 0.032006 0.000000
# 6 0.000000 0.000000 0.000000 -0.008279 0.000000 0.053592
#
#
# Mechanical properties :
#
#
# Convention : Reuss Voigt Hill
#
# Bulk Modulus (GPa) = 54.70991 63.38815 59.04903
# Shear Modulus (GPa) = 22.06473 24.16948 23.11711
#
# Velocity S-wave (km/s) = 3.33232 3.48764 3.41087
# Velocity P-wave (km/s) = 6.50687 6.93680 6.72527
#
# Compressibility (1/GPa) = 0.01827823
#
# Stress axis : x y z
#
# Youngs Moduli (GPa) = 67.16809 47.20409 64.27855
#
# Poissons Ratio (x) = 0.27899 0.36773
# Poissons Ratio (y) = 0.39698 0.32426
# Poissons Ratio (z) = 0.38426 0.23813
#
# Static dielectric constant tensor:
#      x y z
#    x 3.087120 0.000000 -0.579370 
#    y 0.000000 3.547990 0.000000 
#    z -0.579370 0.000000 2.278240 
# 
# 
# High freq. dielectric constant tensor:
#      x y z
#    x 1.764090 0.000000 0.017270 
#    y 0.000000 1.776830 0.000000 
#    z 0.017270 0.000000 1.765020 
# 
# From -- ./inp_files/25442.got.cif
#   From: 2010.06.25/outbox.cif.g09.slc.cpg/sg10_13_cif.got.tgz:25442.got - 2010.06.27 22:07:45.
