data_PCOD8063025
_publ_section_title
;
Structure prediction by ZEFSAII (Michael W. Deem and Ramdas Pophale) SiO2 
 PCOD8063025
Probable space group: P 2/M
;
_chemical_formula_sum "Si O2"
_cell_formula_units_Z 24
_cell_length_a 12.121908
_cell_length_b 8.068609
_cell_length_c 12.692158
_cell_angle_alpha 90.000000
_cell_angle_beta 76.486628
_cell_angle_gamma 90.000000
_cell_volume 1207.013960
_symmetry_space_group_name_H-M "P 2/M"
_symmetry_group_IT_number 10
_symmetry_cell_setting 'monoclinic'
loop_
_space_group_symop_operation_xyz
x,y,z
-x,y,-z
-x,-y,-z
x,-y,z
loop_
_atom_site_type_symbol
_atom_site_label
_atom_site_fract_x
_atom_site_fract_y
_atom_site_fract_z
Si Si1 0.669868 0.321458 0.788382
Si Si2 0.548955 0.809358 0.231502
Si Si3 0.864715 0.500000 0.649422
Si Si4 0.771714 0.191988 0.302145
Si Si5 0.690209 0.813945 0.003588
Si Si6 0.887166 0.688008 0.077757
Si Si7 0.124326 0.500000 0.601962
O O1 0.638723 0.500000 0.844504
O O2 0.573231 0.276859 0.723062
O O3 0.793988 0.335936 0.704047
O O4 0.664577 0.191759 0.885097
O O5 0.645731 0.750590 0.292356
O O6 0.529025 0.000000 0.256213
O O7 0.583815 0.769470 0.102335
O O8 0.869916 0.500000 0.523770
O O9 0.992057 0.500000 0.668842
O O10 0.853541 0.195581 0.182463
O O11 0.814526 0.329614 0.375227
O O12 0.773302 0.000000 0.345056
O O13 0.728398 0.000000 0.023547
O O14 0.792155 0.689898 0.008069
O O15 0.903767 0.500000 0.115216
O O16 0.000000 0.759371 0.000000
#
# Coordination Sequence:
#
# PCOD8063025 Si02
#       7
#     4   4   2   4   4   4   2
#     4  10  21  35  55  82 116 153 207 240 287 358
#     4   9  19  36  55  88 129 158 194 241 287 358
#     4   9  26  43  61  89 110 150 205 259 310 363
#     4  10  22  38  64  94 116 159 206 236 305 370
#     4  10  20  32  50  81 125 168 196 232 291 351
#     4  10  20  32  51  84 124 160 199 244 288 347
#     4  11  22  49  69  78 124 155 189 273 316 348
#
# _framework density 19.883780000000002
#
# number of rings (size 3 to 8) (size 9 to 14) (size 15 to 20)
#    0.500    1.667    0.833    3.000    3.500    4.667 
#    0.000    5.833    0.000    2.000    0.000    0.000 
#    0.000    0.000    0.000    0.000    0.000    0.000 
#
# Total GULP energy -297356.153091 kJ/mol
# GULP energy per Si atom -12389.839712 kJ/mol
# Density = 1.983852 g / cm^3
# Si number density = 19.883780 Si / 1000 Ang^3
#
#
#
# Elastic Constant Matrix: (Units=GPa)
#
#
# Indices 1 2 3 4 5 6 
#
# 1 99.7926 31.6130 31.6315 0.0000 3.5744 0.0000
# 2 31.6130 73.4886 23.6773 0.0000 7.4062 0.0000
# 3 31.6315 23.6773 50.6202 0.0000 12.8358 0.0000
# 4 0.0000 0.0000 0.0000 16.4612 0.0000 16.7688
# 5 3.5744 7.4062 12.8358 0.0000 21.8291 0.0000
# 6 0.0000 0.0000 0.0000 16.7688 0.0000 -6.3419
#
#
#
# Elastic Compliance Matrix: (Units=1/GPa)
#
#
# Indices 1 2 3 4 5 6 
#
# 1 0.013470 -0.003708 -0.007571 0.000000 0.003504 0.000000
# 2 -0.003708 0.017070 -0.005115 0.000000 -0.002176 0.000000
# 3 -0.007571 -0.005115 0.030702 0.000000 -0.015078 0.000000
# 4 0.000000 0.000000 0.000000 0.016447 0.000000 0.043489
# 5 0.003504 -0.002176 -0.015078 0.000000 0.054841 0.000000
# 6 0.000000 0.000000 0.000000 0.043489 0.000000 -0.042691
#
#
# Mechanical properties :
#
#
# Convention : Reuss Voigt Hill
#
# Bulk Modulus (GPa) = 35.14630 44.19390 39.67010
# Shear Modulus (GPa) = 37.84643 15.52166 26.68405
#
# Velocity S-wave (km/s) = 4.36751 2.79699 3.66731
# Velocity P-wave (km/s) = 6.56870 5.71885 6.15845
#
# Compressibility (1/GPa) = 0.02845250
#
# Stress axis : x y z
#
# Youngs Moduli (GPa) = 74.24005 58.58163 32.57118
#
# Poissons Ratio (x) = 0.21723 0.24660
# Poissons Ratio (y) = 0.27530 0.16661
# Poissons Ratio (z) = 0.56208 0.29967
#
# Static dielectric constant tensor:
#      x y z
#    x 3.879760 0.000000 0.065530 
#    y 0.000000 3.477630 0.000000 
#    z 0.065530 0.000000 3.183210 
# 
# 
# High freq. dielectric constant tensor:
#      x y z
#    x 1.784720 0.000000 0.009210 
#    y 0.000000 1.769060 0.000000 
#    z 0.009210 0.000000 1.737810 
# 
# From -- ./inp_files/45198.got.cif
#   From: 2010.06.25/outbox.cif.g09.slc.cpg/sg10_23_cif.got.tgz:45198.got - 2010.06.27 22:07:45.
