data_PCOD8063986
_publ_section_title
;
Structure prediction by ZEFSAII (Michael W. Deem and Ramdas Pophale) SiO2 
 PCOD8063986
Probable space group: P 2/M
;
_chemical_formula_sum "Si O2"
_cell_formula_units_Z 28
_cell_length_a 14.166654
_cell_length_b 8.658269
_cell_length_c 19.432654
_cell_angle_alpha 90.000000
_cell_angle_beta 37.096406
_cell_angle_gamma 90.000000
_cell_volume 1437.677715
_symmetry_space_group_name_H-M "P 2/M"
_symmetry_group_IT_number 10
_symmetry_cell_setting 'monoclinic'
loop_
_space_group_symop_operation_xyz
x,y,z
-x,y,-z
-x,-y,-z
x,-y,z
loop_
_atom_site_type_symbol
_atom_site_label
_atom_site_fract_x
_atom_site_fract_y
_atom_site_fract_z
Si Si1 0.572099 0.180342 0.154351
Si Si2 0.915024 0.320447 0.753660
Si Si3 0.239413 0.179016 0.575139
Si Si4 0.489921 0.320463 0.669580
Si Si5 0.887729 0.320543 0.927128
Si Si6 0.386434 0.818701 0.126993
Si Si7 0.211125 0.821029 0.751502
O O1 0.483900 0.224787 0.275599
O O2 0.461702 0.229242 0.155516
O O3 0.610118 0.000000 0.129054
O O4 0.734415 0.272646 0.057825
O O5 0.951653 0.500000 0.723245
O O6 0.861968 0.279835 0.861999
O O7 0.777858 0.269595 0.782242
O O8 0.070702 0.226392 0.643421
O O9 0.372320 0.279535 0.462593
O O10 0.247925 0.216416 0.650889
O O11 0.270329 0.000000 0.541995
O O12 0.494911 0.500000 0.684231
O O13 0.323765 0.279866 0.733039
O O14 0.922708 0.500000 0.917720
O O15 0.033450 0.224790 0.872362
O O16 0.354061 0.000000 0.139909
O O17 0.500000 0.762288 0.000000
O O18 0.238028 0.000000 0.752845
#
# Coordination Sequence:
#
# PCOD8063986 Si02
#       7
#     4   4   4   4   4   4   4
#     4  11  23  39  59  83 117 156 195 236 284 345
#     4  10  20  34  58  90 121 150 186 237 291 338
#     4  10  21  39  63  87 115 151 195 239 281 337
#     4  12  25  40  58  83 118 154 192 239 290 342
#     4  10  20  35  56  87 121 151 188 236 290 340
#     4  10  20  36  60  88 116 150 193 236 283 341
#     4  10  21  38  62  88 114 150 196 238 282 339
#
# _framework density 19.475853000000001
#
# number of rings (size 3 to 8) (size 9 to 14) (size 15 to 20)
#    0.000    1.571    1.429    3.857    0.000    6.571 
#    0.000    3.571    0.000    4.286    0.000    0.000 
#    0.000    0.000    0.000    0.000    0.000    0.000 
#
# Total GULP energy -347402.053143 kJ/mol
# GULP energy per Si atom -12407.216184 kJ/mol
# Density = 1.943152 g / cm^3
# Si number density = 19.475853 Si / 1000 Ang^3
#
#
#
# Elastic Constant Matrix: (Units=GPa)
#
#
# Indices 1 2 3 4 5 6 
#
# 1 106.4127 31.6917 30.4674 0.0000 -9.6094 0.0000
# 2 31.6917 59.1528 22.9754 0.0000 -2.1053 0.0000
# 3 30.4674 22.9754 36.1562 0.0000 -7.1381 0.0000
# 4 0.0000 0.0000 0.0000 34.4631 0.0000 -3.1028
# 5 -9.6094 -2.1053 -7.1381 0.0000 24.4442 0.0000
# 6 0.0000 0.0000 0.0000 -3.1028 0.0000 30.0229
#
#
#
# Elastic Compliance Matrix: (Units=1/GPa)
#
#
# Indices 1 2 3 4 5 6 
#
# 1 0.013067 -0.003749 -0.008148 0.000000 0.002435 0.000000
# 2 -0.003749 0.023651 -0.012478 0.000000 -0.003081 0.000000
# 3 -0.008148 -0.012478 0.044153 0.000000 0.008616 0.000000
# 4 0.000000 0.000000 0.000000 0.029289 0.000000 0.003027
# 5 0.002435 -0.003081 0.008616 0.000000 0.044117 0.000000
# 6 0.000000 0.000000 0.000000 0.003027 0.000000 0.033621
#
#
# Mechanical properties :
#
#
# Convention : Reuss Voigt Hill
#
# Bulk Modulus (GPa) = 31.13172 41.33232 36.23202
# Shear Modulus (GPa) = 20.21394 25.55853 22.88623
#
# Velocity S-wave (km/s) = 3.22514 3.62652 3.43170
# Velocity P-wave (km/s) = 5.46701 6.22928 5.86055
#
# Compressibility (1/GPa) = 0.03212157
#
# Stress axis : x y z
#
# Youngs Moduli (GPa) = 76.53102 42.28162 22.64841
#
# Poissons Ratio (x) = 0.15853 0.18453
# Poissons Ratio (y) = 0.28694 0.28260
# Poissons Ratio (z) = 0.62354 0.52758
#
# Static dielectric constant tensor:
#      x y z
#    x 3.528770 0.000000 -0.060090 
#    y 0.000000 3.532250 0.000000 
#    z -0.060090 0.000000 3.476400 
# 
# 
# High freq. dielectric constant tensor:
#      x y z
#    x 1.754950 0.000000 -0.011030 
#    y 0.000000 1.767350 0.000000 
#    z -0.011030 0.000000 1.753650 
# 
# From -- ./inp_files/77813.got.cif
#   From: 2010.06.25/outbox.cif.g09.slc.cpg/sg10_39_cif.got.tgz:77813.got - 2010.06.27 22:07:45.
