data_PCOD8063989
_publ_section_title
;
Structure prediction by ZEFSAII (Michael W. Deem and Ramdas Pophale) SiO2 
 PCOD8063989
Probable space group: P 2/M
;
_chemical_formula_sum "Si O2"
_cell_formula_units_Z 28
_cell_length_a 20.975633
_cell_length_b 9.179719
_cell_length_c 14.477949
_cell_angle_alpha 90.000000
_cell_angle_beta 150.581751
_cell_angle_gamma 90.000000
_cell_volume 1369.283120
_symmetry_space_group_name_H-M "P 2/M"
_symmetry_group_IT_number 10
_symmetry_cell_setting 'monoclinic'
loop_
_space_group_symop_operation_xyz
x,y,z
-x,y,-z
-x,-y,-z
x,-y,z
loop_
_atom_site_type_symbol
_atom_site_label
_atom_site_fract_x
_atom_site_fract_y
_atom_site_fract_z
Si Si1 0.100271 0.828655 0.050088
Si Si2 0.638064 0.839569 0.221331
Si Si3 0.861358 0.333828 0.425775
Si Si4 0.506097 0.833621 0.237615
Si Si5 0.747757 0.332461 0.089597
Si Si6 0.927795 0.829633 0.193485
Si Si7 0.605940 0.173228 0.560304
O O1 0.247381 0.764141 0.240898
O O2 0.109361 0.000000 0.078641
O O3 0.042790 0.792413 0.876178
O O4 0.000000 0.761791 0.000000
O O5 0.720524 0.706145 0.286989
O O6 0.623192 0.820327 0.312678
O O7 0.701140 0.000000 0.281038
O O8 0.500000 0.833152 0.000000
O O9 0.896876 0.500000 0.496588
O O10 0.855722 0.315658 0.307375
O O11 0.958273 0.223608 0.596672
O O12 0.558074 0.773596 0.400125
O O13 0.458048 0.000000 0.185984
O O14 0.386977 0.738328 0.049572
O O15 0.724652 0.500000 0.036827
O O16 0.796499 0.250974 0.059191
O O17 0.906460 0.000000 0.180517
O O18 0.500000 0.234733 0.500000
O O19 0.611320 0.000000 0.574935
#
# Coordination Sequence:
#
# PCOD8063989 Si02
#       7
#     4   4   4   4   4   4   4
#     4   9  19  35  57  87 119 149 189 244 300 350
#     4  10  20  35  56  85 117 148 190 245 291 335
#     4  11  24  39  57  82 117 159 198 234 285 354
#     4  10  20  34  59  88 115 148 192 240 289 340
#     4  11  23  39  58  83 119 157 192 233 289 353
#     4  11  23  38  62  88 113 148 195 245 292 340
#     4   9  17  31  54  85 117 147 185 238 294 346
#
# _framework density 20.448657000000001
#
# number of rings (size 3 to 8) (size 9 to 14) (size 15 to 20)
#    0.000    1.857    1.429    2.571    2.000    6.571 
#    0.000    0.000    0.000    6.429    0.000    0.000 
#    0.000    0.000    0.000    0.000    0.000    0.000 
#
# Total GULP energy -347151.987225 kJ/mol
# GULP energy per Si atom -12398.285258 kJ/mol
# Density = 2.040212 g / cm^3
# Si number density = 20.448657 Si / 1000 Ang^3
#
#
#
# Elastic Constant Matrix: (Units=GPa)
#
#
# Indices 1 2 3 4 5 6 
#
# 1 119.8671 29.2090 24.6012 0.0000 -4.9000 0.0000
# 2 29.2090 70.5047 21.4022 0.0000 -5.6762 0.0000
# 3 24.6012 21.4022 73.9214 0.0000 -2.5378 0.0000
# 4 0.0000 0.0000 0.0000 4.0206 0.0000 -1.9447
# 5 -4.9000 -5.6762 -2.5378 0.0000 34.2730 0.0000
# 6 0.0000 0.0000 0.0000 -1.9447 0.0000 15.7370
#
#
#
# Elastic Compliance Matrix: (Units=1/GPa)
#
#
# Indices 1 2 3 4 5 6 
#
# 1 0.009622 -0.003253 -0.002237 0.000000 0.000671 0.000000
# 2 -0.003253 0.016825 -0.003718 0.000000 0.002046 0.000000
# 3 -0.002237 -0.003718 0.015356 0.000000 0.000201 0.000000
# 4 0.000000 0.000000 0.000000 0.264534 0.000000 0.032690
# 5 0.000671 0.002046 0.000201 0.000000 0.029627 0.000000
# 6 0.000000 0.000000 0.000000 0.032690 0.000000 0.067584
#
#
# Mechanical properties :
#
#
# Convention : Reuss Voigt Hill
#
# Bulk Modulus (GPa) = 42.76221 46.07977 44.42099
# Shear Modulus (GPa) = 11.63441 23.41150 17.52296
#
# Velocity S-wave (km/s) = 2.38787 3.38730 2.93050
# Velocity P-wave (km/s) = 5.34415 6.15481 5.76375
#
# Compressibility (1/GPa) = 0.02338513
#
# Stress axis : x y z
#
# Youngs Moduli (GPa) = 103.92980 59.43697 65.12144
#
# Poissons Ratio (x) = 0.19335 0.14570
# Poissons Ratio (y) = 0.33808 0.24214
# Poissons Ratio (z) = 0.23252 0.22100
#
# Static dielectric constant tensor:
#      x y z
#    x 4.094210 0.000000 0.055470 
#    y 0.000000 3.364900 0.000000 
#    z 0.055470 0.000000 3.694350 
# 
# 
# High freq. dielectric constant tensor:
#      x y z
#    x 1.813990 0.000000 -0.001120 
#    y 0.000000 1.759220 0.000000 
#    z -0.001120 0.000000 1.799920 
# 
# From -- ./inp_files/49556.got.cif
#   From: 2010.06.25/outbox.cif.g09.slc.cpg/sg10_25_cif.got.tgz:49556.got - 2010.06.27 22:07:45.
