data_PCOD8063939
_publ_section_title
;
Structure prediction by ZEFSAII (Michael W. Deem and Ramdas Pophale) SiO2 
 PCOD8063939
Probable space group: P 2/M
;
_chemical_formula_sum "Si O2"
_cell_formula_units_Z 28
_cell_length_a 31.478700
_cell_length_b 7.894858
_cell_length_c 9.835080
_cell_angle_alpha 90.000000
_cell_angle_beta 35.217947
_cell_angle_gamma 90.000000
_cell_volume 1409.548774
_symmetry_space_group_name_H-M "P 2/M"
_symmetry_group_IT_number 10
_symmetry_cell_setting 'monoclinic'
loop_
_space_group_symop_operation_xyz
x,y,z
-x,y,-z
-x,-y,-z
x,-y,z
loop_
_atom_site_type_symbol
_atom_site_label
_atom_site_fract_x
_atom_site_fract_y
_atom_site_fract_z
Si Si1 0.890010 0.000000 0.197275
Si Si2 0.930187 0.304431 0.588643
Si Si3 0.340409 0.689482 0.078785
Si Si4 0.502411 0.814142 0.332412
Si Si5 0.226359 0.308729 0.880235
Si Si6 0.346487 0.192586 0.762943
Si Si7 0.215694 0.299448 0.597298
Si Si8 0.052529 0.000000 0.659831
O O1 0.853065 0.176451 0.248228
O O2 0.894969 0.000000 0.346968
O O3 0.968211 0.000000 0.920879
O O4 0.931255 0.500000 0.532522
O O5 0.929388 0.172845 0.467450
O O6 0.000000 0.267242 0.500000
O O7 0.858423 0.267616 0.867070
O O8 0.320695 0.500000 0.161531
O O9 0.280673 0.779414 0.332187
O O10 0.424816 0.716057 0.905428
O O11 0.324255 0.723328 0.963176
O O12 0.500000 0.820524 0.500000
O O13 0.423089 0.729397 0.498707
O O14 0.510107 0.000000 0.247467
O O15 0.245482 0.500000 0.870543
O O16 0.280159 0.195610 0.830662
O O17 0.242647 0.273262 0.680859
O O18 0.365991 0.000000 0.749248
O O19 0.194477 0.500000 0.629494
#
# Coordination Sequence:
#
# PCOD8063939 Si02
#       8
#     2   4   4   4   4   4   4   2
#     4  11  26  42  64  88 121 166 190 240 312 347
#     4  10  22  40  65  91 121 160 199 247 301 348
#     4  10  20  34  57  84 114 156 196 238 297 352
#     4   8  16  32  51  79 115 151 192 240 293 347
#     4  10  22  39  59  85 117 153 197 246 296 348
#     4  10  21  34  56  87 117 150 195 250 294 344
#     4  10  24  42  60  87 122 159 200 241 295 362
#     4  11  25  42  62  96 120 150 210 245 286 365
#
# _framework density 19.864512999999999
#
# number of rings (size 3 to 8) (size 9 to 14) (size 15 to 20)
#    0.000    2.143    0.000    2.786    6.000    5.429 
#    0.000    2.143    0.000    4.286    0.000    0.000 
#    0.000    0.000    0.000    0.000    0.000    0.000 
#
# Total GULP energy -346969.033133 kJ/mol
# GULP energy per Si atom -12391.751183 kJ/mol
# Density = 1.981930 g / cm^3
# Si number density = 19.864513 Si / 1000 Ang^3
#
#
#
# Elastic Constant Matrix: (Units=GPa)
#
#
# Indices 1 2 3 4 5 6 
#
# 1 99.3874 28.2670 45.0093 0.0000 -11.4010 0.0000
# 2 28.2670 76.5526 26.2071 0.0000 3.4614 0.0000
# 3 45.0093 26.2071 88.6599 0.0000 -3.1691 0.0000
# 4 0.0000 0.0000 0.0000 24.9478 0.0000 -3.1011
# 5 -11.4010 3.4614 -3.1691 0.0000 32.4067 0.0000
# 6 0.0000 0.0000 0.0000 -3.1011 0.0000 27.4012
#
#
#
# Elastic Compliance Matrix: (Units=1/GPa)
#
#
# Indices 1 2 3 4 5 6 
#
# 1 0.014352 -0.003429 -0.006100 0.000000 0.004819 0.000000
# 2 -0.003429 0.015481 -0.002948 0.000000 -0.003148 0.000000
# 3 -0.006100 -0.002948 0.015235 0.000000 -0.000341 0.000000
# 4 0.000000 0.000000 0.000000 0.040656 0.000000 0.004601
# 5 0.004819 -0.003148 -0.000341 0.000000 0.032856 0.000000
# 6 0.000000 0.000000 0.000000 0.004601 0.000000 0.037015
#
#
# Mechanical properties :
#
#
# Convention : Reuss Voigt Hill
#
# Bulk Modulus (GPa) = 49.71686 51.50743 50.61215
# Shear Modulus (GPa) = 26.70174 27.95890 27.33032
#
# Velocity S-wave (km/s) = 3.67030 3.75571 3.71325
# Velocity P-wave (km/s) = 6.56078 6.69274 6.62709
#
# Compressibility (1/GPa) = 0.02011390
#
# Stress axis : x y z
#
# Youngs Moduli (GPa) = 69.67510 64.59717 65.63823
#
# Poissons Ratio (x) = 0.22151 0.40041
# Poissons Ratio (y) = 0.23892 0.19348
# Poissons Ratio (z) = 0.42504 0.19041
#
# Static dielectric constant tensor:
#      x y z
#    x 3.459960 0.000000 -0.214660 
#    y 0.000000 3.651630 0.000000 
#    z -0.214660 0.000000 3.812350 
# 
# 
# High freq. dielectric constant tensor:
#      x y z
#    x 1.758430 0.000000 -0.017140 
#    y 0.000000 1.776790 0.000000 
#    z -0.017140 0.000000 1.785830 
# 
# From -- ./inp_files/37200.got.cif
#   From: 2010.06.25/outbox.cif.g09.slc.cpg/sg10_19_cif.got.tgz:37200.got - 2010.06.27 22:07:45.
