data_PCOD8063472
_publ_section_title
;
Structure prediction by ZEFSAII (Michael W. Deem and Ramdas Pophale) SiO2 
 PCOD8063472
Probable space group: P 2/M
;
_chemical_formula_sum "Si O2"
_cell_formula_units_Z 32
_cell_length_a 10.321627
_cell_length_b 9.007237
_cell_length_c 23.351412
_cell_angle_alpha 90.000000
_cell_angle_beta 123.858152
_cell_angle_gamma 90.000000
_cell_volume 1802.811836
_symmetry_space_group_name_H-M "P 2/M"
_symmetry_group_IT_number 10
_symmetry_cell_setting 'monoclinic'
loop_
_space_group_symop_operation_xyz
x,y,z
-x,y,-z
-x,-y,-z
x,-y,z
loop_
_atom_site_type_symbol
_atom_site_label
_atom_site_fract_x
_atom_site_fract_y
_atom_site_fract_z
Si Si1 0.324163 0.176262 0.461715
Si Si2 0.034363 0.824341 0.916530
Si Si3 0.869754 0.674329 0.176403
Si Si4 0.757063 0.824707 0.926872
Si Si5 0.591818 0.825462 0.169753
Si Si6 0.173055 0.826272 0.539242
Si Si7 0.213570 0.828608 0.674211
Si Si8 0.939249 0.673442 0.665609
O O1 0.500000 0.232281 0.500000
O O2 0.264642 0.241516 0.507941
O O3 0.224977 0.245350 0.385187
O O4 0.312578 0.000000 0.454215
O O5 0.063622 0.737479 0.865759
O O6 0.868490 0.771152 0.902284
O O7 0.035652 0.000000 0.905184
O O8 0.170405 0.778510 0.994381
O O9 0.842008 0.500000 0.164241
O O10 0.703906 0.747581 0.151313
O O11 0.998180 0.713712 0.255910
O O12 0.582625 0.758479 0.878815
O O13 0.748607 0.000000 0.920712
O O14 0.646283 0.789691 0.248029
O O15 0.595683 0.000000 0.157552
O O16 0.265624 0.794878 0.621621
O O17 0.000000 0.756358 0.500000
O O18 0.158303 0.000000 0.524173
O O19 0.062560 0.730313 0.649384
O O20 0.162900 0.000000 0.668584
O O21 0.915916 0.500000 0.651817
#
# Coordination Sequence:
#
# PCOD8063472 Si02
#       8
#     4   4   4   4   4   4   4   4
#     4  10  20  34  51  74 101 128 162 204 247 294
#     4   9  17  33  55  75 101 136 169 204 250 305
#     4  10  21  35  50  73 103 134 171 210 248 296
#     4   8  16  32  53  78 104 129 164 211 256 297
#     4   9  17  31  52  76 100 129 167 209 253 300
#     4   9  15  27  49  72  96 123 154 198 244 284
#     4   9  16  29  51  73  95 126 164 203 248 294
#     4  10  20  34  51  69  98 134 165 202 247 291
#
# _framework density 17.750049000000001
#
# number of rings (size 3 to 8) (size 9 to 14) (size 15 to 20)
#    0.000    2.750    1.250    1.500    0.000    2.250 
#    2.250    6.250    0.000    0.000    0.000    0.000 
#    0.000    0.000    0.000    0.000    0.000    0.000 
#
# Total GULP energy -396692.816194 kJ/mol
# GULP energy per Si atom -12396.650506 kJ/mol
# Density = 1.770965 g / cm^3
# Si number density = 17.750049 Si / 1000 Ang^3
#
#
#
# Elastic Constant Matrix: (Units=GPa)
#
#
# Indices 1 2 3 4 5 6 
#
# 1 145.0834 39.1562 89.1049 0.0000 5.2087 0.0000
# 2 39.1562 37.7815 36.2947 0.0000 3.3126 0.0000
# 3 89.1049 36.2947 117.7314 0.0000 5.3743 0.0000
# 4 0.0000 0.0000 0.0000 20.2655 0.0000 -1.2741
# 5 5.2087 3.3126 5.3743 0.0000 36.3313 0.0000
# 6 0.0000 0.0000 0.0000 -1.2741 0.0000 3.4991
#
#
#
# Elastic Compliance Matrix: (Units=1/GPa)
#
#
# Indices 1 2 3 4 5 6 
#
# 1 0.013792 -0.006052 -0.008566 0.000000 -0.000159 0.000000
# 2 -0.006052 0.040368 -0.007789 0.000000 -0.001661 0.000000
# 3 -0.008566 -0.007789 0.017407 0.000000 -0.000637 0.000000
# 4 0.000000 0.000000 0.000000 0.050501 0.000000 0.018388
# 5 -0.000159 -0.001661 -0.000637 0.000000 0.027793 0.000000
# 6 0.000000 0.000000 0.000000 0.018388 0.000000 0.292480
#
#
# Mechanical properties :
#
#
# Convention : Reuss Voigt Hill
#
# Bulk Modulus (GPa) = 37.37647 69.96755 53.67201
# Shear Modulus (GPa) = 10.07918 21.08855 15.58386
#
# Velocity S-wave (km/s) = 2.38552 3.45060 2.96626
# Velocity P-wave (km/s) = 5.35635 7.44173 6.48343
#
# Compressibility (1/GPa) = 0.02675480
#
# Stress axis : x y z
#
# Youngs Moduli (GPa) = 72.50372 24.77233 57.44730
#
# Poissons Ratio (x) = 0.14991 0.49209
# Poissons Ratio (y) = 0.43876 0.44744
# Poissons Ratio (z) = 0.62106 0.19295
#
# Static dielectric constant tensor:
#      x y z
#    x 3.429250 0.000000 0.118080 
#    y 0.000000 2.991770 0.000000 
#    z 0.118080 0.000000 3.518490 
# 
# 
# High freq. dielectric constant tensor:
#      x y z
#    x 1.678460 0.000000 -0.002670 
#    y 0.000000 1.655550 0.000000 
#    z -0.002670 0.000000 1.695340 
# 
# From -- ./inp_files/52753.got.cif
#   From: 2010.06.25/outbox.cif.g09.slc.cpg/sg10_27_cif.got.tgz:52753.got - 2010.06.27 22:07:45.
