data_PCOD8063957
_publ_section_title
;
Structure prediction by ZEFSAII (Michael W. Deem and Ramdas Pophale) SiO2 
 PCOD8063957
Probable space group: P 2/M
;
_chemical_formula_sum "Si O2"
_cell_formula_units_Z 28
_cell_length_a 5.412713
_cell_length_b 9.339568
_cell_length_c 31.091329
_cell_angle_alpha 90.000000
_cell_angle_beta 129.172071
_cell_angle_gamma 90.000000
_cell_volume 1218.496370
_symmetry_space_group_name_H-M "P 2/M"
_symmetry_group_IT_number 10
_symmetry_cell_setting 'monoclinic'
loop_
_space_group_symop_operation_xyz
x,y,z
-x,y,-z
-x,-y,-z
x,-y,z
loop_
_atom_site_type_symbol
_atom_site_label
_atom_site_fract_x
_atom_site_fract_y
_atom_site_fract_z
Si Si1 0.697714 0.656221 0.825285
Si Si2 0.548490 0.156943 0.879879
Si Si3 0.955351 0.170038 0.624025
Si Si4 0.039824 0.657266 0.712687
Si Si5 0.228492 0.830656 0.562081
Si Si6 0.110341 0.156354 0.232686
Si Si7 0.370360 0.333431 0.032578
O O1 0.869512 0.500000 0.845229
O O2 0.786096 0.736119 0.879953
O O3 0.323043 0.630121 0.777425
O O4 0.794483 0.751404 0.796736
O O5 0.437904 0.237164 0.911535
O O6 0.264754 0.130475 0.815036
O O7 0.700881 0.000000 0.906974
O O8 0.588319 0.219656 0.591317
O O9 0.151582 0.257486 0.682019
O O10 0.090859 0.221618 0.592955
O O11 0.993981 0.000000 0.634564
O O12 0.891533 0.500000 0.685192
O O13 0.799397 0.761574 0.712832
O O14 0.000000 0.766003 0.500000
O O15 0.212700 0.000000 0.558867
O O16 0.281604 0.000000 0.253210
O O17 0.434452 0.500000 0.048574
O O18 0.500000 0.289030 0.000000
O O19 0.000000 0.294504 0.000000
#
# Coordination Sequence:
#
# PCOD8063957 Si02
#       7
#     4   4   4   4   4   4   4
#     4  10  21  37  59  84 115 157 198 240 292 356
#     4  10  22  39  59  87 118 153 197 247 302 355
#     4  10  20  34  57  87 115 152 195 246 301 349
#     4  10  22  38  54  81 117 156 198 240 293 356
#     4   9  18  34  57  85 115 149 196 249 299 352
#     4  10  21  37  59  86 117 152 194 245 296 353
#     4  10  23  42  63  90 122 160 203 249 301 360
#
# _framework density 22.979140999999998
#
# number of rings (size 3 to 8) (size 9 to 14) (size 15 to 20)
#    0.000    2.143    0.000    2.143    4.000    5.714 
#    0.000    0.000    0.000    2.571    0.000    0.000 
#    0.000    0.000    0.000    0.000    0.000    0.000 
#
# Total GULP energy -346933.076036 kJ/mol
# GULP energy per Si atom -12390.467001 kJ/mol
# Density = 2.292684 g / cm^3
# Si number density = 22.979141 Si / 1000 Ang^3
#
#
#
# Elastic Constant Matrix: (Units=GPa)
#
#
# Indices 1 2 3 4 5 6 
#
# 1 111.2449 36.9962 32.7133 0.0000 -41.6245 0.0000
# 2 36.9962 175.6564 38.9077 0.0000 -47.5912 0.0000
# 3 32.7133 38.9077 94.7127 0.0000 -38.2067 0.0000
# 4 0.0000 0.0000 0.0000 33.4366 0.0000 -9.8192
# 5 -41.6245 -47.5912 -38.2067 0.0000 53.6931 0.0000
# 6 0.0000 0.0000 0.0000 -9.8192 0.0000 23.4505
#
#
#
# Elastic Compliance Matrix: (Units=1/GPa)
#
#
# Indices 1 2 3 4 5 6 
#
# 1 0.012685 0.000012 -0.000582 0.000000 0.009430 0.000000
# 2 0.000012 0.007513 -0.000562 0.000000 0.006269 0.000000
# 3 -0.000582 -0.000562 0.014878 0.000000 0.009637 0.000000
# 4 0.000000 0.000000 0.000000 0.034101 0.000000 0.014279
# 5 0.009430 0.006269 0.009637 0.000000 0.038350 0.000000
# 6 0.000000 0.000000 0.000000 0.014279 0.000000 0.048622
#
#
# Mechanical properties :
#
#
# Convention : Reuss Voigt Hill
#
# Bulk Modulus (GPa) = 30.47598 66.53872 48.50735
# Shear Modulus (GPa) = 29.52492 40.31583 34.92037
#
# Velocity S-wave (km/s) = 3.58838 4.19316 3.90250
# Velocity P-wave (km/s) = 5.51905 7.24310 6.43904
#
# Compressibility (1/GPa) = 0.03281272
#
# Stress axis : x y z
#
# Youngs Moduli (GPa) = 78.83441 133.09690 67.21435
#
# Poissons Ratio (x) = -0.00164 0.03913
# Poissons Ratio (y) = -0.00097 0.03775
# Poissons Ratio (z) = 0.04590 0.07476
#
# Static dielectric constant tensor:
#      x y z
#    x 4.155270 0.000000 0.082520 
#    y 0.000000 4.623380 0.000000 
#    z 0.082520 0.000000 4.462180 
# 
# 
# High freq. dielectric constant tensor:
#      x y z
#    x 1.900470 0.000000 -0.017510 
#    y 0.000000 1.899770 0.000000 
#    z -0.017510 0.000000 1.897630 
# 
# From -- ./inp_files/13562.got.cif
#   From: 2010.06.25/outbox.cif.g09.slc.cpg/sg10_7_cif.got.tgz:13562.got - 2010.06.27 22:07:45.
