data_PCOD8063795
_publ_section_title
;
Structure prediction by ZEFSAII (Michael W. Deem and Ramdas Pophale) SiO2 
 PCOD8063795
Probable space group: P 2/M
;
_chemical_formula_sum "Si O2"
_cell_formula_units_Z 28
_cell_length_a 22.610312
_cell_length_b 16.241020
_cell_length_c 11.272457
_cell_angle_alpha 90.000000
_cell_angle_beta 22.055532
_cell_angle_gamma 90.000000
_cell_volume 1554.369393
_symmetry_space_group_name_H-M "P 2/M"
_symmetry_group_IT_number 10
_symmetry_cell_setting 'monoclinic'
loop_
_space_group_symop_operation_xyz
x,y,z
-x,y,-z
-x,-y,-z
x,-y,z
loop_
_atom_site_type_symbol
_atom_site_label
_atom_site_fract_x
_atom_site_fract_y
_atom_site_fract_z
Si Si1 0.163804 0.342774 0.750508
Si Si2 0.239067 0.807436 0.766857
Si Si3 0.431899 0.275271 0.818392
Si Si4 0.184056 0.089856 0.657526
Si Si5 0.164904 0.273352 0.126582
Si Si6 0.678790 0.592660 0.324872
Si Si7 0.333951 0.760043 0.257491
O O1 0.146507 0.258494 0.857023
O O2 0.239940 0.410656 0.695721
O O3 0.278133 0.322292 0.428502
O O4 0.000000 0.374193 0.000000
O O5 0.421683 0.786673 0.450779
O O6 0.235476 0.891355 0.699119
O O7 0.152684 0.803665 0.056107
O O8 0.505011 0.366330 0.659671
O O9 0.308307 0.252391 0.947036
O O10 0.335267 0.266849 0.119137
O O11 0.228900 0.158842 0.476816
O O12 0.256819 0.000000 0.489200
O O13 0.000000 0.082940 0.000000
O O14 0.000000 0.285666 0.500000
O O15 0.208513 0.356733 0.974142
O O16 0.658774 0.500000 0.314613
O O17 0.500000 0.787528 0.000000
#
# Coordination Sequence:
#
# PCOD8063795 Si02
#       7
#     4   4   4   4   4   4   4
#     4   9  18  31  53  77 104 139 177 213 264 313
#     4   9  17  35  52  77 107 142 177 216 252 308
#     4  10  20  34  55  80 103 138 182 216 261 313
#     4  10  21  34  54  84 117 145 165 204 268 316
#     4  10  22  34  57  82  97 132 188 229 259 307
#     4  10  21  38  53  71 108 144 172 219 276 321
#     4  11  17  33  56  83 105 135 178 223 248 306
#
# _framework density 18.013736000000002
#
# number of rings (size 3 to 8) (size 9 to 14) (size 15 to 20)
#    0.000    2.429    4.286    3.429    6.000    2.000 
#    0.000    1.429    0.000    3.000    0.000    0.000 
#    0.000    0.000    0.000    0.000    0.000    0.000 
#
# Total GULP energy -346883.420014 kJ/mol
# GULP energy per Si atom -12388.693572 kJ/mol
# Density = 1.797274 g / cm^3
# Si number density = 18.013736 Si / 1000 Ang^3
#
#
#
# Elastic Constant Matrix: (Units=GPa)
#
#
# Indices 1 2 3 4 5 6 
#
# 1 101.4972 9.4050 41.8821 0.0000 9.1406 0.0000
# 2 9.4050 56.9731 31.2062 0.0000 9.6273 0.0000
# 3 41.8821 31.2062 91.3550 0.0000 17.7498 0.0000
# 4 0.0000 0.0000 0.0000 15.9175 0.0000 -0.7825
# 5 9.1406 9.6273 17.7498 0.0000 43.6086 0.0000
# 6 0.0000 0.0000 0.0000 -0.7825 0.0000 11.1469
#
#
#
# Elastic Compliance Matrix: (Units=1/GPa)
#
#
# Indices 1 2 3 4 5 6 
#
# 1 0.012235 0.001328 -0.005981 0.000000 -0.000423 0.000000
# 2 0.001328 0.021885 -0.007700 0.000000 -0.001975 0.000000
# 3 -0.005981 -0.007700 0.017097 0.000000 -0.004005 0.000000
# 4 0.000000 0.000000 0.000000 0.063041 0.000000 0.004426
# 5 -0.000423 -0.001975 -0.004005 0.000000 0.025086 0.000000
# 6 0.000000 0.000000 0.000000 0.004426 0.000000 0.090022
#
#
# Mechanical properties :
#
#
# Convention : Reuss Voigt Hill
#
# Bulk Modulus (GPa) = 37.72191 46.09022 41.90606
# Shear Modulus (GPa) = 19.01791 25.29007 22.15399
#
# Velocity S-wave (km/s) = 3.25275 3.75097 3.51071
# Velocity P-wave (km/s) = 5.92396 6.66344 6.30455
#
# Compressibility (1/GPa) = 0.02650979
#
# Stress axis : x y z
#
# Youngs Moduli (GPa) = 81.72968 45.69423 58.49057
#
# Poissons Ratio (x) = -0.06066 0.34981
# Poissons Ratio (y) = -0.10850 0.45040
# Poissons Ratio (z) = 0.48879 0.35187
#
# Static dielectric constant tensor:
#      x y z
#    x 3.590110 0.000000 0.123490 
#    y 0.000000 3.167880 0.000000 
#    z 0.123490 0.000000 3.266790 
# 
# 
# High freq. dielectric constant tensor:
#      x y z
#    x 1.711060 0.000000 -0.000330 
#    y 0.000000 1.654430 0.000000 
#    z -0.000330 0.000000 1.697240 
# 
# From -- ./inp_files/57075.got.cif
#   From: 2010.06.25/outbox.cif.g09.slc.cpg/sg10_29_cif.got.tgz:57075.got - 2010.06.27 22:07:45.
