data_PCOD8063493
_publ_section_title
;
Structure prediction by ZEFSAII (Michael W. Deem and Ramdas Pophale) SiO2 
 PCOD8063493
Probable space group: P 2/M
;
_chemical_formula_sum "Si O2"
_cell_formula_units_Z 32
_cell_length_a 23.800632
_cell_length_b 8.432817
_cell_length_c 17.787544
_cell_angle_alpha 90.000000
_cell_angle_beta 30.951102
_cell_angle_gamma 90.000000
_cell_volume 1836.111466
_symmetry_space_group_name_H-M "P 2/M"
_symmetry_group_IT_number 10
_symmetry_cell_setting 'monoclinic'
loop_
_space_group_symop_operation_xyz
x,y,z
-x,y,-z
-x,-y,-z
x,-y,z
loop_
_atom_site_type_symbol
_atom_site_label
_atom_site_fract_x
_atom_site_fract_y
_atom_site_fract_z
Si Si1 0.971845 0.183795 0.448366
Si Si2 0.576413 0.314658 0.755097
Si Si3 0.653346 0.181919 0.943534
Si Si4 0.555410 0.688871 0.613092
Si Si5 0.625608 0.325225 0.379801
Si Si6 0.742581 0.317218 0.691546
Si Si7 0.319851 0.310764 0.838787
Si Si8 0.178681 0.683971 0.135740
O O1 0.870325 0.283040 0.533379
O O2 0.000000 0.243336 0.500000
O O3 0.074637 0.211562 0.276480
O O4 0.940404 0.000000 0.485232
O O5 0.546607 0.500000 0.790841
O O6 0.602811 0.258403 0.639418
O O7 0.682422 0.275084 0.682699
O O8 0.474165 0.220700 0.905794
O O9 0.693144 0.208657 0.813188
O O10 0.722136 0.292374 0.920272
O O11 0.674805 0.000000 0.940415
O O12 0.556022 0.500000 0.603666
O O13 0.628453 0.759731 0.459221
O O14 0.431080 0.752837 0.750005
O O15 0.500000 0.337587 0.500000
O O16 0.676491 0.500000 0.330611
O O17 0.690135 0.240962 0.235760
O O18 0.724205 0.500000 0.734246
O O19 0.326666 0.500000 0.826338
O O20 0.217743 0.259952 0.007796
O O21 0.145713 0.500000 0.174539
#
# Coordination Sequence:
#
# PCOD8063493 Si02
#       8
#     4   4   4   4   4   4   4   4
#     4  11  23  38  54  72  95 123 160 205 251 296
#     4  10  20  34  51  74 100 129 166 202 237 284
#     4  12  23  34  49  71 100 133 166 198 241 290
#     4   8  12  22  41  67 100 130 154 187 233 281
#     4   7  10  17  34  64  99 128 151 182 230 283
#     4  11  23  37  54  72  93 126 167 207 245 285
#     4   8  13  22  40  69 100 126 155 191 234 282
#     4  11  20  32  53  75  98 128 164 204 244 284
#
# _framework density 17.428135999999999
#
# number of rings (size 3 to 8) (size 9 to 14) (size 15 to 20)
#    0.000    2.250    2.500    4.125    0.000    3.000 
#    0.000    0.000    0.000    0.000    0.000    3.500 
#    0.000    7.000    0.000    0.000    0.000    0.000 
#
# Total GULP energy -396567.410113 kJ/mol
# GULP energy per Si atom -12392.731566 kJ/mol
# Density = 1.738847 g / cm^3
# Si number density = 17.428136 Si / 1000 Ang^3
#
#
#
# Elastic Constant Matrix: (Units=GPa)
#
#
# Indices 1 2 3 4 5 6 
#
# 1 86.3569 10.7463 69.4820 0.0000 12.8025 0.0000
# 2 10.7463 28.6585 11.9400 0.0000 0.7849 0.0000
# 3 69.4820 11.9400 117.7477 0.0000 22.5781 0.0000
# 4 0.0000 0.0000 0.0000 9.6016 0.0000 -4.7583
# 5 12.8025 0.7849 22.5781 0.0000 34.0571 0.0000
# 6 0.0000 0.0000 0.0000 -4.7583 0.0000 6.3346
#
#
#
# Elastic Compliance Matrix: (Units=1/GPa)
#
#
# Indices 1 2 3 4 5 6 
#
# 1 0.022295 -0.002993 -0.012898 0.000000 0.000239 0.000000
# 2 -0.002993 0.036936 -0.002328 0.000000 0.001817 0.000000
# 3 -0.012898 -0.002328 0.017643 0.000000 -0.006794 0.000000
# 4 0.000000 0.000000 0.000000 0.165907 0.000000 0.124621
# 5 0.000239 0.001817 -0.006794 0.000000 0.033735 0.000000
# 6 0.000000 0.000000 0.000000 0.124621 0.000000 0.251472
#
#
# Mechanical properties :
#
#
# Convention : Reuss Voigt Hill
#
# Bulk Modulus (GPa) = 24.73070 46.34442 35.53756
# Shear Modulus (GPa) = 8.65197 19.37165 14.01181
#
# Velocity S-wave (km/s) = 2.23050 3.33756 2.83852
# Velocity P-wave (km/s) = 4.56667 6.44219 5.58374
#
# Compressibility (1/GPa) = 0.04043557
#
# Stress axis : x y z
#
# Youngs Moduli (GPa) = 44.85367 27.07391 56.68062
#
# Poissons Ratio (x) = 0.08103 0.73108
# Poissons Ratio (y) = 0.13424 0.13194
# Poissons Ratio (z) = 0.57854 0.06302
#
# Static dielectric constant tensor:
#      x y z
#    x 3.360900 0.000000 0.430940 
#    y 0.000000 2.891400 0.000000 
#    z 0.430940 0.000000 3.358150 
# 
# 
# High freq. dielectric constant tensor:
#      x y z
#    x 1.655170 0.000000 0.030350 
#    y 0.000000 1.642800 0.000000 
#    z 0.030350 0.000000 1.664100 
# 
# From -- ./inp_files/79937.got.cif
#   From: 2010.06.25/outbox.cif.g09.slc.cpg/sg10_40_cif.got.tgz:79937.got - 2010.06.27 22:07:45.
