data_PCOD8063835
_publ_section_title
;
Structure prediction by ZEFSAII (Michael W. Deem and Ramdas Pophale) SiO2 
 PCOD8063835
Probable space group: P 2/M
;
_chemical_formula_sum "Si O2"
_cell_formula_units_Z 32
_cell_length_a 15.944195
_cell_length_b 9.084601
_cell_length_c 24.448899
_cell_angle_alpha 90.000000
_cell_angle_beta 153.406868
_cell_angle_gamma 90.000000
_cell_volume 1585.288088
_symmetry_space_group_name_H-M "P 2/M"
_symmetry_group_IT_number 10
_symmetry_cell_setting 'monoclinic'
loop_
_space_group_symop_operation_xyz
x,y,z
-x,y,-z
-x,-y,-z
x,-y,z
loop_
_atom_site_type_symbol
_atom_site_label
_atom_site_fract_x
_atom_site_fract_y
_atom_site_fract_z
Si Si1 0.577256 0.668398 0.673319
Si Si2 0.737699 0.825390 0.992063
Si Si3 0.428356 0.669981 0.205034
Si Si4 0.434581 0.175168 0.903480
Si Si5 0.146693 0.670481 0.542449
Si Si6 0.267203 0.168493 0.424201
Si Si7 0.982860 0.832330 0.349336
Si Si8 0.119667 0.331077 0.237848
O O1 0.502184 0.500000 0.628149
O O2 0.607476 0.719104 0.753451
O O3 0.428356 0.773420 0.557900
O O4 0.777215 0.681332 0.760221
O O5 0.700377 0.767592 0.909273
O O6 0.572869 0.770448 0.936335
O O7 0.752501 0.000000 0.999751
O O8 0.930903 0.762025 0.127146
O O9 0.373154 0.500000 0.164375
O O10 0.643971 0.698623 0.314340
O O11 0.225706 0.236129 0.770360
O O12 0.429898 0.000000 0.903655
O O13 0.500000 0.239453 0.000000
O O14 0.104951 0.500000 0.509519
O O15 0.000000 0.739668 0.500000
O O16 0.121947 0.744971 0.469634
O O17 0.259487 0.265528 0.365031
O O18 0.065753 0.179398 0.336637
O O19 0.312892 0.000000 0.435383
O O20 0.978521 0.000000 0.366982
O O21 0.074016 0.500000 0.225532
#
# Coordination Sequence:
#
# PCOD8063835 Si02
#       8
#     4   4   4   4   4   4   4   4
#     4  10  22  41  63  86 115 159 202 238 291 358
#     4  11  23  39  61  88 118 153 198 250 297 342
#     4  10  21  39  60  82 118 158 194 239 291 353
#     4   9  18  35  57  81 115 156 194 234 285 348
#     4  10  20  34  55  83 114 150 191 239 288 336
#     4  11  22  37  61  93 124 151 190 247 303 350
#     4  10  20  34  56  85 115 152 191 231 286 352
#     4  11  24  41  62  85 114 156 203 244 294 360
#
# _framework density 20.185606
#
# number of rings (size 3 to 8) (size 9 to 14) (size 15 to 20)
#    0.000    1.750    1.250    3.000    0.000    6.750 
#    0.000    3.125    0.000    2.625    0.000    0.000 
#    0.000    0.000    0.000    0.000    0.000    0.000 
#
# Total GULP energy -396936.550185 kJ/mol
# GULP energy per Si atom -12404.267193 kJ/mol
# Density = 2.013966 g / cm^3
# Si number density = 20.185606 Si / 1000 Ang^3
#
#
#
# Elastic Constant Matrix: (Units=GPa)
#
#
# Indices 1 2 3 4 5 6 
#
# 1 99.8789 33.0236 22.3281 0.0000 -8.4170 0.0000
# 2 33.0236 77.1554 37.1108 0.0000 -7.6004 0.0000
# 3 22.3281 37.1108 80.7547 0.0000 -10.2065 0.0000
# 4 0.0000 0.0000 0.0000 222.1005 0.0000 160.8468
# 5 -8.4170 -7.6004 -10.2065 0.0000 37.6762 0.0000
# 6 0.0000 0.0000 0.0000 160.8468 0.0000 172.9407
#
#
#
# Elastic Compliance Matrix: (Units=1/GPa)
#
#
# Indices 1 2 3 4 5 6 
#
# 1 0.011831 -0.004410 -0.001059 0.000000 0.001466 0.000000
# 2 -0.004410 0.018347 -0.007112 0.000000 0.000789 0.000000
# 3 -0.001059 -0.007112 0.016291 0.000000 0.002742 0.000000
# 4 0.000000 0.000000 0.000000 0.013793 0.000000 -0.012828
# 5 0.001466 0.000789 0.002742 0.000000 0.027772 0.000000
# 6 0.000000 0.000000 0.000000 -0.012828 0.000000 0.017713
#
#
# Mechanical properties :
#
#
# Convention : Reuss Voigt Hill
#
# Bulk Modulus (GPa) = 46.93513 49.19045 48.06279
# Shear Modulus (GPa) = 36.22907 97.56525 66.89716
#
# Velocity S-wave (km/s) = 4.24110 6.95981 5.76307
# Velocity P-wave (km/s) = 6.87640 9.43437 8.25506
#
# Compressibility (1/GPa) = 0.02130600
#
# Stress axis : x y z
#
# Youngs Moduli (GPa) = 84.52719 54.50498 61.38342
#
# Poissons Ratio (x) = 0.24035 0.06502
# Poissons Ratio (y) = 0.37274 0.43658
# Poissons Ratio (z) = 0.08953 0.38766
#
# Static dielectric constant tensor:
#      x y z
#    x 3.877070 0.000000 0.086300 
#    y 0.000000 3.482200 0.000000 
#    z 0.086300 0.000000 3.536780 
# 
# 
# High freq. dielectric constant tensor:
#      x y z
#    x 1.801410 0.000000 0.003350 
#    y 0.000000 1.772180 0.000000 
#    z 0.003350 0.000000 1.787970 
# 
# From -- ./inp_files/89502.got.cif
#   From: 2010.06.25/outbox.cif.g09.slc.cpg/sg10_45_cif.got.tgz:89502.got - 2010.06.27 22:07:45.
