data_PCOD8063841
_publ_section_title
;
Structure prediction by ZEFSAII (Michael W. Deem and Ramdas Pophale) SiO2 
 PCOD8063841
Probable space group: P 2/M
;
_chemical_formula_sum "Si O2"
_cell_formula_units_Z 24
_cell_length_a 14.143942
_cell_length_b 10.423623
_cell_length_c 12.058667
_cell_angle_alpha 90.000000
_cell_angle_beta 135.540922
_cell_angle_gamma 90.000000
_cell_volume 1245.186474
_symmetry_space_group_name_H-M "P 2/M"
_symmetry_group_IT_number 10
_symmetry_cell_setting 'monoclinic'
loop_
_space_group_symop_operation_xyz
x,y,z
-x,y,-z
-x,-y,-z
x,-y,z
loop_
_atom_site_type_symbol
_atom_site_label
_atom_site_fract_x
_atom_site_fract_y
_atom_site_fract_z
Si Si1 0.897052 0.352379 0.226299
Si Si2 0.843422 0.861184 0.349700
Si Si3 0.741739 0.644820 0.873925
Si Si4 0.856121 0.140747 0.825097
Si Si5 0.182992 0.236552 0.440502
Si Si6 0.545831 0.644770 0.421945
O O1 0.866162 0.500000 0.233673
O O2 0.818866 0.257249 0.245360
O O3 0.059263 0.334689 0.361561
O O4 0.834550 0.318057 0.054984
O O5 0.777410 0.838176 0.414533
O O6 0.000000 0.874169 0.500000
O O7 0.789600 0.000000 0.258453
O O8 0.777420 0.500000 0.863725
O O9 0.764980 0.742628 0.791959
O O10 0.582166 0.653896 0.769770
O O11 0.866962 0.144801 0.700597
O O12 0.797686 0.000000 0.808950
O O13 0.000000 0.160074 0.000000
O O14 0.323078 0.298359 0.523897
O O15 0.500000 0.711266 0.500000
O O16 0.585329 0.500000 0.483048
#
# Coordination Sequence:
#
# PCOD8063841 Si02
#       6
#     4   4   4   4   4   4
#     4  10  21  36  59  86 111 142 191 240 278 329
#     4   9  20  37  58  82 112 147 185 234 288 334
#     4  10  21  38  56  82 117 151 186 230 283 336
#     4  11  22  35  55  85 116 149 188 232 283 338
#     4  11  20  35  58  86 114 147 190 234 279 332
#     4  10  20  34  55  83 120 155 185 226 285 341
#
# _framework density 19.274221000000001
#
# number of rings (size 3 to 8) (size 9 to 14) (size 15 to 20)
#    0.000    1.833    3.333    1.000    0.000    6.000 
#    0.000    3.333    0.000    4.000    0.000    0.000 
#    0.000    0.000    0.000    0.000    0.000    0.000 
#
# Total GULP energy -297358.312237 kJ/mol
# GULP energy per Si atom -12389.929677 kJ/mol
# Density = 1.923035 g / cm^3
# Si number density = 19.274221 Si / 1000 Ang^3
#
#
#
# Elastic Constant Matrix: (Units=GPa)
#
#
# Indices 1 2 3 4 5 6 
#
# 1 114.8972 59.2637 35.3024 0.0000 -8.3460 0.0000
# 2 59.2637 132.5626 37.0420 0.0000 -15.0185 0.0000
# 3 35.3024 37.0420 46.7097 0.0000 1.3777 0.0000
# 4 0.0000 0.0000 0.0000 29.4168 0.0000 7.9792
# 5 -8.3460 -15.0185 1.3777 0.0000 29.2404 0.0000
# 6 0.0000 0.0000 0.0000 7.9792 0.0000 40.7150
#
#
#
# Elastic Compliance Matrix: (Units=1/GPa)
#
#
# Indices 1 2 3 4 5 6 
#
# 1 0.012824 -0.003548 -0.006942 0.000000 0.002165 0.000000
# 2 -0.003548 0.011586 -0.006662 0.000000 0.005252 0.000000
# 3 -0.006942 -0.006662 0.032143 0.000000 -0.006918 0.000000
# 4 0.000000 0.000000 0.000000 0.035903 0.000000 -0.007036
# 5 0.002165 0.005252 -0.006918 0.000000 0.037841 0.000000
# 6 0.000000 0.000000 0.000000 -0.007036 0.000000 0.025940
#
#
# Mechanical properties :
#
#
# Convention : Reuss Voigt Hill
#
# Bulk Modulus (GPa) = 44.94597 61.93173 53.43885
# Shear Modulus (GPa) = 25.25818 30.71186 27.98502
#
# Velocity S-wave (km/s) = 3.62396 3.99609 3.81457
# Velocity P-wave (km/s) = 6.39380 7.31391 6.86928
#
# Compressibility (1/GPa) = 0.02224893
#
# Stress axis : x y z
#
# Youngs Moduli (GPa) = 77.98071 86.30946 31.11138
#
# Poissons Ratio (x) = 0.30621 0.21598
# Poissons Ratio (y) = 0.27666 0.20725
# Poissons Ratio (z) = 0.54136 0.57497
#
# Static dielectric constant tensor:
#      x y z
#    x 3.853010 0.000000 -0.368220 
#    y 0.000000 3.768310 0.000000 
#    z -0.368220 0.000000 3.685350 
# 
# 
# High freq. dielectric constant tensor:
#      x y z
#    x 1.729090 0.000000 -0.008040 
#    y 0.000000 1.751120 0.000000 
#    z -0.008040 0.000000 1.745600 
# 
# From -- ./inp_files/46790.got.cif
#   From: 2010.06.25/outbox.cif.g09.slc.cpg/sg10_24_cif.got.tgz:46790.got - 2010.06.27 22:07:45.
