data_PCOD8063139
_publ_section_title
;
Structure prediction by ZEFSAII (Michael W. Deem and Ramdas Pophale) SiO2 
 PCOD8063139
Probable space group: P 2/M
;
_chemical_formula_sum "Si O2"
_cell_formula_units_Z 32
_cell_length_a 15.440463
_cell_length_b 8.949853
_cell_length_c 14.452082
_cell_angle_alpha 90.000000
_cell_angle_beta 117.728117
_cell_angle_gamma 90.000000
_cell_volume 1767.791618
_symmetry_space_group_name_H-M "P 2/M"
_symmetry_group_IT_number 10
_symmetry_cell_setting 'monoclinic'
loop_
_space_group_symop_operation_xyz
x,y,z
-x,y,-z
-x,-y,-z
x,-y,z
loop_
_atom_site_type_symbol
_atom_site_label
_atom_site_fract_x
_atom_site_fract_y
_atom_site_fract_z
Si Si1 0.779112 0.175128 0.848272
Si Si2 0.035636 0.333914 0.121390
Si Si3 0.777123 0.824713 0.418820
Si Si4 0.847955 0.824676 0.084469
Si Si5 0.044669 0.337067 0.421895
Si Si6 0.388296 0.671868 0.337338
Si Si7 0.837731 0.323465 0.260740
Si Si8 0.614579 0.672108 0.451806
O O1 0.857697 0.258802 0.822414
O O2 0.672025 0.223369 0.762010
O O3 0.795087 0.000000 0.843202
O O4 0.791617 0.219647 0.962273
O O5 0.041029 0.500000 0.168837
O O6 0.959778 0.231506 0.138640
O O7 0.000000 0.346884 0.000000
O O8 0.865340 0.778030 0.532031
O O9 0.784554 0.746521 0.322933
O O10 0.675774 0.778703 0.415377
O O11 0.780928 0.000000 0.405246
O O12 0.793289 0.745066 0.143904
O O13 0.847458 0.000000 0.100656
O O14 0.083419 0.500000 0.407594
O O15 0.000000 0.356189 0.500000
O O16 0.953819 0.281503 0.314580
O O17 0.360746 0.500000 0.305095
O O18 0.501585 0.700192 0.372039
O O19 0.364477 0.714445 0.431358
O O20 0.820825 0.500000 0.255954
O O21 0.642658 0.500000 0.447553
#
# Coordination Sequence:
#
# PCOD8063139 Si02
#       8
#     4   4   4   4   4   4   4   4
#     4  10  20  33  51  76 107 138 167 208 260 306
#     4   9  17  30  48  69  95 131 174 211 242 286
#     4  11  21  32  51  78 105 135 169 207 254 306
#     4  10  20  33  49  73 106 140 173 211 255 300
#     4   8  16  31  48  67  94 129 168 207 245 286
#     4   9  19  36  58  79  99 128 167 209 253 305
#     4  10  20  34  52  73 101 140 179 213 249 293
#     4   9  19  37  57  77 101 129 164 208 256 304
#
# _framework density 18.101680000000002
#
# number of rings (size 3 to 8) (size 9 to 14) (size 15 to 20)
#    0.000    2.500    0.000    4.125    0.000    7.750 
#    0.000    2.500    0.000    0.750    0.000    5.250 
#    0.000    0.000    0.000    0.000    0.000    0.000 
#
# Total GULP energy -396712.224203 kJ/mol
# GULP energy per Si atom -12397.257006 kJ/mol
# Density = 1.806048 g / cm^3
# Si number density = 18.101680 Si / 1000 Ang^3
#
#
#
# Elastic Constant Matrix: (Units=GPa)
#
#
# Indices 1 2 3 4 5 6 
#
# 1 85.5916 47.0479 43.1098 0.0000 -3.4807 0.0000
# 2 47.0479 104.8843 45.8628 0.0000 -4.1406 0.0000
# 3 43.1098 45.8628 90.7093 0.0000 -2.1591 0.0000
# 4 0.0000 0.0000 0.0000 22.5733 0.0000 -3.2446
# 5 -3.4807 -4.1406 -2.1591 0.0000 22.1953 0.0000
# 6 0.0000 0.0000 0.0000 -3.2446 0.0000 28.9712
#
#
#
# Elastic Compliance Matrix: (Units=1/GPa)
#
#
# Indices 1 2 3 4 5 6 
#
# 1 0.017484 -0.005359 -0.005571 0.000000 0.001200 0.000000
# 2 -0.005359 0.013947 -0.004473 0.000000 0.001326 0.000000
# 3 -0.005571 -0.004473 0.015930 0.000000 -0.000158 0.000000
# 4 0.000000 0.000000 0.000000 0.045025 0.000000 0.005042
# 5 0.001200 0.001326 -0.000158 0.000000 0.045475 0.000000
# 6 0.000000 0.000000 0.000000 0.005042 0.000000 0.035082
#
#
# Mechanical properties :
#
#
# Convention : Reuss Voigt Hill
#
# Bulk Modulus (GPa) = 60.40933 61.46960 60.93947
# Shear Modulus (GPa) = 23.89303 24.42561 24.15932
#
# Velocity S-wave (km/s) = 3.63703 3.67734 3.65724
# Velocity P-wave (km/s) = 7.14717 7.21541 7.18137
#
# Compressibility (1/GPa) = 0.01655373
#
# Stress axis : x y z
#
# Youngs Moduli (GPa) = 57.19475 71.70232 62.77635
#
# Poissons Ratio (x) = 0.38428 0.34973
# Poissons Ratio (y) = 0.30653 0.28078
# Poissons Ratio (z) = 0.31864 0.32071
#
# Static dielectric constant tensor:
#      x y z
#    x 3.148700 0.000000 -0.043100 
#    y 0.000000 3.333860 0.000000 
#    z -0.043100 0.000000 3.568350 
# 
# 
# High freq. dielectric constant tensor:
#      x y z
#    x 1.680900 0.000000 -0.010070 
#    y 0.000000 1.705340 0.000000 
#    z -0.010070 0.000000 1.693350 
# 
# From -- ./inp_files/66579.got.cif
#   From: 2010.06.25/outbox.cif.g09.slc.cpg/sg10_34_cif.got.tgz:66579.got - 2010.06.27 22:07:45.
