data_PCOD8063364
_publ_section_title
;
Structure prediction by ZEFSAII (Michael W. Deem and Ramdas Pophale) SiO2 
 PCOD8063364
Probable space group: P 2/M
;
_chemical_formula_sum "Si O2"
_cell_formula_units_Z 28
_cell_length_a 13.754735
_cell_length_b 12.504691
_cell_length_c 9.908405
_cell_angle_alpha 90.000000
_cell_angle_beta 59.907704
_cell_angle_gamma 90.000000
_cell_volume 1474.534412
_symmetry_space_group_name_H-M "P 2/M"
_symmetry_group_IT_number 10
_symmetry_cell_setting 'monoclinic'
loop_
_space_group_symop_operation_xyz
x,y,z
-x,y,-z
-x,-y,-z
x,-y,z
loop_
_atom_site_type_symbol
_atom_site_label
_atom_site_fract_x
_atom_site_fract_y
_atom_site_fract_z
Si Si1 0.453919 0.122751 0.389613
Si Si2 0.958211 0.000000 0.377951
Si Si3 0.866301 0.777764 0.084789
Si Si4 0.263622 0.377187 0.333235
Si Si5 0.746042 0.621184 0.969764
Si Si6 0.797061 0.803852 0.428959
Si Si7 0.105286 0.000000 0.025121
Si Si8 0.506073 0.294943 0.149628
O O1 0.500000 0.164829 0.500000
O O2 0.321219 0.138201 0.472192
O O3 0.517043 0.188386 0.230155
O O4 0.485766 0.000000 0.345001
O O5 0.890348 0.891960 0.396318
O O6 0.000000 0.000000 0.500000
O O7 0.067541 0.000000 0.206815
O O8 0.825646 0.690064 0.008480
O O9 0.812310 0.757748 0.268271
O O10 0.000000 0.771897 0.000000
O O11 0.824003 0.893408 0.058367
O O12 0.231220 0.500000 0.388469
O O13 0.192743 0.297334 0.477441
O O14 0.396928 0.363730 0.266762
O O15 0.233775 0.346976 0.200135
O O16 0.781562 0.500000 0.969942
O O17 0.615309 0.633144 0.099310
O O18 0.000000 0.000000 0.000000
O O19 0.500000 0.256612 0.000000
#
# Coordination Sequence:
#
# PCOD8063364 Si02
#       8
#     4   2   4   4   4   4   2   4
#     4  10  20  33  53  81 117 150 181 223 282 339
#     4  12  24  38  63  86 113 153 191 237 283 334
#     4  11  22  38  61  82 113 148 192 237 280 333
#     4   9  20  37  60  86 115 148 186 234 286 337
#     4  10  21  38  59  84 113 149 193 234 282 336
#     4  11  21  38  59  84 117 149 190 233 283 337
#     4  10  20  42  60  82 110 146 193 238 278 333
#     4   9  18  36  57  81 111 148 187 229 276 337
#
# _framework density 18.989045000000001
#
# number of rings (size 3 to 8) (size 9 to 14) (size 15 to 20)
#    0.000    1.857    3.571    1.286    2.000    2.857 
#    1.286    0.000    0.000    6.857    0.000    0.000 
#    0.000    0.000    0.000    0.000    0.000    0.000 
#
# Total GULP energy -347248.084768 kJ/mol
# GULP energy per Si atom -12401.717313 kJ/mol
# Density = 1.894583 g / cm^3
# Si number density = 18.989045 Si / 1000 Ang^3
#
#
#
# Elastic Constant Matrix: (Units=GPa)
#
#
# Indices 1 2 3 4 5 6 
#
# 1 60.1779 42.3686 22.1639 0.0000 19.4519 0.0000
# 2 42.3686 133.6299 67.8720 0.0000 17.1984 0.0000
# 3 22.1639 67.8720 117.8818 0.0000 15.1578 0.0000
# 4 0.0000 0.0000 0.0000 18.4479 0.0000 7.0307
# 5 19.4519 17.1984 15.1578 0.0000 26.3585 0.0000
# 6 0.0000 0.0000 0.0000 7.0307 0.0000 26.3856
#
#
#
# Elastic Compliance Matrix: (Units=1/GPa)
#
#
# Indices 1 2 3 4 5 6 
#
# 1 0.025966 -0.006759 0.000979 0.000000 -0.015315 0.000000
# 2 -0.006759 0.012675 -0.006052 0.000000 0.000198 0.000000
# 3 0.000979 -0.006052 0.012277 0.000000 -0.003833 0.000000
# 4 0.000000 0.000000 0.000000 0.060334 0.000000 -0.016077
# 5 -0.015315 0.000198 -0.003833 0.000000 0.051315 0.000000
# 6 0.000000 0.000000 0.000000 -0.016077 0.000000 0.042183
#
#
# Mechanical properties :
#
#
# Convention : Reuss Voigt Hill
#
# Bulk Modulus (GPa) = 36.69399 64.05539 50.37469
# Shear Modulus (GPa) = 21.05273 26.19074 23.62173
#
# Velocity S-wave (km/s) = 3.33329 3.71786 3.53082
# Velocity P-wave (km/s) = 5.84638 7.22745 6.57329
#
# Compressibility (1/GPa) = 0.02725242
#
# Stress axis : x y z
#
# Youngs Moduli (GPa) = 38.51211 78.89644 81.45510
#
# Poissons Ratio (x) = 0.53324 -0.07971
# Poissons Ratio (y) = 0.26029 0.49300
# Poissons Ratio (z) = -0.03769 0.47752
#
# Static dielectric constant tensor:
#      x y z
#    x 3.792390 0.000000 -0.344260 
#    y 0.000000 3.717390 0.000000 
#    z -0.344260 0.000000 4.030830 
# 
# 
# High freq. dielectric constant tensor:
#      x y z
#    x 1.726560 0.000000 0.007010 
#    y 0.000000 1.741550 0.000000 
#    z 0.007010 0.000000 1.743590 
# 
# From -- ./inp_files/28517.got.cif
#   From: 2010.06.25/outbox.cif.g09.slc.cpg/sg10_15_cif.got.tgz:28517.got - 2010.06.27 22:07:45.
