data_PCOD8063935
_publ_section_title
;
Structure prediction by ZEFSAII (Michael W. Deem and Ramdas Pophale) SiO2 
 PCOD8063935
Probable space group: P 2/M
;
_chemical_formula_sum "Si O2"
_cell_formula_units_Z 32
_cell_length_a 23.186512
_cell_length_b 9.358058
_cell_length_c 14.188805
_cell_angle_alpha 90.000000
_cell_angle_beta 147.637751
_cell_angle_gamma 90.000000
_cell_volume 1647.935376
_symmetry_space_group_name_H-M "P 2/M"
_symmetry_group_IT_number 10
_symmetry_cell_setting 'monoclinic'
loop_
_space_group_symop_operation_xyz
x,y,z
-x,y,-z
-x,-y,-z
x,-y,z
loop_
_atom_site_type_symbol
_atom_site_label
_atom_site_fract_x
_atom_site_fract_y
_atom_site_fract_z
Si Si1 0.507386 0.330664 0.770667
Si Si2 0.993114 0.168066 0.385229
Si Si3 0.263535 0.335766 0.461584
Si Si4 0.407394 0.835218 0.943619
Si Si5 0.827411 0.833641 0.002043
Si Si6 0.583559 0.837981 0.699592
Si Si7 0.189647 0.833860 0.533891
Si Si8 0.099951 0.335274 0.075608
O O1 0.517988 0.500000 0.786011
O O2 0.385713 0.279836 0.623865
O O3 0.542883 0.273598 0.719243
O O4 0.586852 0.263182 0.956884
O O5 0.089466 0.229434 0.453984
O O6 0.000000 0.236552 0.500000
O O7 0.880286 0.203692 0.177101
O O8 0.010612 0.000000 0.419554
O O9 0.260193 0.500000 0.488693
O O10 0.196491 0.246684 0.444624
O O11 0.209940 0.314588 0.285709
O O12 0.294208 0.804521 0.740091
O O13 0.421160 0.000000 0.992614
O O14 0.500000 0.787356 0.000000
O O15 0.841681 0.000000 0.999277
O O16 0.702297 0.789436 0.830241
O O17 0.891416 0.751230 0.009097
O O18 0.500000 0.829421 0.500000
O O19 0.588571 0.000000 0.747047
O O20 0.175243 0.000000 0.490481
O O21 0.080179 0.500000 0.021702
O O22 0.000000 0.278042 0.000000
#
# Coordination Sequence:
#
# PCOD8063935 Si02
#       8
#     4   4   4   4   4   4   4   4
#     4  11  23  36  55  82 112 148 187 226 277 335
#     4   9  19  35  56  82 110 142 182 228 277 327
#     4  10  21  36  54  80 113 146 178 222 276 330
#     4  10  20  35  55  82 112 144 184 231 280 331
#     4  10  21  37  59  85 111 144 186 233 279 323
#     4  10  22  39  59  84 114 148 187 232 280 330
#     4  10  20  34  57  83 108 144 186 228 276 326
#     4  10  21  37  58  82 111 148 183 220 276 334
#
# _framework density 19.418236
#
# number of rings (size 3 to 8) (size 9 to 14) (size 15 to 20)
#    0.000    2.000    1.250    1.875    1.750    2.750 
#    0.000    0.000    0.000    0.750    0.000    0.000 
#    0.000    0.000    0.000    0.000    0.000    0.000 
#
# Total GULP energy -396891.778877 kJ/mol
# GULP energy per Si atom -12402.868090 kJ/mol
# Density = 1.937404 g / cm^3
# Si number density = 19.418236 Si / 1000 Ang^3
#
#
#
# Elastic Constant Matrix: (Units=GPa)
#
#
# Indices 1 2 3 4 5 6 
#
# 1 123.8766 42.3473 46.6098 0.0000 -2.6381 0.0000
# 2 42.3473 50.5676 26.8261 0.0000 -7.1141 0.0000
# 3 46.6098 26.8261 93.6298 0.0000 4.9062 0.0000
# 4 0.0000 0.0000 0.0000 6.5048 0.0000 -0.8438
# 5 -2.6381 -7.1141 4.9062 0.0000 33.7282 0.0000
# 6 0.0000 0.0000 0.0000 -0.8438 0.0000 24.2273
#
#
#
# Elastic Compliance Matrix: (Units=1/GPa)
#
#
# Indices 1 2 3 4 5 6 
#
# 1 0.012337 -0.008394 -0.003723 0.000000 -0.000264 0.000000
# 2 -0.008394 0.030273 -0.004832 0.000000 0.006432 0.000000
# 3 -0.003723 -0.004832 0.014094 0.000000 -0.003361 0.000000
# 4 0.000000 0.000000 0.000000 0.154430 0.000000 0.005378
# 5 -0.000264 0.006432 -0.003361 0.000000 0.031474 0.000000
# 6 0.000000 0.000000 0.000000 0.005378 0.000000 0.041463
#
#
# Mechanical properties :
#
#
# Convention : Reuss Voigt Hill
#
# Bulk Modulus (GPa) = 43.84627 55.51559 49.68093
# Shear Modulus (GPa) = 15.35765 23.04479 19.20122
#
# Velocity S-wave (km/s) = 2.81532 3.44868 3.14797
# Velocity P-wave (km/s) = 5.76169 6.67153 6.23323
#
# Compressibility (1/GPa) = 0.02280696
#
# Stress axis : x y z
#
# Youngs Moduli (GPa) = 81.05664 33.03275 70.95140
#
# Poissons Ratio (x) = 0.27727 0.26414
# Poissons Ratio (y) = 0.68037 0.34285
# Poissons Ratio (z) = 0.30176 0.15962
#
# Static dielectric constant tensor:
#      x y z
#    x 3.529540 0.000000 -0.040450 
#    y 0.000000 3.338170 0.000000 
#    z -0.040450 0.000000 3.476480 
# 
# 
# High freq. dielectric constant tensor:
#      x y z
#    x 1.758060 0.000000 0.001750 
#    y 0.000000 1.732220 0.000000 
#    z 0.001750 0.000000 1.772920 
# 
# From -- ./inp_files/71495.got.cif
#   From: 2010.06.25/outbox.cif.g09.slc.cpg/sg10_36_cif.got.tgz:71495.got - 2010.06.27 22:07:45.
