data_PCOD8063812
_publ_section_title
;
Structure prediction by ZEFSAII (Michael W. Deem and Ramdas Pophale) SiO2 
 PCOD8063812
Probable space group: P 2/M
;
_chemical_formula_sum "Si O2"
_cell_formula_units_Z 32
_cell_length_a 33.264677
_cell_length_b 9.266835
_cell_length_c 12.634711
_cell_angle_alpha 90.000000
_cell_angle_beta 25.180003
_cell_angle_gamma 90.000000
_cell_volume 1657.075629
_symmetry_space_group_name_H-M "P 2/M"
_symmetry_group_IT_number 10
_symmetry_cell_setting 'monoclinic'
loop_
_space_group_symop_operation_xyz
x,y,z
-x,y,-z
-x,-y,-z
x,-y,z
loop_
_atom_site_type_symbol
_atom_site_label
_atom_site_fract_x
_atom_site_fract_y
_atom_site_fract_z
Si Si1 0.592891 0.834792 0.550505
Si Si2 0.380870 0.836266 0.116960
Si Si3 0.913828 0.327313 0.462660
Si Si4 0.601211 0.829060 0.292780
Si Si5 0.110225 0.655806 0.251660
Si Si6 0.747822 0.169923 0.769816
Si Si7 0.122441 0.329366 0.997840
Si Si8 0.677234 0.669325 0.543986
O O1 0.626685 0.786355 0.352929
O O2 0.639943 0.730546 0.522783
O O3 0.621956 0.000000 0.505358
O O4 0.480013 0.818434 0.821856
O O5 0.299841 0.790418 0.228089
O O6 0.378625 0.736630 0.225307
O O7 0.366303 0.000000 0.190258
O O8 0.905900 0.500000 0.473317
O O9 0.876004 0.266900 0.667287
O O10 0.848404 0.251837 0.531038
O O11 0.023015 0.275832 0.184954
O O12 0.500000 0.762047 0.500000
O O13 0.594518 0.000000 0.297380
O O14 0.682263 0.770390 0.021422
O O15 0.161602 0.500000 0.136145
O O16 0.144020 0.739978 0.064248
O O17 0.000000 0.629662 0.500000
O O18 0.764643 0.000000 0.740352
O O19 0.113516 0.500000 0.038545
O O20 0.210751 0.292872 0.711691
O O21 0.658711 0.500000 0.588712
#
# Coordination Sequence:
#
# PCOD8063812 Si02
#       8
#     4   4   4   4   4   4   4   4
#     4  10  20  36  59  82 106 140 179 216 262 326
#     4  10  21  39  58  75 103 145 186 217 258 322
#     4   9  17  31  54  78 103 140 180 214 258 321
#     4   9  16  32  57  82 107 139 178 216 259 318
#     4   7  11  23  45  69  94 128 167 203 242 299
#     4  10  20  34  55  82 110 139 175 221 268 314
#     4   8  16  32  50  73 105 141 179 215 258 315
#     4  11  23  36  55  81 109 139 178 229 272 305
#
# _framework density 19.311129000000001
#
# number of rings (size 3 to 8) (size 9 to 14) (size 15 to 20)
#    0.000    2.750    1.250    2.250    1.750    2.500 
#    0.000    1.875    0.000    7.875    0.000    0.000 
#    0.000    0.000    0.000    0.000    0.000    0.000 
#
# Total GULP energy -396522.275087 kJ/mol
# GULP energy per Si atom -12391.321096 kJ/mol
# Density = 1.926718 g / cm^3
# Si number density = 19.311129 Si / 1000 Ang^3
#
#
#
# Elastic Constant Matrix: (Units=GPa)
#
#
# Indices 1 2 3 4 5 6 
#
# 1 91.8942 36.5842 21.3643 0.0000 -7.7475 0.0000
# 2 36.5842 47.6663 19.2183 0.0000 -1.2861 0.0000
# 3 21.3643 19.2183 42.7969 0.0000 -1.3979 0.0000
# 4 0.0000 0.0000 0.0000 10.1989 0.0000 -14.0876
# 5 -7.7475 -1.2861 -1.3979 0.0000 32.9695 0.0000
# 6 0.0000 0.0000 0.0000 -14.0876 0.0000 15.9513
#
#
#
# Elastic Compliance Matrix: (Units=1/GPa)
#
#
# Indices 1 2 3 4 5 6 
#
# 1 0.016328 -0.011234 -0.002999 0.000000 0.003271 0.000000
# 2 -0.011234 0.033355 -0.009427 0.000000 -0.001738 0.000000
# 3 -0.002999 -0.009427 0.029102 0.000000 0.000161 0.000000
# 4 0.000000 0.000000 0.000000 -0.445895 0.000000 -0.393797
# 5 0.003271 -0.001738 0.000161 0.000000 0.031039 0.000000
# 6 0.000000 0.000000 0.000000 -0.393797 0.000000 -0.285096
#
#
# Mechanical properties :
#
#
# Convention : Reuss Voigt Hill
#
# Bulk Modulus (GPa) = 31.78225 37.41011 34.59618
# Shear Modulus (GPa) = -8.87534 18.83665 4.98065
#
# Velocity S-wave (km/s) = -2.14615 3.12658 1.60772
# Velocity P-wave (km/s) = 3.21752 5.69634 4.62606
#
# Compressibility (1/GPa) = 0.03146410
#
# Stress axis : x y z
#
# Youngs Moduli (GPa) = 61.24609 29.98022 34.36194
#
# Poissons Ratio (x) = 0.33680 0.10306
# Poissons Ratio (y) = 0.68804 0.32394
# Poissons Ratio (z) = 0.18369 0.28263
#
# Static dielectric constant tensor:
#      x y z
#    x 3.535790 0.000000 0.026280 
#    y 0.000000 3.065550 0.000000 
#    z 0.026280 0.000000 3.648140 
# 
# 
# High freq. dielectric constant tensor:
#      x y z
#    x 1.751450 0.000000 -0.003760 
#    y 0.000000 1.702870 0.000000 
#    z -0.003760 0.000000 1.751610 
# 
# From -- ./inp_files/58075.got.cif
#   From: 2010.06.25/outbox.cif.g09.slc.cpg/sg10_30_cif.got.tgz:58075.got - 2010.06.27 22:07:45.
