data_PCOD8063675
_publ_section_title
;
Structure prediction by ZEFSAII (Michael W. Deem and Ramdas Pophale) SiO2 
 PCOD8063675
Probable space group: P 2/M
;
_chemical_formula_sum "Si O2"
_cell_formula_units_Z 28
_cell_length_a 10.105696
_cell_length_b 11.543180
_cell_length_c 15.230859
_cell_angle_alpha 90.000000
_cell_angle_beta 59.693060
_cell_angle_gamma 90.000000
_cell_volume 1533.893326
_symmetry_space_group_name_H-M "P 2/M"
_symmetry_group_IT_number 10
_symmetry_cell_setting 'monoclinic'
loop_
_space_group_symop_operation_xyz
x,y,z
-x,y,-z
-x,-y,-z
x,-y,z
loop_
_atom_site_type_symbol
_atom_site_label
_atom_site_fract_x
_atom_site_fract_y
_atom_site_fract_z
Si Si1 0.675537 0.000000 0.839510
Si Si2 0.150779 0.637389 0.800740
Si Si3 0.685360 0.755050 0.095026
Si Si4 0.198665 0.364347 0.111279
Si Si5 0.672105 0.244528 0.764876
Si Si6 0.819925 0.367827 0.555830
Si Si7 0.686708 0.000000 0.032121
Si Si8 0.331614 0.636822 0.572342
O O1 0.726203 0.114148 0.769328
O O2 0.495277 0.000000 0.913493
O O3 0.753543 0.000000 0.910182
O O4 0.164988 0.500000 0.805371
O O5 0.203155 0.693120 0.874125
O O6 0.256667 0.686587 0.686495
O O7 0.977346 0.675227 0.839119
O O8 0.510229 0.745252 0.183598
O O9 0.741647 0.887662 0.067363
O O10 0.696677 0.696758 0.996126
O O11 0.214225 0.500000 0.092822
O O12 0.262757 0.332109 0.184789
O O13 0.741249 0.279950 0.648749
O O14 0.766278 0.500000 0.593320
O O15 0.774227 0.328728 0.473689
O O16 0.000000 0.356770 0.500000
O O17 0.500000 0.690671 0.500000
O O18 0.343230 0.500000 0.578892
#
# Coordination Sequence:
#
# PCOD8063675 Si02
#       8
#     2   4   4   4   4   4   2   4
#     4   9  18  36  56  77 106 141 179 224 277 317
#     4  10  21  36  52  76 113 148 173 211 274 329
#     4  11  21  35  56  79 106 141 185 225 260 319
#     4  11  22  34  50  78 115 146 170 212 276 331
#     4  11  21  35  58  81 104 139 185 229 264 316
#     4  10  20  34  53  80 110 138 173 220 273 322
#     4   9  18  36  56  76 105 142 182 225 272 308
#     4   9  17  31  51  73 100 136 176 214 254 310
#
# _framework density 18.254201999999999
#
# number of rings (size 3 to 8) (size 9 to 14) (size 15 to 20)
#    0.000    1.857    1.429    3.429    0.000    7.429 
#    0.000    2.500    0.000    0.857    0.000    4.000 
#    0.000    0.000    0.000    0.000    0.000    0.000 
#
# Total GULP energy -347264.251173 kJ/mol
# GULP energy per Si atom -12402.294685 kJ/mol
# Density = 1.821266 g / cm^3
# Si number density = 18.254202 Si / 1000 Ang^3
#
#
#
# Elastic Constant Matrix: (Units=GPa)
#
#
# Indices 1 2 3 4 5 6 
#
# 1 66.2609 19.3749 1.5723 0.0000 7.4593 0.0000
# 2 19.3749 66.1975 24.2487 0.0000 -7.0670 0.0000
# 3 1.5723 24.2487 70.5592 0.0000 -2.6463 0.0000
# 4 0.0000 0.0000 0.0000 21.0074 0.0000 -0.5513
# 5 7.4593 -7.0670 -2.6463 0.0000 24.8909 0.0000
# 6 0.0000 0.0000 0.0000 -0.5513 0.0000 13.9431
#
#
#
# Elastic Compliance Matrix: (Units=1/GPa)
#
#
# Indices 1 2 3 4 5 6 
#
# 1 0.017750 -0.006523 0.001583 0.000000 -0.007003 0.000000
# 2 -0.006523 0.020148 -0.006517 0.000000 0.006982 0.000000
# 3 0.001583 -0.006517 0.016355 0.000000 -0.000586 0.000000
# 4 0.000000 0.000000 0.000000 0.047652 0.000000 0.001884
# 5 -0.007003 0.006982 -0.000586 0.000000 0.044194 0.000000
# 6 0.000000 0.000000 0.000000 0.001884 0.000000 0.071794
#
#
# Mechanical properties :
#
#
# Convention : Reuss Voigt Hill
#
# Bulk Modulus (GPa) = 31.90777 32.60108 32.25443
# Shear Modulus (GPa) = 19.90033 22.48973 21.19503
#
# Velocity S-wave (km/s) = 3.30537 3.51384 3.41119
# Velocity P-wave (km/s) = 5.66435 5.86183 5.76394
#
# Compressibility (1/GPa) = 0.03134033
#
# Stress axis : x y z
#
# Youngs Moduli (GPa) = 56.33841 49.63268 61.14386
#
# Poissons Ratio (x) = 0.32374 -0.09682
# Poissons Ratio (y) = 0.36748 0.39847
# Poissons Ratio (z) = -0.08921 0.32345
#
# Static dielectric constant tensor:
#      x y z
#    x 3.355080 0.000000 -0.002250 
#    y 0.000000 3.313820 0.000000 
#    z -0.002250 0.000000 3.377770 
# 
# 
# High freq. dielectric constant tensor:
#      x y z
#    x 1.711210 0.000000 0.004760 
#    y 0.000000 1.683530 0.000000 
#    z 0.004760 0.000000 1.712900 
# 
# From -- ./inp_files/28363.got.cif
#   From: 2010.06.25/outbox.cif.g09.slc.cpg/sg10_15_cif.got.tgz:28363.got - 2010.06.27 22:07:45.
