data_PCOD8063361
_publ_section_title
;
Structure prediction by ZEFSAII (Michael W. Deem and Ramdas Pophale) SiO2 
 PCOD8063361
Probable space group: P 2/M
;
_chemical_formula_sum "Si O2"
_cell_formula_units_Z 32
_cell_length_a 11.115864
_cell_length_b 17.299966
_cell_length_c 24.335128
_cell_angle_alpha 90.000000
_cell_angle_beta 23.069881
_cell_angle_gamma 90.000000
_cell_volume 1833.774282
_symmetry_space_group_name_H-M "P 2/M"
_symmetry_group_IT_number 10
_symmetry_cell_setting 'monoclinic'
loop_
_space_group_symop_operation_xyz
x,y,z
-x,y,-z
-x,-y,-z
x,-y,z
loop_
_atom_site_type_symbol
_atom_site_label
_atom_site_fract_x
_atom_site_fract_y
_atom_site_fract_z
Si Si1 0.877553 0.087126 0.996684
Si Si2 0.351541 0.090816 0.502643
Si Si3 0.470679 0.586066 0.771652
Si Si4 0.707082 0.821023 0.766620
Si Si5 0.362022 0.729227 0.998906
Si Si6 0.235935 0.829879 0.762928
Si Si7 0.812387 0.585571 0.995017
Si Si8 0.316413 0.747269 0.342737
O O1 0.127624 0.096495 0.843680
O O2 0.830832 0.000000 0.032211
O O3 0.546995 0.114634 0.116568
O O4 0.000000 0.131594 0.000000
O O5 0.500000 0.095860 0.500000
O O6 0.573574 0.136203 0.367733
O O7 0.034186 0.137917 0.635909
O O8 0.305241 0.000000 0.505539
O O9 0.602025 0.500000 0.702599
O O10 0.432603 0.594833 0.853037
O O11 0.693526 0.653890 0.657156
O O12 0.147571 0.599023 0.878366
O O13 0.636249 0.757991 0.843487
O O14 0.649057 0.783850 0.731685
O O15 0.248946 0.645975 0.026891
O O16 0.500000 0.717648 0.000000
O O17 0.069649 0.785434 0.127542
O O18 0.423079 0.773063 0.724168
O O19 0.785768 0.500000 0.980408
O O20 0.000000 0.777945 0.500000
#
# Coordination Sequence:
#
# PCOD8063361 Si02
#       8
#     4   4   4   4   4   4   4   4
#     4  10  20  33  53  81 111 140 170 220 287 336
#     4  11  24  43  61  77 109 155 192 230 277 329
#     4   9  18  33  55  82 111 145 181 225 278 333
#     4  11  22  37  56  84 112 139 189 234 277 337
#     4  11  22  35  57  82 112 152 191 230 272 326
#     4  11  22  37  56  84 112 139 189 234 277 337
#     4   9  17  31  55  83 111 143 184 229 275 329
#     4  12  21  34  57  85 109 148 178 231 288 333
#
# _framework density 17.450348000000002
#
# number of rings (size 3 to 8) (size 9 to 14) (size 15 to 20)
#    0.000    1.500    5.000    2.250    0.000    0.500 
#    0.000    0.625    0.000    6.000    0.000    0.000 
#    0.000    8.000    0.000    0.000    0.000    0.000 
#
# Total GULP energy -396585.647497 kJ/mol
# GULP energy per Si atom -12393.301484 kJ/mol
# Density = 1.741063 g / cm^3
# Si number density = 17.450348 Si / 1000 Ang^3
#
#
#
# Elastic Constant Matrix: (Units=GPa)
#
#
# Indices 1 2 3 4 5 6 
#
# 1 102.6870 38.3591 27.6892 0.0000 6.8737 0.0000
# 2 38.3591 100.1989 29.3547 0.0000 4.7666 0.0000
# 3 27.6892 29.3547 91.6104 0.0000 9.3449 0.0000
# 4 0.0000 0.0000 0.0000 23.3813 0.0000 0.6361
# 5 6.8737 4.7666 9.3449 0.0000 26.0052 0.0000
# 6 0.0000 0.0000 0.0000 0.6361 0.0000 19.7353
#
#
#
# Elastic Compliance Matrix: (Units=1/GPa)
#
#
# Indices 1 2 3 4 5 6 
#
# 1 0.011868 -0.003822 -0.002194 0.000000 -0.001648 0.000000
# 2 -0.003822 0.012260 -0.002748 0.000000 -0.000249 0.000000
# 3 -0.002194 -0.002748 0.012819 0.000000 -0.003523 0.000000
# 4 0.000000 0.000000 0.000000 0.042807 0.000000 -0.001380
# 5 -0.001648 -0.000249 -0.003523 0.000000 0.040201 0.000000
# 6 0.000000 0.000000 0.000000 -0.001380 0.000000 0.050715
#
#
# Mechanical properties :
#
#
# Convention : Reuss Voigt Hill
#
# Bulk Modulus (GPa) = 51.49712 53.92247 52.70980
# Shear Modulus (GPa) = 25.68425 27.09724 26.39075
#
# Velocity S-wave (km/s) = 3.84063 3.94486 3.89309
# Velocity P-wave (km/s) = 7.01726 7.19144 7.10488
#
# Compressibility (1/GPa) = 0.01941856
#
# Stress axis : x y z
#
# Youngs Moduli (GPa) = 84.25931 81.56407 78.01014
#
# Poissons Ratio (x) = 0.31176 0.17118
# Poissons Ratio (y) = 0.32206 0.21436
# Poissons Ratio (z) = 0.18489 0.22413
#
# Static dielectric constant tensor:
#      x y z
#    x 3.217230 0.000000 0.070970 
#    y 0.000000 3.353590 0.000000 
#    z 0.070970 0.000000 3.201290 
# 
# 
# High freq. dielectric constant tensor:
#      x y z
#    x 1.668950 0.000000 0.002610 
#    y 0.000000 1.681940 0.000000 
#    z 0.002610 0.000000 1.671050 
# 
# From -- ./inp_files/92898.got.cif
#   From: 2010.06.25/outbox.cif.g09.slc.cpg/sg10_47_cif.got.tgz:92898.got - 2010.06.27 22:07:45.
