data_PCOD8063615
_publ_section_title
;
Structure prediction by ZEFSAII (Michael W. Deem and Ramdas Pophale) SiO2 
 PCOD8063615
Probable space group: P 2/M
;
_chemical_formula_sum "Si O2"
_cell_formula_units_Z 28
_cell_length_a 15.268054
_cell_length_b 15.517874
_cell_length_c 7.620700
_cell_angle_alpha 90.000000
_cell_angle_beta 119.942312
_cell_angle_gamma 90.000000
_cell_volume 1564.564849
_symmetry_space_group_name_H-M "P 2/M"
_symmetry_group_IT_number 10
_symmetry_cell_setting 'monoclinic'
loop_
_space_group_symop_operation_xyz
x,y,z
-x,y,-z
-x,-y,-z
x,-y,z
loop_
_atom_site_type_symbol
_atom_site_label
_atom_site_fract_x
_atom_site_fract_y
_atom_site_fract_z
Si Si1 0.809001 0.101394 0.809001
Si Si2 0.886570 0.783173 0.186962
Si Si3 0.615580 0.500000 0.408151
Si Si4 0.691872 0.317320 0.389524
Si Si5 0.113430 0.783173 0.413822
Si Si6 0.308128 0.317320 0.005780
Si Si7 0.611586 0.204729 0.611586
Si Si8 0.384420 0.500000 0.176992
O O1 0.863083 0.136945 0.689310
O O2 0.691112 0.127206 0.691112
O O3 0.819492 0.000000 0.819492
O O4 0.863083 0.136945 0.036856
O O5 0.874828 0.816517 0.374828
O O6 0.809448 0.704714 0.070681
O O7 1.000000 0.748871 0.265325
O O8 0.675675 0.418461 0.395307
O O9 0.500000 0.500000 0.223418
O O10 0.617418 0.500000 0.617418
O O11 0.809448 0.295286 0.548215
O O12 0.663604 0.289459 0.163604
O O13 0.620980 0.264634 0.449802
O O14 0.379020 0.264635 0.207842
O O15 0.324325 0.418461 0.043957
O O16 0.500000 0.163649 0.500000
#
# Coordination Sequence:
#
# PCOD8063615 Si02
#       8
#     4   4   2   4   4   4   4   2
#     4  10  21  35  53  79 106 131 166 210 255 306
#     4   9  19  36  56  77 103 135 169 207 253 304
#     4  11  21  33  50  74 106 138 171 214 255 292
#     4  10  20  34  53  76 103 136 173 212 253 297
#     4   9  19  36  56  77 103 135 169 207 253 304
#     4  10  20  34  53  76 103 136 173 212 253 297
#     4  10  20  35  53  73 102 137 172 211 252 301
#     4  11  21  33  50  74 106 138 171 214 255 292
#
# _framework density 17.896350999999999
#
# number of rings (size 3 to 8) (size 9 to 14) (size 15 to 20)
#    0.000    2.143    1.429    1.714    0.000    4.857 
#    0.000    2.143    0.000    4.286    0.000    8.000 
#    0.000    0.000    0.000    0.000    0.000    0.000 
#
# Total GULP energy -347200.689152 kJ/mol
# GULP energy per Si atom -12400.024613 kJ/mol
# Density = 1.785562 g / cm^3
# Si number density = 17.896351 Si / 1000 Ang^3
#
#
#
# Elastic Constant Matrix: (Units=GPa)
#
#
# Indices 1 2 3 4 5 6 
#
# 1 113.9087 50.5646 67.0461 0.0000 11.6165 0.0000
# 2 50.5646 113.9566 46.8084 0.0000 8.3254 0.0000
# 3 67.0461 46.8084 106.6490 0.0000 4.4731 0.0000
# 4 0.0000 0.0000 0.0000 14.9357 0.0000 -0.3788
# 5 11.6165 8.3254 4.4731 0.0000 36.6442 0.0000
# 6 0.0000 0.0000 0.0000 -0.3788 0.0000 14.7649
#
#
#
# Elastic Compliance Matrix: (Units=1/GPa)
#
#
# Indices 1 2 3 4 5 6 
#
# 1 0.015274 -0.003244 -0.008048 0.000000 -0.003123 0.000000
# 2 -0.003244 0.011523 -0.002967 0.000000 -0.001228 0.000000
# 3 -0.008048 -0.002967 0.015683 0.000000 0.001311 0.000000
# 4 0.000000 0.000000 0.000000 0.066997 0.000000 0.001719
# 5 -0.003123 -0.001228 0.001311 0.000000 0.028398 0.000000
# 6 0.000000 0.000000 0.000000 0.001719 0.000000 0.067772
#
#
# Mechanical properties :
#
#
# Convention : Reuss Voigt Hill
#
# Bulk Modulus (GPa) = 71.61367 73.70581 72.65974
# Shear Modulus (GPa) = 20.93643 24.60863 22.77253
#
# Velocity S-wave (km/s) = 3.42405 3.71221 3.57104
# Velocity P-wave (km/s) = 7.46557 7.72323 7.59549
#
# Compressibility (1/GPa) = 0.01396381
#
# Stress axis : x y z
#
# Youngs Moduli (GPa) = 65.47042 86.78432 63.76369
#
# Poissons Ratio (x) = 0.28150 0.51315
# Poissons Ratio (y) = 0.21236 0.18917
# Poissons Ratio (z) = 0.52688 0.25747
#
# Static dielectric constant tensor:
#      x y z
#    x 3.539330 0.000000 -0.078360 
#    y 0.000000 3.039370 0.000000 
#    z -0.078360 0.000000 3.574690 
# 
# 
# High freq. dielectric constant tensor:
#      x y z
#    x 1.706120 0.000000 -0.007690 
#    y 0.000000 1.661540 0.000000 
#    z -0.007690 0.000000 1.709590 
# 
# From -- ./inp_files/29633.got.cif
#   From: 2010.06.25/outbox.cif.g09.slc.cpg/sg10_15_cif.got.tgz:29633.got - 2010.06.27 22:07:45.
