data_PCOD8063849
_publ_section_title
;
Structure prediction by ZEFSAII (Michael W. Deem and Ramdas Pophale) SiO2 
 PCOD8063849
Probable space group: P 2/M
;
_chemical_formula_sum "Si O2"
_cell_formula_units_Z 28
_cell_length_a 15.100719
_cell_length_b 21.438661
_cell_length_c 9.062262
_cell_angle_alpha 90.000000
_cell_angle_beta 29.104188
_cell_angle_gamma 90.000000
_cell_volume 1427.002687
_symmetry_space_group_name_H-M "P 2/M"
_symmetry_group_IT_number 10
_symmetry_cell_setting 'monoclinic'
loop_
_space_group_symop_operation_xyz
x,y,z
-x,y,-z
-x,-y,-z
x,-y,z
loop_
_atom_site_type_symbol
_atom_site_label
_atom_site_fract_x
_atom_site_fract_y
_atom_site_fract_z
Si Si1 0.310811 0.145805 0.190220
Si Si2 0.302420 0.712062 0.217742
Si Si3 0.545692 0.500000 0.262479
Si Si4 0.832517 0.500000 0.355941
Si Si5 0.153080 0.070728 0.669001
Si Si6 0.038640 0.371232 0.773183
Si Si7 0.470736 0.929202 0.707775
Si Si8 0.804582 0.614415 0.855483
O O1 0.251329 0.217024 0.254486
O O2 0.159533 0.110849 0.509469
O O3 0.500000 0.141531 0.000000
O O4 0.325828 0.113131 0.007837
O O5 0.159644 0.686416 0.544599
O O6 0.285821 0.674429 0.089208
O O7 0.500000 0.705335 0.000000
O O8 0.500000 0.500000 0.500000
O O9 0.359848 0.500000 0.443462
O O10 0.661653 0.559425 0.046784
O O11 0.853603 0.436387 0.419759
O O12 0.000000 0.500000 0.000000
O O13 0.340986 0.073036 0.481202
O O14 0.102788 0.000000 0.697370
O O15 0.000000 0.099016 0.000000
O O16 0.844902 0.371636 0.969472
O O17 0.000000 0.362225 0.000000
O O18 0.500000 0.902629 0.500000
O O19 0.395371 0.000000 0.810085
O O20 0.000000 0.597375 0.500000
#
# Coordination Sequence:
#
# PCOD8063849 Si02
#       8
#     4   4   2   2   4   4   4   4
#     4   9  18  34  54  76 105 144 184 221 264 322
#     4  10  21  37  54  76 107 144 186 225 269 324
#     4  12  21  34  60  89 111 139 180 224 276 329
#     4  10  20  34  55  85 113 137 173 226 279 323
#     4   9  17  31  53  81 109 138 175 219 269 324
#     4  10  20  38  58  79 109 142 179 224 272 322
#     4   9  17  32  54  79 106 138 177 222 271 320
#     4  10  22  39  57  81 113 145 180 224 276 329
#
# _framework density 19.621545999999999
#
# number of rings (size 3 to 8) (size 9 to 14) (size 15 to 20)
#    0.000    2.286    0.000    3.643    0.000    4.000 
#    0.000   13.571    0.000    3.429    0.000    0.000 
#    0.000    0.000    0.000    0.000    0.000    0.000 
#
# Total GULP energy -347153.185347 kJ/mol
# GULP energy per Si atom -12398.328048 kJ/mol
# Density = 1.957689 g / cm^3
# Si number density = 19.621546 Si / 1000 Ang^3
#
#
#
# Elastic Constant Matrix: (Units=GPa)
#
#
# Indices 1 2 3 4 5 6 
#
# 1 120.0947 60.3958 39.1179 0.0000 15.4425 0.0000
# 2 60.3958 156.3077 73.7725 0.0000 20.4784 0.0000
# 3 39.1179 73.7725 100.5431 0.0000 15.7305 0.0000
# 4 0.0000 0.0000 0.0000 24.7158 0.0000 -0.9582
# 5 15.4425 20.4784 15.7305 0.0000 41.3908 0.0000
# 6 0.0000 0.0000 0.0000 -0.9582 0.0000 16.4534
#
#
#
# Elastic Compliance Matrix: (Units=1/GPa)
#
#
# Indices 1 2 3 4 5 6 
#
# 1 0.010647 -0.003143 -0.001551 0.000000 -0.001828 0.000000
# 2 -0.003143 0.010915 -0.006512 0.000000 -0.001753 0.000000
# 3 -0.001551 -0.006512 0.015664 0.000000 -0.002153 0.000000
# 4 0.000000 0.000000 0.000000 0.040552 0.000000 0.002362
# 5 -0.001828 -0.001753 -0.002153 0.000000 0.026528 0.000000
# 6 0.000000 0.000000 0.000000 0.002362 0.000000 0.060915
#
#
# Mechanical properties :
#
#
# Convention : Reuss Voigt Hill
#
# Bulk Modulus (GPa) = 67.49322 80.39090 73.94206
# Shear Modulus (GPa) = 25.96466 30.08928 28.02697
#
# Velocity S-wave (km/s) = 3.64163 3.92022 3.78349
# Velocity P-wave (km/s) = 7.22178 7.84541 7.54005
#
# Compressibility (1/GPa) = 0.01481630
#
# Stress axis : x y z
#
# Youngs Moduli (GPa) = 93.91981 91.61729 63.84058
#
# Poissons Ratio (x) = 0.28793 0.09899
# Poissons Ratio (y) = 0.29516 0.41572
# Poissons Ratio (z) = 0.14563 0.59659
#
# Static dielectric constant tensor:
#      x y z
#    x 3.666690 0.000000 0.086060 
#    y 0.000000 3.783040 0.000000 
#    z 0.086060 0.000000 3.560730 
# 
# 
# High freq. dielectric constant tensor:
#      x y z
#    x 1.766430 0.000000 0.006920 
#    y 0.000000 1.760130 0.000000 
#    z 0.006920 0.000000 1.758060 
# 
# From -- ./inp_files/30437.got.cif
#   From: 2010.06.25/outbox.cif.g09.slc.cpg/sg10_16_cif.got.tgz:30437.got - 2010.06.27 22:07:45.
