data_PCOD8063382
_publ_section_title
;
Structure prediction by ZEFSAII (Michael W. Deem and Ramdas Pophale) SiO2 
 PCOD8063382
Probable space group: P 2/M
;
_chemical_formula_sum "Si O2"
_cell_formula_units_Z 30
_cell_length_a 29.190070
_cell_length_b 9.138562
_cell_length_c 12.013897
_cell_angle_alpha 90.000000
_cell_angle_beta 149.721102
_cell_angle_gamma 90.000000
_cell_volume 1615.875942
_symmetry_space_group_name_H-M "P 2/M"
_symmetry_group_IT_number 10
_symmetry_cell_setting 'monoclinic'
loop_
_space_group_symop_operation_xyz
x,y,z
-x,y,-z
-x,-y,-z
x,-y,z
loop_
_atom_site_type_symbol
_atom_site_label
_atom_site_fract_x
_atom_site_fract_y
_atom_site_fract_z
Si Si1 0.265746 0.169945 0.696598
Si Si2 0.000000 0.752779 0.000000
Si Si3 0.588905 0.826086 0.824752
Si Si4 0.193632 0.335238 0.338242
Si Si5 0.071991 0.841505 0.375634
Si Si6 0.387413 0.826345 0.372209
Si Si7 0.952934 0.332515 0.284413
Si Si8 0.216992 0.174378 0.155119
O O1 0.255954 0.263624 0.564300
O O2 0.178685 0.190709 0.593020
O O3 0.278408 0.000000 0.689776
O O4 0.350320 0.232993 0.945574
O O5 0.912666 0.656391 0.851596
O O6 0.970476 0.855000 0.836348
O O7 0.484983 0.773608 0.624467
O O8 0.625241 0.767735 0.781077
O O9 0.594913 0.000000 0.836521
O O10 0.227644 0.500000 0.389402
O O11 0.208606 0.241421 0.259309
O O12 0.026168 0.709723 0.345051
O O13 0.055090 0.000000 0.397877
O O14 0.308605 0.767695 0.287897
O O15 0.384632 0.000000 0.363794
O O16 0.923663 0.500000 0.202924
O O17 0.000000 0.307997 0.500000
O O18 0.865773 0.228685 0.094964
O O19 0.213653 0.000000 0.157639
#
# Coordination Sequence:
#
# PCOD8063382 Si02
#       8
#     4   2   4   4   4   4   4   4
#     4   9  19  33  55  83 111 137 177 228 274 317
#     4  10  20  34  56  76 104 140 188 226 268 314
#     4   8  14  31  56  84 114 139 169 219 276 328
#     4  11  22  36  54  76 108 148 187 223 268 323
#     4  10  20  33  54  82 109 138 178 228 272 310
#     4   8  16  30  55  86 112 139 173 218 276 328
#     4  11  25  40  52  73 110 152 186 216 261 321
#     4  11  22  36  58  84 110 139 182 230 270 318
#
# _framework density 18.565783
#
# number of rings (size 3 to 8) (size 9 to 14) (size 15 to 20)
#    0.000    2.267    1.333    2.400    1.867    4.267 
#    0.000    0.667    0.000    5.600    0.000    4.667 
#    0.000    0.000    0.000    0.000    0.000    0.000 
#
# Total GULP energy -371895.443286 kJ/mol
# GULP energy per Si atom -12396.514776 kJ/mol
# Density = 1.852353 g / cm^3
# Si number density = 18.565783 Si / 1000 Ang^3
#
#
#
# Elastic Constant Matrix: (Units=GPa)
#
#
# Indices 1 2 3 4 5 6 
#
# 1 118.0010 45.1594 60.8728 0.0000 1.1305 0.0000
# 2 45.1594 77.0113 47.6129 0.0000 -1.1596 0.0000
# 3 60.8728 47.6129 140.7646 0.0000 -8.2462 0.0000
# 4 0.0000 0.0000 0.0000 19.8851 0.0000 -15.0134
# 5 1.1305 -1.1596 -8.2462 0.0000 21.8140 0.0000
# 6 0.0000 0.0000 0.0000 -15.0134 0.0000 36.5655
#
#
#
# Elastic Compliance Matrix: (Units=1/GPa)
#
#
# Indices 1 2 3 4 5 6 
#
# 1 0.012346 -0.004918 -0.003813 0.000000 -0.002343 0.000000
# 2 -0.004918 0.018411 -0.004120 0.000000 -0.000324 0.000000
# 3 -0.003813 -0.004120 0.010375 0.000000 0.003901 0.000000
# 4 0.000000 0.000000 0.000000 0.072882 0.000000 0.029925
# 5 -0.002343 -0.000324 0.003901 0.000000 0.047421 0.000000
# 6 0.000000 0.000000 0.000000 0.029925 0.000000 0.039635
#
#
# Mechanical properties :
#
#
# Convention : Reuss Voigt Hill
#
# Bulk Modulus (GPa) = 64.80305 71.45190 68.12748
# Shear Modulus (GPa) = 21.55977 27.79504 24.67741
#
# Velocity S-wave (km/s) = 3.41143 3.87345 3.64976
# Velocity P-wave (km/s) = 7.10616 7.65338 7.38484
#
# Compressibility (1/GPa) = 0.01543137
#
# Stress axis : x y z
#
# Youngs Moduli (GPa) = 80.99924 54.31534 96.38678
#
# Poissons Ratio (x) = 0.26710 0.36750
# Poissons Ratio (y) = 0.39832 0.39710
# Poissons Ratio (z) = 0.30883 0.22377
#
# Static dielectric constant tensor:
#      x y z
#    x 3.730320 0.000000 0.032160 
#    y 0.000000 3.111330 0.000000 
#    z 0.032160 0.000000 3.654120 
# 
# 
# High freq. dielectric constant tensor:
#      x y z
#    x 1.714090 0.000000 -0.005840 
#    y 0.000000 1.693210 0.000000 
#    z -0.005840 0.000000 1.726180 
# 
# From -- ./inp_files/58014.got.cif
#   From: 2010.06.25/outbox.cif.g09.slc.cpg/sg10_30_cif.got.tgz:58014.got - 2010.06.27 22:07:45.
