data_PCOD8063005
_publ_section_title
;
Structure prediction by ZEFSAII (Michael W. Deem and Ramdas Pophale) SiO2 
 PCOD8063005
Probable space group: P 2/M
;
_chemical_formula_sum "Si O2"
_cell_formula_units_Z 32
_cell_length_a 26.407099
_cell_length_b 9.109500
_cell_length_c 20.716173
_cell_angle_alpha 90.000000
_cell_angle_beta 160.246991
_cell_angle_gamma 90.000000
_cell_volume 1684.216669
_symmetry_space_group_name_H-M "P 2/M"
_symmetry_group_IT_number 10
_symmetry_cell_setting 'monoclinic'
loop_
_space_group_symop_operation_xyz
x,y,z
-x,y,-z
-x,-y,-z
x,-y,z
loop_
_atom_site_type_symbol
_atom_site_label
_atom_site_fract_x
_atom_site_fract_y
_atom_site_fract_z
Si Si1 0.598760 0.830590 0.914029
Si Si2 0.998705 0.175010 0.295155
Si Si3 0.302575 0.673149 0.091645
Si Si4 0.179952 0.336293 0.293822
Si Si5 0.625682 0.832017 0.702770
Si Si6 0.827372 0.664833 0.857665
Si Si7 0.080747 0.828759 0.658674
Si Si8 0.734886 0.170250 0.475864
O O1 0.612501 0.722037 0.870592
O O2 0.437354 0.800550 0.753968
O O3 0.609129 0.000000 0.902893
O O4 0.739957 0.796931 0.130464
O O5 0.151042 0.230528 0.442360
O O6 0.993204 0.230252 0.363278
O O7 0.980510 0.000000 0.269790
O O8 0.858395 0.249439 0.091465
O O9 0.281337 0.500000 0.066971
O O10 0.407146 0.728785 0.275302
O O11 0.241317 0.500000 0.380836
O O12 0.229967 0.282390 0.282290
O O13 0.240798 0.236083 0.424176
O O14 0.003121 0.338362 0.077211
O O15 0.500000 0.802467 0.500000
O O16 0.778168 0.781758 0.851806
O O17 0.637020 0.000000 0.738676
O O18 0.764849 0.500000 0.795730
O O19 0.000000 0.752832 0.500000
O O20 0.048279 0.000000 0.617245
O O21 0.766365 0.000000 0.521756
#
# Coordination Sequence:
#
# PCOD8063005 Si02
#       8
#     4   4   4   4   4   4   4   4
#     4   9  19  35  53  77 111 141 173 218 264 313
#     4   9  18  34  55  80 109 139 174 215 258 311
#     4  11  22  36  55  76 100 136 181 222 265 317
#     4   9  19  34  52  72  98 131 166 215 264 310
#     4  11  24  37  50  70  99 132 170 218 269 314
#     4   9  19  36  52  70  96 127 170 217 266 314
#     4   8  14  29  55  81 107 144 181 211 250 303
#     4  10  20  32  50  76 106 139 173 213 265 315
#
# _framework density 18.999931
#
# number of rings (size 3 to 8) (size 9 to 14) (size 15 to 20)
#    0.000    2.500    0.000    3.750    1.750    5.000 
#    0.000    1.875    0.000    9.750    0.000    0.000 
#    0.000    9.000    0.000    0.000    0.000    0.000 
#
# Total GULP energy -396553.177187 kJ/mol
# GULP energy per Si atom -12392.286787 kJ/mol
# Density = 1.895669 g / cm^3
# Si number density = 18.999931 Si / 1000 Ang^3
#
#
#
# Elastic Constant Matrix: (Units=GPa)
#
#
# Indices 1 2 3 4 5 6 
#
# 1 61.1074 22.3927 44.4924 0.0000 -7.3404 0.0000
# 2 22.3927 53.0739 31.0697 0.0000 -5.4357 0.0000
# 3 44.4924 31.0697 88.2276 0.0000 -0.3105 0.0000
# 4 0.0000 0.0000 0.0000 5.6686 0.0000 4.1130
# 5 -7.3404 -5.4357 -0.3105 0.0000 31.5128 0.0000
# 6 0.0000 0.0000 0.0000 4.1130 0.0000 17.2397
#
#
#
# Elastic Compliance Matrix: (Units=1/GPa)
#
#
# Indices 1 2 3 4 5 6 
#
# 1 0.027551 -0.003682 -0.012577 0.000000 0.005659 0.000000
# 2 -0.003682 0.024745 -0.006846 0.000000 0.003343 0.000000
# 3 -0.012577 -0.006846 0.020074 0.000000 -0.003913 0.000000
# 4 0.000000 0.000000 0.000000 0.213339 0.000000 -0.050898
# 5 0.005659 0.003343 -0.003913 0.000000 0.033589 0.000000
# 6 0.000000 0.000000 0.000000 -0.050898 0.000000 0.070149
#
#
# Mechanical properties :
#
#
# Convention : Reuss Voigt Hill
#
# Bulk Modulus (GPa) = 38.22559 44.25760 41.24160
# Shear Modulus (GPa) = 11.25172 17.84783 14.54977
#
# Velocity S-wave (km/s) = 2.43615 3.06823 2.77028
# Velocity P-wave (km/s) = 5.29864 5.99134 5.65561
#
# Compressibility (1/GPa) = 0.02616048
#
# Stress axis : x y z
#
# Youngs Moduli (GPa) = 36.29618 40.41235 49.81608
#
# Poissons Ratio (x) = 0.14879 0.62655
# Poissons Ratio (y) = 0.13364 0.34102
# Poissons Ratio (z) = 0.45651 0.27664
#
# Static dielectric constant tensor:
#      x y z
#    x 3.990420 0.000000 -0.093670 
#    y 0.000000 3.315760 0.000000 
#    z -0.093670 0.000000 3.653550 
# 
# 
# High freq. dielectric constant tensor:
#      x y z
#    x 1.730590 0.000000 0.007000 
#    y 0.000000 1.716140 0.000000 
#    z 0.007000 0.000000 1.737160 
# 
# From -- ./inp_files/87035.got.cif
#   From: 2010.06.25/outbox.cif.g09.slc.cpg/sg10_44_cif.got.tgz:87035.got - 2010.06.27 22:07:45.
