data_PCOD8063582
_publ_section_title
;
Structure prediction by ZEFSAII (Michael W. Deem and Ramdas Pophale) SiO2 
 PCOD8063582
Probable space group: P 2/M
;
_chemical_formula_sum "Si O2"
_cell_formula_units_Z 32
_cell_length_a 21.551276
_cell_length_b 9.605677
_cell_length_c 20.255041
_cell_angle_alpha 90.000000
_cell_angle_beta 27.661925
_cell_angle_gamma 90.000000
_cell_volume 1946.656595
_symmetry_space_group_name_H-M "P 2/M"
_symmetry_group_IT_number 10
_symmetry_cell_setting 'monoclinic'
loop_
_space_group_symop_operation_xyz
x,y,z
-x,y,-z
-x,-y,-z
x,-y,z
loop_
_atom_site_type_symbol
_atom_site_label
_atom_site_fract_x
_atom_site_fract_y
_atom_site_fract_z
Si Si1 0.177105 0.843826 0.894798
Si Si2 0.857938 0.163907 0.600118
Si Si3 0.137975 0.844314 0.787560
Si Si4 0.222694 0.661641 0.108551
Si Si5 0.927914 0.335573 0.411577
Si Si6 0.791942 0.655454 0.019193
Si Si7 0.108271 0.653396 0.701555
Si Si8 0.650816 0.660616 0.877279
O O1 0.200219 0.788159 0.798092
O O2 0.233410 0.000000 0.848344
O O3 0.254519 0.748169 0.874815
O O4 0.020927 0.843027 0.057347
O O5 0.849009 0.242843 0.538723
O O6 0.744082 0.231028 0.752347
O O7 0.000000 0.191521 0.500000
O O8 0.830030 0.000000 0.617039
O O9 0.184898 0.752825 0.680972
O O10 0.189534 0.000000 0.726129
O O11 0.196539 0.500000 0.119048
O O12 0.264992 0.721413 0.996385
O O13 0.336075 0.688790 0.056330
O O14 0.081064 0.719589 0.268315
O O15 0.917344 0.500000 0.439210
O O16 0.863121 0.303258 0.401121
O O17 0.737033 0.500000 0.083894
O O18 0.950930 0.654439 0.862500
O O19 0.165968 0.500000 0.659859
O O20 0.691126 0.500000 0.823324
O O21 0.500000 0.691899 0.000000
#
# Coordination Sequence:
#
# PCOD8063582 Si02
#       8
#     4   4   4   4   4   4   4   4
#     4   8  13  20  28  42  65  96 135 171 202 244
#     4  11  22  33  47  70  95 119 150 188 230 274
#     4   8  13  20  29  41  65 101 133 165 208 250
#     4   8  14  26  43  62  84 108 139 183 226 263
#     4   9  16  28  46  63  83 113 146 185 227 262
#     4   8  13  21  33  49  70  98 131 169 214 253
#     4   8  14  22  33  52  73  97 134 174 213 255
#     4  10  20  34  53  72  89 118 156 188 228 280
#
# _framework density 16.43844
#
# number of rings (size 3 to 8) (size 9 to 14) (size 15 to 20)
#    0.000    3.250    1.250    2.625    0.000    1.750 
#    0.000    5.000    0.000    0.000    0.000    0.000 
#    0.000    0.000    0.000    1.125    0.000   24.000 
#
# Total GULP energy -396488.772573 kJ/mol
# GULP energy per Si atom -12390.274143 kJ/mol
# Density = 1.640103 g / cm^3
# Si number density = 16.438440 Si / 1000 Ang^3
#
#
#
# Elastic Constant Matrix: (Units=GPa)
#
#
# Indices 1 2 3 4 5 6 
#
# 1 147.3050 70.6856 39.5353 0.0000 28.8387 0.0000
# 2 70.6856 87.8770 31.7904 0.0000 18.1775 0.0000
# 3 39.5353 31.7904 31.4086 0.0000 4.9688 0.0000
# 4 0.0000 0.0000 0.0000 11.6673 0.0000 6.2730
# 5 28.8387 18.1775 4.9688 0.0000 18.9086 0.0000
# 6 0.0000 0.0000 0.0000 6.2730 0.0000 18.4572
#
#
#
# Elastic Compliance Matrix: (Units=1/GPa)
#
#
# Indices 1 2 3 4 5 6 
#
# 1 0.015390 -0.004762 -0.012065 0.000000 -0.015724 0.000000
# 2 -0.004762 0.023137 -0.015707 0.000000 -0.010852 0.000000
# 3 -0.012065 -0.015707 0.060122 0.000000 0.017701 0.000000
# 4 0.000000 0.000000 0.000000 0.104873 0.000000 -0.035643
# 5 -0.015724 -0.010852 0.017701 0.000000 0.082649 0.000000
# 6 0.000000 0.000000 0.000000 -0.035643 0.000000 0.066293
#
#
# Mechanical properties :
#
#
# Convention : Reuss Voigt Hill
#
# Bulk Modulus (GPa) = 29.77816 61.17924 45.47870
# Shear Modulus (GPa) = 11.66245 18.11191 14.88718
#
# Velocity S-wave (km/s) = 2.66646 3.32294 3.01264
# Velocity P-wave (km/s) = 5.25683 7.21253 6.31090
#
# Compressibility (1/GPa) = 0.03358166
#
# Stress axis : x y z
#
# Youngs Moduli (GPa) = 64.97558 43.22050 16.63281
#
# Poissons Ratio (x) = 0.20584 0.20067
# Poissons Ratio (y) = 0.30945 0.26125
# Poissons Ratio (z) = 0.78390 0.67886
#
# Static dielectric constant tensor:
#      x y z
#    x 3.444660 0.000000 0.299050 
#    y 0.000000 3.156070 0.000000 
#    z 0.299050 0.000000 2.500770 
# 
# 
# High freq. dielectric constant tensor:
#      x y z
#    x 1.645070 0.000000 0.031720 
#    y 0.000000 1.620260 0.000000 
#    z 0.031720 0.000000 1.561080 
# 
# From -- ./inp_files/83226.got.cif
#   From: 2010.06.25/outbox.cif.g09.slc.cpg/sg10_42_cif.got.tgz:83226.got - 2010.06.27 22:07:45.
