data_PCOD8063321
_publ_section_title
;
Structure prediction by ZEFSAII (Michael W. Deem and Ramdas Pophale) SiO2 
 PCOD8063321
Probable space group: P 2/M
;
_chemical_formula_sum "Si O2"
_cell_formula_units_Z 32
_cell_length_a 27.373396
_cell_length_b 8.949332
_cell_length_c 22.244775
_cell_angle_alpha 90.000000
_cell_angle_beta 161.986049
_cell_angle_gamma 90.000000
_cell_volume 1685.213780
_symmetry_space_group_name_H-M "P 2/M"
_symmetry_group_IT_number 10
_symmetry_cell_setting 'monoclinic'
loop_
_space_group_symop_operation_xyz
x,y,z
-x,y,-z
-x,-y,-z
x,-y,z
loop_
_atom_site_type_symbol
_atom_site_label
_atom_site_fract_x
_atom_site_fract_y
_atom_site_fract_z
Si Si1 0.023124 0.827762 0.909606
Si Si2 0.100876 0.828186 0.363258
Si Si3 0.663259 0.677932 0.163547
Si Si4 0.424794 0.175624 0.681200
Si Si5 0.723318 0.324348 0.604658
Si Si6 0.659499 0.171651 0.652079
Si Si7 0.040281 0.323485 0.415157
Si Si8 0.708956 0.322845 0.081316
O O1 0.009536 0.790482 0.823039
O O2 0.904162 0.727241 0.808944
O O3 0.974554 0.000000 0.863720
O O4 0.199228 0.792374 0.136615
O O5 0.281763 0.786918 0.559288
O O6 0.039417 0.729190 0.345724
O O7 0.085903 0.000000 0.364544
O O8 0.665067 0.500000 0.167318
O O9 0.808480 0.742837 0.372543
O O10 0.680999 0.734762 0.116230
O O11 0.500000 0.740685 0.000000
O O12 0.390105 0.244414 0.575706
O O13 0.446315 0.000000 0.698323
O O14 0.584242 0.246209 0.892014
O O15 0.711315 0.500000 0.581204
O O16 0.665383 0.281254 0.602783
O O17 0.500000 0.206952 0.500000
O O18 0.667776 0.000000 0.639798
O O19 0.049247 0.500000 0.425777
O O20 0.882320 0.269764 0.263850
O O21 0.688915 0.500000 0.053170
#
# Coordination Sequence:
#
# PCOD8063321 Si02
#       8
#     4   4   4   4   4   4   4   4
#     4   9  19  37  58  79 107 144 185 224 265 319
#     4   9  19  35  54  77 104 138 182 228 267 310
#     4   9  17  31  53  78 106 143 183 221 264 317
#     4  10  21  38  58  79 105 140 182 223 268 323
#     4  11  22  36  57  84 111 140 179 227 275 321
#     4  10  21  37  57  81 111 149 187 222 267 323
#     4  10  20  33  52  80 112 145 177 215 268 325
#     4  10  20  34  53  80 112 142 177 222 270 320
#
# _framework density 18.988688
#
# number of rings (size 3 to 8) (size 9 to 14) (size 15 to 20)
#    0.000    2.250    0.000    3.750    0.000    8.750 
#    0.000    1.875    0.000    3.750    0.000    0.000 
#    0.000    0.000    0.000    0.000    0.000    0.000 
#
# Total GULP energy -396907.931326 kJ/mol
# GULP energy per Si atom -12403.372854 kJ/mol
# Density = 1.894547 g / cm^3
# Si number density = 18.988688 Si / 1000 Ang^3
#
#
#
# Elastic Constant Matrix: (Units=GPa)
#
#
# Indices 1 2 3 4 5 6 
#
# 1 123.5829 32.5972 93.8303 0.0000 4.5251 0.0000
# 2 32.5972 39.9931 43.0536 0.0000 2.9743 0.0000
# 3 93.8303 43.0536 155.9933 0.0000 5.2246 0.0000
# 4 0.0000 0.0000 0.0000 23.9902 0.0000 0.9192
# 5 4.5251 2.9743 5.2246 0.0000 25.6905 0.0000
# 6 0.0000 0.0000 0.0000 0.9192 0.0000 22.8603
#
#
#
# Elastic Compliance Matrix: (Units=1/GPa)
#
#
# Indices 1 2 3 4 5 6 
#
# 1 0.015266 -0.003605 -0.008167 0.000000 -0.000611 0.000000
# 2 -0.003605 0.036542 -0.007850 0.000000 -0.001999 0.000000
# 3 -0.008167 -0.007850 0.013503 0.000000 -0.000399 0.000000
# 4 0.000000 0.000000 0.000000 0.041748 0.000000 -0.001679
# 5 -0.000611 -0.001999 -0.000399 0.000000 0.039345 0.000000
# 6 0.000000 0.000000 0.000000 -0.001679 0.000000 0.043811
#
#
# Mechanical properties :
#
#
# Convention : Reuss Voigt Hill
#
# Bulk Modulus (GPa) = 38.36346 73.17016 55.76681
# Shear Modulus (GPa) = 20.99531 24.51409 22.75470
#
# Velocity S-wave (km/s) = 3.32878 3.59692 3.46544
# Velocity P-wave (km/s) = 5.91790 7.47447 6.74126
#
# Compressibility (1/GPa) = 0.02606647
#
# Stress axis : x y z
#
# Youngs Moduli (GPa) = 65.50602 27.36558 74.05866
#
# Poissons Ratio (x) = 0.09866 0.60483
# Poissons Ratio (y) = 0.23618 0.58135
# Poissons Ratio (z) = 0.53498 0.21482
#
# Static dielectric constant tensor:
#      x y z
#    x 3.472790 0.000000 -0.022610 
#    y 0.000000 3.244690 0.000000 
#    z -0.022610 0.000000 3.680240 
# 
# 
# High freq. dielectric constant tensor:
#      x y z
#    x 1.742700 0.000000 -0.005290 
#    y 0.000000 1.716490 0.000000 
#    z -0.005290 0.000000 1.749460 
# 
# From -- ./inp_files/87064.got.cif
#   From: 2010.06.25/outbox.cif.g09.slc.cpg/sg10_44_cif.got.tgz:87064.got - 2010.06.27 22:07:45.
