data_PCOD8063429
_publ_section_title
;
Structure prediction by ZEFSAII (Michael W. Deem and Ramdas Pophale) SiO2 
 PCOD8063429
Probable space group: P 2/M
;
_chemical_formula_sum "Si O2"
_cell_formula_units_Z 32
_cell_length_a 21.932445
_cell_length_b 13.388135
_cell_length_c 9.678934
_cell_angle_alpha 90.000000
_cell_angle_beta 36.845009
_cell_angle_gamma 90.000000
_cell_volume 1704.253757
_symmetry_space_group_name_H-M "P 2/M"
_symmetry_group_IT_number 10
_symmetry_cell_setting 'monoclinic'
loop_
_space_group_symop_operation_xyz
x,y,z
-x,y,-z
-x,-y,-z
x,-y,z
loop_
_atom_site_type_symbol
_atom_site_label
_atom_site_fract_x
_atom_site_fract_y
_atom_site_fract_z
Si Si1 0.739070 0.885286 0.350072
Si Si2 0.396474 0.111526 0.644389
Si Si3 0.253729 0.385822 0.520987
Si Si4 0.379884 0.794160 0.198230
Si Si5 0.113068 0.745007 0.321209
Si Si6 0.858120 0.712416 0.041886
Si Si7 0.928253 0.615367 0.357757
Si Si8 0.726513 0.887434 0.858052
O O1 0.658980 0.838037 0.384963
O O2 0.686593 0.872782 0.593069
O O3 0.842035 0.821094 0.143320
O O4 0.766898 0.000000 0.270832
O O5 0.500000 0.169753 0.500000
O O6 0.427699 0.000000 0.538096
O O7 0.319715 0.106376 0.907966
O O8 0.289494 0.500000 0.444003
O O9 0.348003 0.318108 0.298983
O O10 0.221075 0.362561 0.738369
O O11 0.157619 0.362116 0.598583
O O12 0.350154 0.822000 0.096038
O O13 0.500000 0.808692 0.000000
O O14 0.110447 0.644898 0.419174
O O15 0.167361 0.830329 0.313638
O O16 0.000000 0.786380 0.500000
O O17 0.165999 0.717098 0.079023
O O18 0.973157 0.679361 0.862179
O O19 0.959598 0.500000 0.302541
O O20 0.744225 0.000000 0.767596
#
# Coordination Sequence:
#
# PCOD8063429 Si02
#       8
#     4   4   4   4   4   4   4   4
#     4  10  20  35  53  79 113 149 188 228 276 331
#     4   9  17  30  51  75 100 139 187 229 270 319
#     4  10  21  38  61  85 112 147 188 237 290 342
#     4  11  23  38  59  85 113 150 191 241 286 337
#     4  10  21  36  55  85 115 149 188 230 279 338
#     4  10  20  33  57  85 115 145 185 232 277 338
#     4  10  20  37  60  84 112 146 188 236 286 343
#     4  11  21  36  56  81 115 150 189 232 277 333
#
# _framework density 18.776547000000001
#
# number of rings (size 3 to 8) (size 9 to 14) (size 15 to 20)
#    0.000    1.875    2.500    1.875    0.000    6.250 
#    0.000    1.875    0.000    1.500    0.000    0.875 
#    0.000    0.000    0.000    0.000    0.000    0.000 
#
# Total GULP energy -396675.650729 kJ/mol
# GULP energy per Si atom -12396.114085 kJ/mol
# Density = 1.873381 g / cm^3
# Si number density = 18.776547 Si / 1000 Ang^3
#
#
#
# Elastic Constant Matrix: (Units=GPa)
#
#
# Indices 1 2 3 4 5 6 
#
# 1 81.1306 36.9357 16.0931 0.0000 -9.1316 0.0000
# 2 36.9357 97.0381 32.1207 0.0000 -10.7520 0.0000
# 3 16.0931 32.1207 55.5093 0.0000 -3.1947 0.0000
# 4 0.0000 0.0000 0.0000 17.3275 0.0000 0.3007
# 5 -9.1316 -10.7520 -3.1947 0.0000 29.2127 0.0000
# 6 0.0000 0.0000 0.0000 0.3007 0.0000 24.2532
#
#
#
# Elastic Compliance Matrix: (Units=1/GPa)
#
#
# Indices 1 2 3 4 5 6 
#
# 1 0.015193 -0.005037 -0.001331 0.000000 0.002749 0.000000
# 2 -0.005037 0.014877 -0.006967 0.000000 0.003139 0.000000
# 3 -0.001331 -0.006967 0.022402 0.000000 -0.000531 0.000000
# 4 0.000000 0.000000 0.000000 0.057724 0.000000 -0.000716
# 5 0.002749 0.003139 -0.000531 0.000000 0.036188 0.000000
# 6 0.000000 0.000000 0.000000 -0.000716 0.000000 0.041241
#
#
# Mechanical properties :
#
#
# Convention : Reuss Voigt Hill
#
# Bulk Modulus (GPa) = 38.76110 44.88631 41.82370
# Shear Modulus (GPa) = 22.43190 24.06059 23.24624
#
# Velocity S-wave (km/s) = 3.46016 3.58357 3.52241
# Velocity P-wave (km/s) = 6.05407 6.40937 6.23425
#
# Compressibility (1/GPa) = 0.02579906
#
# Stress axis : x y z
#
# Youngs Moduli (GPa) = 65.82096 67.21914 44.63854
#
# Poissons Ratio (x) = 0.33861 0.05943
# Poissons Ratio (y) = 0.33157 0.31101
# Poissons Ratio (z) = 0.08764 0.46834
#
# Static dielectric constant tensor:
#      x y z
#    x 3.587330 0.000000 0.095500 
#    y 0.000000 3.435940 0.000000 
#    z 0.095500 0.000000 3.422810 
# 
# 
# High freq. dielectric constant tensor:
#      x y z
#    x 1.733880 0.000000 0.013280 
#    y 0.000000 1.713080 0.000000 
#    z 0.013280 0.000000 1.727580 
# 
# From -- ./inp_files/35104.got.cif
#   From: 2010.06.25/outbox.cif.g09.slc.cpg/sg10_18_cif.got.tgz:35104.got - 2010.06.27 22:07:45.
