data_PCOD8063037
_publ_section_title
;
Structure prediction by ZEFSAII (Michael W. Deem and Ramdas Pophale) SiO2 
 PCOD8063037
Probable space group: P 2/M
;
_chemical_formula_sum "Si O2"
_cell_formula_units_Z 22
_cell_length_a 5.405933
_cell_length_b 10.492308
_cell_length_c 20.506504
_cell_angle_alpha 90.000000
_cell_angle_beta 100.294377
_cell_angle_gamma 90.000000
_cell_volume 1144.419941
_symmetry_space_group_name_H-M "P 2/M"
_symmetry_group_IT_number 10
_symmetry_cell_setting 'monoclinic'
loop_
_space_group_symop_operation_xyz
x,y,z
-x,y,-z
-x,-y,-z
x,-y,z
loop_
_atom_site_type_symbol
_atom_site_label
_atom_site_fract_x
_atom_site_fract_y
_atom_site_fract_z
Si Si1 0.723124 0.860071 0.885556
Si Si2 0.406090 0.853854 0.750246
Si Si3 0.500000 0.778905 0.000000
Si Si4 0.226548 0.848505 0.465413
Si Si5 0.928595 0.640776 0.072272
Si Si6 0.864187 0.848092 0.685857
O O1 0.474688 0.838999 0.829945
O O2 0.911731 0.743881 0.879436
O O3 0.841046 0.000000 0.873155
O O4 0.667635 0.866397 0.960664
O O5 0.132433 0.791044 0.723950
O O6 0.633221 0.792360 0.718127
O O7 0.383845 0.000000 0.727650
O O8 0.642217 0.688121 0.058659
O O9 0.500000 0.794931 0.500000
O O10 0.000000 0.794944 0.500000
O O11 0.174105 0.802042 0.389757
O O12 0.229953 0.000000 0.470027
O O13 0.954515 0.500000 0.105217
O O14 0.000000 0.636882 0.000000
O O15 0.866800 0.000000 0.692033
#
# Coordination Sequence:
#
# PCOD8063037 Si02
#       6
#     4   4   2   4   4   4
#     4  10  21  33  49  72  97 126 164 213 259 302
#     4   9  18  29  43  61  88 123 160 197 244 300
#     4  10  20  32  52  72  94 122 162 214 260 306
#     4   9  15  22  35  55  79 110 155 202 236 270
#     4   9  19  35  52  70  93 122 159 204 257 314
#     4   9  16  27  40  57  85 121 158 199 241 287
#
# _framework density 19.223714000000001
#
# number of rings (size 3 to 8) (size 9 to 14) (size 15 to 20)
#    0.000    2.727    0.000    1.636    2.545    9.091 
#    0.000    0.000    0.000    0.000    0.000    0.000 
#    0.000    0.000    0.000    0.000    0.000   18.182 
#
# Total GULP energy -272555.361534 kJ/mol
# GULP energy per Si atom -12388.880070 kJ/mol
# Density = 1.917996 g / cm^3
# Si number density = 19.223714 Si / 1000 Ang^3
#
#
#
# Elastic Constant Matrix: (Units=GPa)
#
#
# Indices 1 2 3 4 5 6 
#
# 1 129.7759 17.8628 43.8334 0.0000 20.1677 0.0000
# 2 17.8628 71.4649 22.9406 0.0000 19.2492 0.0000
# 3 43.8334 22.9406 92.4285 0.0000 13.1703 0.0000
# 4 0.0000 0.0000 0.0000 1.7650 0.0000 5.0948
# 5 20.1677 19.2492 13.1703 0.0000 42.4762 0.0000
# 6 0.0000 0.0000 0.0000 5.0948 0.0000 9.1581
#
#
#
# Elastic Compliance Matrix: (Units=1/GPa)
#
#
# Indices 1 2 3 4 5 6 
#
# 1 0.009599 -0.000243 -0.004037 0.000000 -0.003196 0.000000
# 2 -0.000243 0.016818 -0.003128 0.000000 -0.006537 0.000000
# 3 -0.004037 -0.003128 0.013637 0.000000 -0.000894 0.000000
# 4 0.000000 0.000000 0.000000 -0.935171 0.000000 0.520247
# 5 -0.003196 -0.006537 -0.000894 0.000000 0.028300 0.000000
# 6 0.000000 0.000000 0.000000 0.520247 0.000000 -0.180227
#
#
# Mechanical properties :
#
#
# Convention : Reuss Voigt Hill
#
# Bulk Modulus (GPa) = 39.61900 51.43810 45.52855
# Shear Modulus (GPa) = -4.88369 24.61536 9.86583
#
# Velocity S-wave (km/s) = -1.59561 3.58225 2.26788
# Velocity P-wave (km/s) = 4.15446 6.62765 5.53106
#
# Compressibility (1/GPa) = 0.02524041
#
# Stress axis : x y z
#
# Youngs Moduli (GPa) = 104.17651 59.45941 73.32852
#
# Poissons Ratio (x) = 0.01443 0.29600
# Poissons Ratio (y) = 0.02528 0.22935
# Poissons Ratio (z) = 0.42052 0.18597
#
# Static dielectric constant tensor:
#      x y z
#    x 3.832840 0.000000 0.121680 
#    y 0.000000 2.983810 0.000000 
#    z 0.121680 0.000000 3.437250 
# 
# 
# High freq. dielectric constant tensor:
#      x y z
#    x 1.759750 0.000000 0.010270 
#    y 0.000000 1.663340 0.000000 
#    z 0.010270 0.000000 1.741440 
# 
# From -- ./inp_files/12133.got.cif
#   From: 2010.06.25/outbox.cif.g09.slc.cpg/sg10_7_cif.got.tgz:12133.got - 2010.06.27 22:07:45.
