data_PCOD8063528
_publ_section_title
;
Structure prediction by ZEFSAII (Michael W. Deem and Ramdas Pophale) SiO2 
 PCOD8063528
Probable space group: P 2/M
;
_chemical_formula_sum "Si O2"
_cell_formula_units_Z 32
_cell_length_a 28.046689
_cell_length_b 9.214041
_cell_length_c 22.140740
_cell_angle_alpha 90.000000
_cell_angle_beta 161.450271
_cell_angle_gamma 90.000000
_cell_volume 1820.225723
_symmetry_space_group_name_H-M "P 2/M"
_symmetry_group_IT_number 10
_symmetry_cell_setting 'monoclinic'
loop_
_space_group_symop_operation_xyz
x,y,z
-x,y,-z
-x,-y,-z
x,-y,z
loop_
_atom_site_type_symbol
_atom_site_label
_atom_site_fract_x
_atom_site_fract_y
_atom_site_fract_z
Si Si1 0.312524 0.829747 0.516656
Si Si2 0.656696 0.168748 0.217910
Si Si3 0.570273 0.331105 0.522903
Si Si4 0.211164 0.670627 0.513633
Si Si5 0.091859 0.332205 0.784817
Si Si6 0.038463 0.169074 0.479921
Si Si7 0.579715 0.668566 0.781412
Si Si8 0.165253 0.168406 0.213660
O O1 0.237459 0.749936 0.482436
O O2 0.477143 0.764602 0.702320
O O3 0.204899 0.797742 0.330670
O O4 0.328427 0.000000 0.549191
O O5 0.676618 0.265062 0.301513
O O6 0.788421 0.202627 0.328148
O O7 0.657836 0.000000 0.238197
O O8 0.500000 0.213771 0.000000
O O9 0.500000 0.269640 0.500000
O O10 0.605219 0.500000 0.570478
O O11 0.457093 0.296807 0.332321
O O12 0.726968 0.252315 0.702063
O O13 0.242040 0.500000 0.544050
O O14 0.040151 0.704837 0.326764
O O15 0.088614 0.500000 0.763412
O O16 0.073067 0.244962 0.700565
O O17 0.248283 0.286678 0.002733
O O18 0.000000 0.230473 0.500000
O O19 0.003083 0.000000 0.434010
O O20 0.550666 0.500000 0.761755
O O21 0.182792 0.000000 0.220212
O O22 0.000000 0.224857 0.000000
#
# Coordination Sequence:
#
# PCOD8063528 Si02
#       8
#     4   4   4   4   4   4   4   4
#     4  10  20  34  52  74 100 131 168 207 248 296
#     4   9  18  33  51  71  98 131 166 204 244 288
#     4   9  18  32  51  75 101 130 165 204 245 292
#     4  10  20  34  52  75 103 133 166 205 249 296
#     4   9  19  34  51  72  99 131 164 200 243 291
#     4   9  18  32  49  70  96 125 159 200 242 285
#     4   9  18  34  52  72 101 132 164 204 247 291
#     4   9  19  35  52  72 100 132 166 206 250 296
#
# _framework density 17.580237
#
# number of rings (size 3 to 8) (size 9 to 14) (size 15 to 20)
#    0.000    2.750    0.000    0.750    0.000    4.500 
#    0.000    2.500    0.000    0.000    0.000    0.000 
#    0.000    0.000    0.000    0.000    0.000    0.000 
#
# Total GULP energy -396877.207816 kJ/mol
# GULP energy per Si atom -12402.412744 kJ/mol
# Density = 1.754022 g / cm^3
# Si number density = 17.580237 Si / 1000 Ang^3
#
#
#
# Elastic Constant Matrix: (Units=GPa)
#
#
# Indices 1 2 3 4 5 6 
#
# 1 151.4178 63.5002 68.8050 0.0000 2.3858 0.0000
# 2 63.5002 68.5654 53.5593 0.0000 1.6635 0.0000
# 3 68.8050 53.5593 150.9743 0.0000 6.5143 0.0000
# 4 0.0000 0.0000 0.0000 27.8339 0.0000 0.2061
# 5 2.3858 1.6635 6.5143 0.0000 13.5594 0.0000
# 6 0.0000 0.0000 0.0000 0.2061 0.0000 26.4664
#
#
#
# Elastic Compliance Matrix: (Units=1/GPa)
#
#
# Indices 1 2 3 4 5 6 
#
# 1 0.011207 -0.008838 -0.001975 0.000000 0.000061 0.000000
# 2 -0.008838 0.027158 -0.005647 0.000000 0.000936 0.000000
# 3 -0.001975 -0.005647 0.009683 0.000000 -0.003612 0.000000
# 4 0.000000 0.000000 0.000000 0.035929 0.000000 -0.000280
# 5 0.000061 0.000936 -0.003612 0.000000 0.075359 0.000000
# 6 0.000000 0.000000 0.000000 -0.000280 0.000000 0.037786
#
#
# Mechanical properties :
#
#
# Convention : Reuss Voigt Hill
#
# Bulk Modulus (GPa) = 66.10163 82.52069 74.31116
# Shear Modulus (GPa) = 21.26887 25.91147 23.59017
#
# Velocity S-wave (km/s) = 3.48202 3.84330 3.66711
# Velocity P-wave (km/s) = 7.33809 8.16921 7.76478
#
# Compressibility (1/GPa) = 0.01512822
#
# Stress axis : x y z
#
# Youngs Moduli (GPa) = 89.22962 36.82119 103.27556
#
# Poissons Ratio (x) = 0.32543 0.20395
# Poissons Ratio (y) = 0.78861 0.58321
# Poissons Ratio (z) = 0.17621 0.20794
#
# Static dielectric constant tensor:
#      x y z
#    x 3.309950 0.000000 0.030830 
#    y 0.000000 3.262050 0.000000 
#    z 0.030830 0.000000 3.335330 
# 
# 
# High freq. dielectric constant tensor:
#      x y z
#    x 1.681150 0.000000 0.001190 
#    y 0.000000 1.679910 0.000000 
#    z 0.001190 0.000000 1.680340 
# 
# From -- ./inp_files/87030.got.cif
#   From: 2010.06.25/outbox.cif.g09.slc.cpg/sg10_44_cif.got.tgz:87030.got - 2010.06.27 22:07:45.
