data_PCOD8063638
_publ_section_title
;
Structure prediction by ZEFSAII (Michael W. Deem and Ramdas Pophale) SiO2 
 PCOD8063638
Probable space group: P 2/M
;
_chemical_formula_sum "Si O2"
_cell_formula_units_Z 28
_cell_length_a 24.658452
_cell_length_b 10.090419
_cell_length_c 11.253181
_cell_angle_alpha 90.000000
_cell_angle_beta 148.621824
_cell_angle_gamma 90.000000
_cell_volume 1457.890626
_symmetry_space_group_name_H-M "P 2/M"
_symmetry_group_IT_number 10
_symmetry_cell_setting 'monoclinic'
loop_
_space_group_symop_operation_xyz
x,y,z
-x,y,-z
-x,-y,-z
x,-y,z
loop_
_atom_site_type_symbol
_atom_site_label
_atom_site_fract_x
_atom_site_fract_y
_atom_site_fract_z
Si Si1 0.289993 0.842310 0.173671
Si Si2 0.356184 0.353476 0.492865
Si Si3 0.446936 0.738526 0.016270
Si Si4 0.685829 0.850450 0.039965
Si Si5 0.127893 0.155931 0.453533
Si Si6 0.759186 0.351541 0.488255
Si Si7 0.946454 0.844830 0.282467
O O1 0.354414 0.761627 0.391884
O O2 0.304110 0.000000 0.223517
O O3 0.335452 0.791877 0.131196
O O4 0.170193 0.793522 0.956217
O O5 0.338373 0.500000 0.404060
O O6 0.267412 0.322755 0.424304
O O7 0.468553 0.358150 0.767140
O O8 0.411968 0.841271 0.053428
O O9 0.345644 0.657367 0.786755
O O10 0.500000 0.810565 0.000000
O O11 0.790700 0.792510 0.294581
O O12 0.713667 0.000000 0.064389
O O13 0.152592 0.244101 0.383340
O O14 0.013092 0.186667 0.288544
O O15 0.142870 0.000000 0.450166
O O16 0.803849 0.500000 0.555621
O O17 0.000000 0.779826 0.500000
O O18 0.940751 0.000000 0.294802
#
# Coordination Sequence:
#
# PCOD8063638 Si02
#       7
#     4   4   4   4   4   4   4
#     4  10  20  34  53  77 105 137 171 206 251 305
#     4  10  21  37  53  71 102 140 174 210 254 303
#     4   9  18  33  54  76  97 131 177 214 248 299
#     4   9  17  30  50  78 107 132 163 209 259 301
#     4   9  16  29  53  82 104 126 166 215 256 298
#     4   9  18  34  55  76  99 132 173 215 257 299
#     4   9  15  29  55  79 101 134 171 206 249 301
#
# _framework density 19.205829999999999
#
# number of rings (size 3 to 8) (size 9 to 14) (size 15 to 20)
#    0.000    2.714    1.429    0.429    0.000    3.714 
#    0.000   10.000    0.000    5.143    0.000    0.000 
#    0.000    0.000    0.000    0.000    0.000    0.000 
#
# Total GULP energy -346910.871681 kJ/mol
# GULP energy per Si atom -12389.673989 kJ/mol
# Density = 1.916212 g / cm^3
# Si number density = 19.205830 Si / 1000 Ang^3
#
#
#
# Elastic Constant Matrix: (Units=GPa)
#
#
# Indices 1 2 3 4 5 6 
#
# 1 139.5304 50.1655 32.0163 0.0000 5.0766 0.0000
# 2 50.1655 64.6514 13.4432 0.0000 -4.4270 0.0000
# 3 32.0163 13.4432 42.5062 0.0000 2.0843 0.0000
# 4 0.0000 0.0000 0.0000 11.2374 0.0000 -4.8811
# 5 5.0766 -4.4270 2.0843 0.0000 27.0808 0.0000
# 6 0.0000 0.0000 0.0000 -4.8811 0.0000 15.1188
#
#
#
# Elastic Compliance Matrix: (Units=1/GPa)
#
#
# Indices 1 2 3 4 5 6 
#
# 1 0.011482 -0.007862 -0.006016 0.000000 -0.002975 0.000000
# 2 -0.007862 0.022207 -0.001357 0.000000 0.005209 0.000000
# 3 -0.006016 -0.001357 0.028550 0.000000 -0.001291 0.000000
# 4 0.000000 0.000000 0.000000 0.103503 0.000000 0.033416
# 5 -0.002975 0.005209 -0.001291 0.000000 0.038435 0.000000
# 6 0.000000 0.000000 0.000000 0.033416 0.000000 0.076931
#
#
# Mechanical properties :
#
#
# Convention : Reuss Voigt Hill
#
# Bulk Modulus (GPa) = 31.47745 48.65978 40.06861
# Shear Modulus (GPa) = 15.51981 20.75828 18.13904
#
# Velocity S-wave (km/s) = 2.84576 3.29117 3.07653
# Velocity P-wave (km/s) = 5.21755 6.31136 5.79035
#
# Compressibility (1/GPa) = 0.03176877
#
# Stress axis : x y z
#
# Youngs Moduli (GPa) = 87.09022 45.03087 35.02640
#
# Poissons Ratio (x) = 0.35405 0.21073
# Poissons Ratio (y) = 0.68473 0.04752
# Poissons Ratio (z) = 0.52396 0.06109
#
# Static dielectric constant tensor:
#      x y z
#    x 3.851640 0.000000 0.076470 
#    y 0.000000 3.129290 0.000000 
#    z 0.076470 0.000000 3.327520 
# 
# 
# High freq. dielectric constant tensor:
#      x y z
#    x 1.760190 0.000000 0.005970 
#    y 0.000000 1.704670 0.000000 
#    z 0.005970 0.000000 1.726630 
# 
# From -- ./inp_files/56866.got.cif
#   From: 2010.06.25/outbox.cif.g09.slc.cpg/sg10_29_cif.got.tgz:56866.got - 2010.06.27 22:07:45.
