data_PCOD8063322
_publ_section_title
;
Structure prediction by ZEFSAII (Michael W. Deem and Ramdas Pophale) SiO2 
 PCOD8063322
Probable space group: P 2/M
;
_chemical_formula_sum "Si O2"
_cell_formula_units_Z 28
_cell_length_a 14.277956
_cell_length_b 8.978698
_cell_length_c 13.366450
_cell_angle_alpha 90.000000
_cell_angle_beta 57.089122
_cell_angle_gamma 90.000000
_cell_volume 1438.549577
_symmetry_space_group_name_H-M "P 2/M"
_symmetry_group_IT_number 10
_symmetry_cell_setting 'monoclinic'
loop_
_space_group_symop_operation_xyz
x,y,z
-x,y,-z
-x,-y,-z
x,-y,z
loop_
_atom_site_type_symbol
_atom_site_label
_atom_site_fract_x
_atom_site_fract_y
_atom_site_fract_z
Si Si1 0.825240 0.328948 0.267339
Si Si2 0.755024 0.173537 0.794709
Si Si3 0.602918 0.323173 0.505033
Si Si4 0.606471 0.675624 0.729140
Si Si5 0.067595 0.329399 0.184193
Si Si6 0.395056 0.168786 0.928170
Si Si7 0.823029 0.171833 0.061353
O O1 0.806980 0.500000 0.243907
O O2 0.719185 0.268715 0.390190
O O3 0.842833 0.227341 0.161019
O O4 0.934144 0.315122 0.274495
O O5 0.715227 0.250185 0.715629
O O6 0.873364 0.241102 0.760060
O O7 0.772818 0.000000 0.766188
O O8 0.662897 0.205395 0.933017
O O9 0.500000 0.257658 0.500000
O O10 0.596875 0.500000 0.509753
O O11 0.595196 0.262901 0.622716
O O12 0.622408 0.500000 0.722714
O O13 0.496348 0.718888 0.854494
O O14 0.106840 0.500000 0.166004
O O15 0.099601 0.265094 0.057615
O O16 0.306718 0.192701 0.890629
O O17 0.441522 0.000000 0.901336
O O18 0.858456 0.000000 0.031038
#
# Coordination Sequence:
#
# PCOD8063322 Si02
#       7
#     4   4   4   4   4   4   4
#     4  10  20  35  55  78 106 141 180 223 266 308
#     4  10  21  37  55  76 108 144 174 214 268 321
#     4   9  19  36  56  79 107 138 174 217 263 310
#     4  11  21  33  55  82 105 137 180 222 265 313
#     4  10  20  34  54  80 107 137 178 223 264 312
#     4   9  19  34  51  75 108 143 174 210 263 319
#     4  10  20  33  52  80 113 145 175 213 265 321
#
# _framework density 19.464048999999999
#
# number of rings (size 3 to 8) (size 9 to 14) (size 15 to 20)
#    0.000    2.143    0.000    4.286    0.000    9.143 
#    0.000    2.143    0.000    8.143    0.000    0.000 
#    0.000    0.000    0.000    0.000    0.000    0.000 
#
# Total GULP energy -347284.229274 kJ/mol
# GULP energy per Si atom -12403.008188 kJ/mol
# Density = 1.941975 g / cm^3
# Si number density = 19.464049 Si / 1000 Ang^3
#
#
#
# Elastic Constant Matrix: (Units=GPa)
#
#
# Indices 1 2 3 4 5 6 
#
# 1 142.7065 54.0587 61.9849 0.0000 9.2781 0.0000
# 2 54.0587 89.2219 28.4161 0.0000 4.4452 0.0000
# 3 61.9849 28.4161 61.7109 0.0000 5.5925 0.0000
# 4 0.0000 0.0000 0.0000 10.5467 0.0000 8.4103
# 5 9.2781 4.4452 5.5925 0.0000 35.9881 0.0000
# 6 0.0000 0.0000 0.0000 8.4103 0.0000 29.6783
#
#
#
# Elastic Compliance Matrix: (Units=1/GPa)
#
#
# Indices 1 2 3 4 5 6 
#
# 1 0.013960 -0.004649 -0.011773 0.000000 -0.001195 0.000000
# 2 -0.004649 0.014700 -0.002072 0.000000 -0.000295 0.000000
# 3 -0.011773 -0.002072 0.029095 0.000000 -0.001230 0.000000
# 4 0.000000 0.000000 0.000000 0.122499 0.000000 -0.034714
# 5 -0.001195 -0.000295 -0.001230 0.000000 0.028323 0.000000
# 6 0.000000 0.000000 0.000000 -0.034714 0.000000 0.043532
#
#
# Mechanical properties :
#
#
# Convention : Reuss Voigt Hill
#
# Bulk Modulus (GPa) = 48.15434 64.72875 56.44154
# Shear Modulus (GPa) = 16.89089 25.18793 21.03941
#
# Velocity S-wave (km/s) = 2.94904 3.60123 3.29133
# Velocity P-wave (km/s) = 6.03238 7.11474 6.59580
#
# Compressibility (1/GPa) = 0.02076656
#
# Stress axis : x y z
#
# Youngs Moduli (GPa) = 71.63498 68.02938 34.36998
#
# Poissons Ratio (x) = 0.31627 0.40462
# Poissons Ratio (y) = 0.33304 0.07122
# Poissons Ratio (z) = 0.84333 0.14097
#
# Static dielectric constant tensor:
#      x y z
#    x 3.790120 0.000000 0.066770 
#    y 0.000000 3.433120 0.000000 
#    z 0.066770 0.000000 3.367480 
# 
# 
# High freq. dielectric constant tensor:
#      x y z
#    x 1.775400 0.000000 0.005030 
#    y 0.000000 1.749570 0.000000 
#    z 0.005030 0.000000 1.731600 
# 
# From -- ./inp_files/49460.got.cif
#   From: 2010.06.25/outbox.cif.g09.slc.cpg/sg10_25_cif.got.tgz:49460.got - 2010.06.27 22:07:45.
