data_PCOD8063308
_publ_section_title
;
Structure prediction by ZEFSAII (Michael W. Deem and Ramdas Pophale) SiO2 
 PCOD8063308
Probable space group: P 2/M
;
_chemical_formula_sum "Si O2"
_cell_formula_units_Z 32
_cell_length_a 12.350744
_cell_length_b 8.929400
_cell_length_c 30.950027
_cell_angle_alpha 90.000000
_cell_angle_beta 29.282888
_cell_angle_gamma 90.000000
_cell_volume 1669.527615
_symmetry_space_group_name_H-M "P 2/M"
_symmetry_group_IT_number 10
_symmetry_cell_setting 'monoclinic'
loop_
_space_group_symop_operation_xyz
x,y,z
-x,y,-z
-x,-y,-z
x,-y,z
loop_
_atom_site_type_symbol
_atom_site_label
_atom_site_fract_x
_atom_site_fract_y
_atom_site_fract_z
Si Si1 0.487571 0.168553 0.554581
Si Si2 0.901926 0.680153 0.967949
Si Si3 0.737387 0.824148 0.935862
Si Si4 0.453643 0.673762 0.342497
Si Si5 0.698169 0.830818 0.687242
Si Si6 0.710803 0.826027 0.116694
Si Si7 0.854490 0.328374 0.475411
Si Si8 0.169555 0.829999 0.737152
O O1 0.500000 0.194694 0.500000
O O2 0.649124 0.293771 0.516400
O O3 0.241823 0.192751 0.661413
O O4 0.568952 0.000000 0.537778
O O5 0.916686 0.500000 0.962568
O O6 0.736513 0.736424 0.063041
O O7 0.810360 0.735928 0.953563
O O8 0.141146 0.751360 0.896576
O O9 0.913868 0.789471 0.835832
O O10 0.727719 0.000000 0.950587
O O11 0.500000 0.768982 0.000000
O O12 0.482940 0.500000 0.325944
O O13 0.434181 0.745455 0.303125
O O14 0.228149 0.710427 0.447433
O O15 0.675322 0.729028 0.287598
O O16 0.549024 0.815299 0.781887
O O17 0.939534 0.767196 0.612020
O O18 0.725877 0.000000 0.662546
O O19 0.781739 0.000000 0.086890
O O20 0.923163 0.500000 0.447476
O O21 0.212906 0.000000 0.736333
#
# Coordination Sequence:
#
# PCOD8063308 Si02
#       8
#     4   4   4   4   4   4   4   4
#     4   9  18  35  57  79 105 138 182 233 272 313
#     4  11  22  37  59  84 112 144 183 232 285 336
#     4  10  21  38  58  81 112 150 190 234 283 334
#     4  10  20  33  52  78 109 145 179 219 270 324
#     4  11  22  34  52  80 109 142 181 222 267 319
#     4  10  21  38  59  82 110 147 189 228 275 339
#     4  10  21  35  51  75 110 145 178 218 270 329
#     4   9  18  34  56  80 104 139 185 226 270 323
#
# _framework density 19.167099
#
# number of rings (size 3 to 8) (size 9 to 14) (size 15 to 20)
#    0.000    2.000    0.000    4.500    0.000    9.000 
#    2.250    0.000    0.000    0.000    0.000    0.000 
#    0.000    0.000    0.000    0.000    0.000    0.000 
#
# Total GULP energy -396608.348612 kJ/mol
# GULP energy per Si atom -12394.010894 kJ/mol
# Density = 1.912347 g / cm^3
# Si number density = 19.167099 Si / 1000 Ang^3
#
#
#
# Elastic Constant Matrix: (Units=GPa)
#
#
# Indices 1 2 3 4 5 6 
#
# 1 83.2952 16.2709 54.2068 0.0000 6.8469 0.0000
# 2 16.2709 117.1564 47.5676 0.0000 12.0355 0.0000
# 3 54.2068 47.5676 154.5592 0.0000 -5.5319 0.0000
# 4 0.0000 0.0000 0.0000 22.2456 0.0000 -1.9202
# 5 6.8469 12.0355 -5.5319 0.0000 27.6552 0.0000
# 6 0.0000 0.0000 0.0000 -1.9202 0.0000 31.1322
#
#
#
# Elastic Compliance Matrix: (Units=1/GPa)
#
#
# Indices 1 2 3 4 5 6 
#
# 1 0.016332 0.000821 -0.006182 0.000000 -0.005637 0.000000
# 2 0.000821 0.010497 -0.003716 0.000000 -0.005515 0.000000
# 3 -0.006182 -0.003716 0.009966 0.000000 0.005141 0.000000
# 4 0.000000 0.000000 0.000000 0.045193 0.000000 0.002788
# 5 -0.005637 -0.005515 0.005141 0.000000 0.040984 0.000000
# 6 0.000000 0.000000 0.000000 0.002788 0.000000 0.032293
#
#
# Mechanical properties :
#
#
# Convention : Reuss Voigt Hill
#
# Bulk Modulus (GPa) = 53.64730 65.67794 59.66262
# Shear Modulus (GPa) = 27.83462 32.00429 29.91946
#
# Velocity S-wave (km/s) = 3.81492 4.09069 3.95521
# Velocity P-wave (km/s) = 6.88875 7.52676 7.21481
#
# Compressibility (1/GPa) = 0.01864027
#
# Stress axis : x y z
#
# Youngs Moduli (GPa) = 61.22993 95.26703 100.34207
#
# Poissons Ratio (x) = -0.07822 0.62035
# Poissons Ratio (y) = -0.05028 0.37286
# Poissons Ratio (z) = 0.37855 0.35400
#
# Static dielectric constant tensor:
#      x y z
#    x 3.295020 0.000000 0.191470 
#    y 0.000000 3.601200 0.000000 
#    z 0.191470 0.000000 3.877350 
# 
# 
# High freq. dielectric constant tensor:
#      x y z
#    x 1.717030 0.000000 0.008990 
#    y 0.000000 1.752420 0.000000 
#    z 0.008990 0.000000 1.762870 
# 
# From -- ./inp_files/95005.got.cif
#   From: 2010.06.25/outbox.cif.g09.slc.cpg/sg10_48_cif.got.tgz:95005.got - 2010.06.27 22:07:45.
