data_PCOD8063086
_publ_section_title
;
Structure prediction by ZEFSAII (Michael W. Deem and Ramdas Pophale) SiO2 
 PCOD8063086
Probable space group: P 2/M
;
_chemical_formula_sum "Si O2"
_cell_formula_units_Z 32
_cell_length_a 20.755751
_cell_length_b 8.978760
_cell_length_c 14.472978
_cell_angle_alpha 90.000000
_cell_angle_beta 137.899215
_cell_angle_gamma 90.000000
_cell_volume 1808.300288
_symmetry_space_group_name_H-M "P 2/M"
_symmetry_group_IT_number 10
_symmetry_cell_setting 'monoclinic'
loop_
_space_group_symop_operation_xyz
x,y,z
-x,y,-z
-x,-y,-z
x,-y,z
loop_
_atom_site_type_symbol
_atom_site_label
_atom_site_fract_x
_atom_site_fract_y
_atom_site_fract_z
Si Si1 0.167746 0.173885 0.456601
Si Si2 0.335764 0.832335 0.516119
Si Si3 0.809969 0.832493 0.805048
Si Si4 0.880883 0.324301 0.113761
Si Si5 0.974454 0.823677 0.855938
Si Si6 0.028848 0.674762 0.430654
Si Si7 0.704810 0.822291 0.868389
Si Si8 0.488647 0.324885 0.381741
O O1 0.280188 0.210479 0.552485
O O2 0.099666 0.229700 0.301410
O O3 0.132041 0.257114 0.510988
O O4 0.155416 0.000000 0.459693
O O5 0.251799 0.826552 0.352417
O O6 0.417783 0.714986 0.578658
O O7 0.379151 0.000000 0.566915
O O8 0.920458 0.778855 0.897172
O O9 0.750386 0.751776 0.822269
O O10 0.821701 0.000000 0.853415
O O11 0.868776 0.500000 0.090472
O O12 0.925240 0.258549 0.063820
O O13 0.945953 0.279619 0.270134
O O14 0.777072 0.245969 0.022160
O O15 0.990271 0.000000 0.869387
O O16 0.042984 0.500000 0.450282
O O17 0.000000 0.738993 0.500000
O O18 0.598328 0.757123 0.762354
O O19 0.698047 0.000000 0.868072
O O20 0.500000 0.268529 0.500000
O O21 0.471518 0.500000 0.360991
#
# Coordination Sequence:
#
# PCOD8063086 Si02
#       8
#     4   4   4   4   4   4   4   4
#     4   8  15  27  47  74  99 122 155 200 239 277
#     4   9  16  30  49  68  93 127 167 204 241 283
#     4   8  15  27  45  65  85 119 165 203 228 267
#     4  10  20  33  46  66  97 124 153 198 242 281
#     4   8  14  28  46  63  87 121 161 194 227 275
#     4   9  18  33  53  75 100 131 160 186 231 299
#     4  11  21  33  49  65  88 127 170 203 239 285
#     4  11  22  33  46  69  97 126 165 213 253 279
#
# _framework density 17.696175
#
# number of rings (size 3 to 8) (size 9 to 14) (size 15 to 20)
#    0.000    2.750    1.250    2.625    0.000    2.250 
#    0.000    5.625    0.000    0.000    0.000    0.875 
#    0.000    7.000    0.000    0.000    0.000    0.000 
#
# Total GULP energy -396502.529312 kJ/mol
# GULP energy per Si atom -12390.704041 kJ/mol
# Density = 1.765590 g / cm^3
# Si number density = 17.696175 Si / 1000 Ang^3
#
#
#
# Elastic Constant Matrix: (Units=GPa)
#
#
# Indices 1 2 3 4 5 6 
#
# 1 105.9785 30.1374 33.5806 0.0000 13.2456 0.0000
# 2 30.1374 51.9196 19.4462 0.0000 7.9413 0.0000
# 3 33.5806 19.4462 43.7233 0.0000 15.9859 0.0000
# 4 0.0000 0.0000 0.0000 19.7993 0.0000 5.8700
# 5 13.2456 7.9413 15.9859 0.0000 27.4598 0.0000
# 6 0.0000 0.0000 0.0000 5.8700 0.0000 25.3912
#
#
#
# Elastic Compliance Matrix: (Units=1/GPa)
#
#
# Indices 1 2 3 4 5 6 
#
# 1 0.013364 -0.004687 -0.008027 0.000000 -0.000418 0.000000
# 2 -0.004687 0.024771 -0.007146 0.000000 -0.000743 0.000000
# 3 -0.008027 -0.007146 0.038166 0.000000 -0.016280 0.000000
# 4 0.000000 0.000000 0.000000 0.054223 0.000000 -0.012535
# 5 -0.000418 -0.000743 -0.016280 0.000000 0.046311 0.000000
# 6 0.000000 0.000000 0.000000 -0.012535 0.000000 0.042282
#
#
# Mechanical properties :
#
#
# Convention : Reuss Voigt Hill
#
# Bulk Modulus (GPa) = 27.33520 40.88331 34.10926
# Shear Modulus (GPa) = 18.44806 22.42722 20.43764
#
# Velocity S-wave (km/s) = 3.23226 3.56385 3.40210
# Velocity P-wave (km/s) = 5.42315 6.33149 5.89484
#
# Compressibility (1/GPa) = 0.03658287
#
# Stress axis : x y z
#
# Youngs Moduli (GPa) = 74.82570 40.36927 26.20123
#
# Poissons Ratio (x) = 0.18922 0.21031
# Poissons Ratio (y) = 0.35073 0.18723
# Poissons Ratio (z) = 0.60059 0.28847
#
# Static dielectric constant tensor:
#      x y z
#    x 3.508490 0.000000 0.151050 
#    y 0.000000 3.070360 0.000000 
#    z 0.151050 0.000000 3.189050 
# 
# 
# High freq. dielectric constant tensor:
#      x y z
#    x 1.678840 0.000000 0.024990 
#    y 0.000000 1.666850 0.000000 
#    z 0.024990 0.000000 1.660140 
# 
# From -- ./inp_files/70023.got.cif
#   From: 2010.06.25/outbox.cif.g09.slc.cpg/sg10_36_cif.got.tgz:70023.got - 2010.06.27 22:07:45.
