data_PCOD8063451
_publ_section_title
;
Structure prediction by ZEFSAII (Michael W. Deem and Ramdas Pophale) SiO2 
 PCOD8063451
Probable space group: P 2/M
;
_chemical_formula_sum "Si O2"
_cell_formula_units_Z 28
_cell_length_a 18.203993
_cell_length_b 8.933197
_cell_length_c 13.966423
_cell_angle_alpha 90.000000
_cell_angle_beta 131.628366
_cell_angle_gamma 90.000000
_cell_volume 1697.665504
_symmetry_space_group_name_H-M "P 2/M"
_symmetry_group_IT_number 10
_symmetry_cell_setting 'monoclinic'
loop_
_space_group_symop_operation_xyz
x,y,z
-x,y,-z
-x,-y,-z
x,-y,z
loop_
_atom_site_type_symbol
_atom_site_label
_atom_site_fract_x
_atom_site_fract_y
_atom_site_fract_z
Si Si1 0.599833 0.823427 0.123782
Si Si2 0.175404 0.675138 0.014334
Si Si3 0.225287 0.822788 0.255694
Si Si4 0.467879 0.828762 0.738241
Si Si5 0.983248 0.164554 0.873291
Si Si6 0.686452 0.171273 0.009983
Si Si7 0.416022 0.325074 0.501427
O O1 0.611216 0.782369 0.246357
O O2 0.686262 0.779997 0.123302
O O3 0.585946 0.000000 0.104767
O O4 0.500000 0.745682 0.000000
O O5 0.179615 0.500000 0.035008
O O6 0.238306 0.718831 0.976487
O O7 0.062291 0.722480 0.896533
O O8 0.222267 0.753096 0.147454
O O9 0.129100 0.777844 0.235721
O O10 0.318340 0.765784 0.393910
O O11 0.230502 0.000000 0.246476
O O12 0.452682 0.715839 0.638464
O O13 0.449822 0.000000 0.689203
O O14 0.577845 0.810444 0.872714
O O15 0.996968 0.000000 0.838112
O O16 0.000000 0.151222 0.000000
O O17 0.722189 0.000000 0.028600
O O18 0.500000 0.277109 0.500000
O O19 0.393015 0.500000 0.475060
#
# Coordination Sequence:
#
# PCOD8063451 Si02
#       7
#     4   4   4   4   4   4   4
#     4   7  12  25  45  67  87 111 149 192 226 258
#     4  11  20  28  43  69  98 122 145 179 225 274
#     4  10  20  34  50  65  85 118 158 193 222 259
#     4   9  17  30  48  67  88 119 158 192 222 260
#     4   8  16  31  48  65  85 112 149 188 224 265
#     4   9  16  28  47  68  92 121 151 186 225 263
#     4  11  23  34  44  64  95 126 154 184 219 263
#
# _framework density 16.493237000000001
#
# number of rings (size 3 to 8) (size 9 to 14) (size 15 to 20)
#    0.000    2.714    0.000    5.571    0.000    7.143 
#    0.000    0.714    0.000    2.571    0.000    1.000 
#    0.000    8.000    0.000    0.000    0.000    0.000 
#
# Total GULP energy -346942.607577 kJ/mol
# GULP energy per Si atom -12390.807413 kJ/mol
# Density = 1.645570 g / cm^3
# Si number density = 16.493237 Si / 1000 Ang^3
#
#
#
# Elastic Constant Matrix: (Units=GPa)
#
#
# Indices 1 2 3 4 5 6 
#
# 1 116.4602 43.4704 44.5483 0.0000 -6.2264 0.0000
# 2 43.4704 68.2135 26.6896 0.0000 4.2254 0.0000
# 3 44.5483 26.6896 51.9442 0.0000 5.3813 0.0000
# 4 0.0000 0.0000 0.0000 14.0783 0.0000 4.5568
# 5 -6.2264 4.2254 5.3813 0.0000 23.8404 0.0000
# 6 0.0000 0.0000 0.0000 4.5568 0.0000 12.6205
#
#
#
# Elastic Compliance Matrix: (Units=1/GPa)
#
#
# Indices 1 2 3 4 5 6 
#
# 1 0.015409 -0.006021 -0.010903 0.000000 0.007553 0.000000
# 2 -0.006021 0.020732 -0.005064 0.000000 -0.004104 0.000000
# 3 -0.010903 -0.005064 0.032158 0.000000 -0.009209 0.000000
# 4 0.000000 0.000000 0.000000 0.080431 0.000000 -0.029041
# 5 0.007553 -0.004104 -0.009209 0.000000 0.046724 0.000000
# 6 0.000000 0.000000 0.000000 -0.029041 0.000000 0.089722
#
#
# Mechanical properties :
#
#
# Convention : Reuss Voigt Hill
#
# Bulk Modulus (GPa) = 41.11348 51.78162 46.44755
# Shear Modulus (GPa) = 14.82537 18.23517 16.53027
#
# Velocity S-wave (km/s) = 3.00138 3.32869 3.16926
# Velocity P-wave (km/s) = 6.08216 6.79981 6.45097
#
# Compressibility (1/GPa) = 0.02432292
#
# Stress axis : x y z
#
# Youngs Moduli (GPa) = 64.89853 48.23378 31.09634
#
# Poissons Ratio (x) = 0.29042 0.33906
# Poissons Ratio (y) = 0.39076 0.15746
# Poissons Ratio (z) = 0.70762 0.24423
#
# Static dielectric constant tensor:
#      x y z
#    x 3.505320 0.000000 0.098470 
#    y 0.000000 2.957260 0.000000 
#    z 0.098470 0.000000 2.936800 
# 
# 
# High freq. dielectric constant tensor:
#      x y z
#    x 1.641510 0.000000 0.004030 
#    y 0.000000 1.623990 0.000000 
#    z 0.004030 0.000000 1.594080 
# 
# From -- ./inp_files/68701.got.cif
#   From: 2010.06.25/outbox.cif.g09.slc.cpg/sg10_35_cif.got.tgz:68701.got - 2010.06.27 22:07:45.
