data_PCOD8063000
_publ_section_title
;
Structure prediction by ZEFSAII (Michael W. Deem and Ramdas Pophale) SiO2 
 PCOD8063000
Probable space group: P 2/M
;
_chemical_formula_sum "Si O2"
_cell_formula_units_Z 28
_cell_length_a 9.236967
_cell_length_b 9.591758
_cell_length_c 32.016796
_cell_angle_alpha 90.000000
_cell_angle_beta 33.665122
_cell_angle_gamma 90.000000
_cell_volume 1572.461546
_symmetry_space_group_name_H-M "P 2/M"
_symmetry_group_IT_number 10
_symmetry_cell_setting 'monoclinic'
loop_
_space_group_symop_operation_xyz
x,y,z
-x,y,-z
-x,-y,-z
x,-y,z
loop_
_atom_site_type_symbol
_atom_site_label
_atom_site_fract_x
_atom_site_fract_y
_atom_site_fract_z
Si Si1 0.656681 0.338939 0.699072
Si Si2 0.749158 0.833640 0.757037
Si Si3 0.083887 0.351615 0.816146
Si Si4 0.810372 0.344529 0.306036
Si Si5 0.372109 0.151580 0.074847
Si Si6 0.295736 0.835159 0.929337
Si Si7 0.254503 0.334283 0.415859
O O1 0.746713 0.500000 0.684356
O O2 0.772733 0.236891 0.706135
O O3 0.346537 0.325932 0.778762
O O4 0.743793 0.281481 0.632612
O O5 0.473553 0.795734 0.846294
O O6 0.992345 0.770604 0.724004
O O7 0.782111 0.000000 0.745487
O O8 0.960682 0.500000 0.859686
O O9 0.146384 0.359789 0.752945
O O10 0.889512 0.230142 0.872981
O O11 0.848600 0.500000 0.317383
O O12 0.509876 0.290204 0.381836
O O13 0.558414 0.225942 0.064380
O O14 0.296348 0.000000 0.111452
O O15 0.500000 0.133587 0.000000
O O16 0.268770 0.000000 0.939923
O O17 0.000000 0.771109 0.000000
O O18 0.248607 0.500000 0.415525
O O19 0.000000 0.272230 0.500000
#
# Coordination Sequence:
#
# PCOD8063000 Si02
#       7
#     4   4   4   4   4   4   4
#     4   9  19  34  53  78 106 134 167 212 258 300
#     4  11  21  33  53  77 104 140 176 211 253 311
#     4   9  18  33  51  71  99 132 165 208 262 310
#     4   9  17  32  55  78 102 133 166 210 260 301
#     4  10  20  32  50  72  95 127 171 218 260 300
#     4   9  19  34  48  68  99 133 172 219 261 293
#     4   8  15  32  59  85 104 130 173 215 251 298
#
# _framework density 17.806477000000001
#
# number of rings (size 3 to 8) (size 9 to 14) (size 15 to 20)
#    0.000    2.714    1.429    2.143    2.000    0.857 
#    0.000    2.857    0.000    8.143    0.000    0.000 
#    0.000    0.000    0.000    0.000    0.000    0.000 
#
# Total GULP energy -346900.354754 kJ/mol
# GULP energy per Si atom -12389.298384 kJ/mol
# Density = 1.776595 g / cm^3
# Si number density = 17.806477 Si / 1000 Ang^3
#
#
#
# Elastic Constant Matrix: (Units=GPa)
#
#
# Indices 1 2 3 4 5 6 
#
# 1 65.7831 27.1211 24.0014 0.0000 -4.0358 0.0000
# 2 27.1211 59.5454 30.4413 0.0000 -10.3083 0.0000
# 3 24.0014 30.4413 90.8738 0.0000 -15.6683 0.0000
# 4 0.0000 0.0000 0.0000 14.4785 0.0000 0.9496
# 5 -4.0358 -10.3083 -15.6683 0.0000 26.4312 0.0000
# 6 0.0000 0.0000 0.0000 0.9496 0.0000 22.1673
#
#
#
# Elastic Compliance Matrix: (Units=1/GPa)
#
#
# Indices 1 2 3 4 5 6 
#
# 1 0.019274 -0.007628 -0.002830 0.000000 -0.001710 0.000000
# 2 -0.007628 0.023736 -0.005058 0.000000 0.005094 0.000000
# 3 -0.002830 -0.005058 0.014515 0.000000 0.006200 0.000000
# 4 0.000000 0.000000 0.000000 0.069262 0.000000 -0.002967
# 5 -0.001710 0.005094 0.006200 0.000000 0.043235 0.000000
# 6 0.000000 0.000000 0.000000 -0.002967 0.000000 0.045239
#
#
# Mechanical properties :
#
#
# Convention : Reuss Voigt Hill
#
# Bulk Modulus (GPa) = 37.74647 42.14780 39.94713
# Shear Modulus (GPa) = 19.59831 21.59131 20.59481
#
# Velocity S-wave (km/s) = 3.32117 3.48595 3.40456
# Velocity P-wave (km/s) = 5.99592 6.31853 6.15934
#
# Compressibility (1/GPa) = 0.02649254
#
# Stress axis : x y z
#
# Youngs Moduli (GPa) = 51.88339 42.13029 68.89362
#
# Poissons Ratio (x) = 0.32136 0.19498
# Poissons Ratio (y) = 0.39576 0.34848
# Poissons Ratio (z) = 0.14684 0.21311
#
# Static dielectric constant tensor:
#      x y z
#    x 3.673990 0.000000 -0.747330 
#    y 0.000000 2.747750 0.000000 
#    z -0.747330 0.000000 4.800250 
# 
# 
# High freq. dielectric constant tensor:
#      x y z
#    x 1.693090 0.000000 -0.004440 
#    y 0.000000 1.659410 0.000000 
#    z -0.004440 0.000000 1.676530 
# 
# From -- ./inp_files/74631.got.cif
#   From: 2010.06.25/outbox.cif.g09.slc.cpg/sg10_38_cif.got.tgz:74631.got - 2010.06.27 22:07:45.
