data_PCOD8063329
_publ_section_title
;
Structure prediction by ZEFSAII (Michael W. Deem and Ramdas Pophale) SiO2 
 PCOD8063329
Probable space group: P 2/M
;
_chemical_formula_sum "Si O2"
_cell_formula_units_Z 22
_cell_length_a 5.077544
_cell_length_b 18.748187
_cell_length_c 12.770901
_cell_angle_alpha 90.000000
_cell_angle_beta 74.796868
_cell_angle_gamma 90.000000
_cell_volume 1173.174991
_symmetry_space_group_name_H-M "P 2/M"
_symmetry_group_IT_number 10
_symmetry_cell_setting 'monoclinic'
loop_
_space_group_symop_operation_xyz
x,y,z
-x,y,-z
-x,-y,-z
x,-y,z
loop_
_atom_site_type_symbol
_atom_site_label
_atom_site_fract_x
_atom_site_fract_y
_atom_site_fract_z
Si Si1 0.203956 0.500000 0.575602
Si Si2 0.416846 0.832787 0.128566
Si Si3 0.196419 0.418855 0.071906
Si Si4 0.330593 0.650275 0.623193
Si Si5 0.223853 0.311221 0.254367
Si Si6 0.917764 0.920809 0.128320
O O1 0.500000 0.500000 0.500000
O O2 0.182903 0.572374 0.644957
O O3 0.000000 0.500000 0.500000
O O4 0.338603 0.759781 0.191188
O O5 0.661233 0.868613 0.167865
O O6 0.168067 0.887613 0.165490
O O7 0.500000 0.817251 0.000000
O O8 0.126777 0.500000 0.111946
O O9 0.148922 0.368648 0.174779
O O10 0.500000 0.411619 0.000000
O O11 0.000000 0.392149 0.000000
O O12 0.500000 0.664677 0.500000
O O13 0.543068 0.657690 0.695135
O O14 0.068753 0.703735 0.657506
O O15 0.852078 0.000000 0.179298
O O16 0.000000 0.927593 0.000000
#
# Coordination Sequence:
#
# PCOD8063329 Si02
#       6
#     2   4   4   4   4   4
#     4  10  20  38  58  76  98 130 176 238 300 338
#     4  10  20  33  52  82 116 149 183 218 261 326
#     4  10  22  38  54  75 107 145 189 228 261 317
#     4  11  24  39  57  80 107 138 184 245 294 347
#     4  12  23  36  59  80 111 148 186 228 286 339
#     4   9  17  31  52  78 113 151 181 214 261 317
#
# _framework density 18.752531000000001
#
# number of rings (size 3 to 8) (size 9 to 14) (size 15 to 20)
#    0.000    1.636    0.000    6.000    2.545    4.364 
#    0.000    0.000    0.000    0.000    0.000    0.000 
#    0.000   50.909    0.000    0.000    0.000    0.000 
#
# Total GULP energy -272748.980257 kJ/mol
# GULP energy per Si atom -12397.680921 kJ/mol
# Density = 1.870985 g / cm^3
# Si number density = 18.752531 Si / 1000 Ang^3
#
#
#
# Elastic Constant Matrix: (Units=GPa)
#
#
# Indices 1 2 3 4 5 6 
#
# 1 161.0330 55.9067 46.2747 0.0000 2.8666 0.0000
# 2 55.9067 116.2003 62.3951 0.0000 -1.4301 0.0000
# 3 46.2747 62.3951 66.9802 0.0000 -0.1276 0.0000
# 4 0.0000 0.0000 0.0000 -8.6214 0.0000 -21.6712
# 5 2.8666 -1.4301 -0.1276 0.0000 31.3228 0.0000
# 6 0.0000 0.0000 0.0000 -21.6712 0.0000 -1.4096
#
#
#
# Elastic Compliance Matrix: (Units=1/GPa)
#
#
# Indices 1 2 3 4 5 6 
#
# 1 0.007942 -0.001769 -0.003841 0.000000 -0.000823 0.000000
# 2 -0.001769 0.017629 -0.015198 0.000000 0.000905 0.000000
# 3 -0.003841 -0.015198 0.031741 0.000000 -0.000213 0.000000
# 4 0.000000 0.000000 0.000000 0.003081 0.000000 -0.047370
# 5 -0.000823 0.000905 -0.000213 0.000000 0.032041 0.000000
# 6 0.000000 0.000000 0.000000 -0.047370 0.000000 0.018845
#
#
# Mechanical properties :
#
#
# Convention : Reuss Voigt Hill
#
# Bulk Modulus (GPa) = 63.71095 74.81851 69.26473
# Shear Modulus (GPa) = 31.61988 16.23416 23.92702
#
# Velocity S-wave (km/s) = 4.11075 2.94548 3.57590
# Velocity P-wave (km/s) = 7.52193 7.17999 7.35294
#
# Compressibility (1/GPa) = 0.01569589
#
# Stress axis : x y z
#
# Youngs Moduli (GPa) = 125.90586 56.72462 31.50515
#
# Poissons Ratio (x) = 0.10035 0.12101
# Poissons Ratio (y) = 0.22273 0.47883
# Poissons Ratio (z) = 0.48358 0.86212
#
# Static dielectric constant tensor:
#      x y z
#    x 3.884460 0.000000 -0.025590 
#    y 0.000000 2.958660 0.000000 
#    z -0.025590 0.000000 3.278560 
# 
# 
# High freq. dielectric constant tensor:
#      x y z
#    x 1.759220 0.000000 -0.006040 
#    y 0.000000 1.719050 0.000000 
#    z -0.006040 0.000000 1.694910 
# 
# From -- ./inp_files/39349.got.cif
#   From: 2010.06.25/outbox.cif.g09.slc.cpg/sg10_20_cif.got.tgz:39349.got - 2010.06.27 22:07:45.
