data_PCOD8063779
_publ_section_title
;
Structure prediction by ZEFSAII (Michael W. Deem and Ramdas Pophale) SiO2 
 PCOD8063779
Probable space group: P 2/M
;
_chemical_formula_sum "Si O2"
_cell_formula_units_Z 20
_cell_length_a 5.279992
_cell_length_b 10.385820
_cell_length_c 20.485930
_cell_angle_alpha 90.000000
_cell_angle_beta 71.335149
_cell_angle_gamma 90.000000
_cell_volume 1064.305315
_symmetry_space_group_name_H-M "P 2/M"
_symmetry_group_IT_number 10
_symmetry_cell_setting 'monoclinic'
loop_
_space_group_symop_operation_xyz
x,y,z
-x,y,-z
-x,-y,-z
x,-y,z
loop_
_atom_site_type_symbol
_atom_site_label
_atom_site_fract_x
_atom_site_fract_y
_atom_site_fract_z
Si Si1 0.609436 0.145627 0.811706
Si Si2 0.293245 0.150328 0.465211
Si Si3 0.293270 0.151449 0.964637
Si Si4 0.041807 0.356392 0.264345
Si Si5 0.530308 0.252364 0.685373
O O1 0.390006 0.183489 0.883629
O O2 0.854596 0.248431 0.796091
O O3 0.475315 0.155460 0.750873
O O4 0.716506 0.000000 0.814669
O O5 0.500000 0.213229 0.500000
O O6 0.395870 0.170602 0.383781
O O7 0.000000 0.213020 0.500000
O O8 0.273316 0.000000 0.481368
O O9 0.274576 0.000000 0.978231
O O10 0.500000 0.211574 0.000000
O O11 0.000000 0.213345 0.000000
O O12 0.075986 0.500000 0.232304
O O13 0.220818 0.344920 0.315641
O O14 0.733284 0.334905 0.307476
#
# Coordination Sequence:
#
# PCOD8063779 Si02
#       5
#     4   4   4   4   4
#     4   9  21  35  59  89 111 141 191 239 277 326
#     4  10  20  34  54  83 119 149 177 226 290 335
#     4   9  18  31  49  77 115 146 172 219 285 338
#     4  10  22  38  59  82 113 152 189 232 282 332
#     4  10  21  36  59  82 112 144 192 231 272 329
#
# _framework density 18.791602000000001
#
# number of rings (size 3 to 8) (size 9 to 14) (size 15 to 20)
#    1.200    1.200    0.000    2.400    2.800    1.600 
#    0.000    0.000    0.000   13.200    0.000    0.000 
#    0.000    0.000    0.000    0.000    0.000    0.000 
#
# Total GULP energy -247804.955609 kJ/mol
# GULP energy per Si atom -12390.247780 kJ/mol
# Density = 1.874883 g / cm^3
# Si number density = 18.791602 Si / 1000 Ang^3
#
#
#
# Elastic Constant Matrix: (Units=GPa)
#
#
# Indices 1 2 3 4 5 6 
#
# 1 166.4431 27.6771 57.5697 0.0000 -8.2908 0.0000
# 2 27.6771 64.9521 15.6218 0.0000 -7.7035 0.0000
# 3 57.5697 15.6218 143.8776 0.0000 0.2751 0.0000
# 4 0.0000 0.0000 0.0000 5.7245 0.0000 -2.8852
# 5 -8.2908 -7.7035 0.2751 0.0000 22.4162 0.0000
# 6 0.0000 0.0000 0.0000 -2.8852 0.0000 9.5247
#
#
#
# Elastic Compliance Matrix: (Units=1/GPa)
#
#
# Indices 1 2 3 4 5 6 
#
# 1 0.007430 -0.002272 -0.002730 0.000000 0.002001 0.000000
# 2 -0.002272 0.017200 -0.000968 0.000000 0.005082 0.000000
# 3 -0.002730 -0.000968 0.008151 0.000000 -0.001442 0.000000
# 4 0.000000 0.000000 0.000000 0.206163 0.000000 0.062450
# 5 0.002001 0.005082 -0.001442 0.000000 0.047115 0.000000
# 6 0.000000 0.000000 0.000000 0.062450 0.000000 0.123907
#
#
# Mechanical properties :
#
#
# Convention : Reuss Voigt Hill
#
# Bulk Modulus (GPa) = 47.98516 64.11220 56.04868
# Shear Modulus (GPa) = 11.65903 25.82669 18.74286
#
# Velocity S-wave (km/s) = 2.49356 3.71128 3.16160
# Velocity P-wave (km/s) = 5.82077 7.24957 6.57410
#
# Compressibility (1/GPa) = 0.02083978
#
# Stress axis : x y z
#
# Youngs Moduli (GPa) = 134.59329 58.14044 122.69060
#
# Poissons Ratio (x) = 0.13210 0.33495
# Poissons Ratio (y) = 0.30580 0.11878
# Poissons Ratio (z) = 0.36744 0.05629
#
# Static dielectric constant tensor:
#      x y z
#    x 3.689940 0.000000 -0.027040 
#    y 0.000000 2.982790 0.000000 
#    z -0.027040 0.000000 3.255320 
# 
# 
# High freq. dielectric constant tensor:
#      x y z
#    x 1.740980 0.000000 -0.004370 
#    y 0.000000 1.681180 0.000000 
#    z -0.004370 0.000000 1.722050 
# 
# From -- ./inp_files/73081.got.cif
#   From: 2010.06.25/outbox.cif.g09.slc.cpg/sg10_37_cif.got.tgz:73081.got - 2010.06.27 22:07:45.
