data_PCOD8063428
_publ_section_title
;
Structure prediction by ZEFSAII (Michael W. Deem and Ramdas Pophale) SiO2 
 PCOD8063428
Probable space group: P 2/M
;
_chemical_formula_sum "Si O2"
_cell_formula_units_Z 32
_cell_length_a 7.964500
_cell_length_b 22.272807
_cell_length_c 11.902680
_cell_angle_alpha 90.000000
_cell_angle_beta 49.782400
_cell_angle_gamma 90.000000
_cell_volume 1612.288857
_symmetry_space_group_name_H-M "P 2/M"
_symmetry_group_IT_number 10
_symmetry_cell_setting 'monoclinic'
loop_
_space_group_symop_operation_xyz
x,y,z
-x,y,-z
-x,-y,-z
x,-y,z
loop_
_atom_site_type_symbol
_atom_site_label
_atom_site_fract_x
_atom_site_fract_y
_atom_site_fract_z
Si Si1 0.104966 0.242145 0.223386
Si Si2 0.296252 0.886350 0.162259
Si Si3 0.140978 0.338269 0.041429
Si Si4 0.627373 0.332728 0.745974
Si Si5 0.450531 0.123264 0.347930
Si Si6 0.264261 0.566337 0.158605
Si Si7 0.345571 0.250696 0.466251
Si Si8 0.184144 0.069437 0.666701
O O1 0.245722 0.182083 0.151288
O O2 0.049656 0.274078 0.128275
O O3 0.250414 0.290794 0.220590
O O4 0.887655 0.227460 0.388055
O O5 0.369601 0.896817 0.259850
O O6 0.079250 0.923716 0.221746
O O7 0.500000 0.909512 0.000000
O O8 0.116714 0.391682 0.142700
O O9 0.378286 0.326845 0.888787
O O10 0.000000 0.361404 0.000000
O O11 0.711766 0.401136 0.729499
O O12 0.677602 0.310517 0.598640
O O13 0.450680 0.195786 0.351074
O O14 0.278836 0.097274 0.511630
O O15 0.697265 0.101168 0.276261
O O16 0.159338 0.500000 0.219998
O O17 0.500000 0.560311 0.000000
O O18 0.500000 0.270662 0.500000
O O19 0.246224 0.000000 0.646189
#
# Coordination Sequence:
#
# PCOD8063428 Si02
#       8
#     4   4   4   4   4   4   4   4
#     4  11  21  37  55  83 122 154 190 245 301 371
#     4  12  25  41  64  94 127 166 206 252 318 379
#     4  10  20  34  53  85 120 156 198 245 304 351
#     4  10  20  33  57  84 114 156 194 241 300 355
#     4  11  22  42  67  93 121 161 210 256 309 367
#     4   8  16  33  55  80 115 158 205 245 287 354
#     4  12  21  35  59  88 117 147 194 251 305 363
#     4  11  25  46  69  94 123 160 211 263 306 369
#
# _framework density 19.847560999999999
#
# number of rings (size 3 to 8) (size 9 to 14) (size 15 to 20)
#    0.000    1.375    3.750    4.125    0.000    2.500 
#    0.000    0.625    0.000    6.375    0.000    0.000 
#    0.000    0.000    0.000    0.000    0.000    0.000 
#
# Total GULP energy -396645.828934 kJ/mol
# GULP energy per Si atom -12395.182154 kJ/mol
# Density = 1.980239 g / cm^3
# Si number density = 19.847561 Si / 1000 Ang^3
#
#
#
# Elastic Constant Matrix: (Units=GPa)
#
#
# Indices 1 2 3 4 5 6 
#
# 1 125.4165 48.1884 44.6832 0.0000 7.1943 0.0000
# 2 48.1884 92.4907 18.7898 0.0000 8.4582 0.0000
# 3 44.6832 18.7898 68.5019 0.0000 -3.4617 0.0000
# 4 0.0000 0.0000 0.0000 16.0396 0.0000 -0.1331
# 5 7.1943 8.4582 -3.4617 0.0000 28.3504 0.0000
# 6 0.0000 0.0000 0.0000 -0.1331 0.0000 19.2260
#
#
#
# Elastic Compliance Matrix: (Units=1/GPa)
#
#
# Indices 1 2 3 4 5 6 
#
# 1 0.012447 -0.004845 -0.006919 0.000000 -0.002558 0.000000
# 2 -0.004845 0.013763 -0.000765 0.000000 -0.002970 0.000000
# 3 -0.006919 -0.000765 0.019542 0.000000 0.004370 0.000000
# 4 0.000000 0.000000 0.000000 0.062349 0.000000 0.000432
# 5 -0.002558 -0.002970 0.004370 0.000000 0.037342 0.000000
# 6 0.000000 0.000000 0.000000 0.000432 0.000000 0.052016
#
#
# Mechanical properties :
#
#
# Convention : Reuss Voigt Hill
#
# Bulk Modulus (GPa) = 48.32382 56.63688 52.48035
# Shear Modulus (GPa) = 21.79443 24.37304 23.08373
#
# Velocity S-wave (km/s) = 3.31734 3.50810 3.41405
# Velocity P-wave (km/s) = 6.25087 6.70872 6.48384
#
# Compressibility (1/GPa) = 0.02069373
#
# Stress axis : x y z
#
# Youngs Moduli (GPa) = 80.33983 72.65657 51.17141
#
# Poissons Ratio (x) = 0.35205 0.35407
# Poissons Ratio (y) = 0.38928 0.03913
# Poissons Ratio (z) = 0.55590 0.05556
#
# Static dielectric constant tensor:
#      x y z
#    x 3.847050 0.000000 0.184630 
#    y 0.000000 3.917220 0.000000 
#    z 0.184630 0.000000 3.591530 
# 
# 
# High freq. dielectric constant tensor:
#      x y z
#    x 1.784370 0.000000 0.000560 
#    y 0.000000 1.769560 0.000000 
#    z 0.000560 0.000000 1.751900 
# 
# From -- ./inp_files/43609.got.cif
#   From: 2010.06.25/outbox.cif.g09.slc.cpg/sg10_22_cif.got.tgz:43609.got - 2010.06.27 22:07:45.
