data_PCOD8063576
_publ_section_title
;
Structure prediction by ZEFSAII (Michael W. Deem and Ramdas Pophale) SiO2 
 PCOD8063576
Probable space group: P 2/M
;
_chemical_formula_sum "Si O2"
_cell_formula_units_Z 28
_cell_length_a 16.479425
_cell_length_b 10.813684
_cell_length_c 9.799990
_cell_angle_alpha 90.000000
_cell_angle_beta 125.056030
_cell_angle_gamma 90.000000
_cell_volume 1429.579108
_symmetry_space_group_name_H-M "P 2/M"
_symmetry_group_IT_number 10
_symmetry_cell_setting 'monoclinic'
loop_
_space_group_symop_operation_xyz
x,y,z
-x,y,-z
-x,-y,-z
x,-y,z
loop_
_atom_site_type_symbol
_atom_site_label
_atom_site_fract_x
_atom_site_fract_y
_atom_site_fract_z
Si Si1 0.297211 0.245231 0.274482
Si Si2 0.436138 0.145215 0.630780
Si Si3 0.092665 0.144626 0.180914
Si Si4 0.703690 0.860278 0.271916
Si Si5 0.082779 0.145369 0.482825
Si Si6 0.602260 0.500000 0.670188
Si Si7 0.414315 0.500000 0.034043
Si Si8 0.635521 0.761500 0.940676
O O1 0.386350 0.168617 0.434790
O O2 0.191531 0.221546 0.242378
O O3 0.327702 0.387637 0.305459
O O4 0.284058 0.211801 0.100557
O O5 0.361752 0.200185 0.672899
O O6 0.533602 0.225330 0.756727
O O7 0.460546 0.000000 0.669946
O O8 0.060323 0.174214 0.303739
O O9 0.117348 0.000000 0.183146
O O10 0.000000 0.187128 0.000000
O O11 0.811398 0.795598 0.371084
O O12 0.719670 0.000000 0.335578
O O13 0.648894 0.860959 0.072838
O O14 0.000000 0.207778 0.500000
O O15 0.084275 0.000000 0.512515
O O16 0.500000 0.500000 0.500000
O O17 0.557655 0.500000 0.779785
O O18 0.353447 0.629715 0.966801
O O19 0.500000 0.500000 0.000000
#
# Coordination Sequence:
#
# PCOD8063576 Si02
#       8
#     4   4   4   4   4   2   2   4
#     4  11  22  38  57  82 114 150 193 241 286 336
#     4  11  21  35  53  79 118 152 183 228 286 348
#     4  10  21  37  59  87 117 149 188 237 295 352
#     4  10  20  34  52  79 114 146 182 227 280 347
#     4   9  18  34  55  79 110 147 184 229 282 339
#     4  10  22  40  61  85 112 153 203 240 281 342
#     4  10  20  38  56  75 106 146 195 241 272 317
#     4  11  23  34  54  82 110 151 191 233 284 341
#
# _framework density 19.586185
#
# number of rings (size 3 to 8) (size 9 to 14) (size 15 to 20)
#    0.000    1.714    1.429    4.286    2.000    4.000 
#    0.000    0.357    0.000    0.000    0.000    1.000 
#    0.000    0.000    0.000    0.000    0.000    0.000 
#
# Total GULP energy -346875.014997 kJ/mol
# GULP energy per Si atom -12388.393393 kJ/mol
# Density = 1.954161 g / cm^3
# Si number density = 19.586185 Si / 1000 Ang^3
#
#
#
# Elastic Constant Matrix: (Units=GPa)
#
#
# Indices 1 2 3 4 5 6 
#
# 1 106.8604 24.6687 30.1230 0.0000 -11.8194 0.0000
# 2 24.6687 54.6183 15.2715 0.0000 -2.8062 0.0000
# 3 30.1230 15.2715 97.0394 0.0000 -3.4406 0.0000
# 4 0.0000 0.0000 0.0000 16.5013 0.0000 -5.7532
# 5 -11.8194 -2.8062 -3.4406 0.0000 35.1229 0.0000
# 6 0.0000 0.0000 0.0000 -5.7532 0.0000 23.1458
#
#
#
# Elastic Compliance Matrix: (Units=1/GPa)
#
#
# Indices 1 2 3 4 5 6 
#
# 1 0.011481 -0.004241 -0.002781 0.000000 0.003252 0.000000
# 2 -0.004241 0.020772 -0.001951 0.000000 0.000041 0.000000
# 3 -0.002781 -0.001951 0.011477 0.000000 0.000032 0.000000
# 4 0.000000 0.000000 0.000000 0.066352 0.000000 0.016493
# 5 0.003252 0.000041 0.000032 0.000000 0.029572 0.000000
# 6 0.000000 0.000000 0.000000 0.016493 0.000000 0.047304
#
#
# Mechanical properties :
#
#
# Convention : Reuss Voigt Hill
#
# Bulk Modulus (GPa) = 38.78467 44.29384 41.53925
# Shear Modulus (GPa) = 23.41952 27.51765 25.46859
#
# Velocity S-wave (km/s) = 3.46166 3.75234 3.60993
# Velocity P-wave (km/s) = 5.98519 6.43718 6.21530
#
# Compressibility (1/GPa) = 0.02578338
#
# Stress axis : x y z
#
# Youngs Moduli (GPa) = 87.10321 48.14210 87.13366
#
# Poissons Ratio (x) = 0.20415 0.24233
# Poissons Ratio (y) = 0.36937 0.17001
# Poissons Ratio (z) = 0.24225 0.09393
#
# Static dielectric constant tensor:
#      x y z
#    x 3.878320 0.000000 -0.154370 
#    y 0.000000 3.478400 0.000000 
#    z -0.154370 0.000000 3.554480 
# 
# 
# High freq. dielectric constant tensor:
#      x y z
#    x 1.770450 0.000000 -0.019910 
#    y 0.000000 1.727790 0.000000 
#    z -0.019910 0.000000 1.767900 
# 
# From -- ./inp_files/28711.got.cif
#   From: 2010.06.25/outbox.cif.g09.slc.cpg/sg10_15_cif.got.tgz:28711.got - 2010.06.27 22:07:45.
