data_PCOD8063464
_publ_section_title
;
Structure prediction by ZEFSAII (Michael W. Deem and Ramdas Pophale) SiO2 
 PCOD8063464
Probable space group: P 2/M
;
_chemical_formula_sum "Si O2"
_cell_formula_units_Z 32
_cell_length_a 12.240237
_cell_length_b 8.793394
_cell_length_c 22.269610
_cell_angle_alpha 90.000000
_cell_angle_beta 45.895393
_cell_angle_gamma 90.000000
_cell_volume 1721.178684
_symmetry_space_group_name_H-M "P 2/M"
_symmetry_group_IT_number 10
_symmetry_cell_setting 'monoclinic'
loop_
_space_group_symop_operation_xyz
x,y,z
-x,y,-z
-x,-y,-z
x,-y,z
loop_
_atom_site_type_symbol
_atom_site_label
_atom_site_fract_x
_atom_site_fract_y
_atom_site_fract_z
Si Si1 0.543775 0.175660 0.717010
Si Si2 0.888604 0.179923 0.594134
Si Si3 0.173898 0.165522 0.934782
Si Si4 0.725689 0.323063 0.990588
Si Si5 0.553149 0.824977 0.851156
Si Si6 0.007634 0.320769 0.196618
Si Si7 0.875198 0.678742 0.722843
Si Si8 0.732775 0.321328 0.221127
O O1 0.717209 0.234104 0.645599
O O2 0.487125 0.201123 0.808277
O O3 0.445637 0.273219 0.705765
O O4 0.533420 0.000000 0.702687
O O5 0.942800 0.244384 0.637404
O O6 0.000000 0.243074 0.500000
O O7 0.896084 0.000000 0.595880
O O8 0.203974 0.298304 0.970833
O O9 0.216220 0.221566 0.853521
O O10 0.255548 0.000000 0.918105
O O11 0.000000 0.128840 0.000000
O O12 0.690767 0.500000 0.992952
O O13 0.566494 0.229869 0.052236
O O14 0.847058 0.254956 0.896192
O O15 0.703494 0.726669 0.802415
O O16 0.597529 0.000000 0.843825
O O17 0.022405 0.500000 0.184408
O O18 0.019760 0.269243 0.261159
O O19 0.841556 0.270379 0.234971
O O20 0.880145 0.500000 0.711913
O O21 0.747709 0.500000 0.203746
#
# Coordination Sequence:
#
# PCOD8063464 Si02
#       8
#     4   4   4   4   4   4   4   4
#     4   9  18  32  51  78 109 133 162 211 266 311
#     4   9  19  38  63  87 110 133 159 203 264 321
#     4  11  21  31  44  68 101 136 179 233 278 305
#     4  11  20  32  50  70  96 139 190 229 268 310
#     4  10  20  34  50  73 106 138 176 228 276 311
#     4   9  21  36  49  71 104 143 183 225 262 302
#     4  10  20  37  57  77 105 138 175 215 260 315
#     4  11  20  32  51  73 101 140 183 218 260 311
#
# _framework density 18.591911
#
# number of rings (size 3 to 8) (size 9 to 14) (size 15 to 20)
#    0.000    2.000    2.500    2.625    0.000    3.250 
#    0.000    7.500    0.000    0.750    0.000    5.250 
#    0.000    0.000    0.000    0.000    0.000    0.000 
#
# Total GULP energy -396569.382897 kJ/mol
# GULP energy per Si atom -12392.793216 kJ/mol
# Density = 1.854959 g / cm^3
# Si number density = 18.591911 Si / 1000 Ang^3
#
#
#
# Elastic Constant Matrix: (Units=GPa)
#
#
# Indices 1 2 3 4 5 6 
#
# 1 112.4142 21.8264 50.6043 0.0000 10.3772 0.0000
# 2 21.8264 41.4587 21.7165 0.0000 2.2410 0.0000
# 3 50.6043 21.7165 106.5327 0.0000 3.2513 0.0000
# 4 0.0000 0.0000 0.0000 21.9732 0.0000 -2.3154
# 5 10.3772 2.2410 3.2513 0.0000 17.7809 0.0000
# 6 0.0000 0.0000 0.0000 -2.3154 0.0000 18.1681
#
#
#
# Elastic Compliance Matrix: (Units=1/GPa)
#
#
# Indices 1 2 3 4 5 6 
#
# 1 0.012369 -0.003595 -0.004964 0.000000 -0.005858 0.000000
# 2 -0.003595 0.028152 -0.004009 0.000000 -0.000717 0.000000
# 3 -0.004964 -0.004009 0.012528 0.000000 0.001111 0.000000
# 4 0.000000 0.000000 0.000000 0.046129 0.000000 0.005879
# 5 -0.005858 -0.000717 0.001111 0.000000 0.059546 0.000000
# 6 0.000000 0.000000 0.000000 0.005879 0.000000 0.055791
#
#
# Mechanical properties :
#
#
# Convention : Reuss Voigt Hill
#
# Bulk Modulus (GPa) = 35.82577 49.85554 42.84065
# Shear Modulus (GPa) = 20.08394 22.66833 21.37613
#
# Velocity S-wave (km/s) = 3.29028 3.49558 3.39448
# Velocity P-wave (km/s) = 5.80913 6.57008 6.20129
#
# Compressibility (1/GPa) = 0.02791287
#
# Stress axis : x y z
#
# Youngs Moduli (GPa) = 80.84771 35.52165 79.82145
#
# Poissons Ratio (x) = 0.12770 0.39621
# Poissons Ratio (y) = 0.29065 0.32001
# Poissons Ratio (z) = 0.40131 0.14241
#
# Static dielectric constant tensor:
#      x y z
#    x 3.536190 0.000000 -0.099380 
#    y 0.000000 3.281190 0.000000 
#    z -0.099380 0.000000 3.359710 
# 
# 
# High freq. dielectric constant tensor:
#      x y z
#    x 1.721740 0.000000 -0.016150 
#    y 0.000000 1.716710 0.000000 
#    z -0.016150 0.000000 1.690680 
# 
# From -- ./inp_files/88536.got.cif
#   From: 2010.06.25/outbox.cif.g09.slc.cpg/sg10_45_cif.got.tgz:88536.got - 2010.06.27 22:07:45.
