data_PCOD8063934
_publ_section_title
;
Structure prediction by ZEFSAII (Michael W. Deem and Ramdas Pophale) SiO2 
 PCOD8063934
Probable space group: P 2/M
;
_chemical_formula_sum "Si O2"
_cell_formula_units_Z 24
_cell_length_a 18.920525
_cell_length_b 10.405384
_cell_length_c 5.740977
_cell_angle_alpha 90.000000
_cell_angle_beta 107.949365
_cell_angle_gamma 90.000000
_cell_volume 1075.246274
_symmetry_space_group_name_H-M "P 2/M"
_symmetry_group_IT_number 10
_symmetry_cell_setting 'monoclinic'
loop_
_space_group_symop_operation_xyz
x,y,z
-x,y,-z
-x,-y,-z
x,-y,z
loop_
_atom_site_type_symbol
_atom_site_label
_atom_site_fract_x
_atom_site_fract_y
_atom_site_fract_z
Si Si1 0.184287 0.141427 0.253234
Si Si2 0.690208 0.227529 0.311729
Si Si3 0.769670 0.641111 0.014641
Si Si4 0.971054 0.852803 0.719144
Si Si5 0.435706 0.858194 0.118827
Si Si6 0.611082 0.641526 0.611057
O O1 0.265040 0.141260 0.458525
O O2 0.118280 0.161885 0.372545
O O3 0.175771 0.000000 0.126704
O O4 0.177808 0.252266 0.051284
O O5 0.752966 0.319401 0.262930
O O6 0.625401 0.314005 0.361661
O O7 0.646607 0.141072 0.080350
O O8 0.808074 0.500000 0.046440
O O9 0.691046 0.635414 0.809115
O O10 0.000000 0.789702 0.500000
O O11 0.998158 0.000000 0.743676
O O12 0.000000 0.793277 0.000000
O O13 0.442074 0.745422 0.316892
O O14 0.445343 0.000000 0.243747
O O15 0.500000 0.833146 0.000000
O O16 0.573484 0.500000 0.579000
#
# Coordination Sequence:
#
# PCOD8063934 Si02
#       6
#     4   4   4   4   4   4
#     4  10  21  34  57  88 113 144 189 242 287 337
#     4  10  20  34  57  83 108 143 188 236 280 340
#     4   9  19  35  55  80 113 149 184 229 287 345
#     4   9  19  35  56  85 123 159 194 241 303 362
#     4  10  22  38  54  76 111 149 182 226 286 345
#     4   9  19  36  56  79 105 138 186 233 279 335
#
# _framework density 22.320466
#
# number of rings (size 3 to 8) (size 9 to 14) (size 15 to 20)
#    0.000    2.500    0.000    1.000    2.333    9.667 
#    0.000    2.500    0.000    1.000    0.000    0.000 
#    0.000    0.000    0.000    0.000    0.000    0.000 
#
# Total GULP energy -297360.407769 kJ/mol
# GULP energy per Si atom -12390.016990 kJ/mol
# Density = 2.226966 g / cm^3
# Si number density = 22.320466 Si / 1000 Ang^3
#
#
#
# Elastic Constant Matrix: (Units=GPa)
#
#
# Indices 1 2 3 4 5 6 
#
# 1 81.8326 50.3243 29.5540 0.0000 -23.2014 0.0000
# 2 50.3243 183.0419 44.0830 0.0000 -43.3690 0.0000
# 3 29.5540 44.0830 98.5686 0.0000 -29.2758 0.0000
# 4 0.0000 0.0000 0.0000 6.2559 0.0000 -23.0344
# 5 -23.2014 -43.3690 -29.2758 0.0000 47.0852 0.0000
# 6 0.0000 0.0000 0.0000 -23.0344 0.0000 1.8396
#
#
#
# Elastic Compliance Matrix: (Units=1/GPa)
#
#
# Indices 1 2 3 4 5 6 
#
# 1 0.015923 -0.002938 -0.002371 0.000000 0.003665 0.000000
# 2 -0.002938 0.007713 -0.001090 0.000000 0.004979 0.000000
# 3 -0.002371 -0.001090 0.013122 0.000000 0.005986 0.000000
# 4 0.000000 0.000000 0.000000 -0.003544 0.000000 -0.044376
# 5 0.003665 0.004979 0.005986 0.000000 0.031352 0.000000
# 6 0.000000 0.000000 0.000000 -0.044376 0.000000 -0.012052
#
#
# Mechanical properties :
#
#
# Convention : Reuss Voigt Hill
#
# Bulk Modulus (GPa) = 41.73876 67.92955 54.83416
# Shear Modulus (GPa) = 68.21416 27.00158 47.60787
#
# Velocity S-wave (km/s) = 5.53422 3.48188 4.62337
# Velocity P-wave (km/s) = 7.71863 6.83114 7.28840
#
# Compressibility (1/GPa) = 0.02395854
#
# Stress axis : x y z
#
# Youngs Moduli (GPa) = 62.80411 129.64802 76.21010
#
# Poissons Ratio (x) = 0.38092 0.18073
# Poissons Ratio (y) = 0.18452 0.08306
# Poissons Ratio (z) = 0.14894 0.14129
#
# Static dielectric constant tensor:
#      x y z
#    x 3.788130 0.000000 -0.239200 
#    y 0.000000 4.107430 0.000000 
#    z -0.239200 0.000000 4.116930 
# 
# 
# High freq. dielectric constant tensor:
#      x y z
#    x 1.866470 0.000000 -0.013350 
#    y 0.000000 1.855930 0.000000 
#    z -0.013350 0.000000 1.869650 
# 
# From -- ./inp_files/10969.got.cif
#   From: 2010.06.25/outbox.cif.g09.slc.cpg/sg10_6_cif.got.tgz:10969.got - 2010.06.27 22:07:45.
