data_PCOD8063981
_publ_section_title
;
Structure prediction by ZEFSAII (Michael W. Deem and Ramdas Pophale) SiO2 
 PCOD8063981
Probable space group: P 2/M
;
_chemical_formula_sum "Si O2"
_cell_formula_units_Z 28
_cell_length_a 11.180111
_cell_length_b 9.371954
_cell_length_c 14.785879
_cell_angle_alpha 90.000000
_cell_angle_beta 114.011121
_cell_angle_gamma 90.000000
_cell_volume 1415.194178
_symmetry_space_group_name_H-M "P 2/M"
_symmetry_group_IT_number 10
_symmetry_cell_setting 'monoclinic'
loop_
_space_group_symop_operation_xyz
x,y,z
-x,y,-z
-x,-y,-z
x,-y,z
loop_
_atom_site_type_symbol
_atom_site_label
_atom_site_fract_x
_atom_site_fract_y
_atom_site_fract_z
Si Si1 0.651325 0.669548 0.547496
Si Si2 0.031492 0.167525 0.913210
Si Si3 0.661886 0.332562 0.235858
Si Si4 0.229952 0.160980 0.256046
Si Si5 0.571684 0.160317 0.836356
Si Si6 0.850188 0.332082 0.451856
Si Si7 0.306065 0.833036 0.936696
O O1 0.500000 0.724973 0.500000
O O2 0.651869 0.500000 0.546364
O O3 0.710596 0.724689 0.658606
O O4 0.747422 0.727497 0.496184
O O5 0.921717 0.199361 0.804366
O O6 0.165423 0.232534 0.918082
O O7 0.050674 0.000000 0.934437
O O8 0.000000 0.239986 0.000000
O O9 0.649485 0.500000 0.218627
O O10 0.529892 0.270976 0.241879
O O11 0.788947 0.294246 0.335051
O O12 0.654250 0.253372 0.138731
O O13 0.292978 0.173249 0.175998
O O14 0.247807 0.000000 0.299867
O O15 0.515365 0.000000 0.810090
O O16 0.595554 0.194517 0.949777
O O17 0.860035 0.500000 0.469550
O O18 0.000000 0.268097 0.500000
O O19 0.301136 0.000000 0.910980
#
# Coordination Sequence:
#
# PCOD8063981 Si02
#       7
#     4   4   4   4   4   4   4
#     4  10  21  38  60  83 108 145 191 234 281 338
#     4   9  16  32  56  81 110 145 184 221 264 327
#     4  11  23  37  57  81 108 143 187 235 276 316
#     4  10  20  34  58  88 113 141 180 229 278 323
#     4  10  20  36  57  82 114 151 183 213 267 339
#     4   9  20  39  58  76 106 149 190 227 277 341
#     4  10  20  35  57  82 112 149 184 219 267 333
#
# _framework density 19.785271000000002
#
# number of rings (size 3 to 8) (size 9 to 14) (size 15 to 20)
#    0.000    2.143    1.429    1.714    2.000    4.286 
#    0.000    1.429    0.000    3.000    0.000    0.000 
#    0.000    0.000    0.000    0.000    0.000    0.000 
#
# Total GULP energy -347003.055619 kJ/mol
# GULP energy per Si atom -12392.966272 kJ/mol
# Density = 1.974024 g / cm^3
# Si number density = 19.785271 Si / 1000 Ang^3
#
#
#
# Elastic Constant Matrix: (Units=GPa)
#
#
# Indices 1 2 3 4 5 6 
#
# 1 115.2827 28.1482 42.9869 0.0000 17.9156 0.0000
# 2 28.1482 41.1487 37.9533 0.0000 8.5502 0.0000
# 3 42.9869 37.9533 93.9091 0.0000 6.3324 0.0000
# 4 0.0000 0.0000 0.0000 27.0350 0.0000 4.6080
# 5 17.9156 8.5502 6.3324 0.0000 34.4914 0.0000
# 6 0.0000 0.0000 0.0000 4.6080 0.0000 8.3391
#
#
#
# Elastic Compliance Matrix: (Units=1/GPa)
#
#
# Indices 1 2 3 4 5 6 
#
# 1 0.011586 -0.003807 -0.003466 0.000000 -0.004438 0.000000
# 2 -0.003807 0.041644 -0.014707 0.000000 -0.005646 0.000000
# 3 -0.003466 -0.014707 0.018035 0.000000 0.002135 0.000000
# 4 0.000000 0.000000 0.000000 0.040835 0.000000 -0.022564
# 5 -0.004438 -0.005646 0.002135 0.000000 0.032306 0.000000
# 6 0.000000 0.000000 0.000000 -0.022564 0.000000 0.132385
#
#
# Mechanical properties :
#
#
# Convention : Reuss Voigt Hill
#
# Bulk Modulus (GPa) = 36.62215 52.05747 44.33981
# Shear Modulus (GPa) = 15.15831 23.38991 19.27411
#
# Velocity S-wave (km/s) = 2.77093 3.44203 3.12455
# Velocity P-wave (km/s) = 5.36539 6.49346 5.95619
#
# Compressibility (1/GPa) = 0.02730588
#
# Stress axis : x y z
#
# Youngs Moduli (GPa) = 86.31284 24.01278 55.44768
#
# Poissons Ratio (x) = 0.09141 0.19216
# Poissons Ratio (y) = 0.32856 0.81549
# Poissons Ratio (z) = 0.29913 0.35316
#
# Static dielectric constant tensor:
#      x y z
#    x 4.189480 0.000000 0.101250 
#    y 0.000000 3.240070 0.000000 
#    z 0.101250 0.000000 3.476080 
# 
# 
# High freq. dielectric constant tensor:
#      x y z
#    x 1.794250 0.000000 0.007550 
#    y 0.000000 1.726200 0.000000 
#    z 0.007550 0.000000 1.772970 
# 
# From -- ./inp_files/49579.got.cif
#   From: 2010.06.25/outbox.cif.g09.slc.cpg/sg10_25_cif.got.tgz:49579.got - 2010.06.27 22:07:45.
