data_PCOD8063348
_publ_section_title
;
Structure prediction by ZEFSAII (Michael W. Deem and Ramdas Pophale) SiO2 
 PCOD8063348
Probable space group: P 2/M
;
_chemical_formula_sum "Si O2"
_cell_formula_units_Z 32
_cell_length_a 12.925110
_cell_length_b 9.139888
_cell_length_c 28.695618
_cell_angle_alpha 90.000000
_cell_angle_beta 150.552483
_cell_angle_gamma 90.000000
_cell_volume 1666.577988
_symmetry_space_group_name_H-M "P 2/M"
_symmetry_group_IT_number 10
_symmetry_cell_setting 'monoclinic'
loop_
_space_group_symop_operation_xyz
x,y,z
-x,y,-z
-x,-y,-z
x,-y,z
loop_
_atom_site_type_symbol
_atom_site_label
_atom_site_fract_x
_atom_site_fract_y
_atom_site_fract_z
Si Si1 0.421632 0.173259 0.606526
Si Si2 0.186877 0.327246 0.286183
Si Si3 0.423234 0.827060 0.714848
Si Si4 0.902692 0.331154 0.088921
Si Si5 0.984590 0.826852 0.391484
Si Si6 0.051872 0.173378 0.728820
Si Si7 0.494883 0.172186 0.945138
Si Si8 0.165799 0.670904 0.103342
O O1 0.598447 0.257102 0.647288
O O2 0.427259 0.220408 0.662577
O O3 0.199912 0.227830 0.499017
O O4 0.453878 0.000000 0.613144
O O5 0.219117 0.500000 0.304266
O O6 0.999062 0.289796 0.176734
O O7 0.127176 0.255658 0.312011
O O8 0.210736 0.765304 0.655161
O O9 0.617542 0.756849 0.818714
O O10 0.438653 0.000000 0.726252
O O11 0.841648 0.500000 0.061574
O O12 0.076339 0.289694 0.118940
O O13 0.691867 0.241498 0.995526
O O14 0.971136 0.772143 0.333096
O O15 0.975328 0.000000 0.389152
O O16 0.281479 0.222349 0.836545
O O17 0.018835 0.000000 0.721370
O O18 0.522588 0.000000 0.954161
O O19 0.500000 0.230761 0.000000
O O20 0.212610 0.500000 0.115910
O O21 0.000000 0.725552 0.000000
#
# Coordination Sequence:
#
# PCOD8063348 Si02
#       8
#     4   4   4   4   4   4   4   4
#     4  10  20  37  62  86 109 145 189 233 284 340
#     4  11  22  37  58  83 114 148 189 237 277 327
#     4  10  20  36  61  89 114 143 187 238 280 329
#     4  10  21  36  54  77 108 148 186 222 271 329
#     4   9  20  38  59  84 114 147 185 232 287 340
#     4  10  21  38  57  81 115 151 186 229 283 338
#     4  10  20  33  53  80 108 139 179 224 268 320
#     4  10  22  39  56  80 116 154 186 221 275 337
#
# _framework density 19.201022999999999
#
# number of rings (size 3 to 8) (size 9 to 14) (size 15 to 20)
#    0.000    2.000    2.500    0.750    1.750    4.000 
#    0.000    4.375    0.000    1.500    0.000    0.000 
#    0.000    0.000    0.000    0.000    0.000    0.000 
#
# Total GULP energy -396914.145175 kJ/mol
# GULP energy per Si atom -12403.567037 kJ/mol
# Density = 1.915732 g / cm^3
# Si number density = 19.201023 Si / 1000 Ang^3
#
#
#
# Elastic Constant Matrix: (Units=GPa)
#
#
# Indices 1 2 3 4 5 6 
#
# 1 118.5582 37.0480 80.2909 0.0000 13.0242 0.0000
# 2 37.0480 36.8623 46.8571 0.0000 9.2296 0.0000
# 3 80.2909 46.8571 151.2948 0.0000 10.8713 0.0000
# 4 0.0000 0.0000 0.0000 11.3203 0.0000 -3.5865
# 5 13.0242 9.2296 10.8713 0.0000 37.3222 0.0000
# 6 0.0000 0.0000 0.0000 -3.5865 0.0000 16.6367
#
#
#
# Elastic Compliance Matrix: (Units=1/GPa)
#
#
# Indices 1 2 3 4 5 6 
#
# 1 0.014527 -0.007475 -0.005273 0.000000 -0.001685 0.000000
# 2 -0.007475 0.050554 -0.011214 0.000000 -0.006627 0.000000
# 3 -0.005273 -0.011214 0.012818 0.000000 0.000880 0.000000
# 4 0.000000 0.000000 0.000000 0.094813 0.000000 0.020440
# 5 -0.001685 -0.006627 0.000880 0.000000 0.028764 0.000000
# 6 0.000000 0.000000 0.000000 0.020440 0.000000 0.064515
#
#
# Mechanical properties :
#
#
# Convention : Reuss Voigt Hill
#
# Bulk Modulus (GPa) = 33.36155 70.56748 51.96452
# Shear Modulus (GPa) = 15.43656 22.55711 18.99684
#
# Velocity S-wave (km/s) = 2.83847 3.43124 3.14883
# Velocity P-wave (km/s) = 5.30614 7.24773 6.35156
#
# Compressibility (1/GPa) = 0.02997463
#
# Stress axis : x y z
#
# Youngs Moduli (GPa) = 68.83859 19.78065 78.01694
#
# Poissons Ratio (x) = 0.14787 0.41138
# Poissons Ratio (y) = 0.51459 0.87487
# Poissons Ratio (z) = 0.36298 0.22182
#
# Static dielectric constant tensor:
#      x y z
#    x 3.634490 0.000000 -0.035900 
#    y 0.000000 3.214700 0.000000 
#    z -0.035900 0.000000 3.596020 
# 
# 
# High freq. dielectric constant tensor:
#      x y z
#    x 1.755940 0.000000 0.004090 
#    y 0.000000 1.722020 0.000000 
#    z 0.004090 0.000000 1.755130 
# 
# From -- ./inp_files/49781.got.cif
#   From: 2010.06.25/outbox.cif.g09.slc.cpg/sg10_25_cif.got.tgz:49781.got - 2010.06.27 22:07:45.
