data_PCOD8063474
_publ_section_title
;
Structure prediction by ZEFSAII (Michael W. Deem and Ramdas Pophale) SiO2 
 PCOD8063474
Probable space group: P 2/M
;
_chemical_formula_sum "Si O2"
_cell_formula_units_Z 28
_cell_length_a 8.758570
_cell_length_b 15.129054
_cell_length_c 13.286417
_cell_angle_alpha 90.000000
_cell_angle_beta 109.244844
_cell_angle_gamma 90.000000
_cell_volume 1662.185349
_symmetry_space_group_name_H-M "P 2/M"
_symmetry_group_IT_number 10
_symmetry_cell_setting 'monoclinic'
loop_
_space_group_symop_operation_xyz
x,y,z
-x,y,-z
-x,-y,-z
x,-y,z
loop_
_atom_site_type_symbol
_atom_site_label
_atom_site_fract_x
_atom_site_fract_y
_atom_site_fract_z
Si Si1 0.870664 0.095754 0.383941
Si Si2 0.827935 0.605039 0.999999
Si Si3 0.371549 0.729722 0.382911
Si Si4 0.432585 0.604378 0.216725
Si Si5 0.784139 0.395622 0.216724
Si Si6 0.011362 0.270278 0.382910
Si Si7 0.513277 0.904246 0.383941
O O1 0.696545 0.115713 0.393090
O O2 0.000000 0.090001 0.500000
O O3 0.923116 0.179073 0.326464
O O4 0.870069 0.000000 0.326373
O O5 0.828624 0.500000 0.999997
O O6 0.688300 0.639870 0.895624
O O7 0.792673 0.639869 0.104374
O O8 0.000000 0.642534 0.000000
O O9 0.500000 0.718389 0.500000
O O10 0.386178 0.647162 0.312289
O O11 0.196087 0.732097 0.392174
O O12 0.403348 0.820927 0.326465
O O13 0.415837 0.500000 0.226841
O O14 0.612460 0.632251 0.224920
O O15 0.811004 0.500000 0.226841
O O16 0.926111 0.352838 0.312288
O O17 0.000000 0.281611 0.500000
O O18 0.500000 0.910000 0.500000
O O19 0.456303 0.000000 0.326373
#
# Coordination Sequence:
#
# PCOD8063474 Si02
#       7
#     4   4   4   4   4   4   4
#     4   9  16  27  44  65  90 120 154 192 232 275
#     4   9  17  31  51  73  94 117 152 197 239 277
#     4  11  21  32  47  68  97 129 160 195 235 283
#     4  10  20  34  51  70  94 125 160 197 236 278
#     4  10  20  34  51  70  94 125 160 197 236 278
#     4  11  21  32  47  68  97 129 160 195 235 283
#     4   9  16  27  44  65  90 120 154 192 232 275
#
# _framework density 16.845293999999999
#
# number of rings (size 3 to 8) (size 9 to 14) (size 15 to 20)
#    0.000    2.143    0.000    6.429    0.000    5.714 
#    0.000    0.000    0.000    0.000    0.000    1.000 
#    0.000    8.000    0.000    0.000    0.000    0.000 
#
# Total GULP energy -347037.095024 kJ/mol
# GULP energy per Si atom -12394.181965 kJ/mol
# Density = 1.680695 g / cm^3
# Si number density = 16.845294 Si / 1000 Ang^3
#
#
#
# Elastic Constant Matrix: (Units=GPa)
#
#
# Indices 1 2 3 4 5 6 
#
# 1 153.7717 48.3494 47.3710 0.0000 -0.8310 0.0000
# 2 48.3494 62.8589 39.4750 0.0000 -0.1452 0.0000
# 3 47.3710 39.4750 78.4631 0.0000 -0.4018 0.0000
# 4 0.0000 0.0000 0.0000 1.6424 0.0000 -0.4485
# 5 -0.8310 -0.1452 -0.4018 0.0000 27.8336 0.0000
# 6 0.0000 0.0000 0.0000 -0.4485 0.0000 29.0213
#
#
#
# Elastic Compliance Matrix: (Units=1/GPa)
#
#
# Indices 1 2 3 4 5 6 
#
# 1 0.008994 -0.005129 -0.002849 0.000000 0.000201 0.000000
# 2 -0.005129 0.026181 -0.010076 0.000000 -0.000162 0.000000
# 3 -0.002849 -0.010076 0.019535 0.000000 0.000144 0.000000
# 4 0.000000 0.000000 0.000000 0.611456 0.000000 0.009450
# 5 0.000201 -0.000162 0.000144 0.000000 0.035935 0.000000
# 6 0.000000 0.000000 0.000000 0.009450 0.000000 0.034604
#
#
# Mechanical properties :
#
#
# Convention : Reuss Voigt Hill
#
# Bulk Modulus (GPa) = 53.75573 62.83161 58.29367
# Shear Modulus (GPa) = 6.41837 22.35933 14.38885
#
# Velocity S-wave (km/s) = 1.95409 3.64721 2.92580
# Velocity P-wave (km/s) = 6.08868 7.42404 6.78927
#
# Compressibility (1/GPa) = 0.01860267
#
# Stress axis : x y z
#
# Youngs Moduli (GPa) = 111.17933 38.19587 51.19036
#
# Poissons Ratio (x) = 0.19589 0.14584
# Poissons Ratio (y) = 0.57020 0.51580
# Poissons Ratio (z) = 0.31675 0.38487
#
# Static dielectric constant tensor:
#      x y z
#    x 3.397290 0.000000 -0.008370 
#    y 0.000000 3.697030 0.000000 
#    z -0.008370 0.000000 2.886180 
# 
# 
# High freq. dielectric constant tensor:
#      x y z
#    x 1.674450 0.000000 -0.001130 
#    y 0.000000 1.645640 0.000000 
#    z -0.001130 0.000000 1.605640 
# 
# From -- ./inp_files/42746.got.cif
#   From: 2010.06.25/outbox.cif.g09.slc.cpg/sg10_22_cif.got.tgz:42746.got - 2010.06.27 22:07:45.
