data_PCOD8063420
_publ_section_title
;
Structure prediction by ZEFSAII (Michael W. Deem and Ramdas Pophale) SiO2 
 PCOD8063420
Probable space group: P 2/M
;
_chemical_formula_sum "Si O2"
_cell_formula_units_Z 32
_cell_length_a 16.160381
_cell_length_b 8.832899
_cell_length_c 12.132437
_cell_angle_alpha 90.000000
_cell_angle_beta 91.830670
_cell_angle_gamma 90.000000
_cell_volume 1730.936699
_symmetry_space_group_name_H-M "P 2/M"
_symmetry_group_IT_number 10
_symmetry_cell_setting 'monoclinic'
loop_
_space_group_symop_operation_xyz
x,y,z
-x,y,-z
-x,-y,-z
x,-y,z
loop_
_atom_site_type_symbol
_atom_site_label
_atom_site_fract_x
_atom_site_fract_y
_atom_site_fract_z
Si Si1 0.373955 0.177589 0.259042
Si Si2 0.523070 0.677404 0.377553
Si Si3 0.711987 0.678016 0.356325
Si Si4 0.976500 0.823299 0.120395
Si Si5 0.767740 0.177427 0.577638
Si Si6 0.263895 0.677705 0.080658
Si Si7 0.214777 0.822951 0.856039
Si Si8 0.878267 0.323026 0.754985
O O1 0.466504 0.229500 0.290527
O O2 0.314834 0.222209 0.358693
O O3 0.344955 0.267377 0.149477
O O4 0.370954 0.000000 0.234193
O O5 0.500000 0.725364 0.500000
O O6 0.508142 0.500000 0.357714
O O7 0.616496 0.727588 0.357995
O O8 0.720918 0.500000 0.369458
O O9 0.763598 0.753786 0.456245
O O10 0.748796 0.730808 0.243261
O O11 0.881800 0.784800 0.139644
O O12 0.030254 0.734582 0.212799
O O13 0.996591 0.000000 0.131852
O O14 0.000000 0.763881 0.000000
O O15 0.848178 0.243011 0.642156
O O16 0.778751 0.000000 0.567689
O O17 0.270030 0.500000 0.057203
O O18 0.182490 0.720237 0.147154
O O19 0.261407 0.768322 0.967073
O O20 0.230740 0.000000 0.839981
O O21 0.879537 0.500000 0.732815
#
# Coordination Sequence:
#
# PCOD8063420 Si02
#       8
#     4   4   4   4   4   4   4   4
#     4  10  20  33  56  87 116 146 186 237 283 329
#     4  10  20  36  58  84 114 148 188 234 282 333
#     4  11  23  39  59  83 116 153 189 231 282 339
#     4  10  20  36  58  84 114 148 188 234 282 333
#     4  10  20  35  56  83 116 151 188 230 282 337
#     4  10  20  35  56  83 116 151 188 230 282 337
#     4  11  23  39  59  83 116 153 189 231 282 339
#     4  10  20  33  56  87 116 146 186 237 283 329
#
# _framework density 18.487100999999999
#
# number of rings (size 3 to 8) (size 9 to 14) (size 15 to 20)
#    0.000    1.750    2.500    2.250    0.000    4.500 
#    0.000    1.250    0.000    7.500    0.000    0.000 
#    0.000    0.000    0.000    0.000    0.000    0.000 
#
# Total GULP energy -396996.246820 kJ/mol
# GULP energy per Si atom -12406.132713 kJ/mol
# Density = 1.844502 g / cm^3
# Si number density = 18.487101 Si / 1000 Ang^3
#
#
#
# Elastic Constant Matrix: (Units=GPa)
#
#
# Indices 1 2 3 4 5 6 
#
# 1 91.5680 33.5024 49.6047 0.0000 15.2549 0.0000
# 2 33.5024 56.5139 28.3537 0.0000 9.8390 0.0000
# 3 49.6047 28.3537 100.9264 0.0000 18.3181 0.0000
# 4 0.0000 0.0000 0.0000 36.4247 0.0000 5.3394
# 5 15.2549 9.8390 18.3181 0.0000 32.1542 0.0000
# 6 0.0000 0.0000 0.0000 5.3394 0.0000 30.3164
#
#
#
# Elastic Compliance Matrix: (Units=1/GPa)
#
#
# Indices 1 2 3 4 5 6 
#
# 1 0.017056 -0.006621 -0.006047 0.000000 -0.002621 0.000000
# 2 -0.006621 0.023497 -0.002914 0.000000 -0.002389 0.000000
# 3 -0.006047 -0.002914 0.014517 0.000000 -0.004510 0.000000
# 4 0.000000 0.000000 0.000000 0.028181 0.000000 -0.004963
# 5 -0.002621 -0.002389 -0.004510 0.000000 0.035644 0.000000
# 6 0.000000 0.000000 0.000000 -0.004963 0.000000 0.033860
#
#
# Mechanical properties :
#
#
# Convention : Reuss Voigt Hill
#
# Bulk Modulus (GPa) = 41.82746 52.43664 47.13205
# Shear Modulus (GPa) = 26.05696 28.94891 27.50293
#
# Velocity S-wave (km/s) = 3.75836 3.96144 3.86123
# Velocity P-wave (km/s) = 6.44267 7.02492 6.74008
#
# Compressibility (1/GPa) = 0.02390774
#
# Stress axis : x y z
#
# Youngs Moduli (GPa) = 58.63152 42.55804 68.88277
#
# Poissons Ratio (x) = 0.28176 0.41654
# Poissons Ratio (y) = 0.38818 0.20069
# Poissons Ratio (z) = 0.35455 0.12399
#
# Static dielectric constant tensor:
#      x y z
#    x 3.346000 0.000000 0.131350 
#    y 0.000000 3.383070 0.000000 
#    z 0.131350 0.000000 3.323390 
# 
# 
# High freq. dielectric constant tensor:
#      x y z
#    x 1.708690 0.000000 0.021330 
#    y 0.000000 1.727110 0.000000 
#    z 0.021330 0.000000 1.712520 
# 
# From -- ./inp_files/49780.got.cif
#   From: 2010.06.25/outbox.cif.g09.slc.cpg/sg10_25_cif.got.tgz:49780.got - 2010.06.27 22:07:45.
