data_PCOD8063837
_publ_section_title
;
Structure prediction by ZEFSAII (Michael W. Deem and Ramdas Pophale) SiO2 
 PCOD8063837
Probable space group: P 2/M
;
_chemical_formula_sum "Si O2"
_cell_formula_units_Z 32
_cell_length_a 14.795232
_cell_length_b 9.316219
_cell_length_c 23.258789
_cell_angle_alpha 90.000000
_cell_angle_beta 30.055421
_cell_angle_gamma 90.000000
_cell_volume 1605.629604
_symmetry_space_group_name_H-M "P 2/M"
_symmetry_group_IT_number 10
_symmetry_cell_setting 'monoclinic'
loop_
_space_group_symop_operation_xyz
x,y,z
-x,y,-z
-x,-y,-z
x,-y,z
loop_
_atom_site_type_symbol
_atom_site_label
_atom_site_fract_x
_atom_site_fract_y
_atom_site_fract_z
Si Si1 0.762348 0.669104 0.993068
Si Si2 0.092583 0.670140 0.330014
Si Si3 0.030316 0.665189 0.232506
Si Si4 0.083953 0.652456 0.893687
Si Si5 0.606237 0.158031 0.293090
Si Si6 0.598657 0.169501 0.774823
Si Si7 0.689450 0.838300 0.378240
Si Si8 0.247098 0.833983 0.436637
O O1 0.723769 0.500000 0.026111
O O2 0.598248 0.765012 0.105764
O O3 0.803355 0.697166 0.902691
O O4 0.939950 0.724097 0.929586
O O5 0.103976 0.500000 0.334854
O O6 0.921929 0.731967 0.458823
O O7 0.085872 0.707364 0.266275
O O8 0.270059 0.748550 0.254270
O O9 0.974877 0.500000 0.259200
O O10 0.854196 0.752485 0.312897
O O11 0.144561 0.500000 0.832107
O O12 0.258815 0.742476 0.815824
O O13 0.000000 0.618076 0.000000
O O14 0.690202 0.161605 0.309685
O O15 0.397383 0.205763 0.402382
O O16 0.616808 0.000000 0.259660
O O17 0.664786 0.199209 0.673609
O O18 0.596197 0.000000 0.789561
O O19 0.500000 0.765592 0.500000
O O20 0.700049 0.000000 0.397508
O O21 0.183749 0.000000 0.475535
#
# Coordination Sequence:
#
# PCOD8063837 Si02
#       8
#     4   4   4   4   4   4   4   4
#     4  10  21  39  60  84 121 160 197 246 297 350
#     4  11  24  41  63  89 116 153 202 251 302 358
#     4  10  22  40  60  85 119 160 200 242 296 352
#     4  10  20  34  55  83 115 153 194 236 283 338
#     4  10  20  34  55  84 116 152 189 228 282 341
#     4  11  24  41  63  89 117 154 199 249 306 361
#     4  10  20  34  55  84 117 154 194 236 284 341
#     4  10  22  41  62  88 123 157 194 244 302 361
#
# _framework density 19.929877999999999
#
# number of rings (size 3 to 8) (size 9 to 14) (size 15 to 20)
#    0.000    1.750    1.250    2.625    0.000    7.000 
#    0.000    2.500    0.000    0.000    0.000    0.000 
#    0.000    0.000    0.000    0.000    0.000    0.000 
#
# Total GULP energy -396664.160178 kJ/mol
# GULP energy per Si atom -12395.755006 kJ/mol
# Density = 1.988452 g / cm^3
# Si number density = 19.929878 Si / 1000 Ang^3
#
#
#
# Elastic Constant Matrix: (Units=GPa)
#
#
# Indices 1 2 3 4 5 6 
#
# 1 89.1599 36.4931 20.6173 0.0000 -6.0065 0.0000
# 2 36.4931 77.8974 40.8440 0.0000 -7.9738 0.0000
# 3 20.6173 40.8440 89.3499 0.0000 -2.6548 0.0000
# 4 0.0000 0.0000 0.0000 23.3329 0.0000 -15.1527
# 5 -6.0065 -7.9738 -2.6548 0.0000 36.3316 0.0000
# 6 0.0000 0.0000 0.0000 -15.1527 0.0000 25.0978
#
#
#
# Elastic Compliance Matrix: (Units=1/GPa)
#
#
# Indices 1 2 3 4 5 6 
#
# 1 0.013912 -0.006255 -0.000324 0.000000 0.000903 0.000000
# 2 -0.006255 0.020064 -0.007645 0.000000 0.002811 0.000000
# 3 -0.000324 -0.007645 0.014742 0.000000 -0.000654 0.000000
# 4 0.000000 0.000000 0.000000 0.070500 0.000000 0.042564
# 5 0.000903 0.002811 -0.000654 0.000000 0.028243 0.000000
# 6 0.000000 0.000000 0.000000 0.042564 0.000000 0.065542
#
#
# Mechanical properties :
#
#
# Convention : Reuss Voigt Hill
#
# Bulk Modulus (GPa) = 49.33408 50.25733 49.79570
# Shear Modulus (GPa) = 20.14456 27.51598 23.83027
#
# Velocity S-wave (km/s) = 3.18271 3.71973 3.46165
# Velocity P-wave (km/s) = 6.18981 6.61213 6.40446
#
# Compressibility (1/GPa) = 0.02026996
#
# Stress axis : x y z
#
# Youngs Moduli (GPa) = 71.88174 49.84089 67.83387
#
# Poissons Ratio (x) = 0.31175 0.02198
# Poissons Ratio (y) = 0.44962 0.51858
# Poissons Ratio (z) = 0.02329 0.38103
#
# Static dielectric constant tensor:
#      x y z
#    x 3.960910 0.000000 -0.047570 
#    y 0.000000 3.795760 0.000000 
#    z -0.047570 0.000000 3.654250 
# 
# 
# High freq. dielectric constant tensor:
#      x y z
#    x 1.786910 0.000000 0.000670 
#    y 0.000000 1.774460 0.000000 
#    z 0.000670 0.000000 1.779690 
# 
# From -- ./inp_files/89498.got.cif
#   From: 2010.06.25/outbox.cif.g09.slc.cpg/sg10_45_cif.got.tgz:89498.got - 2010.06.27 22:07:45.
