data_PCOD8063205
_publ_section_title
;
Structure prediction by ZEFSAII (Michael W. Deem and Ramdas Pophale) SiO2 
 PCOD8063205
Probable space group: P 2/M
;
_chemical_formula_sum "Si O2"
_cell_formula_units_Z 20
_cell_length_a 13.472519
_cell_length_b 12.604465
_cell_length_c 9.666694
_cell_angle_alpha 90.000000
_cell_angle_beta 134.175040
_cell_angle_gamma 90.000000
_cell_volume 1177.335126
_symmetry_space_group_name_H-M "P 2/M"
_symmetry_group_IT_number 10
_symmetry_cell_setting 'monoclinic'
loop_
_space_group_symop_operation_xyz
x,y,z
-x,y,-z
-x,-y,-z
x,-y,z
loop_
_atom_site_type_symbol
_atom_site_label
_atom_site_fract_x
_atom_site_fract_y
_atom_site_fract_z
Si Si1 0.594523 0.302880 0.287808
Si Si2 0.683052 0.377923 0.089856
Si Si3 0.618199 0.121034 0.499999
Si Si4 0.193285 0.697120 0.287808
Si Si5 0.906804 0.377923 0.089856
O O1 0.670447 0.304030 0.212467
O O2 0.568003 0.180648 0.310211
O O3 0.694355 0.358117 0.500000
O O4 0.449850 0.364595 0.138673
O O5 0.690905 0.500000 0.144718
O O6 0.820158 0.344160 0.140316
O O7 0.500000 0.130098 0.500000
O O8 0.757793 0.180647 0.689788
O O9 0.654159 0.000000 0.499999
O O10 0.188824 0.635405 0.138674
O O11 0.042020 0.695970 0.212467
O O12 0.953813 0.500000 0.144716
#
# Coordination Sequence:
#
# PCOD8063205 Si02
#       5
#     4   4   4   4   4
#     4   9  19  33  53  74 102 132 169 212 249 294
#     4  10  20  33  50  76 109 139 167 202 246 300
#     4   9  18  34  56  77  96 126 170 215 258 300
#     4   9  19  33  53  74 102 132 169 212 249 294
#     4  10  20  33  50  76 109 139 167 202 246 300
#
# _framework density 16.987517
#
# number of rings (size 3 to 8) (size 9 to 14) (size 15 to 20)
#    1.200    1.400    0.000    3.600    0.000    4.000 
#    0.000    8.000    0.000    4.800    0.000    0.000 
#    0.000    0.000    0.000    0.000    0.000    0.000 
#
# Total GULP energy -247785.825200 kJ/mol
# GULP energy per Si atom -12389.291260 kJ/mol
# Density = 1.694885 g / cm^3
# Si number density = 16.987517 Si / 1000 Ang^3
#
#
#
# Elastic Constant Matrix: (Units=GPa)
#
#
# Indices 1 2 3 4 5 6 
#
# 1 124.2463 65.0936 23.8233 0.0000 6.3984 0.0000
# 2 65.0936 81.8165 25.8955 0.0000 4.3510 0.0000
# 3 23.8233 25.8955 74.0134 0.0000 -0.8223 0.0000
# 4 0.0000 0.0000 0.0000 16.8928 0.0000 1.2327
# 5 6.3984 4.3510 -0.8223 0.0000 22.1930 0.0000
# 6 0.0000 0.0000 0.0000 1.2327 0.0000 27.9978
#
#
#
# Elastic Compliance Matrix: (Units=1/GPa)
#
#
# Indices 1 2 3 4 5 6 
#
# 1 0.013913 -0.010730 -0.000745 0.000000 -0.001935 0.000000
# 2 -0.010730 0.022206 -0.004331 0.000000 -0.001420 0.000000
# 3 -0.000745 -0.004331 0.015285 0.000000 0.001630 0.000000
# 4 0.000000 0.000000 0.000000 0.059388 0.000000 -0.002615
# 5 -0.001935 -0.001420 0.001630 0.000000 0.045956 0.000000
# 6 0.000000 0.000000 0.000000 -0.002615 0.000000 0.035832
#
#
# Mechanical properties :
#
#
# Convention : Reuss Voigt Hill
#
# Bulk Modulus (GPa) = 50.53237 56.63346 53.58292
# Shear Modulus (GPa) = 21.66476 24.43430 23.04953
#
# Velocity S-wave (km/s) = 3.57506 3.79670 3.68754
# Velocity P-wave (km/s) = 6.84490 7.25469 7.05277
#
# Compressibility (1/GPa) = 0.01978929
#
# Stress axis : x y z
#
# Youngs Moduli (GPa) = 71.87636 45.03302 65.42560
#
# Poissons Ratio (x) = 0.48321 0.04877
# Poissons Ratio (y) = 0.77125 0.28338
# Poissons Ratio (z) = 0.05358 0.19505
#
# Static dielectric constant tensor:
#      x y z
#    x 3.237060 0.000000 0.017280 
#    y 0.000000 2.929680 0.000000 
#    z 0.017280 0.000000 3.081380 
# 
# 
# High freq. dielectric constant tensor:
#      x y z
#    x 1.666120 0.000000 0.002030 
#    y 0.000000 1.622150 0.000000 
#    z 0.002030 0.000000 1.647810 
# 
# From -- ./inp_files/50470.got.cif
#   From: 2010.06.25/outbox.cif.g09.slc.cpg/sg10_26_cif.got.tgz:50470.got - 2010.06.27 22:07:45.
