data_PCOD8063815
_publ_section_title
;
Structure prediction by ZEFSAII (Michael W. Deem and Ramdas Pophale) SiO2 
 PCOD8063815
Probable space group: P 2/M
;
_chemical_formula_sum "Si O2"
_cell_formula_units_Z 28
_cell_length_a 28.625027
_cell_length_b 8.827673
_cell_length_c 8.916160
_cell_angle_alpha 90.000000
_cell_angle_beta 140.898695
_cell_angle_gamma 90.000000
_cell_volume 1420.981223
_symmetry_space_group_name_H-M "P 2/M"
_symmetry_group_IT_number 10
_symmetry_cell_setting 'monoclinic'
loop_
_space_group_symop_operation_xyz
x,y,z
-x,y,-z
-x,-y,-z
x,-y,z
loop_
_atom_site_type_symbol
_atom_site_label
_atom_site_fract_x
_atom_site_fract_y
_atom_site_fract_z
Si Si1 0.146244 0.820628 0.196333
Si Si2 0.429669 0.675061 0.926027
Si Si3 0.286729 0.323272 0.041818
Si Si4 0.000021 0.819458 0.330665
Si Si5 0.424678 0.176189 0.228700
Si Si6 0.716833 0.324816 0.621537
Si Si7 0.852357 0.820066 0.462209
O O1 0.216559 0.773540 0.275461
O O2 0.152295 0.755934 0.380123
O O3 0.142279 0.000000 0.190784
O O4 0.072081 0.755417 0.934380
O O5 0.429563 0.500000 0.977137
O O6 0.356921 0.716720 0.651586
O O7 0.500000 0.711839 0.000000
O O8 0.433507 0.783933 0.077311
O O9 0.273899 0.500000 0.984691
O O10 0.359732 0.275031 0.136487
O O11 0.296901 0.281196 0.240640
O O12 0.216554 0.235718 0.804398
O O13 0.072622 0.758090 0.426687
O O14 0.000000 0.756256 0.500000
O O15 0.999321 0.000000 0.329476
O O16 0.500000 0.219254 0.500000
O O17 0.405115 0.000000 0.197438
O O18 0.737701 0.500000 0.655470
O O19 0.851747 0.000000 0.461059
#
# Coordination Sequence:
#
# PCOD8063815 Si02
#       7
#     4   4   4   4   4   4   4
#     4  10  20  34  55  82 111 146 185 227 278 333
#     4  10  21  39  62  85 112 149 190 229 274 330
#     4  11  23  39  59  82 111 148 188 228 275 332
#     4   9  17  31  53  80 110 146 186 227 274 330
#     4  11  24  40  59  86 117 147 183 229 278 327
#     4  10  22  38  56  81 111 144 185 232 278 327
#     4  10  20  35  56  83 114 145 183 231 279 329
#
# _framework density 19.704694
#
# number of rings (size 3 to 8) (size 9 to 14) (size 15 to 20)
#    0.000    1.857    0.000    3.857    0.000   10.000 
#    0.000    0.714    0.000    4.286    0.000    0.000 
#    0.000    0.000    0.000    0.000    0.000    0.000 
#
# Total GULP energy -347329.961720 kJ/mol
# GULP energy per Si atom -12404.641490 kJ/mol
# Density = 1.965985 g / cm^3
# Si number density = 19.704694 Si / 1000 Ang^3
#
#
#
# Elastic Constant Matrix: (Units=GPa)
#
#
# Indices 1 2 3 4 5 6 
#
# 1 123.8381 18.1787 51.1249 0.0000 3.9494 0.0000
# 2 18.1787 14.9386 18.9700 0.0000 -3.6995 0.0000
# 3 51.1249 18.9700 146.2274 0.0000 -2.3858 0.0000
# 4 0.0000 0.0000 0.0000 29.6629 0.0000 -1.8799
# 5 3.9494 -3.6995 -2.3858 0.0000 43.2169 0.0000
# 6 0.0000 0.0000 0.0000 -1.8799 0.0000 26.5285
#
#
#
# Elastic Compliance Matrix: (Units=1/GPa)
#
#
# Indices 1 2 3 4 5 6 
#
# 1 0.010662 -0.010409 -0.002410 0.000000 -0.001998 0.000000
# 2 -0.010409 0.092052 -0.008166 0.000000 0.008380 0.000000
# 3 -0.002410 -0.008166 0.008741 0.000000 0.000004 0.000000
# 4 0.000000 0.000000 0.000000 0.033864 0.000000 0.002400
# 5 -0.001998 0.008380 0.000004 0.000000 0.024039 0.000000
# 6 0.000000 0.000000 0.000000 0.002400 0.000000 0.037865
#
#
# Mechanical properties :
#
#
# Convention : Reuss Voigt Hill
#
# Bulk Modulus (GPa) = 14.39153 51.28346 32.83750
# Shear Modulus (GPa) = 18.35844 32.99703 25.67773
#
# Velocity S-wave (km/s) = 3.05565 4.09660 3.61380
# Velocity P-wave (km/s) = 4.44621 6.96123 5.84070
#
# Compressibility (1/GPa) = 0.06948530
#
# Stress axis : x y z
#
# Youngs Moduli (GPa) = 93.79444 10.86339 114.40809
#
# Poissons Ratio (x) = 0.11307 0.27571
# Poissons Ratio (y) = 0.97629 0.93425
# Poissons Ratio (z) = 0.22603 0.08871
#
# Static dielectric constant tensor:
#      x y z
#    x 4.150200 0.000000 0.602380 
#    y 0.000000 3.319900 0.000000 
#    z 0.602380 0.000000 4.966010 
# 
# 
# High freq. dielectric constant tensor:
#      x y z
#    x 1.786060 0.000000 -0.000920 
#    y 0.000000 1.742730 0.000000 
#    z -0.000920 0.000000 1.788860 
# 
# From -- ./inp_files/34260.got.cif
#   From: 2010.06.25/outbox.cif.g09.slc.cpg/sg10_18_cif.got.tgz:34260.got - 2010.06.27 22:07:45.
