data_PCOD8063462
_publ_section_title
;
Structure prediction by ZEFSAII (Michael W. Deem and Ramdas Pophale) SiO2 
 PCOD8063462
Probable space group: P 2/M
;
_chemical_formula_sum "Si O2"
_cell_formula_units_Z 28
_cell_length_a 25.111342
_cell_length_b 9.102881
_cell_length_c 9.454478
_cell_angle_alpha 90.000000
_cell_angle_beta 45.546411
_cell_angle_gamma 90.000000
_cell_volume 1542.672792
_symmetry_space_group_name_H-M "P 2/M"
_symmetry_group_IT_number 10
_symmetry_cell_setting 'monoclinic'
loop_
_space_group_symop_operation_xyz
x,y,z
-x,y,-z
-x,-y,-z
x,-y,z
loop_
_atom_site_type_symbol
_atom_site_label
_atom_site_fract_x
_atom_site_fract_y
_atom_site_fract_z
Si Si1 0.425426 0.166469 0.047934
Si Si2 0.499981 0.670854 0.336041
Si Si3 0.894090 0.332302 0.813036
Si Si4 0.204765 0.173597 0.800637
Si Si5 0.647154 0.671693 0.570025
Si Si6 0.941115 0.666723 0.415771
Si Si7 0.081434 0.173108 0.808615
O O1 0.365718 0.257701 0.251003
O O2 0.396744 0.000000 0.078167
O O3 0.500000 0.167860 0.000000
O O4 0.438398 0.240210 0.869871
O O5 0.500000 0.724454 0.500000
O O6 0.521715 0.500000 0.287739
O O7 0.419744 0.700339 0.415512
O O8 0.879342 0.500000 0.888234
O O9 0.893282 0.320783 0.646260
O O10 0.974202 0.276627 0.720633
O O11 0.828397 0.226055 0.988111
O O12 0.282142 0.253202 0.631639
O O13 0.144727 0.228319 0.797195
O O14 0.217384 0.000000 0.776582
O O15 0.660929 0.500000 0.567267
O O16 0.943269 0.500000 0.358108
O O17 0.897948 0.766581 0.383755
O O18 0.079326 0.000000 0.809029
O O19 0.000000 0.237436 0.000000
#
# Coordination Sequence:
#
# PCOD8063462 Si02
#       7
#     4   4   4   4   4   4   4
#     4   9  17  31  53  80 109 139 172 209 250 301
#     4   9  18  34  57  84 110 138 174 213 254 303
#     4   9  18  33  51  74 101 130 168 214 263 313
#     4  11  22  35  52  75 105 139 175 217 265 315
#     4  10  20  35  55  78 106 140 176 214 258 310
#     4   9  18  32  52  75  98 127 169 218 262 311
#     4  10  20  34  50  73 102 132 171 217 263 310
#
# _framework density 18.150316
#
# number of rings (size 3 to 8) (size 9 to 14) (size 15 to 20)
#    0.000    2.429    1.429    2.143    0.000    4.571 
#    0.000    2.857    0.000    1.714    0.000    0.000 
#    0.000    0.000    0.000    0.000    0.000    0.000 
#
# Total GULP energy -347171.893315 kJ/mol
# GULP energy per Si atom -12398.996190 kJ/mol
# Density = 1.810901 g / cm^3
# Si number density = 18.150316 Si / 1000 Ang^3
#
#
#
# Elastic Constant Matrix: (Units=GPa)
#
#
# Indices 1 2 3 4 5 6 
#
# 1 53.8660 31.6900 38.2290 0.0000 10.1830 0.0000
# 2 31.6900 71.9134 56.1580 0.0000 0.7975 0.0000
# 3 38.2290 56.1580 128.4266 0.0000 5.7280 0.0000
# 4 0.0000 0.0000 0.0000 24.4741 0.0000 0.4861
# 5 10.1830 0.7975 5.7280 0.0000 29.9476 0.0000
# 6 0.0000 0.0000 0.0000 0.4861 0.0000 24.8334
#
#
#
# Elastic Compliance Matrix: (Units=1/GPa)
#
#
# Indices 1 2 3 4 5 6 
#
# 1 0.028565 -0.009345 -0.004029 0.000000 -0.008693 0.000000
# 2 -0.009345 0.024217 -0.007989 0.000000 0.004061 0.000000
# 3 -0.004029 -0.007989 0.012515 0.000000 -0.000811 0.000000
# 4 0.000000 0.000000 0.000000 0.040875 0.000000 -0.000800
# 5 -0.008693 0.004061 -0.000811 0.000000 0.036395 0.000000
# 6 0.000000 0.000000 0.000000 -0.000800 0.000000 0.040284
#
#
# Mechanical properties :
#
#
# Convention : Reuss Voigt Hill
#
# Bulk Modulus (GPa) = 44.30292 56.26221 50.28256
# Shear Modulus (GPa) = 21.44980 24.39296 22.92138
#
# Velocity S-wave (km/s) = 3.44144 3.66996 3.55753
# Velocity P-wave (km/s) = 6.34454 7.00167 6.68119
#
# Compressibility (1/GPa) = 0.02257188
#
# Stress axis : x y z
#
# Youngs Moduli (GPa) = 35.00759 41.29259 79.90137
#
# Poissons Ratio (x) = 0.38589 0.32191
# Poissons Ratio (y) = 0.32715 0.63833
# Poissons Ratio (z) = 0.14104 0.32989
#
# Static dielectric constant tensor:
#      x y z
#    x 3.175810 0.000000 0.128280 
#    y 0.000000 3.353780 0.000000 
#    z 0.128280 0.000000 3.382060 
# 
# 
# High freq. dielectric constant tensor:
#      x y z
#    x 1.674960 0.000000 0.013860 
#    y 0.000000 1.705800 0.000000 
#    z 0.013860 0.000000 1.707270 
# 
# From -- ./inp_files/37095.got.cif
#   From: 2010.06.25/outbox.cif.g09.slc.cpg/sg10_19_cif.got.tgz:37095.got - 2010.06.27 22:07:45.
