data_PCOD8063423
_publ_section_title
;
Structure prediction by ZEFSAII (Michael W. Deem and Ramdas Pophale) SiO2 
 PCOD8063423
Probable space group: P 2/M
;
_chemical_formula_sum "Si O2"
_cell_formula_units_Z 18
_cell_length_a 7.510504
_cell_length_b 18.454903
_cell_length_c 5.400870
_cell_angle_alpha 90.000000
_cell_angle_beta 60.850126
_cell_angle_gamma 90.000000
_cell_volume 653.780824
_symmetry_space_group_name_H-M "P 2/M"
_symmetry_group_IT_number 10
_symmetry_cell_setting 'monoclinic'
loop_
_space_group_symop_operation_xyz
x,y,z
-x,y,-z
-x,-y,-z
x,-y,z
loop_
_atom_site_type_symbol
_atom_site_label
_atom_site_fract_x
_atom_site_fract_y
_atom_site_fract_z
Si Si1 0.782420 0.079855 0.275519
Si Si2 0.724939 0.646820 0.316410
Si Si3 0.323749 0.212109 0.928643
Si Si4 0.000000 0.167256 0.500000
Si Si5 0.739886 0.583650 0.807698
O O1 0.634582 0.131632 0.211475
O O2 0.818411 0.116331 0.517980
O O3 0.683256 0.000000 0.368896
O O4 0.000000 0.074055 0.000000
O O5 0.500000 0.611122 0.500000
O O6 0.698486 0.733286 0.289101
O O7 0.834325 0.626144 0.503391
O O8 0.839317 0.613864 0.996317
O O9 0.500000 0.236550 0.000000
O O10 0.105516 0.215980 0.217228
O O11 0.793906 0.500000 0.736687
O O12 0.500000 0.598869 0.000000
#
# Coordination Sequence:
#
# PCOD8063423 Si02
#       5
#     4   4   4   2   4
#     4   9  20  40  64  91 126 166 217 273 326 387
#     4  10  20  33  56  89 130 171 212 268 324 382
#     4  11  24  39  64  93 132 169 215 269 332 392
#     4  10  23  42  64  92 123 170 222 268 329 392
#     4   9  17  31  53  86 128 171 214 263 321 384
#
# _framework density 27.532160999999999
#
# number of rings (size 3 to 8) (size 9 to 14) (size 15 to 20)
#    0.000    2.222    0.000    3.000    6.222    4.000 
#    0.000    1.111    0.000    0.000    0.000    4.667 
#    0.000    0.000    0.000    0.000    0.000    0.000 
#
# Total GULP energy -223141.950548 kJ/mol
# GULP energy per Si atom -12396.775030 kJ/mol
# Density = 2.746950 g / cm^3
# Si number density = 27.532161 Si / 1000 Ang^3
#
#
#
# Elastic Constant Matrix: (Units=GPa)
#
#
# Indices 1 2 3 4 5 6 
#
# 1 89.2841 41.5779 38.0225 0.0000 33.0881 0.0000
# 2 41.5779 196.9425 58.6028 0.0000 42.9432 0.0000
# 3 38.0225 58.6028 177.6974 0.0000 37.9418 0.0000
# 4 0.0000 0.0000 0.0000 32.8771 0.0000 28.4833
# 5 33.0881 42.9432 37.9418 0.0000 46.4794 0.0000
# 6 0.0000 0.0000 0.0000 28.4833 0.0000 40.0174
#
#
#
# Elastic Compliance Matrix: (Units=1/GPa)
#
#
# Indices 1 2 3 4 5 6 
#
# 1 0.015541 -0.000936 -0.001016 0.000000 -0.009369 0.000000
# 2 -0.000936 0.006572 -0.000984 0.000000 -0.004602 0.000000
# 3 -0.001016 -0.000984 0.007050 0.000000 -0.004122 0.000000
# 4 0.000000 0.000000 0.000000 0.079344 0.000000 -0.056475
# 5 -0.009369 -0.004602 -0.004122 0.000000 0.035801 0.000000
# 6 0.000000 0.000000 0.000000 -0.056475 0.000000 0.065186
#
#
# Mechanical properties :
#
#
# Convention : Reuss Voigt Hill
#
# Bulk Modulus (GPa) = 42.93756 82.25895 62.59826
# Shear Modulus (GPa) = 22.40854 45.58950 33.99902
#
# Velocity S-wave (km/s) = 2.85600 4.07364 3.51790
# Velocity P-wave (km/s) = 5.14829 7.21584 6.26790
#
# Compressibility (1/GPa) = 0.02328963
#
# Stress axis : x y z
#
# Youngs Moduli (GPa) = 64.34642 152.17191 141.84930
#
# Poissons Ratio (x) = 0.14237 0.14415
# Poissons Ratio (y) = 0.06020 0.13964
# Poissons Ratio (z) = 0.06539 0.14980
#
# Static dielectric constant tensor:
#      x y z
#    x 4.754400 0.000000 0.206620 
#    y 0.000000 4.915230 0.000000 
#    z 0.206620 0.000000 5.404780 
# 
# 
# High freq. dielectric constant tensor:
#      x y z
#    x 2.102880 0.000000 0.002650 
#    y 0.000000 2.093220 0.000000 
#    z 0.002650 0.000000 2.132050 
# 
# From -- ./inp_files/4624.got.cif
#   From: 2010.06.25/outbox.cif.g09.slc.cpg/sg10_3_cif.got.tgz:4624.got - 2010.06.27 22:07:45.
