data_PCOD8063131
_publ_section_title
;
Structure prediction by ZEFSAII (Michael W. Deem and Ramdas Pophale) SiO2 
 PCOD8063131
Probable space group: P 2/M
;
_chemical_formula_sum "Si O2"
_cell_formula_units_Z 32
_cell_length_a 11.614556
_cell_length_b 9.072272
_cell_length_c 17.564913
_cell_angle_alpha 90.000000
_cell_angle_beta 64.062303
_cell_angle_gamma 90.000000
_cell_volume 1664.389158
_symmetry_space_group_name_H-M "P 2/M"
_symmetry_group_IT_number 10
_symmetry_cell_setting 'monoclinic'
loop_
_space_group_symop_operation_xyz
x,y,z
-x,y,-z
-x,-y,-z
x,-y,z
loop_
_atom_site_type_symbol
_atom_site_label
_atom_site_fract_x
_atom_site_fract_y
_atom_site_fract_z
Si Si1 0.296664 0.329381 0.753722
Si Si2 0.643363 0.827168 0.111813
Si Si3 0.477798 0.324499 0.421375
Si Si4 0.013333 0.329329 0.782855
Si Si5 0.021420 0.674921 0.375757
Si Si6 0.576782 0.334444 0.899762
Si Si7 0.202682 0.324832 0.452816
Si Si8 0.207168 0.827416 0.083415
O O1 0.318112 0.500000 0.769431
O O2 0.292415 0.232806 0.830744
O O3 0.407953 0.270317 0.666067
O O4 0.163772 0.305650 0.749047
O O5 0.506469 0.748600 0.139801
O O6 0.618490 0.000000 0.124691
O O7 0.739815 0.788618 0.015304
O O8 0.500000 0.262083 0.500000
O O9 0.475197 0.500000 0.424794
O O10 0.344312 0.260262 0.426658
O O11 0.975891 0.500000 0.803048
O O12 0.974403 0.265059 0.711310
O O13 0.936160 0.236626 0.868585
O O14 0.010566 0.500000 0.376765
O O15 0.149224 0.723687 0.385046
O O16 0.894759 0.736159 0.454900
O O17 0.606332 0.500000 0.862535
O O18 0.709075 0.249097 0.874574
O O19 0.500000 0.336395 0.000000
O O20 0.207796 0.500000 0.455998
O O21 0.208587 0.000000 0.097899
#
# Coordination Sequence:
#
# PCOD8063131 Si02
#       8
#     4   4   4   4   4   4   4   4
#     4  10  21  34  50  75 104 136 178 226 271 313
#     4  10  21  37  55  75 104 139 174 215 261 314
#     4   9  16  27  45  70 101 135 170 213 267 322
#     4  10  20  33  49  72 103 137 176 225 273 311
#     4   8  14  25  42  68 101 131 164 212 265 313
#     4   9  17  32  56  82 105 130 164 209 260 310
#     4   8  13  23  42  68  98 132 166 203 256 318
#     4  10  21  36  54  76 102 137 178 215 260 318
#
# _framework density 19.226272999999999
#
# number of rings (size 3 to 8) (size 9 to 14) (size 15 to 20)
#    0.000    2.750    0.000    2.625    0.000    8.000 
#    0.000    5.000    0.000    0.375    0.000    2.625 
#    0.000    0.000    0.000    0.000    0.000    0.000 
#
# Total GULP energy -396757.028005 kJ/mol
# GULP energy per Si atom -12398.657125 kJ/mol
# Density = 1.918251 g / cm^3
# Si number density = 19.226273 Si / 1000 Ang^3
#
#
#
# Elastic Constant Matrix: (Units=GPa)
#
#
# Indices 1 2 3 4 5 6 
#
# 1 136.2007 36.1389 69.1191 0.0000 -2.3452 0.0000
# 2 36.1389 58.6284 40.9476 0.0000 1.5761 0.0000
# 3 69.1191 40.9476 107.0494 0.0000 1.8259 0.0000
# 4 0.0000 0.0000 0.0000 10.7760 0.0000 0.8301
# 5 -2.3452 1.5761 1.8259 0.0000 36.3898 0.0000
# 6 0.0000 0.0000 0.0000 0.8301 0.0000 19.3556
#
#
#
# Elastic Compliance Matrix: (Units=1/GPa)
#
#
# Indices 1 2 3 4 5 6 
#
# 1 0.011236 -0.002560 -0.006295 0.000000 0.001151 0.000000
# 2 -0.002560 0.023869 -0.007463 0.000000 -0.000824 0.000000
# 3 -0.006295 -0.007463 0.016276 0.000000 -0.000899 0.000000
# 4 0.000000 0.000000 0.000000 0.093106 0.000000 -0.003993
# 5 0.001151 -0.000824 -0.000899 0.000000 0.027635 0.000000
# 6 0.000000 0.000000 0.000000 -0.003993 0.000000 0.051836
#
#
# Mechanical properties :
#
#
# Convention : Reuss Voigt Hill
#
# Bulk Modulus (GPa) = 53.34901 66.03220 59.69060
# Shear Modulus (GPa) = 19.02271 23.68247 21.35259
#
# Velocity S-wave (km/s) = 3.14891 3.51348 3.33617
# Velocity P-wave (km/s) = 6.40539 7.13293 6.77893
#
# Compressibility (1/GPa) = 0.01874449
#
# Stress axis : x y z
#
# Youngs Moduli (GPa) = 89.00106 41.89480 61.43967
#
# Poissons Ratio (x) = 0.10726 0.38676
# Poissons Ratio (y) = 0.22786 0.45854
# Poissons Ratio (z) = 0.56026 0.31267
#
# Static dielectric constant tensor:
#      x y z
#    x 3.701630 0.000000 -0.003010 
#    y 0.000000 3.081270 0.000000 
#    z -0.003010 0.000000 3.507370 
# 
# 
# High freq. dielectric constant tensor:
#      x y z
#    x 1.757860 0.000000 -0.001200 
#    y 0.000000 1.699940 0.000000 
#    z -0.001200 0.000000 1.743770 
# 
# From -- ./inp_files/76176.got.cif
#   From: 2010.06.25/outbox.cif.g09.slc.cpg/sg10_39_cif.got.tgz:76176.got - 2010.06.27 22:07:45.
