data_PCOD8063644
_publ_section_title
;
Structure prediction by ZEFSAII (Michael W. Deem and Ramdas Pophale) SiO2 
 PCOD8063644
Probable space group: P 2/M
;
_chemical_formula_sum "Si O2"
_cell_formula_units_Z 32
_cell_length_a 22.494104
_cell_length_b 9.288384
_cell_length_c 15.187379
_cell_angle_alpha 90.000000
_cell_angle_beta 148.633855
_cell_angle_gamma 90.000000
_cell_volume 1651.645197
_symmetry_space_group_name_H-M "P 2/M"
_symmetry_group_IT_number 10
_symmetry_cell_setting 'monoclinic'
loop_
_space_group_symop_operation_xyz
x,y,z
-x,y,-z
-x,-y,-z
x,-y,z
loop_
_atom_site_type_symbol
_atom_site_label
_atom_site_fract_x
_atom_site_fract_y
_atom_site_fract_z
Si Si1 0.062429 0.334884 0.856580
Si Si2 0.307731 0.168534 0.470937
Si Si3 0.203401 0.157675 0.704985
Si Si4 0.836351 0.831435 0.543271
Si Si5 0.873090 0.335972 0.868954
Si Si6 0.215775 0.669636 0.888814
Si Si7 0.532534 0.841744 0.946965
Si Si8 0.477174 0.331656 0.227875
O O1 0.027199 0.500000 0.797245
O O2 0.136891 0.277906 0.868945
O O3 0.947600 0.245125 0.721855
O O4 0.137834 0.317946 0.039686
O O5 0.268543 0.201881 0.522665
O O6 0.213547 0.226731 0.285035
O O7 0.428142 0.244820 0.596085
O O8 0.322217 0.000000 0.472986
O O9 0.187408 0.224602 0.586716
O O10 0.161660 0.261541 0.731241
O O11 0.143173 0.000000 0.635403
O O12 0.334486 0.135018 0.890373
O O13 0.860634 0.000000 0.571665
O O14 0.844736 0.500000 0.804427
O O15 0.000000 0.294447 0.000000
O O16 0.213231 0.500000 0.870488
O O17 0.345868 0.715094 0.079445
O O18 0.490527 0.716939 0.829739
O O19 0.474271 0.000000 0.853956
O O20 0.500000 0.782145 0.000000
O O21 0.496279 0.500000 0.266161
#
# Coordination Sequence:
#
# PCOD8063644 Si02
#       8
#     4   4   4   4   4   4   4   4
#     4  10  21  38  59  80 107 142 179 223 274 324
#     4  11  22  36  57  84 114 143 176 221 275 329
#     4   9  18  32  50  74 106 145 183 222 264 311
#     4  10  21  35  53  81 113 143 180 222 270 323
#     4  10  20  37  60  85 110 137 175 221 274 329
#     4   9  20  38  56  77 107 146 187 223 263 315
#     4   9  16  29  49  71 102 142 183 224 271 320
#     4  10  20  34  53  77 107 142 183 225 266 316
#
# _framework density 19.37462
#
# number of rings (size 3 to 8) (size 9 to 14) (size 15 to 20)
#    0.000    2.250    1.250    1.500    0.000    5.500 
#    0.000    5.625    0.000    3.750    0.000    0.000 
#    0.000    0.000    0.000    0.000    0.000    0.000 
#
# Total GULP energy -396576.265198 kJ/mol
# GULP energy per Si atom -12393.008287 kJ/mol
# Density = 1.933052 g / cm^3
# Si number density = 19.374620 Si / 1000 Ang^3
#
#
#
# Elastic Constant Matrix: (Units=GPa)
#
#
# Indices 1 2 3 4 5 6 
#
# 1 59.6900 17.5908 2.4951 0.0000 -8.3058 0.0000
# 2 17.5908 57.6526 33.0087 0.0000 3.6379 0.0000
# 3 2.4951 33.0087 71.4451 0.0000 -4.0197 0.0000
# 4 0.0000 0.0000 0.0000 36.7417 0.0000 -6.2701
# 5 -8.3058 3.6379 -4.0197 0.0000 27.9357 0.0000
# 6 0.0000 0.0000 0.0000 -6.2701 0.0000 24.4366
#
#
#
# Elastic Compliance Matrix: (Units=1/GPa)
#
#
# Indices 1 2 3 4 5 6 
#
# 1 0.020282 -0.008865 0.003823 0.000000 0.007735 0.000000
# 2 -0.008865 0.028081 -0.013124 0.000000 -0.008181 0.000000
# 3 0.003823 -0.013124 0.020251 0.000000 0.005760 0.000000
# 4 0.000000 0.000000 0.000000 0.028463 0.000000 0.007303
# 5 0.007735 -0.008181 0.005760 0.000000 0.039990 0.000000
# 6 0.000000 0.000000 0.000000 0.007303 0.000000 0.042796
#
#
# Mechanical properties :
#
#
# Convention : Reuss Voigt Hill
#
# Bulk Modulus (GPa) = 30.97870 32.77519 31.87695
# Shear Modulus (GPa) = 22.03053 26.86900 24.44977
#
# Velocity S-wave (km/s) = 3.37572 3.72804 3.55624
# Velocity P-wave (km/s) = 5.58731 5.95687 5.77505
#
# Compressibility (1/GPa) = 0.03228024
#
# Stress axis : x y z
#
# Youngs Moduli (GPa) = 49.30400 35.61163 49.38033
#
# Poissons Ratio (x) = 0.31571 -0.18877
# Poissons Ratio (y) = 0.43709 0.64809
# Poissons Ratio (z) = -0.18848 0.46738
#
# Static dielectric constant tensor:
#      x y z
#    x 3.431420 0.000000 0.014130 
#    y 0.000000 3.598010 0.000000 
#    z 0.014130 0.000000 3.522200 
# 
# 
# High freq. dielectric constant tensor:
#      x y z
#    x 1.742490 0.000000 0.000830 
#    y 0.000000 1.746960 0.000000 
#    z 0.000830 0.000000 1.753800 
# 
# From -- ./inp_files/71615.got.cif
#   From: 2010.06.25/outbox.cif.g09.slc.cpg/sg10_36_cif.got.tgz:71615.got - 2010.06.27 22:07:45.
