data_PCOD8063447
_publ_section_title
;
Structure prediction by ZEFSAII (Michael W. Deem and Ramdas Pophale) SiO2 
 PCOD8063447
Probable space group: P 2/M
;
_chemical_formula_sum "Si O2"
_cell_formula_units_Z 28
_cell_length_a 19.418310
_cell_length_b 9.373794
_cell_length_c 24.524434
_cell_angle_alpha 90.000000
_cell_angle_beta 158.566681
_cell_angle_gamma 90.000000
_cell_volume 1631.232817
_symmetry_space_group_name_H-M "P 2/M"
_symmetry_group_IT_number 10
_symmetry_cell_setting 'monoclinic'
loop_
_space_group_symop_operation_xyz
x,y,z
-x,y,-z
-x,-y,-z
x,-y,z
loop_
_atom_site_type_symbol
_atom_site_label
_atom_site_fract_x
_atom_site_fract_y
_atom_site_fract_z
Si Si1 0.087829 0.662762 0.647924
Si Si2 0.784845 0.655731 0.858278
Si Si3 0.340796 0.832472 0.039424
Si Si4 0.313604 0.834348 0.892637
Si Si5 0.323778 0.670032 0.335361
Si Si6 0.294179 0.336069 0.690463
Si Si7 0.908314 0.329308 0.062521
O O1 0.136861 0.500000 0.697010
O O2 0.133554 0.756186 0.734416
O O3 0.212042 0.714428 0.688029
O O4 0.867282 0.680759 0.473676
O O5 0.692361 0.500000 0.797607
O O6 0.675371 0.733009 0.726847
O O7 0.789535 0.728863 0.921717
O O8 0.000000 0.636101 0.000000
O O9 0.537370 0.765874 0.204324
O O10 0.337853 0.000000 0.050095
O O11 0.319779 0.798586 0.960468
O O12 0.168962 0.753961 0.942404
O O13 0.289478 0.000000 0.863172
O O14 0.500000 0.775225 0.000000
O O15 0.500000 0.732079 0.500000
O O16 0.337148 0.500000 0.340913
O O17 0.128621 0.712769 0.220715
O O18 0.363153 0.500000 0.744264
O O19 0.885006 0.500000 0.051470
#
# Coordination Sequence:
#
# PCOD8063447 Si02
#       7
#     4   4   4   4   4   4   4
#     4   9  18  32  52  75  95 117 154 208 260 301
#     4   7  11  22  42  67  93 121 151 184 228 280
#     4  11  22  34  49  70  99 135 172 209 249 297
#     4  10  20  34  49  69  97 132 174 211 247 297
#     4   8  13  24  47  77 100 120 155 199 238 283
#     4   9  18  33  51  73  97 120 154 203 256 304
#     4   9  17  30  48  70  98 129 159 198 246 292
#
# _framework density 17.164932
#
# number of rings (size 3 to 8) (size 9 to 14) (size 15 to 20)
#    0.000    3.000    1.429    3.000    0.000    2.000 
#    0.000    2.857    0.000    7.714    0.000    0.000 
#    0.000    0.000    0.000    0.000    0.000    0.000 
#
# Total GULP energy -346942.375690 kJ/mol
# GULP energy per Si atom -12390.799132 kJ/mol
# Density = 1.712586 g / cm^3
# Si number density = 17.164932 Si / 1000 Ang^3
#
#
#
# Elastic Constant Matrix: (Units=GPa)
#
#
# Indices 1 2 3 4 5 6 
#
# 1 99.6122 42.1456 55.1812 0.0000 -4.7511 0.0000
# 2 42.1456 46.1462 39.2074 0.0000 -2.4491 0.0000
# 3 55.1812 39.2074 110.0142 0.0000 -13.1379 0.0000
# 4 0.0000 0.0000 0.0000 12.4741 0.0000 -7.9182
# 5 -4.7511 -2.4491 -13.1379 0.0000 25.8374 0.0000
# 6 0.0000 0.0000 0.0000 -7.9182 0.0000 17.4940
#
#
#
# Elastic Compliance Matrix: (Units=1/GPa)
#
#
# Indices 1 2 3 4 5 6 
#
# 1 0.017786 -0.012413 -0.004522 0.000000 -0.000205 0.000000
# 2 -0.012413 0.039945 -0.008336 0.000000 -0.002735 0.000000
# 3 -0.004522 -0.008336 0.015049 0.000000 0.006030 0.000000
# 4 0.000000 0.000000 0.000000 0.112484 0.000000 0.050913
# 5 -0.000205 -0.002735 0.006030 0.000000 0.041473 0.000000
# 6 0.000000 0.000000 0.000000 0.050913 0.000000 0.080206
#
#
# Mechanical properties :
#
#
# Convention : Reuss Voigt Hill
#
# Bulk Modulus (GPa) = 44.96913 58.76012 51.86462
# Shear Modulus (GPa) = 13.70249 19.11032 16.40640
#
# Velocity S-wave (km/s) = 2.82846 3.34029 3.09497
# Velocity P-wave (km/s) = 6.07635 7.01311 6.56147
#
# Compressibility (1/GPa) = 0.02223748
#
# Stress axis : x y z
#
# Youngs Moduli (GPa) = 56.22410 25.03467 66.45036
#
# Poissons Ratio (x) = 0.31076 0.30048
# Poissons Ratio (y) = 0.69791 0.55394
# Poissons Ratio (z) = 0.25424 0.20869
#
# Static dielectric constant tensor:
#      x y z
#    x 3.230650 0.000000 -0.242940 
#    y 0.000000 2.845460 0.000000 
#    z -0.242940 0.000000 3.270190 
# 
# 
# High freq. dielectric constant tensor:
#      x y z
#    x 1.653790 0.000000 -0.016300 
#    y 0.000000 1.625410 0.000000 
#    z -0.016300 0.000000 1.657550 
# 
# From -- ./inp_files/79209.got.cif
#   From: 2010.06.25/outbox.cif.g09.slc.cpg/sg10_40_cif.got.tgz:79209.got - 2010.06.27 22:07:45.
