data_PCOD8063158
_publ_section_title
;
Structure prediction by ZEFSAII (Michael W. Deem and Ramdas Pophale) SiO2 
 PCOD8063158
Probable space group: P 2/M
;
_chemical_formula_sum "Si O2"
_cell_formula_units_Z 28
_cell_length_a 14.000162
_cell_length_b 9.077240
_cell_length_c 13.878956
_cell_angle_alpha 90.000000
_cell_angle_beta 119.322637
_cell_angle_gamma 90.000000
_cell_volume 1537.794590
_symmetry_space_group_name_H-M "P 2/M"
_symmetry_group_IT_number 10
_symmetry_cell_setting 'monoclinic'
loop_
_space_group_symop_operation_xyz
x,y,z
-x,y,-z
-x,-y,-z
x,-y,z
loop_
_atom_site_type_symbol
_atom_site_label
_atom_site_fract_x
_atom_site_fract_y
_atom_site_fract_z
Si Si1 0.644702 0.828643 0.158963
Si Si2 0.635719 0.325838 0.751997
Si Si3 0.604357 0.172433 0.925475
Si Si4 0.240101 0.174010 0.358131
Si Si5 0.928904 0.672349 0.606481
Si Si6 0.841069 0.328349 0.356795
Si Si7 0.443127 0.839325 0.573484
O O1 0.524489 0.790514 0.138503
O O2 0.731463 0.750135 0.269397
O O3 0.667568 0.000000 0.177075
O O4 0.655908 0.778770 0.053110
O O5 0.647090 0.500000 0.751529
O O6 0.664602 0.267688 0.872927
O O7 0.719982 0.252753 0.719293
O O8 0.509450 0.279660 0.668352
O O9 0.623970 0.000000 0.916062
O O10 0.121419 0.235868 0.329318
O O11 0.319920 0.213267 0.488244
O O12 0.235952 0.000000 0.336662
O O13 0.908578 0.500000 0.614112
O O14 0.872714 0.724132 0.479311
O O15 0.058269 0.707900 0.665561
O O16 0.817269 0.500000 0.345232
O O17 0.500000 0.861494 0.500000
O O18 0.443433 0.000000 0.626840
#
# Coordination Sequence:
#
# PCOD8063158 Si02
#       7
#     4   4   4   4   4   4   4
#     4   9  19  35  56  77 100 135 174 212 255 301
#     4  11  21  31  48  74 102 135 171 208 253 307
#     4   9  19  36  53  74 105 137 170 210 256 304
#     4  10  20  33  50  72 100 136 173 212 253 297
#     4   9  19  35  52  75 107 140 170 204 254 309
#     4   9  19  35  54  76 106 138 167 209 260 302
#     4   8  16  30  44  63  95 132 167 201 244 292
#
# _framework density 18.207894
#
# number of rings (size 3 to 8) (size 9 to 14) (size 15 to 20)
#    0.000    2.714    0.000    4.286    2.000    5.429 
#    0.000    2.857    0.000    0.857    0.000    6.000 
#    0.000    0.000    0.000    0.000    0.000    0.000 
#
# Total GULP energy -347089.140983 kJ/mol
# GULP energy per Si atom -12396.040749 kJ/mol
# Density = 1.816645 g / cm^3
# Si number density = 18.207894 Si / 1000 Ang^3
#
#
#
# Elastic Constant Matrix: (Units=GPa)
#
#
# Indices 1 2 3 4 5 6 
#
# 1 70.4299 35.6598 12.2361 0.0000 -13.3722 0.0000
# 2 35.6598 78.4613 22.8500 0.0000 -11.4505 0.0000
# 3 12.2361 22.8500 53.0009 0.0000 -4.0289 0.0000
# 4 0.0000 0.0000 0.0000 24.3411 0.0000 -11.9012
# 5 -13.3722 -11.4505 -4.0289 0.0000 27.7489 0.0000
# 6 0.0000 0.0000 0.0000 -11.9012 0.0000 40.2095
#
#
#
# Elastic Compliance Matrix: (Units=1/GPa)
#
#
# Indices 1 2 3 4 5 6 
#
# 1 0.019377 -0.007725 -0.000683 0.000000 0.006051 0.000000
# 2 -0.007725 0.018423 -0.005930 0.000000 0.003019 0.000000
# 3 -0.000683 -0.005930 0.021609 0.000000 0.000361 0.000000
# 4 0.000000 0.000000 0.000000 0.048034 0.000000 0.014217
# 5 0.006051 0.003019 0.000361 0.000000 0.040252 0.000000
# 6 0.000000 0.000000 0.000000 0.014217 0.000000 0.029078
#
#
# Mechanical properties :
#
#
# Convention : Reuss Voigt Hill
#
# Bulk Modulus (GPa) = 32.53699 38.15378 35.34539
# Shear Modulus (GPa) = 23.18098 27.20298 25.19198
#
# Velocity S-wave (km/s) = 3.57196 3.86945 3.72368
# Velocity P-wave (km/s) = 5.90935 6.40028 6.15971
#
# Compressibility (1/GPa) = 0.03073425
#
# Stress axis : x y z
#
# Youngs Moduli (GPa) = 51.60689 54.27867 46.27622
#
# Poissons Ratio (x) = 0.41929 0.03162
# Poissons Ratio (y) = 0.39865 0.27442
# Poissons Ratio (z) = 0.03526 0.32187
#
# Static dielectric constant tensor:
#      x y z
#    x 3.386080 0.000000 0.125960 
#    y 0.000000 3.188470 0.000000 
#    z 0.125960 0.000000 3.907390 
# 
# 
# High freq. dielectric constant tensor:
#      x y z
#    x 1.702640 0.000000 -0.013350 
#    y 0.000000 1.699280 0.000000 
#    z -0.013350 0.000000 1.680630 
# 
# From -- ./inp_files/66655.got.cif
#   From: 2010.06.25/outbox.cif.g09.slc.cpg/sg10_34_cif.got.tgz:66655.got - 2010.06.27 22:07:45.
