data_PCOD8063465
_publ_section_title
;
Structure prediction by ZEFSAII (Michael W. Deem and Ramdas Pophale) SiO2 
 PCOD8063465
Probable space group: P 2/M
;
_chemical_formula_sum "Si O2"
_cell_formula_units_Z 28
_cell_length_a 27.167805
_cell_length_b 8.956405
_cell_length_c 21.118587
_cell_angle_alpha 90.000000
_cell_angle_beta 162.495204
_cell_angle_gamma 90.000000
_cell_volume 1545.646649
_symmetry_space_group_name_H-M "P 2/M"
_symmetry_group_IT_number 10
_symmetry_cell_setting 'monoclinic'
loop_
_space_group_symop_operation_xyz
x,y,z
-x,y,-z
-x,-y,-z
x,-y,z
loop_
_atom_site_type_symbol
_atom_site_label
_atom_site_fract_x
_atom_site_fract_y
_atom_site_fract_z
Si Si1 0.822721 0.676362 0.810876
Si Si2 0.241402 0.169926 0.683418
Si Si3 0.946674 0.324273 0.366616
Si Si4 0.490692 0.177768 0.635682
Si Si5 0.320474 0.166227 0.250559
Si Si6 0.592622 0.324046 0.890244
Si Si7 0.502114 0.829174 0.106457
O O1 0.798704 0.500000 0.779082
O O2 0.682659 0.752857 0.597281
O O3 0.802167 0.729260 0.859199
O O4 0.000000 0.722237 0.000000
O O5 0.329121 0.184908 0.723956
O O6 0.081373 0.271925 0.481514
O O7 0.190560 0.000000 0.633935
O O8 0.356253 0.226605 0.881727
O O9 0.939926 0.500000 0.362353
O O10 0.000000 0.255702 0.500000
O O11 0.772521 0.264329 0.129533
O O12 0.643156 0.224632 0.776460
O O13 0.532007 0.236550 0.755189
O O14 0.469936 0.000000 0.609799
O O15 0.500000 0.161515 0.500000
O O16 0.243534 0.000000 0.155815
O O17 0.583893 0.500000 0.866942
O O18 0.479327 0.278536 0.810450
O O19 0.472398 0.000000 0.091197
#
# Coordination Sequence:
#
# PCOD8063465 Si02
#       7
#     4   4   4   4   4   4   4
#     4  10  20  34  56  87 116 142 175 213 254 308
#     4   9  18  32  52  75  98 129 174 222 266 316
#     4  10  20  34  50  74 105 135 174 221 269 320
#     4  10  21  37  56  79 108 142 180 220 263 315
#     4   8  16  32  54  79 106 139 178 214 253 304
#     4  11  22  35  53  77 106 141 178 220 271 323
#     4   9  18  33  51  74 102 133 172 218 267 319
#
# _framework density 18.115396
#
# number of rings (size 3 to 8) (size 9 to 14) (size 15 to 20)
#    0.000    2.429    1.429    3.000    0.000    6.286 
#    0.000    2.857    0.000    3.429    0.000    0.000 
#    0.000    0.000    0.000    0.000    0.000    0.000 
#
# Total GULP energy -347086.102546 kJ/mol
# GULP energy per Si atom -12395.932234 kJ/mol
# Density = 1.807416 g / cm^3
# Si number density = 18.115396 Si / 1000 Ang^3
#
#
#
# Elastic Constant Matrix: (Units=GPa)
#
#
# Indices 1 2 3 4 5 6 
#
# 1 131.7976 46.2165 54.2130 0.0000 2.3124 0.0000
# 2 46.2165 56.6519 38.8361 0.0000 4.8180 0.0000
# 3 54.2130 38.8361 78.6953 0.0000 5.7039 0.0000
# 4 0.0000 0.0000 0.0000 22.4651 0.0000 7.1782
# 5 2.3124 4.8180 5.7039 0.0000 28.4427 0.0000
# 6 0.0000 0.0000 0.0000 7.1782 0.0000 29.1069
#
#
#
# Elastic Compliance Matrix: (Units=1/GPa)
#
#
# Indices 1 2 3 4 5 6 
#
# 1 0.011892 -0.006234 -0.005197 0.000000 0.001132 0.000000
# 2 -0.006234 0.030047 -0.010352 0.000000 -0.002507 0.000000
# 3 -0.005197 -0.010352 0.021552 0.000000 -0.002146 0.000000
# 4 0.000000 0.000000 0.000000 0.048321 0.000000 -0.011917
# 5 0.001132 -0.002507 -0.002146 0.000000 0.035921 0.000000
# 6 0.000000 0.000000 0.000000 -0.011917 0.000000 0.037295
#
#
# Mechanical properties :
#
#
# Convention : Reuss Voigt Hill
#
# Bulk Modulus (GPa) = 50.19188 60.63067 55.41128
# Shear Modulus (GPa) = 21.25521 24.52823 22.89172
#
# Velocity S-wave (km/s) = 3.42910 3.68366 3.55866
# Velocity P-wave (km/s) = 6.59130 7.18570 6.89491
#
# Compressibility (1/GPa) = 0.01992354
#
# Stress axis : x y z
#
# Youngs Moduli (GPa) = 84.09292 33.28093 46.39977
#
# Poissons Ratio (x) = 0.20749 0.24116
# Poissons Ratio (y) = 0.52427 0.48032
# Poissons Ratio (z) = 0.43707 0.34451
#
# Static dielectric constant tensor:
#      x y z
#    x 3.649610 0.000000 0.067160 
#    y 0.000000 3.272180 0.000000 
#    z 0.067160 0.000000 3.142850 
# 
# 
# High freq. dielectric constant tensor:
#      x y z
#    x 1.710760 0.000000 0.011560 
#    y 0.000000 1.700960 0.000000 
#    z 0.011560 0.000000 1.672660 
# 
# From -- ./inp_files/86689.got.cif
#   From: 2010.06.25/outbox.cif.g09.slc.cpg/sg10_44_cif.got.tgz:86689.got - 2010.06.27 22:07:45.
