data_PCOD8063002
_publ_section_title
;
Structure prediction by ZEFSAII (Michael W. Deem and Ramdas Pophale) SiO2 
 PCOD8063002
Probable space group: P 2/M
;
_chemical_formula_sum "Si O2"
_cell_formula_units_Z 22
_cell_length_a 16.204731
_cell_length_b 9.766862
_cell_length_c 13.050255
_cell_angle_alpha 90.000000
_cell_angle_beta 148.026045
_cell_angle_gamma 90.000000
_cell_volume 1093.728399
_symmetry_space_group_name_H-M "P 2/M"
_symmetry_group_IT_number 10
_symmetry_cell_setting 'monoclinic'
loop_
_space_group_symop_operation_xyz
x,y,z
-x,y,-z
-x,-y,-z
x,-y,z
loop_
_atom_site_type_symbol
_atom_site_label
_atom_site_fract_x
_atom_site_fract_y
_atom_site_fract_z
Si Si1 0.863170 0.345001 0.051796
Si Si2 0.104830 0.847294 0.397380
Si Si3 0.607716 0.157320 0.708841
Si Si4 0.000000 0.771242 0.500000
Si Si5 0.294691 0.351109 0.895118
Si Si6 0.540164 0.843592 0.228055
O O1 0.895692 0.500000 0.045033
O O2 0.775545 0.352170 0.066102
O O3 0.024226 0.261926 0.236786
O O4 0.755960 0.259000 0.860127
O O5 0.015951 0.859483 0.413205
O O6 0.281757 0.798318 0.598450
O O7 0.099216 0.000000 0.342476
O O8 0.500000 0.194647 0.500000
O O9 0.507502 0.182404 0.705090
O O10 0.666644 0.000000 0.765725
O O11 0.156540 0.680784 0.670014
O O12 0.363001 0.500000 0.939713
O O13 0.435643 0.243132 0.038620
O O14 0.514617 0.000000 0.169078
#
# Coordination Sequence:
#
# PCOD8063002 Si02
#       6
#     4   4   4   2   4   4
#     4   9  18  32  51  74 100 131 163 198 242 291
#     4  10  20  34  51  71  98 131 165 202 242 285
#     4   9  17  32  55  78  98 125 162 200 241 292
#     4  10  20  32  50  74  96 128 170 204 236 284
#     4   9  18  33  51  71  98 130 164 201 243 289
#     4   9  19  34  51  73 100 127 159 202 247 287
#
# _framework density 20.114684
#
# number of rings (size 3 to 8) (size 9 to 14) (size 15 to 20)
#    0.000    2.727    0.000    1.091    0.000    7.636 
#    0.000    3.636    0.000    5.455    0.000    0.000 
#    0.000    0.000    0.000    0.000    0.000    0.000 
#
# Total GULP energy -272730.784098 kJ/mol
# GULP energy per Si atom -12396.853823 kJ/mol
# Density = 2.006890 g / cm^3
# Si number density = 20.114684 Si / 1000 Ang^3
#
#
#
# Elastic Constant Matrix: (Units=GPa)
#
#
# Indices 1 2 3 4 5 6 
#
# 1 26.3386 19.4448 27.2447 0.0000 6.1489 0.0000
# 2 19.4448 153.7931 102.5556 0.0000 11.5487 0.0000
# 3 27.2447 102.5556 174.5458 0.0000 13.8743 0.0000
# 4 0.0000 0.0000 0.0000 30.9694 0.0000 0.3962
# 5 6.1489 11.5487 13.8743 0.0000 30.0922 0.0000
# 6 0.0000 0.0000 0.0000 0.3962 0.0000 6.8223
#
#
#
# Elastic Compliance Matrix: (Units=1/GPa)
#
#
# Indices 1 2 3 4 5 6 
#
# 1 0.046633 -0.001487 -0.005910 0.000000 -0.006233 0.000000
# 2 -0.001487 0.010784 -0.006020 0.000000 -0.001059 0.000000
# 3 -0.005910 -0.006020 0.010286 0.000000 -0.001225 0.000000
# 4 0.000000 0.000000 0.000000 0.032314 0.000000 -0.001877
# 5 -0.006233 -0.001059 -0.001225 0.000000 0.035476 0.000000
# 6 0.000000 0.000000 0.000000 -0.001877 0.000000 0.146687
#
#
# Mechanical properties :
#
#
# Convention : Reuss Voigt Hill
#
# Bulk Modulus (GPa) = 24.46798 72.57420 48.52109
# Shear Modulus (GPa) = 15.49727 27.27228 21.38477
#
# Velocity S-wave (km/s) = 2.77870 3.68617 3.26412
# Velocity P-wave (km/s) = 4.74189 7.36720 6.19521
#
# Compressibility (1/GPa) = 0.04086975
#
# Stress axis : x y z
#
# Youngs Moduli (GPa) = 21.44395 92.72830 97.21939
#
# Poissons Ratio (x) = 0.13790 0.57453
# Poissons Ratio (y) = 0.03189 0.58526
# Poissons Ratio (z) = 0.12673 0.55822
#
# Static dielectric constant tensor:
#      x y z
#    x 3.238580 0.000000 0.064290 
#    y 0.000000 3.867380 0.000000 
#    z 0.064290 0.000000 3.758720 
# 
# 
# High freq. dielectric constant tensor:
#      x y z
#    x 1.746210 0.000000 0.006310 
#    y 0.000000 1.786540 0.000000 
#    z 0.006310 0.000000 1.791560 
# 
# From -- ./inp_files/27074.got.cif
#   From: 2010.06.25/outbox.cif.g09.slc.cpg/sg10_14_cif.got.tgz:27074.got - 2010.06.27 22:07:45.
