data_PCOD8063588
_publ_section_title
;
Structure prediction by ZEFSAII (Michael W. Deem and Ramdas Pophale) SiO2 
 PCOD8063588
Probable space group: P 2/M
;
_chemical_formula_sum "Si O2"
_cell_formula_units_Z 20
_cell_length_a 5.254651
_cell_length_b 15.209907
_cell_length_c 15.843142
_cell_angle_alpha 90.000000
_cell_angle_beta 110.707779
_cell_angle_gamma 90.000000
_cell_volume 1184.424202
_symmetry_space_group_name_H-M "P 2/M"
_symmetry_group_IT_number 10
_symmetry_cell_setting 'monoclinic'
loop_
_space_group_symop_operation_xyz
x,y,z
-x,y,-z
-x,-y,-z
x,-y,z
loop_
_atom_site_type_symbol
_atom_site_label
_atom_site_fract_x
_atom_site_fract_y
_atom_site_fract_z
Si Si1 0.801454 0.603739 0.048259
Si Si2 0.473711 0.400197 0.398289
Si Si3 0.604099 0.248538 0.304051
Si Si4 0.314233 0.898796 0.556275
Si Si5 0.954773 0.682962 0.758361
O O1 0.789757 0.500000 0.036890
O O2 0.908970 0.625584 0.153355
O O3 0.500000 0.643775 0.000000
O O4 0.000000 0.643843 0.000000
O O5 0.500000 0.382459 0.500000
O O6 0.559729 0.500000 0.386116
O O7 0.672834 0.330674 0.375016
O O8 0.165681 0.381874 0.328574
O O9 0.614514 0.155910 0.352540
O O10 0.821069 0.250938 0.254041
O O11 0.295143 0.259505 0.232760
O O12 0.500000 0.865915 0.500000
O O13 0.000000 0.883528 0.500000
O O14 0.379501 0.000000 0.584080
#
# Coordination Sequence:
#
# PCOD8063588 Si02
#       5
#     4   4   4   4   4
#     4  10  20  34  53  73  98 133 175 222 269 311
#     4   9  20  33  47  69 100 144 178 204 239 290
#     4  10  21  32  52  71 104 136 172 212 255 296
#     4  10  20  34  54  77 103 138 180 220 261 307
#     4  10  21  34  50  73 102 134 172 213 258 299
#
# _framework density 16.885842
#
# number of rings (size 3 to 8) (size 9 to 14) (size 15 to 20)
#    1.200    1.000    0.000    3.600    2.800    1.600 
#    0.000    2.000    0.000    0.000    0.000    0.000 
#    0.000   16.000    0.000    0.000    0.000    0.000 
#
# Total GULP energy -247855.506070 kJ/mol
# GULP energy per Si atom -12392.775303 kJ/mol
# Density = 1.684741 g / cm^3
# Si number density = 16.885842 Si / 1000 Ang^3
#
#
#
# Elastic Constant Matrix: (Units=GPa)
#
#
# Indices 1 2 3 4 5 6 
#
# 1 122.7278 19.0807 41.2823 0.0000 -4.8419 0.0000
# 2 19.0807 43.9372 10.5492 0.0000 -1.4921 0.0000
# 3 41.2823 10.5492 88.8687 0.0000 9.1868 0.0000
# 4 0.0000 0.0000 0.0000 22.1080 0.0000 -5.0700
# 5 -4.8419 -1.4921 9.1868 0.0000 29.5552 0.0000
# 6 0.0000 0.0000 0.0000 -5.0700 0.0000 -2.9774
#
#
#
# Elastic Compliance Matrix: (Units=1/GPa)
#
#
# Indices 1 2 3 4 5 6 
#
# 1 0.010368 -0.003263 -0.004740 0.000000 0.003007 0.000000
# 2 -0.003263 0.024583 -0.001525 0.000000 0.001180 0.000000
# 3 -0.004740 -0.001525 0.014179 0.000000 -0.005261 0.000000
# 4 0.000000 0.000000 0.000000 0.032530 0.000000 -0.055392
# 5 0.003007 0.001180 -0.005261 0.000000 0.036023 0.000000
# 6 0.000000 0.000000 0.000000 -0.055392 0.000000 -0.241537
#
#
# Mechanical properties :
#
#
# Convention : Reuss Voigt Hill
#
# Bulk Modulus (GPa) = 33.24900 44.15089 38.69995
# Shear Modulus (GPa) = -52.75638 22.04526 -15.35556
#
# Velocity S-wave (km/s) = -5.59560 3.61716 -3.01886
# Velocity P-wave (km/s) = 4.69196 6.60670 3.28892
#
# Compressibility (1/GPa) = 0.03007609
#
# Stress axis : x y z
#
# Youngs Moduli (GPa) = 96.44687 40.67903 70.52543
#
# Poissons Ratio (x) = 0.13272 0.33429
# Poissons Ratio (y) = 0.31466 0.10752
# Poissons Ratio (z) = 0.45716 0.06202
#
# Static dielectric constant tensor:
#      x y z
#    x 3.436810 0.000000 -0.046550 
#    y 0.000000 2.900330 0.000000 
#    z -0.046550 0.000000 2.953400 
# 
# 
# High freq. dielectric constant tensor:
#      x y z
#    x 1.665460 0.000000 -0.001770 
#    y 0.000000 1.619810 0.000000 
#    z -0.001770 0.000000 1.630760 
# 
# From -- ./inp_files/6814.got.cif
#   From: 2010.06.25/outbox.cif.g09.slc.cpg/sg10_4_cif.got.tgz:6814.got - 2010.06.27 22:07:45.
