data_PCOD8063156
_publ_section_title
;
Structure prediction by ZEFSAII (Michael W. Deem and Ramdas Pophale) SiO2 
 PCOD8063156
Probable space group: P 2/M
;
_chemical_formula_sum "Si O2"
_cell_formula_units_Z 20
_cell_length_a 15.035607
_cell_length_b 9.734452
_cell_length_c 8.936221
_cell_angle_alpha 90.000000
_cell_angle_beta 72.712420
_cell_angle_gamma 90.000000
_cell_volume 1248.849961
_symmetry_space_group_name_H-M "P 2/M"
_symmetry_group_IT_number 10
_symmetry_cell_setting 'monoclinic'
loop_
_space_group_symop_operation_xyz
x,y,z
-x,y,-z
-x,-y,-z
x,-y,z
loop_
_atom_site_type_symbol
_atom_site_label
_atom_site_fract_x
_atom_site_fract_y
_atom_site_fract_z
Si Si1 0.257290 0.848470 0.201665
Si Si2 0.595182 0.339971 0.028632
Si Si3 0.595182 0.339971 0.376186
Si Si4 0.742710 0.151530 0.458955
Si Si5 0.107092 0.000000 0.123556
Si Si6 0.107092 0.000000 0.769352
O O1 0.241762 0.797349 0.379119
O O2 0.157002 0.863979 0.168335
O O3 0.306023 0.000000 0.175733
O O4 0.318633 0.739482 0.083941
O O5 0.612183 0.500000 0.989841
O O6 0.587806 0.305195 0.206097
O O7 0.500000 0.289830 0.000000
O O8 0.500000 0.289827 0.500000
O O9 0.612181 0.500000 0.397981
O O10 0.681368 0.260519 0.402573
O O11 0.842999 0.136021 0.325336
O O12 0.693978 0.000000 0.481754
O O13 1.000000 0.000000 0.225750
O O14 0.119548 0.000000 0.940226
#
# Coordination Sequence:
#
# PCOD8063156 Si02
#       6
#     4   4   4   4   2   2
#     4   9  19  32  49  74  99 128 162 199 241 285
#     4  10  20  33  50  71  98 133 167 199 239 286
#     4  10  20  33  50  71  98 133 167 199 239 286
#     4   9  19  32  49  74  99 128 162 199 241 285
#     4   9  17  31  52  75  98 125 157 197 245 291
#     4   9  17  31  52  75  98 125 157 197 245 291
#
# _framework density 16.014734000000001
#
# number of rings (size 3 to 8) (size 9 to 14) (size 15 to 20)
#    1.200    1.400    0.000    2.400    0.000    4.800 
#    0.000    0.000    0.000    1.200    0.000    8.400 
#    0.000    0.000    0.000    0.000    0.000    0.000 
#
# Total GULP energy -247857.951851 kJ/mol
# GULP energy per Si atom -12392.897593 kJ/mol
# Density = 1.597828 g / cm^3
# Si number density = 16.014734 Si / 1000 Ang^3
#
#
#
# Elastic Constant Matrix: (Units=GPa)
#
#
# Indices 1 2 3 4 5 6 
#
# 1 148.2274 51.9381 79.5360 0.0000 -1.6546 0.0000
# 2 51.9381 43.4429 48.0038 0.0000 -1.0205 0.0000
# 3 79.5360 48.0038 130.4709 0.0000 -2.9509 0.0000
# 4 0.0000 0.0000 0.0000 26.0183 0.0000 7.9225
# 5 -1.6546 -1.0205 -2.9509 0.0000 30.8205 0.0000
# 6 0.0000 0.0000 0.0000 7.9225 0.0000 -4.5249
#
#
#
# Elastic Compliance Matrix: (Units=1/GPa)
#
#
# Indices 1 2 3 4 5 6 
#
# 1 0.012532 -0.011022 -0.003585 0.000000 -0.000035 0.000000
# 2 -0.011022 0.048482 -0.011120 0.000000 -0.000051 0.000000
# 3 -0.003585 -0.011120 0.013959 0.000000 0.000776 0.000000
# 4 0.000000 0.000000 0.000000 0.025069 0.000000 0.043893
# 5 -0.000035 -0.000051 0.000776 0.000000 0.032517 0.000000
# 6 0.000000 0.000000 0.000000 0.043893 0.000000 -0.144149
#
#
# Mechanical properties :
#
#
# Convention : Reuss Voigt Hill
#
# Bulk Modulus (GPa) = 42.51882 75.67746 59.09814
# Shear Modulus (GPa) = 104.81730 19.97366 62.39548
#
# Velocity S-wave (km/s) = 8.09893 3.53541 6.24867
# Velocity P-wave (km/s) = 10.68009 8.00144 9.43629
#
# Compressibility (1/GPa) = 0.02351899
#
# Stress axis : x y z
#
# Youngs Moduli (GPa) = 79.79877 20.62627 71.63861
#
# Poissons Ratio (x) = 0.22733 0.25682
# Poissons Ratio (y) = 0.87950 0.79663
# Poissons Ratio (z) = 0.28608 0.22937
#
# Static dielectric constant tensor:
#      x y z
#    x 2.916440 0.000000 0.067560 
#    y 0.000000 2.810390 0.000000 
#    z 0.067560 0.000000 3.176900 
# 
# 
# High freq. dielectric constant tensor:
#      x y z
#    x 1.603760 0.000000 0.008900 
#    y 0.000000 1.590560 0.000000 
#    z 0.008900 0.000000 1.638080 
# 
# From -- ./inp_files/26808.got.cif
#   From: 2010.06.25/outbox.cif.g09.slc.cpg/sg10_14_cif.got.tgz:26808.got - 2010.06.27 22:07:45.
