data_PCOD8063622
_publ_section_title
;
Structure prediction by ZEFSAII (Michael W. Deem and Ramdas Pophale) SiO2 
 PCOD8063622
Probable space group: P 2/M
;
_chemical_formula_sum "Si O2"
_cell_formula_units_Z 28
_cell_length_a 14.850348
_cell_length_b 21.648206
_cell_length_c 9.026601
_cell_angle_alpha 90.000000
_cell_angle_beta 149.344731
_cell_angle_gamma 90.000000
_cell_volume 1479.597207
_symmetry_space_group_name_H-M "P 2/M"
_symmetry_group_IT_number 10
_symmetry_cell_setting 'monoclinic'
loop_
_space_group_symop_operation_xyz
x,y,z
-x,y,-z
-x,-y,-z
x,-y,z
loop_
_atom_site_type_symbol
_atom_site_label
_atom_site_fract_x
_atom_site_fract_y
_atom_site_fract_z
Si Si1 0.353869 0.372973 0.167843
Si Si2 0.034653 0.612362 0.378997
Si Si3 0.672148 0.291702 0.142872
Si Si4 0.516241 0.500000 0.699535
Si Si5 0.326739 0.847797 0.848870
Si Si6 0.353889 0.071747 0.175952
Si Si7 0.030576 0.067338 0.368057
Si Si8 0.142080 0.500000 0.330735
O O1 0.500000 0.365244 0.500000
O O2 0.376994 0.437691 0.109313
O O3 0.157685 0.371052 0.962433
O O4 0.379448 0.317530 0.090379
O O5 0.000000 0.591939 0.500000
O O6 0.163640 0.671345 0.553786
O O7 0.123790 0.559179 0.409105
O O8 0.736629 0.221659 0.207864
O O9 0.500000 0.296732 0.000000
O O10 0.500000 0.500000 0.500000
O O11 0.332179 0.500000 0.524107
O O12 0.175243 0.880982 0.535516
O O13 0.500000 0.845038 0.000000
O O14 0.373245 0.885030 0.061878
O O15 0.500000 0.092529 0.500000
O O16 0.377848 0.000000 0.162444
O O17 0.159916 0.081635 0.975647
O O18 0.000000 0.066825 0.500000
O O19 0.099729 0.000000 0.413086
O O20 0.000000 0.500000 0.000000
#
# Coordination Sequence:
#
# PCOD8063622 Si02
#       8
#     4   4   4   2   4   4   4   2
#     4  10  20  37  57  79 106 135 176 223 266 322
#     4  10  22  38  57  82 111 142 181 226 277 330
#     4  10  22  38  53  75 107 143 180 220 269 320
#     4  10  20  34  53  79 109 137 169 216 267 321
#     4  10  20  34  53  76 105 141 181 220 260 317
#     4   9  18  33  54  80 108 137 174 221 269 317
#     4   8  15  29  51  76 102 135 173 210 253 311
#     4  12  21  34  60  87 111 143 180 226 280 327
#
# _framework density 18.92407
#
# number of rings (size 3 to 8) (size 9 to 14) (size 15 to 20)
#    0.000    2.286    0.000    4.500    0.000    8.571 
#    0.000    4.286    0.000    6.000    0.000    0.000 
#    0.000    0.000    0.000    0.000    0.000    0.000 
#
# Total GULP energy -347071.906503 kJ/mol
# GULP energy per Si atom -12395.425232 kJ/mol
# Density = 1.888100 g / cm^3
# Si number density = 18.924070 Si / 1000 Ang^3
#
#
#
# Elastic Constant Matrix: (Units=GPa)
#
#
# Indices 1 2 3 4 5 6 
#
# 1 74.8093 52.0512 31.6151 0.0000 14.0098 0.0000
# 2 52.0512 161.3573 68.2836 0.0000 6.6866 0.0000
# 3 31.6151 68.2836 148.0871 0.0000 16.0282 0.0000
# 4 0.0000 0.0000 0.0000 13.5873 0.0000 11.2443
# 5 14.0098 6.6866 16.0282 0.0000 24.8041 0.0000
# 6 0.0000 0.0000 0.0000 11.2443 0.0000 26.1765
#
#
#
# Elastic Compliance Matrix: (Units=1/GPa)
#
#
# Indices 1 2 3 4 5 6 
#
# 1 0.019158 -0.005576 -0.000549 0.000000 -0.008963 0.000000
# 2 -0.005576 0.009324 -0.003417 0.000000 0.002844 0.000000
# 3 -0.000549 -0.003417 0.008937 0.000000 -0.004544 0.000000
# 4 0.000000 0.000000 0.000000 0.114191 0.000000 -0.049052
# 5 -0.008963 0.002844 -0.004544 0.000000 0.047548 0.000000
# 6 0.000000 0.000000 0.000000 -0.049052 0.000000 0.059273
#
#
# Mechanical properties :
#
#
# Convention : Reuss Voigt Hill
#
# Bulk Modulus (GPa) = 54.53845 76.46152 65.49999
# Shear Modulus (GPa) = 17.62880 28.40050 23.01465
#
# Velocity S-wave (km/s) = 3.05545 3.87817 3.49113
# Velocity P-wave (km/s) = 6.42883 7.78111 7.13707
#
# Compressibility (1/GPa) = 0.01833569
#
# Stress axis : x y z
#
# Youngs Moduli (GPa) = 52.19862 107.24606 111.89111
#
# Poissons Ratio (x) = 0.59804 0.06138
# Poissons Ratio (y) = 0.29108 0.38231
# Poissons Ratio (z) = 0.02864 0.36644
#
# Static dielectric constant tensor:
#      x y z
#    x 3.288460 0.000000 0.271090 
#    y 0.000000 3.828620 0.000000 
#    z 0.271090 0.000000 3.791550 
# 
# 
# High freq. dielectric constant tensor:
#      x y z
#    x 1.714770 0.000000 0.021800 
#    y 0.000000 1.738520 0.000000 
#    z 0.021800 0.000000 1.745210 
# 
# From -- ./inp_files/30533.got.cif
#   From: 2010.06.25/outbox.cif.g09.slc.cpg/sg10_16_cif.got.tgz:30533.got - 2010.06.27 22:07:45.
