data_PCOD8063536
_publ_section_title
;
Structure prediction by ZEFSAII (Michael W. Deem and Ramdas Pophale) SiO2 
 PCOD8063536
Probable space group: P 2/M
;
_chemical_formula_sum "Si O2"
_cell_formula_units_Z 22
_cell_length_a 11.554572
_cell_length_b 9.472859
_cell_length_c 10.803646
_cell_angle_alpha 90.000000
_cell_angle_beta 107.524758
_cell_angle_gamma 90.000000
_cell_volume 1127.627267
_symmetry_space_group_name_H-M "P 2/M"
_symmetry_group_IT_number 10
_symmetry_cell_setting 'monoclinic'
loop_
_space_group_symop_operation_xyz
x,y,z
-x,y,-z
-x,-y,-z
x,-y,z
loop_
_atom_site_type_symbol
_atom_site_label
_atom_site_fract_x
_atom_site_fract_y
_atom_site_fract_z
Si Si1 0.854556 0.833356 0.595411
Si Si2 0.930100 0.659474 0.242756
Si Si3 0.000000 0.742865 0.000000
Si Si4 0.737117 0.836978 0.297991
Si Si5 0.476706 0.834969 0.127002
Si Si6 0.756129 0.840312 0.817673
O O1 0.782298 0.796126 0.448814
O O2 0.775255 0.777616 0.686297
O O3 0.980555 0.748743 0.639774
O O4 0.884751 0.000000 0.615617
O O5 0.921235 0.500000 0.289673
O O6 0.800847 0.738278 0.215574
O O7 0.972132 0.651055 0.113097
O O8 0.119388 0.836021 0.063738
O O9 0.593380 0.808059 0.250604
O O10 0.765280 0.000000 0.274239
O O11 0.357093 0.762848 0.150747
O O12 0.450511 0.000000 0.099174
O O13 0.500000 0.765552 0.000000
O O14 0.715992 0.000000 0.786731
#
# Coordination Sequence:
#
# PCOD8063536 Si02
#       6
#     4   4   2   4   4   4
#     4   9  19  34  52  77 105 134 171 213 255 300
#     4  11  22  35  53  76 103 135 172 213 257 306
#     4  10  20  34  52  74 103 136 169 210 259 304
#     4  10  20  34  53  76 105 138 170 210 256 300
#     4   9  17  29  48  76 106 135 170 210 251 298
#     4   9  17  30  51  79 107 135 170 210 253 303
#
# _framework density 19.509993000000001
#
# number of rings (size 3 to 8) (size 9 to 14) (size 15 to 20)
#    0.000    2.364    0.000    2.727    0.000    7.273 
#    0.000    3.636    0.000    9.273    0.000    6.364 
#    0.000    0.000    0.000    0.000    0.000    0.000 
#
# Total GULP energy -272693.924726 kJ/mol
# GULP energy per Si atom -12395.178397 kJ/mol
# Density = 1.946559 g / cm^3
# Si number density = 19.509993 Si / 1000 Ang^3
#
#
#
# Elastic Constant Matrix: (Units=GPa)
#
#
# Indices 1 2 3 4 5 6 
#
# 1 149.7963 31.1006 45.4623 0.0000 0.4980 0.0000
# 2 31.1006 58.6043 20.6112 0.0000 -1.4368 0.0000
# 3 45.4623 20.6112 102.9941 0.0000 5.1671 0.0000
# 4 0.0000 0.0000 0.0000 9.0784 0.0000 -6.8976
# 5 0.4980 -1.4368 5.1671 0.0000 23.9850 0.0000
# 6 0.0000 0.0000 0.0000 -6.8976 0.0000 7.1354
#
#
#
# Elastic Compliance Matrix: (Units=1/GPa)
#
#
# Indices 1 2 3 4 5 6 
#
# 1 0.008277 -0.003330 -0.003001 0.000000 0.000275 0.000000
# 2 -0.003330 0.019783 -0.002580 0.000000 0.001810 0.000000
# 3 -0.003001 -0.002580 0.011681 0.000000 -0.002609 0.000000
# 4 0.000000 0.000000 0.000000 0.414825 0.000000 0.401001
# 5 0.000275 0.001810 -0.002609 0.000000 0.042357 0.000000
# 6 0.000000 0.000000 0.000000 0.401001 0.000000 0.527783
#
#
# Mechanical properties :
#
#
# Convention : Reuss Voigt Hill
#
# Bulk Modulus (GPa) = 45.62275 56.19365 50.90820
# Shear Modulus (GPa) = 4.76266 22.32113 13.54189
#
# Velocity S-wave (km/s) = 1.56411 3.38610 2.63744
# Velocity P-wave (km/s) = 5.16691 6.64474 5.95187
#
# Compressibility (1/GPa) = 0.02191889
#
# Stress axis : x y z
#
# Youngs Moduli (GPa) = 120.81659 50.54938 85.60900
#
# Poissons Ratio (x) = 0.16835 0.25690
# Poissons Ratio (y) = 0.40236 0.22084
# Poissons Ratio (z) = 0.36255 0.13040
#
# Static dielectric constant tensor:
#      x y z
#    x 3.946810 0.000000 -0.172980 
#    y 0.000000 3.022540 0.000000 
#    z -0.172980 0.000000 3.582000 
# 
# 
# High freq. dielectric constant tensor:
#      x y z
#    x 1.770380 0.000000 -0.007300 
#    y 0.000000 1.702690 0.000000 
#    z -0.007300 0.000000 1.766140 
# 
# From -- ./inp_files/45015.got.cif
#   From: 2010.06.25/outbox.cif.g09.slc.cpg/sg10_23_cif.got.tgz:45015.got - 2010.06.27 22:07:45.
