data_PCOD8063550
_publ_section_title
;
Structure prediction by ZEFSAII (Michael W. Deem and Ramdas Pophale) SiO2 
 PCOD8063550
Probable space group: P 2/M
;
_chemical_formula_sum "Si O2"
_cell_formula_units_Z 28
_cell_length_a 15.619830
_cell_length_b 19.216304
_cell_length_c 9.377169
_cell_angle_alpha 90.000000
_cell_angle_beta 29.895092
_cell_angle_gamma 90.000000
_cell_volume 1402.838529
_symmetry_space_group_name_H-M "P 2/M"
_symmetry_group_IT_number 10
_symmetry_cell_setting 'monoclinic'
loop_
_space_group_symop_operation_xyz
x,y,z
-x,y,-z
-x,-y,-z
x,-y,z
loop_
_atom_site_type_symbol
_atom_site_label
_atom_site_fract_x
_atom_site_fract_y
_atom_site_fract_z
Si Si1 0.958751 0.181292 0.901724
Si Si2 0.174720 0.421250 0.159927
Si Si3 0.325243 0.076976 0.667437
Si Si4 0.986640 0.341753 0.855650
Si Si5 0.175547 0.814831 0.330372
Si Si6 0.545905 0.919550 0.091817
Si Si7 0.317938 0.330620 0.187895
O O1 0.796142 0.135347 0.088020
O O2 0.914532 0.263032 0.958530
O O3 0.000000 0.155827 0.000000
O O4 0.121762 0.163804 0.568095
O O5 0.237460 0.500000 0.045389
O O6 0.148700 0.386823 0.041254
O O7 0.314449 0.381716 0.055767
O O8 0.000000 0.417712 0.500000
O O9 0.500000 0.075114 0.500000
O O10 0.378315 0.096116 0.428806
O O11 0.238000 0.000000 0.799811
O O12 0.173756 0.347679 0.514150
O O13 0.000000 0.368954 0.000000
O O14 0.292323 0.746293 0.162332
O O15 0.000000 0.798917 0.500000
O O16 0.287007 0.876109 0.098423
O O17 0.599475 0.000000 0.023581
O O18 0.500000 0.895042 0.000000
O O19 0.500000 0.338556 0.000000
#
# Coordination Sequence:
#
# PCOD8063550 Si02
#       7
#     4   4   4   4   4   4   4
#     4  10  20  34  52  75 104 137 175 217 260 315
#     4   9  18  35  59  84 112 147 182 215 261 324
#     4  10  21  36  52  73 103 137 174 217 266 317
#     4   9  19  36  55  82 112 141 181 223 266 317
#     4  11  21  34  54  78 105 138 181 227 267 317
#     4  10  21  36  53  76 106 138 176 223 272 321
#     4  10  20  35  56  81 110 144 182 224 269 318
#
# _framework density 19.959531999999999
#
# number of rings (size 3 to 8) (size 9 to 14) (size 15 to 20)
#    0.000    2.143    0.000    4.286    0.000    4.000 
#    0.000    0.714    0.000    0.857    0.000    0.000 
#    0.000    0.000    0.000    0.000    0.000    0.000 
#
# Total GULP energy -347156.427419 kJ/mol
# GULP energy per Si atom -12398.443836 kJ/mol
# Density = 1.991410 g / cm^3
# Si number density = 19.959532 Si / 1000 Ang^3
#
#
#
# Elastic Constant Matrix: (Units=GPa)
#
#
# Indices 1 2 3 4 5 6 
#
# 1 122.3790 54.5198 30.5184 0.0000 -5.7274 0.0000
# 2 54.5198 123.1828 50.9156 0.0000 -11.2524 0.0000
# 3 30.5184 50.9156 47.6232 0.0000 -6.6776 0.0000
# 4 0.0000 0.0000 0.0000 19.5375 0.0000 3.9049
# 5 -5.7274 -11.2524 -6.6776 0.0000 33.9356 0.0000
# 6 0.0000 0.0000 0.0000 3.9049 0.0000 34.3238
#
#
#
# Elastic Compliance Matrix: (Units=1/GPa)
#
#
# Indices 1 2 3 4 5 6 
#
# 1 0.010433 -0.003320 -0.003130 0.000000 0.000044 0.000000
# 2 -0.003320 0.015712 -0.014416 0.000000 0.001813 0.000000
# 3 -0.003130 -0.014416 0.038742 0.000000 0.002315 0.000000
# 4 0.000000 0.000000 0.000000 0.052375 0.000000 -0.005958
# 5 0.000044 0.001813 0.002315 0.000000 0.030532 0.000000
# 6 0.000000 0.000000 0.000000 -0.005958 0.000000 0.029812
#
#
# Mechanical properties :
#
#
# Convention : Reuss Voigt Hill
#
# Bulk Modulus (GPa) = 43.18988 62.78807 52.98898
# Shear Modulus (GPa) = 22.02106 28.04145 25.03125
#
# Velocity S-wave (km/s) = 3.32518 3.75229 3.54517
# Velocity P-wave (km/s) = 6.03557 7.09217 6.58510
#
# Compressibility (1/GPa) = 0.02315357
#
# Stress axis : x y z
#
# Youngs Moduli (GPa) = 95.85024 63.64734 25.81188
#
# Poissons Ratio (x) = 0.21128 0.08080
# Poissons Ratio (y) = 0.31818 0.37211
# Poissons Ratio (z) = 0.30006 0.91756
#
# Static dielectric constant tensor:
#      x y z
#    x 3.800730 0.000000 0.376320 
#    y 0.000000 3.628160 0.000000 
#    z 0.376320 0.000000 3.685330 
# 
# 
# High freq. dielectric constant tensor:
#      x y z
#    x 1.790590 0.000000 0.014990 
#    y 0.000000 1.774140 0.000000 
#    z 0.014990 0.000000 1.755120 
# 
# From -- ./inp_files/30369.got.cif
#   From: 2010.06.25/outbox.cif.g09.slc.cpg/sg10_16_cif.got.tgz:30369.got - 2010.06.27 22:07:45.
