data_PCOD8063821
_publ_section_title
;
Structure prediction by ZEFSAII (Michael W. Deem and Ramdas Pophale) SiO2 
 PCOD8063821
Probable space group: P 2/M
;
_chemical_formula_sum "Si O2"
_cell_formula_units_Z 32
_cell_length_a 25.949682
_cell_length_b 14.425300
_cell_length_c 9.046018
_cell_angle_alpha 90.000000
_cell_angle_beta 151.104270
_cell_angle_gamma 90.000000
_cell_volume 1636.276412
_symmetry_space_group_name_H-M "P 2/M"
_symmetry_group_IT_number 10
_symmetry_cell_setting 'monoclinic'
loop_
_space_group_symop_operation_xyz
x,y,z
-x,y,-z
-x,-y,-z
x,-y,z
loop_
_atom_site_type_symbol
_atom_site_label
_atom_site_fract_x
_atom_site_fract_y
_atom_site_fract_z
Si Si1 0.437491 0.894425 0.491605
Si Si2 0.112358 0.297737 0.351416
Si Si3 0.675415 0.606317 0.110136
Si Si4 0.105359 0.711461 0.681427
Si Si5 0.189273 0.899684 0.858080
Si Si6 0.684204 0.607065 0.789138
Si Si7 0.496535 0.721167 0.817034
Si Si8 0.120375 0.097338 0.354465
O O1 0.500000 0.871649 0.500000
O O2 0.483752 0.827176 0.733168
O O3 0.457347 0.000000 0.593565
O O4 0.313520 0.875484 0.146903
O O5 0.200274 0.375741 0.539293
O O6 0.088556 0.286597 0.464416
O O7 0.160760 0.199660 0.406332
O O8 0.000000 0.327951 0.000000
O O9 0.648152 0.500000 0.080874
O O10 0.655245 0.626778 0.886968
O O11 0.603753 0.675582 0.023832
O O12 0.136973 0.815224 0.818527
O O13 0.000000 0.677700 0.500000
O O14 0.196944 0.638820 0.952784
O O15 0.129498 0.906775 0.553065
O O16 0.176792 0.000000 0.909056
O O17 0.673619 0.500000 0.723761
O O18 0.603618 0.661918 0.485186
O O19 0.500000 0.720828 0.000000
O O20 0.176051 0.000000 0.433654
O O21 0.000000 0.093482 0.000000
#
# Coordination Sequence:
#
# PCOD8063821 Si02
#       8
#     4   4   4   4   4   4   4   4
#     4  10  21  38  65  93 117 155 201 239 284 349
#     4   9  19  35  54  82 114 153 189 240 288 347
#     4  10  22  40  63  87 113 152 202 249 294 354
#     4  10  20  34  55  82 114 151 196 238 290 350
#     4   9  17  32  55  82 114 150 191 234 281 346
#     4  10  21  40  62  83 113 154 200 250 298 349
#     4  12  25  39  60  90 122 153 188 243 307 357
#     4   8  14  26  48  78 111 142 177 227 278 326
#
# _framework density 19.556598000000001
#
# number of rings (size 3 to 8) (size 9 to 14) (size 15 to 20)
#    0.000    2.250    1.250    1.500    3.500    4.000 
#    0.000    0.000    0.000    0.000    0.000    0.000 
#    0.000    0.000    0.000    0.000    0.000    0.000 
#
# Total GULP energy -396491.550080 kJ/mol
# GULP energy per Si atom -12390.360940 kJ/mol
# Density = 1.951209 g / cm^3
# Si number density = 19.556598 Si / 1000 Ang^3
#
#
#
# Elastic Constant Matrix: (Units=GPa)
#
#
# Indices 1 2 3 4 5 6 
#
# 1 89.9349 51.3016 52.5773 0.0000 10.8781 0.0000
# 2 51.3016 116.6341 54.1223 0.0000 -7.2463 0.0000
# 3 52.5773 54.1223 114.4453 0.0000 -1.7131 0.0000
# 4 0.0000 0.0000 0.0000 48.9865 0.0000 6.9714
# 5 10.8781 -7.2463 -1.7131 0.0000 22.7433 0.0000
# 6 0.0000 0.0000 0.0000 6.9714 0.0000 14.8771
#
#
#
# Elastic Compliance Matrix: (Units=1/GPa)
#
#
# Indices 1 2 3 4 5 6 
#
# 1 0.020050 -0.006684 -0.006233 0.000000 -0.012189 0.000000
# 2 -0.006684 0.013437 -0.003175 0.000000 0.007239 0.000000
# 3 -0.006233 -0.003175 0.013147 0.000000 0.002960 0.000000
# 4 0.000000 0.000000 0.000000 0.021872 0.000000 -0.010249
# 5 -0.012189 0.007239 0.002960 0.000000 0.052328 0.000000
# 6 0.000000 0.000000 0.000000 -0.010249 0.000000 0.072020
#
#
# Mechanical properties :
#
#
# Convention : Reuss Voigt Hill
#
# Bulk Modulus (GPa) = 69.20484 70.77962 69.99223
# Shear Modulus (GPa) = 21.75274 28.18891 24.97082
#
# Velocity S-wave (km/s) = 3.33873 3.80070 3.57718
# Velocity P-wave (km/s) = 7.09412 7.45192 7.27522
#
# Compressibility (1/GPa) = 0.01444986
#
# Stress axis : x y z
#
# Youngs Moduli (GPa) = 49.87532 74.42075 76.06237
#
# Poissons Ratio (x) = 0.49744 0.47407
# Poissons Ratio (y) = 0.33337 0.24153
# Poissons Ratio (z) = 0.31085 0.23632
#
# Static dielectric constant tensor:
#      x y z
#    x 3.112240 0.000000 0.067620 
#    y 0.000000 4.164000 0.000000 
#    z 0.067620 0.000000 3.668110 
# 
# 
# High freq. dielectric constant tensor:
#      x y z
#    x 1.710500 0.000000 0.008880 
#    y 0.000000 1.787150 0.000000 
#    z 0.008880 0.000000 1.770670 
# 
# From -- ./inp_files/37725.got.cif
#   From: 2010.06.25/outbox.cif.g09.slc.cpg/sg10_19_cif.got.tgz:37725.got - 2010.06.27 22:07:45.
