data_PCOD8063591
_publ_section_title
;
Structure prediction by ZEFSAII (Michael W. Deem and Ramdas Pophale) SiO2 
 PCOD8063591
Probable space group: P 2/M
;
_chemical_formula_sum "Si O2"
_cell_formula_units_Z 28
_cell_length_a 10.175126
_cell_length_b 9.141751
_cell_length_c 30.245291
_cell_angle_alpha 90.000000
_cell_angle_beta 145.970455
_cell_angle_gamma 90.000000
_cell_volume 1574.419403
_symmetry_space_group_name_H-M "P 2/M"
_symmetry_group_IT_number 10
_symmetry_cell_setting 'monoclinic'
loop_
_space_group_symop_operation_xyz
x,y,z
-x,y,-z
-x,-y,-z
x,-y,z
loop_
_atom_site_type_symbol
_atom_site_label
_atom_site_fract_x
_atom_site_fract_y
_atom_site_fract_z
Si Si1 0.979797 0.670966 0.183721
Si Si2 0.583366 0.825998 0.836341
Si Si3 0.709630 0.826362 0.327515
Si Si4 0.423840 0.173318 0.333919
Si Si5 0.140342 0.827272 0.496116
Si Si6 0.014788 0.670398 0.915735
Si Si7 0.498392 0.669002 0.902192
O O1 0.026619 0.500000 0.199845
O O2 0.171685 0.751028 0.267775
O O3 0.000432 0.725133 0.138957
O O4 0.723817 0.711866 0.130100
O O5 0.396525 0.767094 0.747846
O O6 0.493640 0.770455 0.858110
O O7 0.838895 0.761799 0.897127
O O8 0.601226 0.000000 0.841509
O O9 0.544461 0.774707 0.321794
O O10 0.981775 0.768909 0.410438
O O11 0.712643 0.000000 0.327943
O O12 0.589388 0.226337 0.421799
O O13 0.388139 0.000000 0.324833
O O14 0.000000 0.777336 0.500000
O O15 0.150367 0.000000 0.496257
O O16 0.951051 0.500000 0.902245
O O17 0.275359 0.702320 0.005276
O O18 0.491546 0.500000 0.885436
#
# Coordination Sequence:
#
# PCOD8063591 Si02
#       7
#     4   4   4   4   4   4   4
#     4  10  20  34  53  74  98 129 167 209 248 288
#     4  11  21  33  52  78 105 129 159 204 253 295
#     4   8  14  26  45  72 102 128 157 196 241 289
#     4   9  15  27  49  75 100 126 159 200 247 292
#     4   7  11  21  42  70  97 126 158 192 235 287
#     4  10  20  36  56  73  93 128 172 210 245 291
#     4  10  22  38  52  69  97 135 173 204 240 293
#
# _framework density 17.784333
#
# number of rings (size 3 to 8) (size 9 to 14) (size 15 to 20)
#    0.000    2.714    1.429    3.000    0.000    4.571 
#    0.000    0.000    0.000    9.000    0.000    6.000 
#    0.000    0.000    0.000    0.000    0.000    0.000 
#
# Total GULP energy -346947.188952 kJ/mol
# GULP energy per Si atom -12390.971034 kJ/mol
# Density = 1.774385 g / cm^3
# Si number density = 17.784333 Si / 1000 Ang^3
#
#
#
# Elastic Constant Matrix: (Units=GPa)
#
#
# Indices 1 2 3 4 5 6 
#
# 1 47.8070 20.0959 26.2248 0.0000 -5.8010 0.0000
# 2 20.0959 33.6879 32.0780 0.0000 -0.1573 0.0000
# 3 26.2248 32.0780 143.5232 0.0000 13.1793 0.0000
# 4 0.0000 0.0000 0.0000 12.2661 0.0000 8.5942
# 5 -5.8010 -0.1573 13.1793 0.0000 5.7894 0.0000
# 6 0.0000 0.0000 0.0000 8.5942 0.0000 13.4597
#
#
#
# Elastic Compliance Matrix: (Units=1/GPa)
#
#
# Indices 1 2 3 4 5 6 
#
# 1 0.039654 -0.014084 -0.009749 0.000000 0.061543 0.000000
# 2 -0.014084 0.045960 -0.008240 0.000000 0.005894 0.000000
# 3 -0.009749 -0.008240 0.014550 0.000000 -0.043114 0.000000
# 4 0.000000 0.000000 0.000000 0.147524 0.000000 -0.094196
# 5 0.061543 0.005894 -0.043114 0.000000 0.332700 0.000000
# 6 0.000000 0.000000 0.000000 -0.094196 0.000000 0.134442
#
#
# Mechanical properties :
#
#
# Convention : Reuss Voigt Hill
#
# Bulk Modulus (GPa) = 27.76510 42.42394 35.09452
# Shear Modulus (GPa) = 6.32127 16.07766 11.19946
#
# Velocity S-wave (km/s) = 1.88736 3.00998 2.51218
# Velocity P-wave (km/s) = 4.51614 5.99887 5.30952
#
# Compressibility (1/GPa) = 0.03601644
#
# Stress axis : x y z
#
# Youngs Moduli (GPa) = 25.21843 21.75826 68.73086
#
# Poissons Ratio (x) = 0.30645 0.67006
# Poissons Ratio (y) = 0.35518 0.56633
# Poissons Ratio (z) = 0.24586 0.17928
#
# Static dielectric constant tensor:
#      x y z
#    x 3.033410 0.000000 -0.004380 
#    y 0.000000 2.961960 0.000000 
#    z -0.004380 0.000000 3.928070 
# 
# 
# High freq. dielectric constant tensor:
#      x y z
#    x 1.652330 0.000000 0.005970 
#    y 0.000000 1.654030 0.000000 
#    z 0.005970 0.000000 1.716440 
# 
# From -- ./inp_files/92111.got.cif
#   From: 2010.06.25/outbox.cif.g09.slc.cpg/sg10_47_cif.got.tgz:92111.got - 2010.06.27 22:07:45.
