data_PCOD8063922
_publ_section_title
;
Structure prediction by ZEFSAII (Michael W. Deem and Ramdas Pophale) SiO2 
 PCOD8063922
Probable space group: P 2/M
;
_chemical_formula_sum "Si O2"
_cell_formula_units_Z 30
_cell_length_a 9.461292
_cell_length_b 18.318308
_cell_length_c 9.975008
_cell_angle_alpha 90.000000
_cell_angle_beta 113.960806
_cell_angle_gamma 90.000000
_cell_volume 1579.833677
_symmetry_space_group_name_H-M "P 2/M"
_symmetry_group_IT_number 10
_symmetry_cell_setting 'monoclinic'
loop_
_space_group_symop_operation_xyz
x,y,z
-x,y,-z
-x,-y,-z
x,-y,z
loop_
_atom_site_type_symbol
_atom_site_label
_atom_site_fract_x
_atom_site_fract_y
_atom_site_fract_z
Si Si1 0.864677 0.852722 0.044055
Si Si2 0.426749 0.686769 0.827824
Si Si3 0.469894 0.162522 0.143372
Si Si4 0.558812 0.414819 0.665927
Si Si5 0.772321 0.916324 0.290366
Si Si6 0.080666 0.716866 0.767349
Si Si7 0.000000 0.188148 0.500000
Si Si8 0.917188 0.417350 0.826041
O O1 0.845156 0.899777 0.171946
O O2 0.898272 0.767663 0.092475
O O3 0.706357 0.861042 0.897469
O O4 0.000000 0.883479 0.000000
O O5 0.498016 0.758179 0.779810
O O6 0.455110 0.618906 0.742601
O O7 0.245333 0.700253 0.767614
O O8 0.500000 0.668265 0.000000
O O9 0.588556 0.099044 0.231792
O O10 0.500000 0.179512 0.000000
O O11 0.500000 0.384307 0.500000
O O12 0.527848 0.500000 0.661258
O O13 0.737493 0.395886 0.764546
O O14 0.851355 0.864465 0.430325
O O15 0.802438 0.000000 0.338014
O O16 0.976919 0.761657 0.621509
O O17 0.998640 0.640158 0.760693
O O18 0.935809 0.500000 0.776288
O O19 0.000000 0.411289 0.000000
#
# Coordination Sequence:
#
# PCOD8063922 Si02
#       8
#     4   4   4   4   4   4   2   4
#     4  10  20  34  56  87 118 143 183 241 297 352
#     4  11  19  36  61  85 112 150 201 251 287 351
#     4   9  17  34  53  84 110 141 188 236 285 344
#     4  10  24  41  56  82 122 159 196 248 311 364
#     4  10  20  37  59  80 113 153 187 235 291 352
#     4  11  21  34  58  83 116 150 195 248 292 338
#     4  10  21  36  53  86 112 144 200 238 283 350
#     4  10  22  39  58  86 120 159 201 243 304 363
#
# _framework density 18.989339999999999
#
# number of rings (size 3 to 8) (size 9 to 14) (size 15 to 20)
#    0.000    1.867    5.333    1.400    3.733    3.467 
#    0.000    0.333    0.000    0.000    0.000    4.667 
#    0.000    0.000    0.000    0.000    0.000    0.000 
#
# Total GULP energy -371912.595963 kJ/mol
# GULP energy per Si atom -12397.086532 kJ/mol
# Density = 1.894612 g / cm^3
# Si number density = 18.989340 Si / 1000 Ang^3
#
#
#
# Elastic Constant Matrix: (Units=GPa)
#
#
# Indices 1 2 3 4 5 6 
#
# 1 103.9850 35.8860 53.0473 0.0000 16.3208 0.0000
# 2 35.8860 103.7244 45.1079 0.0000 1.4661 0.0000
# 3 53.0473 45.1079 102.1577 0.0000 13.1161 0.0000
# 4 0.0000 0.0000 0.0000 38.8168 0.0000 -1.9429
# 5 16.3208 1.4661 13.1161 0.0000 21.9128 0.0000
# 6 0.0000 0.0000 0.0000 -1.9429 0.0000 20.1278
#
#
#
# Elastic Compliance Matrix: (Units=1/GPa)
#
#
# Indices 1 2 3 4 5 6 
#
# 1 0.014402 -0.002519 -0.005428 0.000000 -0.007310 0.000000
# 2 -0.002519 0.012506 -0.004709 0.000000 0.003858 0.000000
# 3 -0.005428 -0.004709 0.015303 0.000000 -0.004802 0.000000
# 4 0.000000 0.000000 0.000000 0.025887 0.000000 0.002499
# 5 -0.007310 0.003858 -0.004802 0.000000 0.053696 0.000000
# 6 0.000000 0.000000 0.000000 0.002499 0.000000 0.049924
#
#
# Mechanical properties :
#
#
# Convention : Reuss Voigt Hill
#
# Bulk Modulus (GPa) = 59.17506 64.21661 61.69584
# Shear Modulus (GPa) = 24.67139 27.89322 26.28230
#
# Velocity S-wave (km/s) = 3.60838 3.83677 3.72433
# Velocity P-wave (km/s) = 6.97069 7.31562 7.14524
#
# Compressibility (1/GPa) = 0.01689901
#
# Stress axis : x y z
#
# Youngs Moduli (GPa) = 69.43288 79.96213 65.34533
#
# Poissons Ratio (x) = 0.20143 0.35469
# Poissons Ratio (y) = 0.17490 0.30773
# Poissons Ratio (z) = 0.37688 0.37657
#
# Static dielectric constant tensor:
#      x y z
#    x 3.295910 0.000000 0.327210 
#    y 0.000000 3.496640 0.000000 
#    z 0.327210 0.000000 3.704810 
# 
# 
# High freq. dielectric constant tensor:
#      x y z
#    x 1.719490 0.000000 0.027390 
#    y 0.000000 1.740150 0.000000 
#    z 0.027390 0.000000 1.731180 
# 
# From -- ./inp_files/43425.got.cif
#   From: 2010.06.25/outbox.cif.g09.slc.cpg/sg10_22_cif.got.tgz:43425.got - 2010.06.27 22:07:45.
