data_PCOD8063694
_publ_section_title
;
Structure prediction by ZEFSAII (Michael W. Deem and Ramdas Pophale) SiO2 
 PCOD8063694
Probable space group: P 2/M
;
_chemical_formula_sum "Si O2"
_cell_formula_units_Z 28
_cell_length_a 20.411877
_cell_length_b 9.101158
_cell_length_c 14.580403
_cell_angle_alpha 90.000000
_cell_angle_beta 32.896206
_cell_angle_gamma 90.000000
_cell_volume 1471.106118
_symmetry_space_group_name_H-M "P 2/M"
_symmetry_group_IT_number 10
_symmetry_cell_setting 'monoclinic'
loop_
_space_group_symop_operation_xyz
x,y,z
-x,y,-z
-x,-y,-z
x,-y,z
loop_
_atom_site_type_symbol
_atom_site_label
_atom_site_fract_x
_atom_site_fract_y
_atom_site_fract_z
Si Si1 0.237841 0.328667 0.403278
Si Si2 0.734585 0.168336 0.354512
Si Si3 0.794820 0.826109 0.088650
Si Si4 0.937312 0.830306 0.257321
Si Si5 0.864466 0.670609 0.672721
Si Si6 0.570653 0.824857 0.708094
Si Si7 0.699026 0.827407 0.008645
O O1 0.248937 0.500000 0.412722
O O2 0.124435 0.263991 0.590786
O O3 0.216469 0.299677 0.321335
O O4 0.362414 0.248249 0.284123
O O5 0.738680 0.242926 0.248481
O O6 0.865733 0.186196 0.246135
O O7 0.632828 0.236648 0.541336
O O8 0.698749 0.000000 0.383522
O O9 0.805442 0.000000 0.089234
O O10 0.710665 0.783217 0.101958
O O11 0.929441 0.765256 0.913884
O O12 0.938716 0.000000 0.287779
O O13 0.870369 0.500000 0.690742
O O14 0.804736 0.751943 0.828136
O O15 0.000000 0.731933 0.500000
O O16 0.586438 0.000000 0.696888
O O17 0.431835 0.775489 0.872413
O O18 0.714896 0.000000 0.977709
#
# Coordination Sequence:
#
# PCOD8063694 Si02
#       7
#     4   4   4   4   4   4   4
#     4  10  20  34  54  75  96 129 169 206 247 297
#     4   8  14  26  47  73 102 135 166 199 241 291
#     4   9  16  27  47  76 105 133 167 204 243 291
#     4   9  16  28  49  77 105 131 162 203 251 296
#     4  10  22  39  56  75 100 130 163 200 249 306
#     4   9  19  35  52  74 103 133 167 205 246 289
#     4  10  21  34  51  77 104 131 167 209 247 286
#
# _framework density 19.033297000000001
#
# number of rings (size 3 to 8) (size 9 to 14) (size 15 to 20)
#    0.000    2.714    0.000    2.571    0.000    4.857 
#    0.000    5.714    0.000   10.286    0.000    5.000 
#    0.000    0.000    0.000    0.000    0.000    0.000 
#
# Total GULP energy -347134.913046 kJ/mol
# GULP energy per Si atom -12397.675466 kJ/mol
# Density = 1.898998 g / cm^3
# Si number density = 19.033297 Si / 1000 Ang^3
#
#
#
# Elastic Constant Matrix: (Units=GPa)
#
#
# Indices 1 2 3 4 5 6 
#
# 1 88.5716 29.7292 38.9598 0.0000 -4.7321 0.0000
# 2 29.7292 36.2215 21.7348 0.0000 -0.2160 0.0000
# 3 38.9598 21.7348 83.7011 0.0000 -14.6559 0.0000
# 4 0.0000 0.0000 0.0000 10.3911 0.0000 -9.9107
# 5 -4.7321 -0.2160 -14.6559 0.0000 32.6406 0.0000
# 6 0.0000 0.0000 0.0000 -9.9107 0.0000 11.0136
#
#
#
# Elastic Compliance Matrix: (Units=1/GPa)
#
#
# Indices 1 2 3 4 5 6 
#
# 1 0.017284 -0.011101 -0.005141 0.000000 0.000124 0.000000
# 2 -0.011101 0.040298 -0.006004 0.000000 -0.004039 0.000000
# 3 -0.005141 -0.006004 0.017107 0.000000 0.006896 0.000000
# 4 0.000000 0.000000 0.000000 0.678981 0.000000 0.610992
# 5 0.000124 -0.004039 0.006896 0.000000 0.033724 0.000000
# 6 0.000000 0.000000 0.000000 0.610992 0.000000 0.640607
#
#
# Mechanical properties :
#
#
# Convention : Reuss Voigt Hill
#
# Bulk Modulus (GPa) = 33.11600 43.26020 38.18810
# Shear Modulus (GPa) = 3.37255 18.68041 11.02648
#
# Velocity S-wave (km/s) = 1.33258 3.13622 2.40953
# Velocity P-wave (km/s) = 4.45022 5.99104 5.27717
#
# Compressibility (1/GPa) = 0.03019688
#
# Stress axis : x y z
#
# Youngs Moduli (GPa) = 57.85632 24.81527 58.45610
#
# Poissons Ratio (x) = 0.27547 0.30052
# Poissons Ratio (y) = 0.64224 0.35099
# Poissons Ratio (z) = 0.29744 0.14900
#
# Static dielectric constant tensor:
#      x y z
#    x 3.607830 0.000000 0.017930 
#    y 0.000000 3.091450 0.000000 
#    z 0.017930 0.000000 3.550500 
# 
# 
# High freq. dielectric constant tensor:
#      x y z
#    x 1.748750 0.000000 0.000490 
#    y 0.000000 1.695130 0.000000 
#    z 0.000490 0.000000 1.741940 
# 
# From -- ./inp_files/49063.got.cif
#   From: 2010.06.25/outbox.cif.g09.slc.cpg/sg10_25_cif.got.tgz:49063.got - 2010.06.27 22:07:45.
