data_PCOD8063114
_publ_section_title
;
Structure prediction by ZEFSAII (Michael W. Deem and Ramdas Pophale) SiO2 
 PCOD8063114
Probable space group: P 2/M
;
_chemical_formula_sum "Si O2"
_cell_formula_units_Z 32
_cell_length_a 13.971039
_cell_length_b 9.564762
_cell_length_c 16.941492
_cell_angle_alpha 90.000000
_cell_angle_beta 53.780584
_cell_angle_gamma 90.000000
_cell_volume 1826.412845
_symmetry_space_group_name_H-M "P 2/M"
_symmetry_group_IT_number 10
_symmetry_cell_setting 'monoclinic'
loop_
_space_group_symop_operation_xyz
x,y,z
-x,y,-z
-x,-y,-z
x,-y,z
loop_
_atom_site_type_symbol
_atom_site_label
_atom_site_fract_x
_atom_site_fract_y
_atom_site_fract_z
Si Si1 0.077230 0.834517 0.891441
Si Si2 0.873218 0.165112 0.886166
Si Si3 0.458402 0.837055 0.276937
Si Si4 0.182545 0.661997 0.558461
Si Si5 0.715335 0.834106 0.111736
Si Si6 0.597109 0.837808 0.516042
Si Si7 0.240210 0.339362 0.352427
Si Si8 0.915562 0.337449 0.720143
O O1 0.211422 0.782113 0.845026
O O2 0.009242 0.789907 0.844453
O O3 0.074420 0.000000 0.896606
O O4 0.000000 0.772683 0.000000
O O5 0.845302 0.248457 0.820060
O O6 0.863218 0.000000 0.875347
O O7 0.779268 0.212360 0.999314
O O8 0.582250 0.775706 0.182815
O O9 0.455318 0.808655 0.371922
O O10 0.355795 0.754712 0.281346
O O11 0.442391 0.000000 0.265889
O O12 0.208950 0.500000 0.562408
O O13 0.281401 0.752189 0.556141
O O14 0.184453 0.694267 0.464451
O O15 0.053256 0.706277 0.651851
O O16 0.710138 0.000000 0.116990
O O17 0.500000 0.786821 0.500000
O O18 0.627970 0.000000 0.488023
O O19 0.279729 0.500000 0.326726
O O20 0.141235 0.301192 0.336486
O O21 0.900721 0.500000 0.747484
#
# Coordination Sequence:
#
# PCOD8063114 Si02
#       8
#     4   4   4   4   4   4   4   4
#     4   7  11  22  42  66  89 115 149 184 215 255
#     4   9  17  29  47  71  95 120 155 194 227 267
#     4   9  17  30  49  70  93 123 157 191 226 268
#     4   9  18  33  52  70  89 120 160 192 223 275
#     4   8  14  27  47  69  93 124 159 189 220 266
#     4   9  18  31  47  73 106 129 147 182 232 276
#     4   9  18  34  52  67  87 118 156 194 232 279
#     4  10  20  33  49  69  93 120 150 192 244 283
#
# _framework density 17.520682999999998
#
# number of rings (size 3 to 8) (size 9 to 14) (size 15 to 20)
#    0.000    3.250    0.000    1.875    0.000    3.750 
#    0.000    3.750    0.000   11.625    0.000    0.000 
#    0.000    0.000    0.000    0.000    0.000    0.000 
#
# Total GULP energy -396507.760456 kJ/mol
# GULP energy per Si atom -12390.867514 kJ/mol
# Density = 1.748081 g / cm^3
# Si number density = 17.520683 Si / 1000 Ang^3
#
#
#
# Elastic Constant Matrix: (Units=GPa)
#
#
# Indices 1 2 3 4 5 6 
#
# 1 114.2290 45.3947 44.3117 0.0000 -6.8664 0.0000
# 2 45.3947 42.2516 30.5557 0.0000 -1.2605 0.0000
# 3 44.3117 30.5557 63.8135 0.0000 -8.3551 0.0000
# 4 0.0000 0.0000 0.0000 20.6748 0.0000 0.2199
# 5 -6.8664 -1.2605 -8.3551 0.0000 29.0723 0.0000
# 6 0.0000 0.0000 0.0000 0.2199 0.0000 26.7306
#
#
#
# Elastic Compliance Matrix: (Units=1/GPa)
#
#
# Indices 1 2 3 4 5 6 
#
# 1 0.016165 -0.014350 -0.004089 0.000000 0.002021 0.000000
# 2 -0.014350 0.049298 -0.014345 0.000000 -0.005374 0.000000
# 3 -0.004089 -0.014345 0.026155 0.000000 0.005929 0.000000
# 4 0.000000 0.000000 0.000000 0.048372 0.000000 -0.000398
# 5 0.002021 -0.005374 0.005929 0.000000 0.036345 0.000000
# 6 0.000000 0.000000 0.000000 -0.000398 0.000000 0.037414
#
#
# Mechanical properties :
#
#
# Convention : Reuss Voigt Hill
#
# Bulk Modulus (GPa) = 38.38612 51.20202 44.79407
# Shear Modulus (GPa) = 17.36112 21.96435 19.66273
#
# Velocity S-wave (km/s) = 3.15126 3.54450 3.35365
# Velocity P-wave (km/s) = 5.93272 6.78517 6.37321
#
# Compressibility (1/GPa) = 0.02605108
#
# Stress axis : x y z
#
# Youngs Moduli (GPa) = 61.86362 20.28461 38.23353
#
# Poissons Ratio (x) = 0.29108 0.15634
# Poissons Ratio (y) = 0.88772 0.54845
# Poissons Ratio (z) = 0.25296 0.29098
#
# Static dielectric constant tensor:
#      x y z
#    x 3.528820 0.000000 -0.114730 
#    y 0.000000 2.952000 0.000000 
#    z -0.114730 0.000000 3.176580 
# 
# 
# High freq. dielectric constant tensor:
#      x y z
#    x 1.683710 0.000000 -0.001210 
#    y 0.000000 1.643780 0.000000 
#    z -0.001210 0.000000 1.663710 
# 
# From -- ./inp_files/66528.got.cif
#   From: 2010.06.25/outbox.cif.g09.slc.cpg/sg10_34_cif.got.tgz:66528.got - 2010.06.27 22:07:45.
