data_PCOD8063929
_publ_section_title
;
Structure prediction by ZEFSAII (Michael W. Deem and Ramdas Pophale) SiO2 
 PCOD8063929
Probable space group: P 2/M
;
_chemical_formula_sum "Si O2"
_cell_formula_units_Z 24
_cell_length_a 11.513778
_cell_length_b 8.943540
_cell_length_c 23.689666
_cell_angle_alpha 90.000000
_cell_angle_beta 28.424410
_cell_angle_gamma 90.000000
_cell_volume 1161.160400
_symmetry_space_group_name_H-M "P 2/M"
_symmetry_group_IT_number 10
_symmetry_cell_setting 'monoclinic'
loop_
_space_group_symop_operation_xyz
x,y,z
-x,y,-z
-x,-y,-z
x,-y,z
loop_
_atom_site_type_symbol
_atom_site_label
_atom_site_fract_x
_atom_site_fract_y
_atom_site_fract_z
Si Si1 0.322099 0.332562 0.833840
Si Si2 0.836979 0.171715 0.208905
Si Si3 0.680902 0.171290 0.053974
Si Si4 0.870819 0.824488 0.724767
Si Si5 0.105215 0.667707 0.397442
Si Si6 0.742127 0.323497 0.363795
O O1 0.220560 0.500000 0.866164
O O2 0.278208 0.224280 0.800408
O O3 0.209870 0.267610 0.940273
O O4 0.607479 0.336247 0.722424
O O5 0.726304 0.271258 0.305959
O O6 0.765163 0.000000 0.250356
O O7 0.131540 0.189650 0.078292
O O8 0.413281 0.223455 0.147978
O O9 0.666369 0.000000 0.081037
O O10 0.980762 0.769067 0.618131
O O11 0.016432 0.747732 0.712883
O O12 0.907480 0.000000 0.714252
O O13 0.998625 0.500000 0.434375
O O14 0.000000 0.738359 0.500000
O O15 0.500000 0.268901 0.500000
O O16 0.766774 0.500000 0.355595
#
# Coordination Sequence:
#
# PCOD8063929 Si02
#       6
#     4   4   4   4   4   4
#     4  10  20  34  56  89 124 157 196 240 287 343
#     4  11  23  39  61  87 119 158 198 239 291 349
#     4   9  20  39  61  88 122 157 190 237 297 348
#     4  10  21  39  62  87 116 149 194 244 288 341
#     4   9  19  35  56  82 116 158 195 234 290 344
#     4  11  26  45  62  82 115 156 196 241 295 351
#
# _framework density 20.668977999999999
#
# number of rings (size 3 to 8) (size 9 to 14) (size 15 to 20)
#    0.000    2.000    0.000    2.500    2.333    7.000 
#    0.000    3.333    0.000    0.000    0.000    0.000 
#    0.000    0.000    0.000    0.000    0.000    0.000 
#
# Total GULP energy -297660.724481 kJ/mol
# GULP energy per Si atom -12402.530187 kJ/mol
# Density = 2.062193 g / cm^3
# Si number density = 20.668978 Si / 1000 Ang^3
#
#
#
# Elastic Constant Matrix: (Units=GPa)
#
#
# Indices 1 2 3 4 5 6 
#
# 1 84.6242 32.1035 29.3640 0.0000 4.0595 0.0000
# 2 32.1035 82.5971 32.7548 0.0000 -0.4009 0.0000
# 3 29.3640 32.7548 79.4649 0.0000 22.9300 0.0000
# 4 0.0000 0.0000 0.0000 25.3610 0.0000 4.9822
# 5 4.0595 -0.4009 22.9300 0.0000 27.2721 0.0000
# 6 0.0000 0.0000 0.0000 4.9822 0.0000 39.6456
#
#
#
# Elastic Compliance Matrix: (Units=1/GPa)
#
#
# Indices 1 2 3 4 5 6 
#
# 1 0.014737 -0.004095 -0.004103 0.000000 0.001196 0.000000
# 2 -0.004095 0.016667 -0.007398 0.000000 0.007075 0.000000
# 3 -0.004103 -0.007398 0.022452 0.000000 -0.018375 0.000000
# 4 0.000000 0.000000 0.000000 0.040429 0.000000 -0.005081
# 5 0.001196 0.007075 -0.018375 0.000000 0.052043 0.000000
# 6 0.000000 0.000000 0.000000 -0.005081 0.000000 0.025862
#
#
# Mechanical properties :
#
#
# Convention : Reuss Voigt Hill
#
# Bulk Modulus (GPa) = 44.12334 48.34789 46.23561
# Shear Modulus (GPa) = 23.70392 28.61999 26.16196
#
# Velocity S-wave (km/s) = 3.39017 3.72517 3.56161
# Velocity P-wave (km/s) = 6.05956 6.47648 6.27149
#
# Compressibility (1/GPa) = 0.02266374
#
# Stress axis : x y z
#
# Youngs Moduli (GPa) = 67.85781 59.99956 44.53967
#
# Poissons Ratio (x) = 0.24570 0.18273
# Poissons Ratio (y) = 0.27788 0.32951
# Poissons Ratio (z) = 0.27839 0.44389
#
# Static dielectric constant tensor:
#      x y z
#    x 3.596330 0.000000 -0.004150 
#    y 0.000000 3.907380 0.000000 
#    z -0.004150 0.000000 3.898670 
# 
# 
# High freq. dielectric constant tensor:
#      x y z
#    x 1.801240 0.000000 -0.001990 
#    y 0.000000 1.811300 0.000000 
#    z -0.001990 0.000000 1.816560 
# 
# From -- ./inp_files/45006.got.cif
#   From: 2010.06.25/outbox.cif.g09.slc.cpg/sg10_23_cif.got.tgz:45006.got - 2010.06.27 22:07:45.
