data_PCOD8063870
_publ_section_title
;
Structure prediction by ZEFSAII (Michael W. Deem and Ramdas Pophale) SiO2 
 PCOD8063870
Probable space group: P 2/M
;
_chemical_formula_sum "Si O2"
_cell_formula_units_Z 26
_cell_length_a 22.529278
_cell_length_b 9.405613
_cell_length_c 7.125177
_cell_angle_alpha 90.000000
_cell_angle_beta 135.520440
_cell_angle_gamma 90.000000
_cell_volume 1057.874431
_symmetry_space_group_name_H-M "P 2/M"
_symmetry_group_IT_number 10
_symmetry_cell_setting 'monoclinic'
loop_
_space_group_symop_operation_xyz
x,y,z
-x,y,-z
-x,-y,-z
x,-y,z
loop_
_atom_site_type_symbol
_atom_site_label
_atom_site_fract_x
_atom_site_fract_y
_atom_site_fract_z
Si Si1 0.000000 0.769781 0.500000
Si Si2 0.922865 0.156734 0.952092
Si Si3 0.830225 0.345913 0.243049
Si Si4 0.315372 0.840008 0.979929
Si Si5 0.468080 0.661166 0.216083
Si Si6 0.229625 0.340896 0.315678
Si Si7 0.620927 0.161033 0.451459
O O1 0.050344 0.860343 0.768615
O O2 0.068952 0.678734 0.539723
O O3 0.892606 0.000000 0.819005
O O4 0.849020 0.270739 0.751857
O O5 0.000000 0.211125 0.000000
O O6 0.815465 0.500000 0.303847
O O7 0.778935 0.228451 0.248089
O O8 0.791080 0.348367 0.948911
O O9 0.379230 0.744540 0.001024
O O10 0.346687 0.843427 0.263396
O O11 0.311903 0.000000 0.891256
O O12 0.500000 0.656697 0.500000
O O13 0.457824 0.500000 0.116827
O O14 0.535151 0.747465 0.240960
O O15 0.246539 0.500000 0.431540
O O16 0.310862 0.239485 0.528237
O O17 0.605753 0.000000 0.345370
#
# Coordination Sequence:
#
# PCOD8063870 Si02
#       7
#     2   4   4   4   4   4   4
#     4  10  20  34  56  78 102 136 176 216 260 310
#     4  10  21  36  54  77 105 137 174 216 261 309
#     4   9  17  29  45  65  91 125 165 209 257 308
#     4   9  16  24  35  55  84 119 161 207 255 307
#     4   9  15  22  33  51  80 119 161 205 254 307
#     4   9  17  29  45  66  93 126 165 208 255 307
#     4   9  15  23  37  57  84 120 161 205 254 307
#
# _framework density 24.577586
#
# number of rings (size 3 to 8) (size 9 to 14) (size 15 to 20)
#    0.000    2.769    0.000    2.308    0.000   10.769 
#    0.000    0.000    0.000    0.000    0.000    0.000 
#    0.000    1.231    0.000   11.077    0.000   28.615 
#
# Total GULP energy -322340.657981 kJ/mol
# GULP energy per Si atom -12397.717615 kJ/mol
# Density = 2.452165 g / cm^3
# Si number density = 24.577586 Si / 1000 Ang^3
#
#
#
# Elastic Constant Matrix: (Units=GPa)
#
#
# Indices 1 2 3 4 5 6 
#
# 1 140.4828 95.9414 34.9000 0.0000 70.2323 0.0000
# 2 95.9414 259.9367 43.3607 0.0000 57.4935 0.0000
# 3 34.9000 43.3607 47.8279 0.0000 19.8946 0.0000
# 4 0.0000 0.0000 0.0000 8.1294 0.0000 11.0841
# 5 70.2323 57.4935 19.8946 0.0000 53.4980 0.0000
# 6 0.0000 0.0000 0.0000 11.0841 0.0000 32.1038
#
#
#
# Elastic Compliance Matrix: (Units=1/GPa)
#
#
# Indices 1 2 3 4 5 6 
#
# 1 0.022197 -0.001870 -0.003805 0.000000 -0.025715 0.000000
# 2 -0.001870 0.005528 -0.002599 0.000000 -0.002519 0.000000
# 3 -0.003805 -0.002599 0.026974 0.000000 -0.002243 0.000000
# 4 0.000000 0.000000 0.000000 0.232420 0.000000 -0.080245
# 5 -0.025715 -0.002519 -0.002243 0.000000 0.055992 0.000000
# 6 0.000000 0.000000 0.000000 -0.080245 0.000000 0.058854
#
#
# Mechanical properties :
#
#
# Convention : Reuss Voigt Hill
#
# Bulk Modulus (GPa) = 26.21220 88.51685 57.36453
# Shear Modulus (GPa) = 11.59474 37.01593 24.30533
#
# Velocity S-wave (km/s) = 2.17436 3.88504 3.14813
# Velocity P-wave (km/s) = 4.12214 7.49788 6.05022
#
# Compressibility (1/GPa) = 0.03815017
#
# Stress axis : x y z
#
# Youngs Moduli (GPa) = 45.05182 180.89140 37.07274
#
# Poissons Ratio (x) = 0.33832 0.14106
# Poissons Ratio (y) = 0.08426 0.09636
# Poissons Ratio (z) = 0.17141 0.47018
#
# Static dielectric constant tensor:
#      x y z
#    x 4.308630 0.000000 0.267490 
#    y 0.000000 4.554150 0.000000 
#    z 0.267490 0.000000 4.104980 
# 
# 
# High freq. dielectric constant tensor:
#      x y z
#    x 1.976540 0.000000 0.007240 
#    y 0.000000 1.978590 0.000000 
#    z 0.007240 0.000000 1.964260 
# 
# From -- ./inp_files/34301.got.cif
#   From: 2010.06.25/outbox.cif.g09.slc.cpg/sg10_18_cif.got.tgz:34301.got - 2010.06.27 22:07:45.
