data_PCOD8063437
_publ_section_title
;
Structure prediction by ZEFSAII (Michael W. Deem and Ramdas Pophale) SiO2 
 PCOD8063437
Probable space group: P 2/M
;
_chemical_formula_sum "Si O2"
_cell_formula_units_Z 32
_cell_length_a 13.795176
_cell_length_b 9.361036
_cell_length_c 16.500790
_cell_angle_alpha 90.000000
_cell_angle_beta 83.601675
_cell_angle_gamma 90.000000
_cell_volume 2117.592036
_symmetry_space_group_name_H-M "P 2/M"
_symmetry_group_IT_number 10
_symmetry_cell_setting 'monoclinic'
loop_
_space_group_symop_operation_xyz
x,y,z
-x,y,-z
-x,-y,-z
x,-y,z
loop_
_atom_site_type_symbol
_atom_site_label
_atom_site_fract_x
_atom_site_fract_y
_atom_site_fract_z
Si Si1 0.239297 0.836151 0.317862
Si Si2 0.623660 0.833350 0.834218
Si Si3 0.084981 0.835104 0.055984
Si Si4 0.567625 0.842315 0.072223
Si Si5 0.153542 0.661258 0.457195
Si Si6 0.279585 0.670953 0.027960
Si Si7 0.952862 0.661685 0.379285
Si Si8 0.045227 0.834938 0.240920
O O1 0.338567 0.799883 0.259964
O O2 0.236366 0.751791 0.403276
O O3 0.150657 0.793687 0.266793
O O4 0.233315 0.000000 0.343065
O O5 0.506971 0.802233 0.847530
O O6 0.681174 0.733090 0.891298
O O7 0.645386 0.000000 0.854547
O O8 0.171999 0.730748 0.022014
O O9 0.043666 0.789215 0.147442
O O10 0.121206 0.000000 0.054952
O O11 0.000000 0.812645 0.000000
O O12 0.614064 0.000000 0.082129
O O13 0.500000 0.846499 0.000000
O O14 0.652287 0.725136 0.053035
O O15 0.191573 0.500000 0.458083
O O16 0.131500 0.717499 0.550834
O O17 0.054873 0.671441 0.415752
O O18 0.279577 0.500000 0.030138
O O19 0.929892 0.500000 0.356056
O O20 0.958429 0.754254 0.296930
O O21 0.022267 0.000000 0.254017
#
# Coordination Sequence:
#
# PCOD8063437 Si02
#       8
#     4   4   4   4   4   4   4   4
#     4   9  15  23  37  55  77 100 128 165 195 222
#     4   9  16  28  42  57  79 107 137 164 193 236
#     4  10  20  34  48  58  74 103 137 171 207 246
#     4   8  15  27  43  57  74 103 134 162 193 235
#     4   8  14  23  33  49  73 100 129 154 183 228
#     4  11  20  28  41  59  80 101 127 169 208 240
#     4   8  14  24  36  49  70  99 127 155 188 230
#     4   9  16  26  40  56  71  92 128 169 200 230
#
# _framework density 15.111504
#
# number of rings (size 3 to 8) (size 9 to 14) (size 15 to 20)
#    0.000    3.000    1.250    2.625    0.000    4.000 
#    0.000    2.500    0.000    0.000    0.000    0.000 
#    0.000    0.000    0.000    1.125    0.000   23.500 
#
# Total GULP energy -396538.355593 kJ/mol
# GULP energy per Si atom -12391.823612 kJ/mol
# Density = 1.507711 g / cm^3
# Si number density = 15.111504 Si / 1000 Ang^3
#
#
#
# Elastic Constant Matrix: (Units=GPa)
#
#
# Indices 1 2 3 4 5 6 
#
# 1 56.8745 46.5782 50.5900 0.0000 -26.5620 0.0000
# 2 46.5782 84.7614 48.0515 0.0000 -22.2632 0.0000
# 3 50.5900 48.0515 97.6769 0.0000 -38.8859 0.0000
# 4 0.0000 0.0000 0.0000 16.4401 0.0000 -5.8637
# 5 -26.5620 -22.2632 -38.8859 0.0000 30.1000 0.0000
# 6 0.0000 0.0000 0.0000 -5.8637 0.0000 13.2346
#
#
#
# Elastic Compliance Matrix: (Units=1/GPa)
#
#
# Indices 1 2 3 4 5 6 
#
# 1 0.047563 -0.015983 -0.009818 0.000000 0.017467 0.000000
# 2 -0.015983 0.021913 -0.003427 0.000000 -0.002324 0.000000
# 3 -0.009818 -0.003427 0.025841 0.000000 0.022185 0.000000
# 4 0.000000 0.000000 0.000000 0.072243 0.000000 0.032008
# 5 0.017467 -0.002324 0.022185 0.000000 0.075578 0.000000
# 6 0.000000 0.000000 0.000000 0.032008 0.000000 0.089741
#
#
# Mechanical properties :
#
#
# Convention : Reuss Voigt Hill
#
# Bulk Modulus (GPa) = 27.12920 58.86136 42.99528
# Shear Modulus (GPa) = 12.38786 18.22780 15.30783
#
# Velocity S-wave (km/s) = 2.86626 3.47684 3.18621
# Velocity P-wave (km/s) = 5.38011 7.42656 6.48457
#
# Compressibility (1/GPa) = 0.03686065
#
# Stress axis : x y z
#
# Youngs Moduli (GPa) = 21.02492 45.63434 38.69885
#
# Poissons Ratio (x) = 0.72938 0.37993
# Poissons Ratio (y) = 0.33604 0.13262
# Poissons Ratio (z) = 0.20642 0.15639
#
# Static dielectric constant tensor:
#      x y z
#    x 2.770510 0.000000 -0.572860 
#    y 0.000000 2.923750 0.000000 
#    z -0.572860 0.000000 3.058350 
# 
# 
# High freq. dielectric constant tensor:
#      x y z
#    x 1.533210 0.000000 -0.049720 
#    y 0.000000 1.575720 0.000000 
#    z -0.049720 0.000000 1.561150 
# 
# From -- ./inp_files/75986.got.cif
#   From: 2010.06.25/outbox.cif.g09.slc.cpg/sg10_38_cif.got.tgz:75986.got - 2010.06.27 22:07:45.
