data_PCOD8063833
_publ_section_title
;
Structure prediction by ZEFSAII (Michael W. Deem and Ramdas Pophale) SiO2 
 PCOD8063833
Probable space group: P 2/M
;
_chemical_formula_sum "Si O2"
_cell_formula_units_Z 32
_cell_length_a 14.021405
_cell_length_b 9.178500
_cell_length_c 19.512109
_cell_angle_alpha 90.000000
_cell_angle_beta 40.939601
_cell_angle_gamma 90.000000
_cell_volume 1645.444194
_symmetry_space_group_name_H-M "P 2/M"
_symmetry_group_IT_number 10
_symmetry_cell_setting 'monoclinic'
loop_
_space_group_symop_operation_xyz
x,y,z
-x,y,-z
-x,-y,-z
x,-y,z
loop_
_atom_site_type_symbol
_atom_site_label
_atom_site_fract_x
_atom_site_fract_y
_atom_site_fract_z
Si Si1 0.369633 0.166762 0.221617
Si Si2 0.595652 0.172324 0.306347
Si Si3 0.142202 0.167704 0.462448
Si Si4 0.662444 0.328441 0.893651
Si Si5 0.292978 0.330789 0.494652
Si Si6 0.798983 0.332478 0.300061
Si Si7 0.132562 0.670757 0.095812
Si Si8 0.322440 0.828926 0.890220
O O1 0.282237 0.187738 0.338894
O O2 0.294537 0.259238 0.202422
O O3 0.533104 0.221395 0.147590
O O4 0.368189 0.000000 0.198804
O O5 0.440968 0.246915 0.399617
O O6 0.703806 0.225806 0.306045
O O7 0.664603 0.216367 0.196064
O O8 0.572252 0.000000 0.324581
O O9 0.164387 0.265963 0.517495
O O10 0.000000 0.224143 0.500000
O O11 0.121746 0.000000 0.496070
O O12 0.673921 0.500000 0.879360
O O13 0.773198 0.270735 0.891171
O O14 0.500000 0.276912 0.000000
O O15 0.315159 0.500000 0.465616
O O16 0.245275 0.306429 0.598084
O O17 0.770934 0.500000 0.293778
O O18 0.966222 0.288703 0.199494
O O19 0.156511 0.500000 0.073420
O O20 0.184464 0.747823 0.997867
O O21 0.298272 0.000000 0.910429
#
# Coordination Sequence:
#
# PCOD8063833 Si02
#       8
#     4   4   4   4   4   4   4   4
#     4  10  20  36  56  82 116 154 192 239 293 343
#     4  11  23  42  66  90 117 152 199 252 303 358
#     4  10  22  40  60  87 124 161 198 243 295 351
#     4  10  20  34  55  83 113 149 194 236 277 339
#     4  11  23  40  64  91 122 158 199 247 298 357
#     4  10  24  43  60  86 123 157 195 248 305 357
#     4  10  22  40  59  84 122 160 195 242 298 354
#     4  10  21  38  60  86 119 152 195 249 295 350
#
# _framework density 19.447637
#
# number of rings (size 3 to 8) (size 9 to 14) (size 15 to 20)
#    0.000    1.750    2.500    1.125    1.750    6.000 
#    0.000    2.500    0.000    0.000    0.000    0.000 
#    0.000    0.000    0.000    0.000    0.000    0.000 
#
# Total GULP energy -396949.945087 kJ/mol
# GULP energy per Si atom -12404.685784 kJ/mol
# Density = 1.940337 g / cm^3
# Si number density = 19.447637 Si / 1000 Ang^3
#
#
#
# Elastic Constant Matrix: (Units=GPa)
#
#
# Indices 1 2 3 4 5 6 
#
# 1 135.8912 62.3910 60.1054 0.0000 1.5236 0.0000
# 2 62.3910 74.0574 53.8292 0.0000 6.3114 0.0000
# 3 60.1054 53.8292 80.9304 0.0000 12.0727 0.0000
# 4 0.0000 0.0000 0.0000 29.7469 0.0000 5.8328
# 5 1.5236 6.3114 12.0727 0.0000 26.7980 0.0000
# 6 0.0000 0.0000 0.0000 5.8328 0.0000 33.4742
#
#
#
# Elastic Compliance Matrix: (Units=1/GPa)
#
#
# Indices 1 2 3 4 5 6 
#
# 1 0.013079 -0.007511 -0.005221 0.000000 0.003378 0.000000
# 2 -0.007511 0.030536 -0.014711 0.000000 -0.000137 0.000000
# 3 -0.005221 -0.014711 0.027292 0.000000 -0.008534 0.000000
# 4 0.000000 0.000000 0.000000 0.034806 0.000000 -0.006065
# 5 0.003378 -0.000137 -0.008534 0.000000 0.041001 0.000000
# 6 0.000000 0.000000 0.000000 -0.006065 0.000000 0.030931
#
#
# Mechanical properties :
#
#
# Convention : Reuss Voigt Hill
#
# Bulk Modulus (GPa) = 62.42653 71.50334 66.96493
# Shear Modulus (GPa) = 21.01969 25.64072 23.33021
#
# Velocity S-wave (km/s) = 3.29117 3.63498 3.46734
# Velocity P-wave (km/s) = 6.82729 7.38000 7.10902
#
# Compressibility (1/GPa) = 0.01601883
#
# Stress axis : x y z
#
# Youngs Moduli (GPa) = 76.45816 32.74845 36.64067
#
# Poissons Ratio (x) = 0.24598 0.19132
# Poissons Ratio (y) = 0.57430 0.53903
# Poissons Ratio (z) = 0.39922 0.48177
#
# Static dielectric constant tensor:
#      x y z
#    x 3.666050 0.000000 0.001880 
#    y 0.000000 3.466130 0.000000 
#    z 0.001880 0.000000 3.550760 
# 
# 
# High freq. dielectric constant tensor:
#      x y z
#    x 1.765240 0.000000 0.003220 
#    y 0.000000 1.751330 0.000000 
#    z 0.003220 0.000000 1.763170 
# 
# From -- ./inp_files/58297.got.cif
#   From: 2010.06.25/outbox.cif.g09.slc.cpg/sg10_30_cif.got.tgz:58297.got - 2010.06.27 22:07:45.
