data_PCOD8063612
_publ_section_title
;
Structure prediction by ZEFSAII (Michael W. Deem and Ramdas Pophale) SiO2 
 PCOD8063612
Probable space group: P 2/M
;
_chemical_formula_sum "Si O2"
_cell_formula_units_Z 24
_cell_length_a 8.783420
_cell_length_b 21.322533
_cell_length_c 8.374325
_cell_angle_alpha 90.000000
_cell_angle_beta 58.370489
_cell_angle_gamma 90.000000
_cell_volume 1335.410983
_symmetry_space_group_name_H-M "P 2/M"
_symmetry_group_IT_number 10
_symmetry_cell_setting 'monoclinic'
loop_
_space_group_symop_operation_xyz
x,y,z
-x,y,-z
-x,-y,-z
x,-y,z
loop_
_atom_site_type_symbol
_atom_site_label
_atom_site_fract_x
_atom_site_fract_y
_atom_site_fract_z
Si Si1 0.322928 0.073592 0.500001
Si Si2 0.820463 0.261686 0.500001
Si Si3 0.328397 0.160791 0.204311
Si Si4 0.968599 0.500000 0.202959
Si Si5 0.032708 0.839209 0.795689
Si Si6 0.328442 0.500000 0.202959
Si Si7 0.818918 0.599174 0.500000
O O1 0.500000 0.091284 0.500000
O O2 0.339121 0.100698 0.312886
O O3 0.152006 0.100697 0.687118
O O4 0.295345 0.000000 0.500001
O O5 0.676752 0.223705 0.684949
O O6 0.745914 0.331067 0.500001
O O7 0.000000 0.268616 0.500000
O O8 0.861698 0.223705 0.315054
O O9 0.153396 0.154128 0.193207
O O10 0.500000 0.164501 0.000000
O O11 0.856801 0.561885 0.314830
O O12 0.157303 0.500000 0.185394
O O13 0.000000 0.500000 0.000000
O O14 0.000000 0.835497 0.000000
O O15 0.328369 0.561885 0.314829
O O16 0.500000 0.500000 0.000000
O O17 0.000000 0.602324 0.500000
#
# Coordination Sequence:
#
# PCOD8063612 Si02
#       7
#     4   4   4   2   4   2   4
#     4  10  21  37  56  77 101 130 165 206 249 293
#     4   8  16  31  50  71  96 128 167 206 243 289
#     4  10  20  34  53  76 102 133 166 204 249 296
#     4   9  17  29  48  70  94 127 163 201 244 290
#     4  10  20  34  53  76 102 133 166 204 249 296
#     4   9  17  29  48  70  94 127 163 201 244 290
#     4   8  15  30  48  67  95 131 165 196 241 297
#
# _framework density 17.971996000000001
#
# number of rings (size 3 to 8) (size 9 to 14) (size 15 to 20)
#    0.000    2.833    0.000    3.500    0.000    3.333 
#    0.000    1.667    0.000   10.000    0.000    0.000 
#    0.000    0.000    0.000    0.000    0.000    0.000 
#
# Total GULP energy -297529.749528 kJ/mol
# GULP energy per Si atom -12397.072897 kJ/mol
# Density = 1.793109 g / cm^3
# Si number density = 17.971996 Si / 1000 Ang^3
#
#
#
# Elastic Constant Matrix: (Units=GPa)
#
#
# Indices 1 2 3 4 5 6 
#
# 1 68.0771 51.9514 54.2824 0.0000 4.8092 0.0000
# 2 51.9514 159.0235 89.4440 0.0000 3.4223 0.0000
# 3 54.2824 89.4440 194.6454 0.0000 6.7416 0.0000
# 4 0.0000 0.0000 0.0000 15.3645 0.0000 -0.1004
# 5 4.8092 3.4223 6.7416 0.0000 33.4246 0.0000
# 6 0.0000 0.0000 0.0000 -0.1004 0.0000 16.4640
#
#
#
# Elastic Compliance Matrix: (Units=1/GPa)
#
#
# Indices 1 2 3 4 5 6 
#
# 1 0.021502 -0.004919 -0.003672 0.000000 -0.001849 0.000000
# 2 -0.004919 0.009606 -0.003054 0.000000 0.000340 0.000000
# 3 -0.003672 -0.003054 0.007589 0.000000 -0.000690 0.000000
# 4 0.000000 0.000000 0.000000 0.065088 0.000000 0.000397
# 5 -0.001849 0.000340 -0.000690 0.000000 0.030288 0.000000
# 6 0.000000 0.000000 0.000000 0.000397 0.000000 0.060741
#
#
# Mechanical properties :
#
#
# Convention : Reuss Voigt Hill
#
# Bulk Modulus (GPa) = 64.90919 90.34461 77.62690
# Shear Modulus (GPa) = 22.39747 28.12182 25.25964
#
# Velocity S-wave (km/s) = 3.53405 3.95999 3.75307
# Velocity P-wave (km/s) = 7.26966 8.44319 7.87831
#
# Compressibility (1/GPa) = 0.01540614
#
# Stress axis : x y z
#
# Youngs Moduli (GPa) = 46.50797 104.10238 131.77338
#
# Poissons Ratio (x) = 0.51212 0.48384
# Poissons Ratio (y) = 0.22879 0.40244
# Poissons Ratio (z) = 0.17076 0.31793
#
# Static dielectric constant tensor:
#      x y z
#    x 3.099430 0.000000 -0.206620 
#    y 0.000000 3.713710 0.000000 
#    z -0.206620 0.000000 0.835540 
# 
# 
# High freq. dielectric constant tensor:
#      x y z
#    x 1.674890 0.000000 0.002400 
#    y 0.000000 1.702180 0.000000 
#    z 0.002400 0.000000 1.701200 
# 
# From -- ./inp_files/20175.got.cif
#   From: 2010.06.25/outbox.cif.g09.slc.cpg/sg10_11_cif.got.tgz:20175.got - 2010.06.27 22:07:45.
