data_PCOD8063606
_publ_section_title
;
Structure prediction by ZEFSAII (Michael W. Deem and Ramdas Pophale) SiO2 
 PCOD8063606
Probable space group: P 2/M
;
_chemical_formula_sum "Si O2"
_cell_formula_units_Z 28
_cell_length_a 9.030463
_cell_length_b 8.680638
_cell_length_c 29.011179
_cell_angle_alpha 90.000000
_cell_angle_beta 141.076320
_cell_angle_gamma 90.000000
_cell_volume 1428.839637
_symmetry_space_group_name_H-M "P 2/M"
_symmetry_group_IT_number 10
_symmetry_cell_setting 'monoclinic'
loop_
_space_group_symop_operation_xyz
x,y,z
-x,y,-z
-x,-y,-z
x,-y,z
loop_
_atom_site_type_symbol
_atom_site_label
_atom_site_fract_x
_atom_site_fract_y
_atom_site_fract_z
Si Si1 0.237169 0.183677 0.927946
Si Si2 0.621661 0.817106 0.215078
Si Si3 0.483420 0.182246 0.360073
Si Si4 0.665944 0.319011 0.498540
Si Si5 0.827402 0.182595 0.362331
Si Si6 0.959151 0.816136 0.216518
Si Si7 0.902393 0.183806 0.927858
O O1 0.141448 0.246825 0.856123
O O2 0.069160 0.247013 0.927644
O O3 0.237891 0.000000 0.928081
O O4 0.500000 0.247259 0.000000
O O5 0.712242 0.763006 0.286669
O O6 0.360223 0.750739 0.143446
O O7 0.795332 0.751679 0.217875
O O8 0.614639 0.000000 0.210851
O O9 0.579263 0.238340 0.431615
O O10 0.655690 0.238719 0.361368
O O11 0.222481 0.248899 0.287617
O O12 0.473709 0.000000 0.358437
O O13 0.500000 0.263991 0.500000
O O14 0.652980 0.500000 0.488005
O O15 0.928836 0.269485 0.573409
O O16 0.870744 0.000000 0.374242
O O17 0.960174 0.000000 0.216756
O O18 0.900526 0.000000 0.927079
O O19 0.000000 0.246335 0.000000
#
# Coordination Sequence:
#
# PCOD8063606 Si02
#       7
#     4   4   4   4   4   4   4
#     4   9  15  22  33  52  82 120 159 197 238 285
#     4   9  16  26  41  62  89 122 159 198 240 286
#     4  10  20  34  53  76 100 128 164 204 246 294
#     4  11  24  39  54  74 100 129 162 201 246 296
#     4  10  20  34  53  76 100 128 164 204 246 294
#     4   9  16  26  41  62  89 122 159 198 240 286
#     4   9  15  22  33  52  82 120 159 197 238 285
#
# _framework density 19.596319999999999
#
# number of rings (size 3 to 8) (size 9 to 14) (size 15 to 20)
#    0.000    2.429    0.000    3.429    0.000   11.429 
#    0.000    0.000    0.000    0.000    0.000    0.000 
#    0.000    1.143    0.000    4.286    0.000    9.429 
#
# Total GULP energy -347227.811715 kJ/mol
# GULP energy per Si atom -12400.993276 kJ/mol
# Density = 1.955172 g / cm^3
# Si number density = 19.596320 Si / 1000 Ang^3
#
#
#
# Elastic Constant Matrix: (Units=GPa)
#
#
# Indices 1 2 3 4 5 6 
#
# 1 197.7873 -6.8906 77.9771 0.0000 7.4202 0.0000
# 2 -6.8906 -18.3626 -27.3867 0.0000 8.1810 0.0000
# 3 77.9771 -27.3867 143.4065 0.0000 11.8032 0.0000
# 4 0.0000 0.0000 0.0000 -4.9182 0.0000 2.0071
# 5 7.4202 8.1810 11.8032 0.0000 46.9036 0.0000
# 6 0.0000 0.0000 0.0000 2.0071 0.0000 10.4047
#
#
#
# Elastic Compliance Matrix: (Units=1/GPa)
#
#
# Indices 1 2 3 4 5 6 
#
# 1 0.006341 0.001899 -0.003039 0.000000 -0.000570 0.000000
# 2 0.001899 -0.037947 -0.008985 0.000000 0.008580 0.000000
# 3 -0.003039 -0.008985 0.006884 0.000000 0.000316 0.000000
# 4 0.000000 0.000000 0.000000 -0.188490 0.000000 0.036360
# 5 -0.000570 0.008580 0.000316 0.000000 0.019835 0.000000
# 6 0.000000 0.000000 0.000000 0.036360 0.000000 0.089097
#
#
# Mechanical properties :
#
#
# Convention : Reuss Voigt Hill
#
# Bulk Modulus (GPa) = -22.23539 45.58119 11.67290
# Shear Modulus (GPa) = -50.49423 29.08678 -10.70372
#
# Velocity S-wave (km/s) = -5.08165 3.85684 -2.33965
# Velocity P-wave (km/s) = 6.76773 6.56842 1.15283
#
# Compressibility (1/GPa) = -0.04497335
#
# Stress axis : x y z
#
# Youngs Moduli (GPa) = 157.69270 -26.35235 145.27446
#
# Poissons Ratio (x) = 0.05003 0.44144
# Poissons Ratio (y) = -0.29939 1.30535
# Poissons Ratio (z) = 0.47918 -0.23679
#
# Static dielectric constant tensor:
#      x y z
#    x -11.029530 0.000000 8.097140 
#    y 0.000000 2.834170 0.000000 
#    z 8.097140 0.000000 -0.490640 
# 
# 
# High freq. dielectric constant tensor:
#      x y z
#    x 1.786660 0.000000 0.000490 
#    y 0.000000 1.688120 0.000000 
#    z 0.000490 0.000000 1.785100 
# 
# From -- ./inp_files/38012.got.cif
#   From: 2010.06.25/outbox.cif.g09.slc.cpg/sg10_20_cif.got.tgz:38012.got - 2010.06.27 22:07:45.
