data_PCOD8063950
_publ_section_title
;
Structure prediction by ZEFSAII (Michael W. Deem and Ramdas Pophale) SiO2 
 PCOD8063950
Probable space group: P 2/M
;
_chemical_formula_sum "Si O2"
_cell_formula_units_Z 32
_cell_length_a 12.099312
_cell_length_b 8.817079
_cell_length_c 20.648045
_cell_angle_alpha 90.000000
_cell_angle_beta 127.711883
_cell_angle_gamma 90.000000
_cell_volume 1742.584760
_symmetry_space_group_name_H-M "P 2/M"
_symmetry_group_IT_number 10
_symmetry_cell_setting 'monoclinic'
loop_
_space_group_symop_operation_xyz
x,y,z
-x,y,-z
-x,-y,-z
x,-y,z
loop_
_atom_site_type_symbol
_atom_site_label
_atom_site_fract_x
_atom_site_fract_y
_atom_site_fract_z
Si Si1 0.570618 0.820517 0.212532
Si Si2 0.436931 0.676020 0.288015
Si Si3 0.597220 0.677272 0.476528
Si Si4 0.140356 0.824152 0.867504
Si Si5 0.416542 0.821868 0.031110
Si Si6 0.864857 0.823142 0.620619
Si Si7 0.845815 0.321135 0.264778
Si Si8 0.171518 0.825583 0.243189
O O1 0.496352 0.776594 0.252044
O O2 0.475397 0.755121 0.119360
O O3 0.722798 0.745807 0.264765
O O4 0.586996 0.000000 0.214719
O O5 0.448362 0.500000 0.274295
O O6 0.523162 0.716982 0.382964
O O7 0.275166 0.717654 0.241161
O O8 0.500000 0.736971 0.500000
O O9 0.627033 0.500000 0.495479
O O10 0.744104 0.764514 0.529921
O O11 0.176412 0.727220 0.817339
O O12 0.985253 0.790596 0.838584
O O13 0.151727 0.000000 0.850116
O O14 0.251683 0.784116 0.963686
O O15 0.442295 0.000000 0.041485
O O16 0.500000 0.751124 0.000000
O O17 0.820936 0.785536 0.678330
O O18 0.008302 0.739206 0.654441
O O19 0.889284 0.000000 0.619008
O O20 0.843732 0.500000 0.269447
O O21 0.212757 0.000000 0.245583
#
# Coordination Sequence:
#
# PCOD8063950 Si02
#       8
#     4   4   4   4   4   4   4   4
#     4  11  22  38  59  81 111 149 188 230 277 331
#     4  11  23  38  56  79 114 151 184 224 277 339
#     4  10  20  36  57  83 113 147 184 228 281 333
#     4   9  17  33  56  84 112 142 186 235 277 322
#     4   9  16  31  58  85 109 140 185 235 279 320
#     4  10  20  34  57  86 113 142 185 237 276 319
#     4  11  21  34  54  82 116 149 182 223 280 337
#     4   9  18  32  53  81 111 143 183 228 273 324
#
# _framework density 18.363526
#
# number of rings (size 3 to 8) (size 9 to 14) (size 15 to 20)
#    0.000    2.000    2.500    3.000    0.000    3.250 
#    0.000    3.125    0.000    7.500    0.000    0.000 
#    0.000    0.000    0.000    0.000    0.000    0.000 
#
# Total GULP energy -396857.504902 kJ/mol
# GULP energy per Si atom -12401.797028 kJ/mol
# Density = 1.832173 g / cm^3
# Si number density = 18.363526 Si / 1000 Ang^3
#
#
#
# Elastic Constant Matrix: (Units=GPa)
#
#
# Indices 1 2 3 4 5 6 
#
# 1 113.4452 46.1287 62.9587 0.0000 17.9097 0.0000
# 2 46.1287 76.7317 38.9136 0.0000 8.6926 0.0000
# 3 62.9587 38.9136 109.6698 0.0000 17.3803 0.0000
# 4 0.0000 0.0000 0.0000 17.9830 0.0000 -1.5709
# 5 17.9097 8.6926 17.3803 0.0000 31.4366 0.0000
# 6 0.0000 0.0000 0.0000 -1.5709 0.0000 25.6147
#
#
#
# Elastic Compliance Matrix: (Units=1/GPa)
#
#
# Indices 1 2 3 4 5 6 
#
# 1 0.015014 -0.005529 -0.006076 0.000000 -0.003665 0.000000
# 2 -0.005529 0.017985 -0.003199 0.000000 -0.000055 0.000000
# 3 -0.006076 -0.003199 0.014306 0.000000 -0.003563 0.000000
# 4 0.000000 0.000000 0.000000 0.055908 0.000000 0.003429
# 5 -0.003665 -0.000055 -0.003563 0.000000 0.035883 0.000000
# 6 0.000000 0.000000 0.000000 0.003429 0.000000 0.039250
#
#
# Mechanical properties :
#
#
# Convention : Reuss Voigt Hill
#
# Bulk Modulus (GPa) = 56.50816 66.20541 61.35678
# Shear Modulus (GPa) = 23.38052 25.12990 24.25521
#
# Velocity S-wave (km/s) = 3.57207 3.70329 3.63827
# Velocity P-wave (km/s) = 6.91749 7.37677 7.15082
#
# Compressibility (1/GPa) = 0.01769656
#
# Stress axis : x y z
#
# Youngs Moduli (GPa) = 66.60504 55.60290 69.89962
#
# Poissons Ratio (x) = 0.30743 0.42474
# Poissons Ratio (y) = 0.36827 0.22359
# Poissons Ratio (z) = 0.40472 0.17785
#
# Static dielectric constant tensor:
#      x y z
#    x 3.290470 0.000000 0.223680 
#    y 0.000000 3.223200 0.000000 
#    z 0.223680 0.000000 3.479250 
# 
# 
# High freq. dielectric constant tensor:
#      x y z
#    x 1.702730 0.000000 0.024320 
#    y 0.000000 1.702560 0.000000 
#    z 0.024320 0.000000 1.709040 
# 
# From -- ./inp_files/83531.got.cif
#   From: 2010.06.25/outbox.cif.g09.slc.cpg/sg10_42_cif.got.tgz:83531.got - 2010.06.27 22:07:45.
