data_PCOD8063672
_publ_section_title
;
Structure prediction by ZEFSAII (Michael W. Deem and Ramdas Pophale) SiO2 
 PCOD8063672
Probable space group: P 2/M
;
_chemical_formula_sum "Si O2"
_cell_formula_units_Z 32
_cell_length_a 28.929698
_cell_length_b 9.390811
_cell_length_c 12.347957
_cell_angle_alpha 90.000000
_cell_angle_beta 29.897419
_cell_angle_gamma 90.000000
_cell_volume 1672.101228
_symmetry_space_group_name_H-M "P 2/M"
_symmetry_group_IT_number 10
_symmetry_cell_setting 'monoclinic'
loop_
_space_group_symop_operation_xyz
x,y,z
-x,y,-z
-x,-y,-z
x,-y,z
loop_
_atom_site_type_symbol
_atom_site_label
_atom_site_fract_x
_atom_site_fract_y
_atom_site_fract_z
Si Si1 0.488657 0.165654 0.399551
Si Si2 0.350261 0.339814 0.009245
Si Si3 0.059955 0.160455 0.478058
Si Si4 0.720597 0.834812 0.236128
Si Si5 0.781098 0.660555 0.914009
Si Si6 0.809521 0.833656 0.282365
Si Si7 0.983036 0.160650 0.197634
Si Si8 0.801637 0.330474 0.506823
O O1 0.500000 0.221673 0.500000
O O2 0.387608 0.199373 0.557592
O O3 0.512636 0.000000 0.347501
O O4 0.558893 0.242069 0.173925
O O5 0.378854 0.500000 0.983261
O O6 0.314235 0.335613 0.958754
O O7 0.272622 0.284248 0.251098
O O8 0.145763 0.266692 0.315359
O O9 0.999079 0.167829 0.710063
O O10 0.000000 0.215931 0.500000
O O11 0.096112 0.000000 0.383569
O O12 0.755996 0.788020 0.282154
O O13 0.741897 0.000000 0.171275
O O14 0.777311 0.745894 0.033159
O O15 0.811627 0.500000 0.878128
O O16 0.766669 0.738209 0.465218
O O17 0.792642 0.000000 0.339938
O O18 0.919447 0.799167 0.054855
O O19 0.903167 0.269154 0.326477
O O20 0.952875 0.000000 0.225150
O O21 0.809376 0.500000 0.481713
#
# Coordination Sequence:
#
# PCOD8063672 Si02
#       8
#     4   4   4   4   4   4   4   4
#     4  10  20  35  60  91 115 144 187 234 284 340
#     4  10  22  38  56  82 116 151 185 230 284 337
#     4  10  20  34  53  79 113 154 193 232 284 339
#     4  10  21  39  60  85 119 150 185 238 290 342
#     4  11  21  34  54  82 116 152 188 228 282 343
#     4  10  22  40  60  83 113 150 192 237 286 338
#     4  10  20  35  57  83 111 148 195 238 280 335
#     4  11  23  40  59  82 115 152 194 239 282 331
#
# _framework density 19.137597
#
# number of rings (size 3 to 8) (size 9 to 14) (size 15 to 20)
#    0.000    1.750    2.500    1.875    0.000    7.000 
#    0.000    1.875    0.000    3.750    0.000    0.000 
#    0.000    0.000    0.000    0.000    0.000    0.000 
#
# Total GULP energy -396833.262653 kJ/mol
# GULP energy per Si atom -12401.039458 kJ/mol
# Density = 1.909404 g / cm^3
# Si number density = 19.137597 Si / 1000 Ang^3
#
#
#
# Elastic Constant Matrix: (Units=GPa)
#
#
# Indices 1 2 3 4 5 6 
#
# 1 77.8902 31.4694 36.6216 0.0000 16.8299 0.0000
# 2 31.4694 75.7335 50.0040 0.0000 4.7509 0.0000
# 3 36.6216 50.0040 99.1023 0.0000 8.3592 0.0000
# 4 0.0000 0.0000 0.0000 25.8904 0.0000 2.1474
# 5 16.8299 4.7509 8.3592 0.0000 28.9103 0.0000
# 6 0.0000 0.0000 0.0000 2.1474 0.0000 21.1303
#
#
#
# Elastic Compliance Matrix: (Units=1/GPa)
#
#
# Indices 1 2 3 4 5 6 
#
# 1 0.018365 -0.004631 -0.003703 0.000000 -0.008859 0.000000
# 2 -0.004631 0.020972 -0.009028 0.000000 0.001860 0.000000
# 3 -0.003703 -0.009028 0.016100 0.000000 -0.001016 0.000000
# 4 0.000000 0.000000 0.000000 0.038953 0.000000 -0.003959
# 5 -0.008859 0.001860 -0.001016 0.000000 0.039735 0.000000
# 6 0.000000 0.000000 0.000000 -0.003959 0.000000 0.047728
#
#
# Mechanical properties :
#
#
# Convention : Reuss Voigt Hill
#
# Bulk Modulus (GPa) = 48.27468 54.32399 51.29934
# Shear Modulus (GPa) = 22.37350 24.16161 23.26755
#
# Velocity S-wave (km/s) = 3.42290 3.55705 3.49062
# Velocity P-wave (km/s) = 6.39543 6.73185 6.56579
#
# Compressibility (1/GPa) = 0.02071479
#
# Stress axis : x y z
#
# Youngs Moduli (GPa) = 54.45283 47.68193 62.11322
#
# Poissons Ratio (x) = 0.22079 0.22998
# Poissons Ratio (y) = 0.25214 0.56074
# Poissons Ratio (z) = 0.20162 0.43046
#
# Static dielectric constant tensor:
#      x y z
#    x 3.491570 0.000000 0.107460 
#    y 0.000000 3.438940 0.000000 
#    z 0.107460 0.000000 3.448200 
# 
# 
# High freq. dielectric constant tensor:
#      x y z
#    x 1.740700 0.000000 0.008570 
#    y 0.000000 1.738760 0.000000 
#    z 0.008570 0.000000 1.740690 
# 
# From -- ./inp_files/49813.got.cif
#   From: 2010.06.25/outbox.cif.g09.slc.cpg/sg10_25_cif.got.tgz:49813.got - 2010.06.27 22:07:45.
