data_PCOD8063441
_publ_section_title
;
Structure prediction by ZEFSAII (Michael W. Deem and Ramdas Pophale) SiO2 
 PCOD8063441
Probable space group: P 2/M
;
_chemical_formula_sum "Si O2"
_cell_formula_units_Z 32
_cell_length_a 22.012360
_cell_length_b 9.050810
_cell_length_c 32.981114
_cell_angle_alpha 90.000000
_cell_angle_beta 18.246770
_cell_angle_gamma 90.000000
_cell_volume 2057.390285
_symmetry_space_group_name_H-M "P 2/M"
_symmetry_group_IT_number 10
_symmetry_cell_setting 'monoclinic'
loop_
_space_group_symop_operation_xyz
x,y,z
-x,y,-z
-x,-y,-z
x,-y,z
loop_
_atom_site_type_symbol
_atom_site_label
_atom_site_fract_x
_atom_site_fract_y
_atom_site_fract_z
Si Si1 0.064174 0.827058 0.790518
Si Si2 0.469928 0.674879 0.762401
Si Si3 0.645966 0.333085 0.444828
Si Si4 0.775170 0.829109 0.149268
Si Si5 0.153298 0.832674 0.461098
Si Si6 0.642039 0.823238 0.083765
Si Si7 0.752016 0.835577 0.693198
Si Si8 0.653895 0.828328 0.316476
O O1 0.153801 0.746371 0.694513
O O2 0.175250 0.780468 0.761158
O O3 0.082103 0.000000 0.771367
O O4 0.841589 0.776685 0.936006
O O5 0.469860 0.500000 0.767441
O O6 0.347231 0.721759 0.801392
O O7 0.691642 0.729668 0.614469
O O8 0.371040 0.747711 0.864219
O O9 0.500000 0.320717 0.500000
O O10 0.694651 0.500000 0.425793
O O11 0.546319 0.256094 0.546670
O O12 0.723587 0.786042 0.227758
O O13 0.725669 0.000000 0.171068
O O14 0.000000 0.797047 0.000000
O O15 0.206359 0.838835 0.380651
O O16 0.932872 0.761456 0.603203
O O17 0.160767 0.000000 0.474198
O O18 0.465346 0.766095 0.166083
O O19 0.629650 0.000000 0.098389
O O20 0.744690 0.000000 0.715438
O O21 0.608529 0.000000 0.349754
#
# Coordination Sequence:
#
# PCOD8063441 Si02
#       8
#     4   4   4   4   4   4   4   4
#     4   9  16  27  45  65  83 105 135 171 207 245
#     4  11  21  29  39  59  86 114 143 175 210 247
#     4   9  17  28  42  60  83 109 134 164 205 249
#     4  10  20  34  49  62  79 108 146 181 211 243
#     4   8  13  25  42  56  75 106 142 174 203 240
#     4   9  16  28  44  61  84 113 143 173 207 247
#     4   7  11  21  40  61  77 101 138 174 205 239
#     4   9  17  29  45  62  79 104 141 178 206 237
#
# _framework density 15.553685
#
# number of rings (size 3 to 8) (size 9 to 14) (size 15 to 20)
#    0.000    3.000    0.000    3.750    0.000    4.750 
#    0.000    7.500    0.000    0.000    0.000    0.000 
#    0.000    1.000    0.000   11.500    0.000    3.500 
#
# Total GULP energy -396478.383828 kJ/mol
# GULP energy per Si atom -12389.949495 kJ/mol
# Density = 1.551828 g / cm^3
# Si number density = 15.553685 Si / 1000 Ang^3
#
#
#
# Elastic Constant Matrix: (Units=GPa)
#
#
# Indices 1 2 3 4 5 6 
#
# 1 47.1194 27.6430 53.7014 0.0000 -7.4228 0.0000
# 2 27.6430 58.9080 48.6993 0.0000 -2.9540 0.0000
# 3 53.7014 48.6993 146.6365 0.0000 -10.1938 0.0000
# 4 0.0000 0.0000 0.0000 9.6589 0.0000 1.3381
# 5 -7.4228 -2.9540 -10.1938 0.0000 25.1715 0.0000
# 6 0.0000 0.0000 0.0000 1.3381 0.0000 10.9714
#
#
#
# Elastic Compliance Matrix: (Units=1/GPa)
#
#
# Indices 1 2 3 4 5 6 
#
# 1 0.040626 -0.009388 -0.011323 0.000000 0.006293 0.000000
# 2 -0.009388 0.025574 -0.005185 0.000000 -0.001867 0.000000
# 3 -0.011323 -0.005185 0.012773 0.000000 0.001225 0.000000
# 4 0.000000 0.000000 0.000000 0.105310 0.000000 -0.012844
# 5 0.006293 -0.001867 0.001225 0.000000 0.041860 0.000000
# 6 0.000000 0.000000 0.000000 -0.012844 0.000000 0.092713
#
#
# Mechanical properties :
#
#
# Convention : Reuss Voigt Hill
#
# Bulk Modulus (GPa) = 36.78939 56.97235 46.88087
# Shear Modulus (GPa) = 13.16798 17.33504 15.25151
#
# Velocity S-wave (km/s) = 2.91282 3.34208 3.13481
# Velocity P-wave (km/s) = 5.91754 7.18343 6.58099
#
# Compressibility (1/GPa) = 0.02718175
#
# Stress axis : x y z
#
# Youngs Moduli (GPa) = 24.61475 39.10249 78.28751
#
# Poissons Ratio (x) = 0.36709 0.88644
# Poissons Ratio (y) = 0.23108 0.40592
# Poissons Ratio (z) = 0.27871 0.20275
#
# Static dielectric constant tensor:
#      x y z
#    x 2.772880 0.000000 -0.344540 
#    y 0.000000 2.830380 0.000000 
#    z -0.344540 0.000000 3.346600 
# 
# 
# High freq. dielectric constant tensor:
#      x y z
#    x 1.552320 0.000000 -0.021980 
#    y 0.000000 1.580310 0.000000 
#    z -0.021980 0.000000 1.600270 
# 
# From -- ./inp_files/95248.got.cif
#   From: 2010.06.25/outbox.cif.g09.slc.cpg/sg10_48_cif.got.tgz:95248.got - 2010.06.27 22:07:45.
