data_PCOD8063807
_publ_section_title
;
Structure prediction by ZEFSAII (Michael W. Deem and Ramdas Pophale) SiO2 
 PCOD8063807
Probable space group: P 2/M
;
_chemical_formula_sum "Si O2"
_cell_formula_units_Z 28
_cell_length_a 21.609385
_cell_length_b 8.820934
_cell_length_c 23.950131
_cell_angle_alpha 90.000000
_cell_angle_beta 161.592720
_cell_angle_gamma 90.000000
_cell_volume 1441.568181
_symmetry_space_group_name_H-M "P 2/M"
_symmetry_group_IT_number 10
_symmetry_cell_setting 'monoclinic'
loop_
_space_group_symop_operation_xyz
x,y,z
-x,y,-z
-x,-y,-z
x,-y,z
loop_
_atom_site_type_symbol
_atom_site_label
_atom_site_fract_x
_atom_site_fract_y
_atom_site_fract_z
Si Si1 0.150600 0.319776 0.082888
Si Si2 0.682718 0.321669 0.190156
Si Si3 0.382726 0.321917 0.742676
Si Si4 0.972571 0.319819 0.815107
Si Si5 0.025336 0.676086 0.653252
Si Si6 0.459641 0.680155 0.527186
Si Si7 0.206336 0.821659 0.915513
O O1 0.138632 0.500000 0.073906
O O2 0.369653 0.262908 0.284921
O O3 0.092233 0.261255 0.971602
O O4 0.000000 0.254234 0.000000
O O5 0.656078 0.500000 0.172551
O O6 0.681607 0.255792 0.251908
O O7 0.882415 0.282832 0.328270
O O8 0.500000 0.250892 0.000000
O O9 0.427422 0.500000 0.783864
O O10 0.206243 0.288919 0.548262
O O11 0.575901 0.239139 0.886196
O O12 0.984110 0.500000 0.819352
O O13 0.059131 0.245990 0.834360
O O14 0.748830 0.262500 0.628743
O O15 0.064531 0.500000 0.701034
O O16 0.130241 0.776024 0.789463
O O17 0.500000 0.746413 0.500000
O O18 0.459019 0.500000 0.523099
O O19 0.208800 0.000000 0.922981
#
# Coordination Sequence:
#
# PCOD8063807 Si02
#       7
#     4   4   4   4   4   4   4
#     4   9  15  26  49  83 113 133 161 216 285 337
#     4   9  15  29  59  93 119 140 175 238 301 348
#     4  10  20  37  63  90 115 146 191 242 292 344
#     4  10  20  34  55  81 110 142 185 232 278 335
#     4  10  20  37  63  90 115 146 191 242 292 344
#     4   9  15  26  49  83 113 133 161 216 285 337
#     4  12  26  41  55  76 117 164 202 236 280 338
#
# _framework density 19.423292
#
# number of rings (size 3 to 8) (size 9 to 14) (size 15 to 20)
#    0.000    2.143    2.857    1.714    0.000    3.429 
#    0.000    4.286    0.000    2.571    0.000    0.000 
#    0.000    0.000    0.000    0.000    0.000    0.000 
#
# Total GULP energy -347154.768478 kJ/mol
# GULP energy per Si atom -12398.384589 kJ/mol
# Density = 1.937908 g / cm^3
# Si number density = 19.423292 Si / 1000 Ang^3
#
#
#
# Elastic Constant Matrix: (Units=GPa)
#
#
# Indices 1 2 3 4 5 6 
#
# 1 70.4094 17.5489 36.2126 0.0000 22.3478 0.0000
# 2 17.5489 38.2744 26.2752 0.0000 8.6078 0.0000
# 3 36.2126 26.2752 149.9680 0.0000 16.3036 0.0000
# 4 0.0000 0.0000 0.0000 5.8338 0.0000 -6.2427
# 5 22.3478 8.6078 16.3036 0.0000 33.4633 0.0000
# 6 0.0000 0.0000 0.0000 -6.2427 0.0000 -1.6805
#
#
#
# Elastic Compliance Matrix: (Units=1/GPa)
#
#
# Indices 1 2 3 4 5 6 
#
# 1 0.020377 -0.004911 -0.002870 0.000000 -0.010947 0.000000
# 2 -0.004911 0.031833 -0.004074 0.000000 -0.002924 0.000000
# 3 -0.002870 -0.004074 0.008186 0.000000 -0.001024 0.000000
# 4 0.000000 0.000000 0.000000 0.034455 0.000000 -0.127989
# 5 -0.010947 -0.002924 -0.001024 0.000000 0.038445 0.000000
# 6 0.000000 0.000000 0.000000 -0.127989 0.000000 -0.119604
#
#
# Mechanical properties :
#
#
# Convention : Reuss Voigt Hill
#
# Bulk Modulus (GPa) = 27.25728 46.52502 36.89115
# Shear Modulus (GPa) = 100.74487 19.43098 60.08793
#
# Velocity S-wave (km/s) = 7.20976 3.16633 5.56805
# Velocity P-wave (km/s) = 9.13079 6.11333 7.76995
#
# Compressibility (1/GPa) = 0.03668745
#
# Stress axis : x y z
#
# Youngs Moduli (GPa) = 49.07421 31.41406 122.15807
#
# Poissons Ratio (x) = 0.15427 0.35059
# Poissons Ratio (y) = 0.24100 0.49762
# Poissons Ratio (z) = 0.14084 0.12797
#
# Static dielectric constant tensor:
#      x y z
#    x 3.592560 0.000000 -0.005090 
#    y 0.000000 2.944750 0.000000 
#    z -0.005090 0.000000 3.823020 
# 
# 
# High freq. dielectric constant tensor:
#      x y z
#    x 1.757120 0.000000 0.001440 
#    y 0.000000 1.689890 0.000000 
#    z 0.001440 0.000000 1.775510 
# 
# From -- ./inp_files/90340.got.cif
#   From: 2010.06.25/outbox.cif.g09.slc.cpg/sg10_46_cif.got.tgz:90340.got - 2010.06.27 22:07:45.
