data_PCOD8063819
_publ_section_title
;
Structure prediction by ZEFSAII (Michael W. Deem and Ramdas Pophale) SiO2 
 PCOD8063819
Probable space group: P 2/M
;
_chemical_formula_sum "Si O2"
_cell_formula_units_Z 28
_cell_length_a 28.674229
_cell_length_b 8.945282
_cell_length_c 8.906823
_cell_angle_alpha 90.000000
_cell_angle_beta 38.827858
_cell_angle_gamma 90.000000
_cell_volume 1432.399428
_symmetry_space_group_name_H-M "P 2/M"
_symmetry_group_IT_number 10
_symmetry_cell_setting 'monoclinic'
loop_
_space_group_symop_operation_xyz
x,y,z
-x,y,-z
-x,-y,-z
x,-y,z
loop_
_atom_site_type_symbol
_atom_site_label
_atom_site_fract_x
_atom_site_fract_y
_atom_site_fract_z
Si Si1 0.424250 0.673709 0.104790
Si Si2 0.850638 0.676095 0.201122
Si Si3 0.430022 0.827748 0.778582
Si Si4 0.712644 0.173337 0.394606
Si Si5 0.147895 0.324866 0.457691
Si Si6 0.282539 0.171054 0.965537
Si Si7 0.999562 0.168330 0.822683
O O1 0.402816 0.500000 0.170561
O O2 0.359588 0.771818 0.337809
O O3 0.500000 0.710801 0.000000
O O4 0.434259 0.717576 0.907589
O O5 0.855737 0.500000 0.171046
O O6 0.784067 0.736405 0.268468
O O7 0.837203 0.723692 0.407657
O O8 0.927083 0.744982 0.945234
O O9 0.500000 0.791509 0.500000
O O10 0.356209 0.789598 0.871861
O O11 0.431105 0.000000 0.829523
O O12 0.700081 0.202672 0.251027
O O13 0.725151 0.000000 0.400322
O O14 0.134980 0.500000 0.478140
O O15 0.074324 0.246556 0.575429
O O16 0.217319 0.278357 0.183393
O O17 0.258011 0.000000 0.053383
O O18 0.997095 0.000000 0.766751
O O19 0.000000 0.173214 0.000000
#
# Coordination Sequence:
#
# PCOD8063819 Si02
#       7
#     4   4   4   4   4   4   4
#     4  11  24  40  59  86 118 150 185 228 279 333
#     4  10  20  35  56  84 116 147 184 230 281 337
#     4  10  21  39  63  88 114 147 188 232 278 330
#     4  11  23  39  59  82 111 149 191 233 278 329
#     4  10  20  34  55  82 112 147 185 229 282 336
#     4  10  22  38  56  81 112 146 187 234 280 329
#     4   9  17  31  54  82 111 145 186 231 278 330
#
# _framework density 19.547619999999998
#
# number of rings (size 3 to 8) (size 9 to 14) (size 15 to 20)
#    0.000    1.857    0.000    3.857    0.000   10.000 
#    0.000    0.714    0.000    4.286    0.000    0.000 
#    0.000    0.000    0.000    0.000    0.000    0.000 
#
# Total GULP energy -347345.588609 kJ/mol
# GULP energy per Si atom -12405.199593 kJ/mol
# Density = 1.950313 g / cm^3
# Si number density = 19.547620 Si / 1000 Ang^3
#
#
#
# Elastic Constant Matrix: (Units=GPa)
#
#
# Indices 1 2 3 4 5 6 
#
# 1 98.9017 40.9440 43.6596 0.0000 -9.1092 0.0000
# 2 40.9440 82.1863 39.9623 0.0000 -8.1496 0.0000
# 3 43.6596 39.9623 110.8920 0.0000 -17.9685 0.0000
# 4 0.0000 0.0000 0.0000 31.5389 0.0000 -5.3466
# 5 -9.1092 -8.1496 -17.9685 0.0000 31.1407 0.0000
# 6 0.0000 0.0000 0.0000 -5.3466 0.0000 29.7213
#
#
#
# Elastic Compliance Matrix: (Units=1/GPa)
#
#
# Indices 1 2 3 4 5 6 
#
# 1 0.013838 -0.005129 -0.003487 0.000000 0.000693 0.000000
# 2 -0.005129 0.016676 -0.003890 0.000000 0.000619 0.000000
# 3 -0.003487 -0.003890 0.012644 0.000000 0.005258 0.000000
# 4 0.000000 0.000000 0.000000 0.032704 0.000000 0.005883
# 5 0.000693 0.000619 0.005258 0.000000 0.035511 0.000000
# 6 0.000000 0.000000 0.000000 0.005883 0.000000 0.034704
#
#
# Mechanical properties :
#
#
# Convention : Reuss Voigt Hill
#
# Bulk Modulus (GPa) = 55.11058 60.12353 57.61706
# Shear Modulus (GPa) = 28.22653 29.64112 28.93383
#
# Velocity S-wave (km/s) = 3.80411 3.89826 3.85147
# Velocity P-wave (km/s) = 6.89559 7.14746 7.02265
#
# Compressibility (1/GPa) = 0.01814533
#
# Stress axis : x y z
#
# Youngs Moduli (GPa) = 72.26551 59.96817 79.08619
#
# Poissons Ratio (x) = 0.30760 0.27580
# Poissons Ratio (y) = 0.37068 0.30761
# Poissons Ratio (z) = 0.25201 0.23325
#
# Static dielectric constant tensor:
#      x y z
#    x 3.656740 0.000000 -0.219410 
#    y 0.000000 3.622680 0.000000 
#    z -0.219410 0.000000 3.624450 
# 
# 
# High freq. dielectric constant tensor:
#      x y z
#    x 1.760400 0.000000 -0.016210 
#    y 0.000000 1.769650 0.000000 
#    z -0.016210 0.000000 1.766080 
# 
# From -- ./inp_files/37121.got.cif
#   From: 2010.06.25/outbox.cif.g09.slc.cpg/sg10_19_cif.got.tgz:37121.got - 2010.06.27 22:07:45.
