data_PCOD8063300
_publ_section_title
;
Structure prediction by ZEFSAII (Michael W. Deem and Ramdas Pophale) SiO2 
 PCOD8063300
Probable space group: P 2/M
;
_chemical_formula_sum "Si O2"
_cell_formula_units_Z 32
_cell_length_a 16.535059
_cell_length_b 23.374037
_cell_length_c 8.937272
_cell_angle_alpha 90.000000
_cell_angle_beta 150.919698
_cell_angle_gamma 90.000000
_cell_volume 1678.850229
_symmetry_space_group_name_H-M "P 2/M"
_symmetry_group_IT_number 10
_symmetry_cell_setting 'monoclinic'
loop_
_space_group_symop_operation_xyz
x,y,z
-x,y,-z
-x,-y,-z
x,-y,z
loop_
_atom_site_type_symbol
_atom_site_label
_atom_site_fract_x
_atom_site_fract_y
_atom_site_fract_z
Si Si1 0.603799 0.310335 0.807649
Si Si2 0.092541 0.339851 0.886321
Si Si3 0.784472 0.260895 0.365626
Si Si4 0.825415 0.065582 0.674357
Si Si5 0.692348 0.341500 0.481473
Si Si6 0.498439 0.934083 0.670444
Si Si7 0.108837 0.562848 0.322106
Si Si8 0.664935 0.139324 0.178967
O O1 0.500000 0.282698 0.500000
O O2 0.480724 0.349268 0.709305
O O3 0.757952 0.346664 0.990746
O O4 0.677121 0.264125 0.039036
O O5 0.968421 0.287822 0.643030
O O6 0.993340 0.399920 0.721270
O O7 0.160157 0.327350 0.162655
O O8 0.691110 0.290944 0.355619
O O9 0.792808 0.192630 0.393043
O O10 0.691061 0.076092 0.586286
O O11 0.758271 0.088288 0.410220
O O12 0.860243 0.000000 0.699708
O O13 0.000000 0.095838 0.000000
O O14 0.724601 0.401902 0.450977
O O15 0.500000 0.920131 0.500000
O O16 0.552838 0.000000 0.792946
O O17 0.619110 0.887511 0.943631
O O18 0.154692 0.500000 0.462138
O O19 0.000000 0.553859 0.000000
O O20 0.500000 0.158868 0.000000
#
# Coordination Sequence:
#
# PCOD8063300 Si02
#       8
#     4   4   4   4   4   4   4   4
#     4  10  20  34  51  73 101 134 171 211 256 304
#     4   9  19  34  53  76 103 135 170 209 258 310
#     4  11  20  34  53  73 100 137 174 210 254 305
#     4   9  18  34  55  78 104 135 170 209 253 302
#     4   9  18  33  54  76 100 134 173 210 252 307
#     4   9  18  35  57  77 102 137 173 211 258 308
#     4   8  14  28  52  79 104 132 168 209 253 304
#     4  10  20  33  52  78 103 133 174 214 253 303
#
# _framework density 19.060663999999999
#
# number of rings (size 3 to 8) (size 9 to 14) (size 15 to 20)
#    0.000    2.625    0.000    3.000    0.000    3.000 
#    0.000    6.250    0.000   18.750    0.000    0.000 
#    0.000    0.000    0.000    0.000    0.000    0.000 
#
# Total GULP energy -396482.761607 kJ/mol
# GULP energy per Si atom -12390.086300 kJ/mol
# Density = 1.901728 g / cm^3
# Si number density = 19.060664 Si / 1000 Ang^3
#
#
#
# Elastic Constant Matrix: (Units=GPa)
#
#
# Indices 1 2 3 4 5 6 
#
# 1 119.7809 50.9846 51.5729 0.0000 6.2164 0.0000
# 2 50.9846 109.3677 47.0544 0.0000 2.0634 0.0000
# 3 51.5729 47.0544 98.4751 0.0000 3.3347 0.0000
# 4 0.0000 0.0000 0.0000 20.5287 0.0000 -4.6254
# 5 6.2164 2.0634 3.3347 0.0000 36.8743 0.0000
# 6 0.0000 0.0000 0.0000 -4.6254 0.0000 6.0375
#
#
#
# Elastic Compliance Matrix: (Units=1/GPa)
#
#
# Indices 1 2 3 4 5 6 
#
# 1 0.011866 -0.003590 -0.004452 0.000000 -0.001397 0.000000
# 2 -0.003590 0.012597 -0.004148 0.000000 0.000275 0.000000
# 3 -0.004452 -0.004148 0.014479 0.000000 -0.000327 0.000000
# 4 0.000000 0.000000 0.000000 0.058875 0.000000 0.045105
# 5 -0.001397 0.000275 -0.000327 0.000000 0.027369 0.000000
# 6 0.000000 0.000000 0.000000 0.045105 0.000000 0.200189
#
#
# Mechanical properties :
#
#
# Convention : Reuss Voigt Hill
#
# Bulk Modulus (GPa) = 68.67082 69.64973 69.16027
# Shear Modulus (GPa) = 14.10007 24.55555 19.32781
#
# Velocity S-wave (km/s) = 2.72278 3.59316 3.18782
# Velocity P-wave (km/s) = 6.78162 7.33722 7.06489
#
# Compressibility (1/GPa) = 0.01456223
#
# Stress axis : x y z
#
# Youngs Moduli (GPa) = 84.27567 79.38676 69.06341
#
# Poissons Ratio (x) = 0.28499 0.30744
# Poissons Ratio (y) = 0.30254 0.28649
# Poissons Ratio (z) = 0.37516 0.32932
#
# Static dielectric constant tensor:
#      x y z
#    x 3.559270 0.000000 0.040110 
#    y 0.000000 3.351050 0.000000 
#    z 0.040110 0.000000 3.672940 
# 
# 
# High freq. dielectric constant tensor:
#      x y z
#    x 1.739710 0.000000 -0.001460 
#    y 0.000000 1.715450 0.000000 
#    z -0.001460 0.000000 1.742880 
# 
# From -- ./inp_files/30636.got.cif
#   From: 2010.06.25/outbox.cif.g09.slc.cpg/sg10_16_cif.got.tgz:30636.got - 2010.06.27 22:07:45.
