data_PCOD8063340
_publ_section_title
;
Structure prediction by ZEFSAII (Michael W. Deem and Ramdas Pophale) SiO2 
 PCOD8063340
Probable space group: P 2/M
;
_chemical_formula_sum "Si O2"
_cell_formula_units_Z 30
_cell_length_a 9.519284
_cell_length_b 13.788819
_cell_length_c 18.056156
_cell_angle_alpha 90.000000
_cell_angle_beta 141.404959
_cell_angle_gamma 90.000000
_cell_volume 1478.462608
_symmetry_space_group_name_H-M "P 2/M"
_symmetry_group_IT_number 10
_symmetry_cell_setting 'monoclinic'
loop_
_space_group_symop_operation_xyz
x,y,z
-x,y,-z
-x,-y,-z
x,-y,z
loop_
_atom_site_type_symbol
_atom_site_label
_atom_site_fract_x
_atom_site_fract_y
_atom_site_fract_z
Si Si1 0.650659 0.613420 0.498196
Si Si2 0.697495 0.689919 0.746987
Si Si3 0.239853 0.891567 0.184656
Si Si4 0.404944 0.386969 0.146501
Si Si5 0.292741 0.108239 0.038240
Si Si6 0.159984 0.387189 0.890854
Si Si7 0.903802 0.615276 0.382463
Si Si8 0.500000 0.756118 0.000000
O O1 0.500000 0.665442 0.500000
O O2 0.645827 0.500000 0.508847
O O3 0.534217 0.638766 0.371992
O O4 0.911063 0.647607 0.603633
O O5 0.668954 0.806316 0.724367
O O6 0.743501 0.665966 0.851955
O O7 0.900312 0.643395 0.783241
O O8 0.346222 0.874878 0.146913
O O9 0.305668 0.000000 0.239844
O O10 0.972890 0.878196 0.078584
O O11 0.401336 0.500000 0.162454
O O12 0.660555 0.344851 0.256910
O O13 0.283236 0.364832 0.019492
O O14 0.432710 0.180097 0.043512
O O15 0.363713 0.000000 0.044059
O O16 0.183802 0.500000 0.876660
O O17 0.294474 0.316109 0.890360
O O18 0.893088 0.500000 0.383172
O O19 0.000000 0.656706 0.500000
#
# Coordination Sequence:
#
# PCOD8063340 Si02
#       8
#     4   4   4   4   4   4   4   2
#     4  10  21  35  54  80 110 145 188 234 273 314
#     4  12  20  34  57  80 110 146 187 229 279 337
#     4   9  19  36  56  80 105 136 181 235 285 331
#     4  10  20  33  53  78 108 147 190 230 267 321
#     4   9  18  34  56  77 102 138 185 235 279 323
#     4  11  24  34  46  76 121 160 184 211 269 342
#     4   9  16  32  53  73  98 134 186 235 265 294
#     4  12  20  34  48  74 110 152 188 216 264 326
#
# _framework density 20.291346999999998
#
# number of rings (size 3 to 8) (size 9 to 14) (size 15 to 20)
#    0.000    1.867    2.667    3.600    1.867    2.133 
#    0.000    2.667    0.000    0.400    0.000    1.867 
#    0.000    0.000    0.000    0.000    0.000    0.000 
#
# Total GULP energy -371739.269279 kJ/mol
# GULP energy per Si atom -12391.308976 kJ/mol
# Density = 2.024516 g / cm^3
# Si number density = 20.291347 Si / 1000 Ang^3
#
#
#
# Elastic Constant Matrix: (Units=GPa)
#
#
# Indices 1 2 3 4 5 6 
#
# 1 89.7624 50.6764 1.6538 0.0000 20.9261 0.0000
# 2 50.6764 76.1181 -0.6813 0.0000 14.9749 0.0000
# 3 1.6538 -0.6813 37.0081 0.0000 17.0815 0.0000
# 4 0.0000 0.0000 0.0000 12.2333 0.0000 4.4389
# 5 20.9261 14.9749 17.0815 0.0000 26.8824 0.0000
# 6 0.0000 0.0000 0.0000 4.4389 0.0000 33.4944
#
#
#
# Elastic Compliance Matrix: (Units=1/GPa)
#
#
# Indices 1 2 3 4 5 6 
#
# 1 0.020139 -0.010884 0.004722 0.000000 -0.012614 0.000000
# 2 -0.010884 0.021556 0.003559 0.000000 -0.005797 0.000000
# 3 0.004722 0.003559 0.041724 0.000000 -0.032170 0.000000
# 4 0.000000 0.000000 0.000000 0.085874 0.000000 -0.011381
# 5 -0.012614 -0.005797 -0.032170 0.000000 0.070689 0.000000
# 6 0.000000 0.000000 0.000000 -0.011381 0.000000 0.031364
#
#
# Mechanical properties :
#
#
# Convention : Reuss Voigt Hill
#
# Bulk Modulus (GPa) = 12.78568 34.02072 23.40320
# Shear Modulus (GPa) = 16.52224 24.60467 20.56345
#
# Velocity S-wave (km/s) = 2.85660 3.48597 3.18686
# Velocity P-wave (km/s) = 4.14668 5.74502 5.01000
#
# Compressibility (1/GPa) = 0.07821249
#
# Stress axis : x y z
#
# Youngs Moduli (GPa) = 49.65546 46.39148 23.96692
#
# Poissons Ratio (x) = 0.50491 -0.11317
# Poissons Ratio (y) = 0.54044 -0.08529
# Poissons Ratio (z) = -0.23447 -0.16509
#
# Static dielectric constant tensor:
#      x y z
#    x 3.975720 0.000000 0.197090 
#    y 0.000000 3.708890 0.000000 
#    z 0.197090 0.000000 3.461130 
# 
# 
# High freq. dielectric constant tensor:
#      x y z
#    x 1.805990 0.000000 0.016850 
#    y 0.000000 1.770110 0.000000 
#    z 0.016850 0.000000 1.761290 
# 
# From -- ./inp_files/82773.got.cif
#   From: 2010.06.25/outbox.cif.g09.slc.cpg/sg10_42_cif.got.tgz:82773.got - 2010.06.27 22:07:45.
