data_PCOD8063233
_publ_section_title
;
Structure prediction by ZEFSAII (Michael W. Deem and Ramdas Pophale) SiO2 
 PCOD8063233
Probable space group: P 2/M
;
_chemical_formula_sum "Si O2"
_cell_formula_units_Z 32
_cell_length_a 24.816181
_cell_length_b 9.031286
_cell_length_c 15.563736
_cell_angle_alpha 90.000000
_cell_angle_beta 149.481249
_cell_angle_gamma 90.000000
_cell_volume 1771.366685
_symmetry_space_group_name_H-M "P 2/M"
_symmetry_group_IT_number 10
_symmetry_cell_setting 'monoclinic'
loop_
_space_group_symop_operation_xyz
x,y,z
-x,y,-z
-x,-y,-z
x,-y,z
loop_
_atom_site_type_symbol
_atom_site_label
_atom_site_fract_x
_atom_site_fract_y
_atom_site_fract_z
Si Si1 0.456415 0.171924 0.848402
Si Si2 0.018223 0.671922 0.259530
Si Si3 0.727983 0.827072 0.987120
Si Si4 0.930879 0.327191 0.323690
Si Si5 0.312343 0.827599 0.417880
Si Si6 0.481196 0.675753 0.235423
Si Si7 0.182072 0.828449 0.075236
Si Si8 0.221325 0.167955 0.475045
O O1 0.515530 0.267916 0.857901
O O2 0.330939 0.201274 0.674622
O O3 0.481096 0.000000 0.863392
O O4 0.500000 0.223054 0.000000
O O5 0.009549 0.500000 0.230273
O O6 0.998493 0.711597 0.331911
O O7 0.134877 0.723486 0.394906
O O8 0.930839 0.747637 0.079002
O O9 0.623026 0.736817 0.862624
O O10 0.754048 0.795302 0.923720
O O11 0.711083 0.000000 0.982690
O O12 0.823115 0.767330 0.177394
O O13 0.900824 0.500000 0.286128
O O14 0.000000 0.278252 0.500000
O O15 0.418782 0.733214 0.573121
O O16 0.252057 0.770185 0.250653
O O17 0.235501 0.801616 0.393350
O O18 0.344791 0.000000 0.455757
O O19 0.479761 0.500000 0.234267
O O20 0.156949 0.000000 0.052313
O O21 0.184451 0.000000 0.440585
#
# Coordination Sequence:
#
# PCOD8063233 Si02
#       8
#     4   4   4   4   4   4   4   4
#     4   9  19  37  58  79 104 136 176 220 260 300
#     4  10  20  33  51  75 105 136 167 209 257 309
#     4  10  20  35  55  78 104 135 174 218 260 307
#     4   9  19  36  54  74 103 137 172 212 259 308
#     4   9  19  37  57  76 100 134 176 218 258 303
#     4  11  22  35  53  78 109 141 171 209 259 314
#     4   9  19  36  57  77  99 132 175 219 260 305
#     4   9  18  33  53  75 102 134 168 209 254 303
#
# _framework density 18.065148000000001
#
# number of rings (size 3 to 8) (size 9 to 14) (size 15 to 20)
#    0.000    2.500    0.000    2.625    0.000    6.000 
#    0.000    7.500    0.000    0.000    0.000    0.000 
#    0.000    0.000    0.000    0.000    0.000    0.000 
#
# Total GULP energy -396907.605215 kJ/mol
# GULP energy per Si atom -12403.362663 kJ/mol
# Density = 1.802403 g / cm^3
# Si number density = 18.065148 Si / 1000 Ang^3
#
#
#
# Elastic Constant Matrix: (Units=GPa)
#
#
# Indices 1 2 3 4 5 6 
#
# 1 80.5529 45.7081 72.7201 0.0000 3.1553 0.0000
# 2 45.7081 81.4619 54.2160 0.0000 4.7437 0.0000
# 3 72.7201 54.2160 133.4358 0.0000 -17.4712 0.0000
# 4 0.0000 0.0000 0.0000 21.1324 0.0000 2.7025
# 5 3.1553 4.7437 -17.4712 0.0000 35.6625 0.0000
# 6 0.0000 0.0000 0.0000 2.7025 0.0000 28.9007
#
#
#
# Elastic Compliance Matrix: (Units=1/GPa)
#
#
# Indices 1 2 3 4 5 6 
#
# 1 0.029723 -0.006277 -0.014835 0.000000 -0.009063 0.000000
# 2 -0.006277 0.019431 -0.005065 0.000000 -0.004511 0.000000
# 3 -0.014835 -0.005065 0.019124 0.000000 0.011355 0.000000
# 4 0.000000 0.000000 0.000000 0.047893 0.000000 -0.004479
# 5 -0.009063 -0.004511 0.011355 0.000000 0.035005 0.000000
# 6 0.000000 0.000000 0.000000 -0.004479 0.000000 0.035020
#
#
# Mechanical properties :
#
#
# Convention : Reuss Voigt Hill
#
# Bulk Modulus (GPa) = 62.79482 71.19324 66.99403
# Shear Modulus (GPa) = 20.50373 25.32622 22.91498
#
# Velocity S-wave (km/s) = 3.37261 3.74831 3.56541
# Velocity P-wave (km/s) = 7.07119 7.63071 7.35627
#
# Compressibility (1/GPa) = 0.01592488
#
# Stress axis : x y z
#
# Youngs Moduli (GPa) = 33.64374 51.46404 52.29121
#
# Poissons Ratio (x) = 0.32302 0.77574
# Poissons Ratio (y) = 0.21117 0.26485
# Poissons Ratio (z) = 0.49910 0.26066
#
# Static dielectric constant tensor:
#      x y z
#    x 3.309480 0.000000 -0.105900 
#    y 0.000000 3.297610 0.000000 
#    z -0.105900 0.000000 3.448590 
# 
# 
# High freq. dielectric constant tensor:
#      x y z
#    x 1.697180 0.000000 -0.000890 
#    y 0.000000 1.698550 0.000000 
#    z -0.000890 0.000000 1.705840 
# 
# From -- ./inp_files/71586.got.cif
#   From: 2010.06.25/outbox.cif.g09.slc.cpg/sg10_36_cif.got.tgz:71586.got - 2010.06.27 22:07:45.
