data_PCOD8063736
_publ_section_title
;
Structure prediction by ZEFSAII (Michael W. Deem and Ramdas Pophale) SiO2 
 PCOD8063736
Probable space group: P 2/M
;
_chemical_formula_sum "Si O2"
_cell_formula_units_Z 24
_cell_length_a 10.267374
_cell_length_b 9.092409
_cell_length_c 13.449600
_cell_angle_alpha 90.000000
_cell_angle_beta 79.522048
_cell_angle_gamma 90.000000
_cell_volume 1234.652605
_symmetry_space_group_name_H-M "P 2/M"
_symmetry_group_IT_number 10
_symmetry_cell_setting 'monoclinic'
loop_
_space_group_symop_operation_xyz
x,y,z
-x,y,-z
-x,-y,-z
x,-y,z
loop_
_atom_site_type_symbol
_atom_site_label
_atom_site_fract_x
_atom_site_fract_y
_atom_site_fract_z
Si Si1 0.983922 0.174237 0.116168
Si Si2 0.853957 0.825556 0.547633
Si Si3 0.642800 0.329739 0.442528
Si Si4 0.498288 0.167809 0.882787
Si Si5 0.218311 0.825315 0.224414
Si Si6 0.281897 0.671058 0.791269
O O1 0.858276 0.248876 0.184137
O O2 0.112600 0.230824 0.158006
O O3 0.965291 0.000000 0.127068
O O4 0.000000 0.224060 0.000000
O O5 0.753869 0.763414 0.481305
O O6 0.819742 0.764664 0.661810
O O7 0.000000 0.769843 0.500000
O O8 0.844779 0.000000 0.545629
O O9 0.500000 0.275416 0.500000
O O10 0.665069 0.500000 0.465303
O O11 0.651785 0.299063 0.324333
O O12 0.636170 0.234092 0.822843
O O13 0.378230 0.265853 0.861560
O O14 0.477217 0.000000 0.849587
O O15 0.500000 0.175651 0.000000
O O16 0.219211 0.000000 0.222184
O O17 0.259583 0.500000 0.814522
#
# Coordination Sequence:
#
# PCOD8063736 Si02
#       6
#     4   4   4   4   4   4
#     4  10  20  37  61  84 109 145 184 223 271 326
#     4  10  20  34  54  80 108 138 176 226 278 323
#     4  10  22  39  56  77 109 148 188 226 267 323
#     4  10  20  36  58  81 106 140 182 224 267 321
#     4   9  18  33  54  81 108 135 177 229 274 320
#     4  11  23  37  55  82 114 146 181 225 275 323
#
# _framework density 19.438666000000001
#
# number of rings (size 3 to 8) (size 9 to 14) (size 15 to 20)
#    0.000    2.000    0.000    3.500    0.000    6.667 
#    0.000    1.667    0.000    0.000    0.000    0.000 
#    0.000    0.000    0.000    0.000    0.000    0.000 
#
# Total GULP energy -297706.844489 kJ/mol
# GULP energy per Si atom -12404.451854 kJ/mol
# Density = 1.939442 g / cm^3
# Si number density = 19.438666 Si / 1000 Ang^3
#
#
#
# Elastic Constant Matrix: (Units=GPa)
#
#
# Indices 1 2 3 4 5 6 
#
# 1 112.0312 25.0830 14.6528 0.0000 -4.5998 0.0000
# 2 25.0830 34.3236 20.5234 0.0000 -0.4596 0.0000
# 3 14.6528 20.5234 73.4042 0.0000 -7.7110 0.0000
# 4 0.0000 0.0000 0.0000 20.0133 0.0000 -6.2553
# 5 -4.5998 -0.4596 -7.7110 0.0000 44.4247 0.0000
# 6 0.0000 0.0000 0.0000 -6.2553 0.0000 13.9697
#
#
#
# Elastic Compliance Matrix: (Units=1/GPa)
#
#
# Indices 1 2 3 4 5 6 
#
# 1 0.010721 -0.007934 0.000190 0.000000 0.001061 0.000000
# 2 -0.007934 0.040935 -0.010087 0.000000 -0.002149 0.000000
# 3 0.000190 -0.010087 0.016701 0.000000 0.002814 0.000000
# 4 0.000000 0.000000 0.000000 0.058098 0.000000 0.026015
# 5 0.001061 -0.002149 0.002814 0.000000 0.023086 0.000000
# 6 0.000000 0.000000 0.000000 0.026015 0.000000 0.083232
#
#
# Mechanical properties :
#
#
# Convention : Reuss Voigt Hill
#
# Bulk Modulus (GPa) = 30.58615 37.80858 34.19737
# Shear Modulus (GPa) = 17.89964 26.31486 22.10725
#
# Velocity S-wave (km/s) = 3.03780 3.68331 3.37602
# Velocity P-wave (km/s) = 5.29841 6.13037 5.72951
#
# Compressibility (1/GPa) = 0.03269453
#
# Stress axis : x y z
#
# Youngs Moduli (GPa) = 93.27310 24.42882 59.87560
#
# Poissons Ratio (x) = 0.19382 -0.01135
# Poissons Ratio (y) = 0.74003 0.60398
# Poissons Ratio (z) = -0.01768 0.24642
#
# Static dielectric constant tensor:
#      x y z
#    x 3.820640 0.000000 -0.255810 
#    y 0.000000 3.300710 0.000000 
#    z -0.255810 0.000000 3.901660 
# 
# 
# High freq. dielectric constant tensor:
#      x y z
#    x 1.773330 0.000000 -0.003640 
#    y 0.000000 1.728160 0.000000 
#    z -0.003640 0.000000 1.773770 
# 
# From -- ./inp_files/60221.got.cif
#   From: 2010.06.25/outbox.cif.g09.slc.cpg/sg10_31_cif.got.tgz:60221.got - 2010.06.27 22:07:45.
