data_PCOD8063639
_publ_section_title
;
Structure prediction by ZEFSAII (Michael W. Deem and Ramdas Pophale) SiO2 
 PCOD8063639
Probable space group: P 2/M
;
_chemical_formula_sum "Si O2"
_cell_formula_units_Z 28
_cell_length_a 16.519240
_cell_length_b 8.840930
_cell_length_c 14.796294
_cell_angle_alpha 90.000000
_cell_angle_beta 41.876800
_cell_angle_gamma 90.000000
_cell_volume 1442.488907
_symmetry_space_group_name_H-M "P 2/M"
_symmetry_group_IT_number 10
_symmetry_cell_setting 'monoclinic'
loop_
_space_group_symop_operation_xyz
x,y,z
-x,y,-z
-x,-y,-z
x,-y,z
loop_
_atom_site_type_symbol
_atom_site_label
_atom_site_fract_x
_atom_site_fract_y
_atom_site_fract_z
Si Si1 0.721955 0.679134 0.692360
Si Si2 0.238853 0.674718 0.613560
Si Si3 0.940585 0.673620 0.393681
Si Si4 0.432434 0.178260 0.327401
Si Si5 0.792043 0.679090 0.829926
Si Si6 0.314214 0.321084 0.894897
Si Si7 0.864486 0.678868 0.114252
O O1 0.711328 0.500000 0.685347
O O2 0.848054 0.742110 0.544951
O O3 0.609949 0.755424 0.734034
O O4 0.717478 0.722561 0.801741
O O5 0.280573 0.500000 0.579867
O O6 0.115151 0.693126 0.659491
O O7 0.346472 0.771005 0.480704
O O8 0.210647 0.739086 0.736653
O O9 0.959177 0.500000 0.404264
O O10 0.072792 0.752289 0.287030
O O11 0.565925 0.237775 0.238266
O O12 0.432556 0.000000 0.320990
O O13 0.805005 0.500000 0.829068
O O14 0.720722 0.740303 0.976424
O O15 0.337240 0.500000 0.874678
O O16 0.205288 0.275004 0.918596
O O17 0.875150 0.500000 0.115809
O O18 0.000000 0.749318 0.000000
#
# Coordination Sequence:
#
# PCOD8063639 Si02
#       7
#     4   4   4   4   4   4   4
#     4   9  17  31  53  78 103 132 169 211 255 306
#     4   9  17  32  56  81 106 136 168 205 251 303
#     4   8  13  24  47  79 107 128 159 204 250 299
#     4  11  23  38  52  69  99 137 180 221 256 296
#     4   9  16  27  49  80 107 133 166 207 255 306
#     4  10  20  34  53  77 106 136 169 209 251 301
#     4   9  17  31  56  89 114 130 157 203 256 306
#
# _framework density 19.410895
#
# number of rings (size 3 to 8) (size 9 to 14) (size 15 to 20)
#    0.000    2.714    0.000    3.429    0.000    6.286 
#    0.000    7.143    0.000   15.429    0.000    0.000 
#    0.000    0.000    0.000    0.000    0.000    0.000 
#
# Total GULP energy -347134.297147 kJ/mol
# GULP energy per Si atom -12397.653470 kJ/mol
# Density = 1.936672 g / cm^3
# Si number density = 19.410895 Si / 1000 Ang^3
#
#
#
# Elastic Constant Matrix: (Units=GPa)
#
#
# Indices 1 2 3 4 5 6 
#
# 1 109.8232 36.5908 78.5997 0.0000 3.9864 0.0000
# 2 36.5908 49.0898 29.4266 0.0000 -3.2930 0.0000
# 3 78.5997 29.4266 116.9361 0.0000 8.1842 0.0000
# 4 0.0000 0.0000 0.0000 4.4028 0.0000 3.8703
# 5 3.9864 -3.2930 8.1842 0.0000 43.1320 0.0000
# 6 0.0000 0.0000 0.0000 3.8703 0.0000 0.6421
#
#
#
# Elastic Compliance Matrix: (Units=1/GPa)
#
#
# Indices 1 2 3 4 5 6 
#
# 1 0.019920 -0.008073 -0.011336 0.000000 -0.000306 0.000000
# 2 -0.008073 0.027655 -0.001756 0.000000 0.003191 0.000000
# 3 -0.011336 -0.001756 0.016772 0.000000 -0.002269 0.000000
# 4 0.000000 0.000000 0.000000 -0.052841 0.000000 0.318487
# 5 -0.000306 0.003191 -0.002269 0.000000 0.023887 0.000000
# 6 0.000000 0.000000 0.000000 0.318487 0.000000 -0.362305
#
#
# Mechanical properties :
#
#
# Convention : Reuss Voigt Hill
#
# Bulk Modulus (GPa) = 45.42148 62.78703 54.10425
# Shear Modulus (GPa) = -18.03479 18.38419 0.17470
#
# Velocity S-wave (km/s) = -3.05143 3.08085 0.30032
# Velocity P-wave (km/s) = 3.32202 6.71357 5.29659
#
# Compressibility (1/GPa) = 0.02201602
#
# Stress axis : x y z
#
# Youngs Moduli (GPa) = 50.20177 36.15960 59.62255
#
# Poissons Ratio (x) = 0.29191 0.67589
# Poissons Ratio (y) = 0.40527 0.10472
# Poissons Ratio (z) = 0.56910 0.06351
#
# Static dielectric constant tensor:
#      x y z
#    x 3.594650 0.000000 0.051750 
#    y 0.000000 2.922930 0.000000 
#    z 0.051750 0.000000 3.700690 
# 
# 
# High freq. dielectric constant tensor:
#      x y z
#    x 1.761790 0.000000 0.003360 
#    y 0.000000 1.687570 0.000000 
#    z 0.003360 0.000000 1.764290 
# 
# From -- ./inp_files/68571.got.cif
#   From: 2010.06.25/outbox.cif.g09.slc.cpg/sg10_35_cif.got.tgz:68571.got - 2010.06.27 22:07:45.
