data_PCOD8063958
_publ_section_title
;
Structure prediction by ZEFSAII (Michael W. Deem and Ramdas Pophale) SiO2 
 PCOD8063958
Probable space group: P 2/M
;
_chemical_formula_sum "Si O2"
_cell_formula_units_Z 28
_cell_length_a 27.181853
_cell_length_b 8.652905
_cell_length_c 9.316024
_cell_angle_alpha 90.000000
_cell_angle_beta 38.830309
_cell_angle_gamma 90.000000
_cell_volume 1373.884450
_symmetry_space_group_name_H-M "P 2/M"
_symmetry_group_IT_number 10
_symmetry_cell_setting 'monoclinic'
loop_
_space_group_symop_operation_xyz
x,y,z
-x,y,-z
-x,-y,-z
x,-y,z
loop_
_atom_site_type_symbol
_atom_site_label
_atom_site_fract_x
_atom_site_fract_y
_atom_site_fract_z
Si Si1 0.067070 0.177594 0.252662
Si Si2 0.763634 0.181230 0.058681
Si Si3 0.374050 0.318493 0.446031
Si Si4 0.344815 0.682002 0.186496
Si Si5 0.034836 0.178082 0.781112
Si Si6 0.485438 0.817292 0.695102
Si Si7 0.791923 0.180888 0.668852
O O1 0.000000 0.260995 0.500000
O O2 0.038473 0.195832 0.157140
O O3 0.074556 0.000000 0.288803
O O4 0.152823 0.249795 0.077930
O O5 0.699683 0.277635 0.288677
O O6 0.753482 0.000000 0.117412
O O7 0.755230 0.212943 0.908615
O O8 0.388114 0.500000 0.415879
O O9 0.361224 0.260154 0.311722
O O10 0.450087 0.238979 0.338945
O O11 0.356071 0.500000 0.150806
O O12 0.256690 0.728581 0.341959
O O13 0.401718 0.762147 0.942549
O O14 0.118198 0.246007 0.537798
O O15 0.052465 0.000000 0.773878
O O16 0.000000 0.263498 0.000000
O O17 0.500000 0.752654 0.500000
O O18 0.486965 0.000000 0.687035
O O19 0.788374 0.000000 0.641681
#
# Coordination Sequence:
#
# PCOD8063958 Si02
#       7
#     4   4   4   4   4   4   4
#     4   9  15  28  49  77 113 149 187 241 297 340
#     4  10  20  34  57  87 117 151 196 245 293 344
#     4  11  25  42  60  86 120 156 194 234 280 340
#     4  11  25  42  60  85 120 158 194 232 281 341
#     4   9  17  28  47  79 115 149 190 240 294 347
#     4  11  24  43  68  96 120 144 184 234 283 339
#     4  10  20  35  56  86 119 151 195 246 291 343
#
# _framework density 20.380171000000001
#
# number of rings (size 3 to 8) (size 9 to 14) (size 15 to 20)
#    0.000    1.857    1.429    2.571    2.000    9.143 
#    0.000    0.000    0.000    1.714    0.000    0.000 
#    0.000    0.000    0.000    0.000    0.000    0.000 
#
# Total GULP energy -347129.298880 kJ/mol
# GULP energy per Si atom -12397.474960 kJ/mol
# Density = 2.033378 g / cm^3
# Si number density = 20.380171 Si / 1000 Ang^3
#
#
#
# Elastic Constant Matrix: (Units=GPa)
#
#
# Indices 1 2 3 4 5 6 
#
# 1 122.4524 25.0482 31.9736 0.0000 -2.1417 0.0000
# 2 25.0482 40.3225 16.7972 0.0000 5.8915 0.0000
# 3 31.9736 16.7972 92.7664 0.0000 9.8444 0.0000
# 4 0.0000 0.0000 0.0000 -16.0773 0.0000 16.2154
# 5 -2.1417 5.8915 9.8444 0.0000 41.4777 0.0000
# 6 0.0000 0.0000 0.0000 16.2154 0.0000 17.0006
#
#
#
# Elastic Compliance Matrix: (Units=1/GPa)
#
#
# Indices 1 2 3 4 5 6 
#
# 1 0.009998 -0.005376 -0.002676 0.000000 0.001915 0.000000
# 2 -0.005376 0.030018 -0.003181 0.000000 -0.003786 0.000000
# 3 -0.002676 -0.003181 0.012561 0.000000 -0.002668 0.000000
# 4 0.000000 0.000000 0.000000 -0.031702 0.000000 0.030238
# 5 0.001915 -0.003786 -0.002668 0.000000 0.025379 0.000000
# 6 0.000000 0.000000 0.000000 0.030238 0.000000 0.029980
#
#
# Mechanical properties :
#
#
# Convention : Reuss Voigt Hill
#
# Bulk Modulus (GPa) = 33.20910 44.79771 39.00341
# Shear Modulus (GPa) = 45.98253 20.59502 33.28877
#
# Velocity S-wave (km/s) = 4.75514 3.18235 4.04591
# Velocity P-wave (km/s) = 6.81753 5.96086 6.40354
#
# Compressibility (1/GPa) = 0.03011223
#
# Stress axis : x y z
#
# Youngs Moduli (GPa) = 100.01673 33.31360 79.61112
#
# Poissons Ratio (x) = 0.17909 0.21303
# Poissons Ratio (y) = 0.53769 0.25321
# Poissons Ratio (z) = 0.26763 0.10596
#
# Static dielectric constant tensor:
#      x y z
#    x 3.929510 0.000000 -0.045560 
#    y 0.000000 3.274890 0.000000 
#    z -0.045560 0.000000 3.998330 
# 
# 
# High freq. dielectric constant tensor:
#      x y z
#    x 1.815200 0.000000 -0.002590 
#    y 0.000000 1.750680 0.000000 
#    z -0.002590 0.000000 1.810990 
# 
# From -- ./inp_files/37025.got.cif
#   From: 2010.06.25/outbox.cif.g09.slc.cpg/sg10_19_cif.got.tgz:37025.got - 2010.06.27 22:07:45.
