data_PCOD8063138
_publ_section_title
;
Structure prediction by ZEFSAII (Michael W. Deem and Ramdas Pophale) SiO2 
 PCOD8063138
Probable space group: P 2/M
;
_chemical_formula_sum "Si O2"
_cell_formula_units_Z 28
_cell_length_a 9.889311
_cell_length_b 13.737501
_cell_length_c 14.024620
_cell_angle_alpha 90.000000
_cell_angle_beta 120.062289
_cell_angle_gamma 90.000000
_cell_volume 1649.007278
_symmetry_space_group_name_H-M "P 2/M"
_symmetry_group_IT_number 10
_symmetry_cell_setting 'monoclinic'
loop_
_space_group_symop_operation_xyz
x,y,z
-x,y,-z
-x,-y,-z
x,-y,z
loop_
_atom_site_type_symbol
_atom_site_label
_atom_site_fract_x
_atom_site_fract_y
_atom_site_fract_z
Si Si1 0.345473 0.392869 0.008678
Si Si2 0.752422 0.110317 0.585797
Si Si3 0.406291 0.386256 0.557747
Si Si4 0.486901 0.110046 0.337235
Si Si5 0.802960 0.385515 0.230906
Si Si6 0.922126 0.716139 0.572463
Si Si7 0.509132 0.294101 0.226467
O O1 0.316063 0.500000 0.042343
O O2 0.366764 0.317718 0.103482
O O3 0.500000 0.395169 0.000000
O O4 0.205305 0.364760 0.886367
O O5 0.631162 0.130396 0.457898
O O6 0.671878 0.128222 0.659621
O O7 0.896163 0.184409 0.622876
O O8 0.815826 0.000000 0.602583
O O9 0.500000 0.345714 0.500000
O O10 0.379116 0.500000 0.541195
O O11 0.239345 0.336569 0.506266
O O12 0.510983 0.358989 0.685928
O O13 0.498164 0.180427 0.249843
O O14 0.491576 0.000000 0.299821
O O15 0.770718 0.500000 0.240709
O O16 0.675652 0.319144 0.238913
O O17 0.973138 0.356387 0.327716
O O18 0.000000 0.743299 0.500000
#
# Coordination Sequence:
#
# PCOD8063138 Si02
#       7
#     4   4   4   4   4   4   4
#     4   8  16  30  49  71  96 134 177 212 246 295
#     4   9  18  33  50  71 101 134 169 207 254 310
#     4  11  22  32  46  73 106 137 169 207 253 305
#     4   9  17  31  52  74  97 129 171 215 254 301
#     4  10  20  33  49  73 106 140 172 206 253 307
#     4  12  21  31  50  77 107 137 163 211 263 310
#     4  11  17  30  53  74  99 131 173 216 249 304
#
# _framework density 16.979911999999999
#
# number of rings (size 3 to 8) (size 9 to 14) (size 15 to 20)
#    0.000    2.000    2.857    4.286    0.000    0.857 
#    0.000    0.714    0.000    8.143    0.000   12.000 
#    0.000    0.000    0.000    0.000    0.000    0.000 
#
# Total GULP energy -347119.687071 kJ/mol
# GULP energy per Si atom -12397.131681 kJ/mol
# Density = 1.694126 g / cm^3
# Si number density = 16.979912 Si / 1000 Ang^3
#
#
#
# Elastic Constant Matrix: (Units=GPa)
#
#
# Indices 1 2 3 4 5 6 
#
# 1 64.0792 41.6041 28.2362 0.0000 -8.3678 0.0000
# 2 41.6041 118.6305 53.9166 0.0000 -10.0984 0.0000
# 3 28.2362 53.9166 104.7712 0.0000 -7.4783 0.0000
# 4 0.0000 0.0000 0.0000 24.5126 0.0000 -7.8828
# 5 -8.3678 -10.0984 -7.4783 0.0000 16.5947 0.0000
# 6 0.0000 0.0000 0.0000 -7.8828 0.0000 26.0944
#
#
#
# Elastic Compliance Matrix: (Units=1/GPa)
#
#
# Indices 1 2 3 4 5 6 
#
# 1 0.021225 -0.005903 -0.002247 0.000000 0.006098 0.000000
# 2 -0.005903 0.012947 -0.004879 0.000000 0.002704 0.000000
# 3 -0.002247 -0.004879 0.012779 0.000000 0.001657 0.000000
# 4 0.000000 0.000000 0.000000 0.045185 0.000000 0.013650
# 5 0.006098 0.002704 0.001657 0.000000 0.065727 0.000000
# 6 0.000000 0.000000 0.000000 0.013650 0.000000 0.042446
#
#
# Mechanical properties :
#
#
# Convention : Reuss Voigt Hill
#
# Bulk Modulus (GPa) = 47.86315 59.44386 53.65351
# Shear Modulus (GPa) = 21.42871 24.35527 22.89199
#
# Velocity S-wave (km/s) = 3.55632 3.79140 3.67574
# Velocity P-wave (km/s) = 6.71659 7.36550 7.04852
#
# Compressibility (1/GPa) = 0.02089290
#
# Stress axis : x y z
#
# Youngs Moduli (GPa) = 47.11450 77.23529 78.25188
#
# Poissons Ratio (x) = 0.45595 0.17583
# Poissons Ratio (y) = 0.27813 0.38179
# Poissons Ratio (z) = 0.10587 0.37683
#
# Static dielectric constant tensor:
#      x y z
#    x 3.010190 0.000000 -0.056380 
#    y 0.000000 3.287290 0.000000 
#    z -0.056380 0.000000 3.353070 
# 
# 
# High freq. dielectric constant tensor:
#      x y z
#    x 1.628000 0.000000 -0.008690 
#    y 0.000000 1.658860 0.000000 
#    z -0.008690 0.000000 1.642680 
# 
# From -- ./inp_files/42751.got.cif
#   From: 2010.06.25/outbox.cif.g09.slc.cpg/sg10_22_cif.got.tgz:42751.got - 2010.06.27 22:07:45.
