data_PCOD8063215
_publ_section_title
;
Structure prediction by ZEFSAII (Michael W. Deem and Ramdas Pophale) SiO2 
 PCOD8063215
Probable space group: P 2/M
;
_chemical_formula_sum "Si O2"
_cell_formula_units_Z 32
_cell_length_a 23.301311
_cell_length_b 9.200243
_cell_length_c 15.845661
_cell_angle_alpha 90.000000
_cell_angle_beta 149.907266
_cell_angle_gamma 90.000000
_cell_volume 1703.237565
_symmetry_space_group_name_H-M "P 2/M"
_symmetry_group_IT_number 10
_symmetry_cell_setting 'monoclinic'
loop_
_space_group_symop_operation_xyz
x,y,z
-x,y,-z
-x,-y,-z
x,-y,z
loop_
_atom_site_type_symbol
_atom_site_label
_atom_site_fract_x
_atom_site_fract_y
_atom_site_fract_z
Si Si1 0.172887 0.333884 0.172803
Si Si2 0.177440 0.828368 0.692201
Si Si3 0.561890 0.331832 0.495377
Si Si4 0.044929 0.828106 0.687070
Si Si5 0.017518 0.329785 0.816810
Si Si6 0.567969 0.173483 0.004884
Si Si7 0.438614 0.169528 0.673534
Si Si8 0.173107 0.830383 0.338563
O O1 0.151338 0.500000 0.173591
O O2 0.304593 0.305608 0.319370
O O3 0.131405 0.231440 0.195667
O O4 0.101264 0.292731 0.999944
O O5 0.138806 0.782462 0.736934
O O6 0.302314 0.763679 0.828531
O O7 0.081760 0.777083 0.503838
O O8 0.184010 0.000000 0.697087
O O9 0.500000 0.269235 0.500000
O O10 0.531156 0.500000 0.443410
O O11 0.518442 0.249425 0.356403
O O12 0.077366 0.738381 0.811123
O O13 0.048062 0.000000 0.708712
O O14 0.998207 0.500000 0.780003
O O15 0.895661 0.251581 0.675483
O O16 0.567318 0.000000 0.006130
O O17 0.500000 0.234361 0.000000
O O18 0.508007 0.228343 0.842639
O O19 0.306013 0.203355 0.522536
O O20 0.459910 0.000000 0.686089
O O21 0.145606 0.000000 0.307893
#
# Coordination Sequence:
#
# PCOD8063215 Si02
#       8
#     4   4   4   4   4   4   4   4
#     4   9  19  35  50  69 101 135 168 205 247 301
#     4   8  16  32  52  74 103 135 167 207 256 304
#     4   9  18  34  55  74  97 136 175 204 247 307
#     4   9  18  33  53  76 101 132 170 211 253 298
#     4  11  22  33  49  74 101 133 170 205 249 303
#     4   9  17  29  51  80 107 135 169 209 257 310
#     4   9  19  33  50  78 105 130 168 213 259 302
#     4  10  20  33  51  74 102 131 166 210 254 298
#
# _framework density 18.787749000000002
#
# number of rings (size 3 to 8) (size 9 to 14) (size 15 to 20)
#    0.000    2.750    0.000    1.875    1.750    4.250 
#    0.000    1.250    0.000    1.125    0.000    0.000 
#    0.000    0.000    0.000    0.000    0.000    0.000 
#
# Total GULP energy -396791.579855 kJ/mol
# GULP energy per Si atom -12399.736870 kJ/mol
# Density = 1.874499 g / cm^3
# Si number density = 18.787749 Si / 1000 Ang^3
#
#
#
# Elastic Constant Matrix: (Units=GPa)
#
#
# Indices 1 2 3 4 5 6 
#
# 1 131.9479 33.3236 51.3226 0.0000 -2.0837 0.0000
# 2 33.3236 46.1975 24.1073 0.0000 -4.5139 0.0000
# 3 51.3226 24.1073 89.2643 0.0000 -2.5830 0.0000
# 4 0.0000 0.0000 0.0000 13.2429 0.0000 3.9423
# 5 -2.0837 -4.5139 -2.5830 0.0000 26.5549 0.0000
# 6 0.0000 0.0000 0.0000 3.9423 0.0000 9.3641
#
#
#
# Elastic Compliance Matrix: (Units=1/GPa)
#
#
# Indices 1 2 3 4 5 6 
#
# 1 0.010772 -0.005333 -0.004768 0.000000 -0.000525 0.000000
# 2 -0.005333 0.028192 -0.004433 0.000000 0.003942 0.000000
# 3 -0.004768 -0.004433 0.015151 0.000000 0.000346 0.000000
# 4 0.000000 0.000000 0.000000 0.086333 0.000000 -0.036347
# 5 -0.000525 0.003942 0.000346 0.000000 0.038320 0.000000
# 6 0.000000 0.000000 0.000000 -0.036347 0.000000 0.122093
#
#
# Mechanical properties :
#
#
# Convention : Reuss Voigt Hill
#
# Bulk Modulus (GPa) = 39.92675 53.87962 46.90319
# Shear Modulus (GPa) = 14.78067 20.40946 17.59507
#
# Velocity S-wave (km/s) = 2.80789 3.29951 3.06358
# Velocity P-wave (km/s) = 5.64003 6.57693 6.12642
#
# Compressibility (1/GPa) = 0.02504587
#
# Stress axis : x y z
#
# Youngs Moduli (GPa) = 92.83296 35.47126 66.00022
#
# Poissons Ratio (x) = 0.18918 0.31471
# Poissons Ratio (y) = 0.49510 0.29259
# Poissons Ratio (z) = 0.44265 0.15725
#
# Static dielectric constant tensor:
#      x y z
#    x 3.652770 0.000000 0.095270 
#    y 0.000000 3.146300 0.000000 
#    z 0.095270 0.000000 3.549240 
# 
# 
# High freq. dielectric constant tensor:
#      x y z
#    x 1.739210 0.000000 -0.000690 
#    y 0.000000 1.696360 0.000000 
#    z -0.000690 0.000000 1.729080 
# 
# From -- ./inp_files/71596.got.cif
#   From: 2010.06.25/outbox.cif.g09.slc.cpg/sg10_36_cif.got.tgz:71596.got - 2010.06.27 22:07:45.
