data_PCOD8063149
_publ_section_title
;
Structure prediction by ZEFSAII (Michael W. Deem and Ramdas Pophale) SiO2 
 PCOD8063149
Probable space group: P 2/M
;
_chemical_formula_sum "Si O2"
_cell_formula_units_Z 32
_cell_length_a 24.312782
_cell_length_b 9.726585
_cell_length_c 24.312697
_cell_angle_alpha 90.000000
_cell_angle_beta 161.705645
_cell_angle_gamma 90.000000
_cell_volume 1804.753914
_symmetry_space_group_name_H-M "P 2/M"
_symmetry_group_IT_number 10
_symmetry_cell_setting 'monoclinic'
loop_
_space_group_symop_operation_xyz
x,y,z
-x,y,-z
-x,-y,-z
x,-y,z
loop_
_atom_site_type_symbol
_atom_site_label
_atom_site_fract_x
_atom_site_fract_y
_atom_site_fract_z
Si Si1 0.618777 0.836827 0.881193
Si Si2 0.266136 0.342985 0.829237
Si Si3 0.318864 0.164166 0.181137
Si Si4 0.887869 0.157215 0.227343
Si Si5 0.670782 0.657016 0.233881
Si Si6 0.026344 0.163640 0.086693
Si Si7 0.586695 0.836360 0.526347
Si Si8 0.727353 0.842782 0.387878
O O1 0.649888 0.774729 0.850103
O O2 0.431743 0.784087 0.726399
O O3 0.620814 0.000000 0.879078
O O4 0.773598 0.784114 0.068249
O O5 0.213072 0.500000 0.791146
O O6 0.142882 0.243376 0.746735
O O7 0.239915 0.310490 0.739916
O O8 0.464852 0.315797 0.035166
O O9 0.475065 0.218998 0.368611
O O10 0.319142 0.000000 0.180849
O O11 0.131390 0.219000 0.024936
O O12 0.093257 0.167974 0.406734
O O13 0.833937 0.000000 0.188398
O O14 0.708888 0.500000 0.286959
O O15 0.753285 0.756636 0.357132
O O16 0.212560 0.216302 0.287439
O O17 0.023265 0.000000 0.082369
O O18 0.000000 0.220625 0.000000
O O19 0.500000 0.779375 0.500000
O O20 0.582371 0.000000 0.523269
O O21 0.688399 0.000000 0.333944
#
# Coordination Sequence:
#
# PCOD8063149 Si02
#       8
#     4   4   4   4   4   4   4   4
#     4   9  18  32  44  58  85 118 158 202 238 272
#     4   9  18  33  53  76  99 123 155 196 243 292
#     4   9  16  24  36  52  72 105 144 188 234 270
#     4  10  20  33  50  70  94 127 164 198 235 285
#     4   9  18  33  53  76  99 123 155 196 243 292
#     4   9  14  20  31  48  71  98 133 179 228 273
#     4   9  14  20  31  48  71  98 133 179 228 273
#     4  10  20  33  50  70  94 127 164 198 235 285
#
# _framework density 17.73095
#
# number of rings (size 3 to 8) (size 9 to 14) (size 15 to 20)
#    0.000    2.750    2.500    0.750    0.000    2.500 
#    0.000    8.750    0.000    0.000    0.000    0.000 
#    0.000    0.000    0.000    0.000    0.000    5.000 
#
# Total GULP energy -396701.028250 kJ/mol
# GULP energy per Si atom -12396.907133 kJ/mol
# Density = 1.769059 g / cm^3
# Si number density = 17.730950 Si / 1000 Ang^3
#
#
#
# Elastic Constant Matrix: (Units=GPa)
#
#
# Indices 1 2 3 4 5 6 
#
# 1 139.5097 30.8328 77.6820 0.0000 -4.8484 0.0000
# 2 30.8328 27.6046 22.8755 0.0000 -1.4469 0.0000
# 3 77.6820 22.8755 145.9439 0.0000 6.0140 0.0000
# 4 0.0000 0.0000 0.0000 11.1418 0.0000 1.9062
# 5 -4.8484 -1.4469 6.0140 0.0000 19.5699 0.0000
# 6 0.0000 0.0000 0.0000 1.9062 0.0000 0.6720
#
#
#
# Elastic Compliance Matrix: (Units=1/GPa)
#
#
# Indices 1 2 3 4 5 6 
#
# 1 0.012246 -0.009117 -0.005253 0.000000 0.003974 0.000000
# 2 -0.009117 0.048939 -0.002911 0.000000 0.002254 0.000000
# 3 -0.005253 -0.002911 0.010297 0.000000 -0.004681 0.000000
# 4 0.000000 0.000000 0.000000 0.174365 0.000000 -0.494567
# 5 0.003974 0.002254 -0.004681 0.000000 0.053689 0.000000
# 6 0.000000 0.000000 0.000000 -0.494567 0.000000 2.890780
#
#
# Mechanical properties :
#
#
# Convention : Reuss Voigt Hill
#
# Bulk Modulus (GPa) = 27.08510 63.98211 45.53361
# Shear Modulus (GPa) = 1.54455 18.38795 9.96625
#
# Velocity S-wave (km/s) = 0.93434 3.22383 2.37340
# Velocity P-wave (km/s) = 4.05867 7.07253 5.76600
#
# Compressibility (1/GPa) = 0.03692066
#
# Stress axis : x y z
#
# Youngs Moduli (GPa) = 81.66012 20.43356 97.11414
#
# Poissons Ratio (x) = 0.18628 0.51014
# Poissons Ratio (y) = 0.74446 0.28272
# Poissons Ratio (z) = 0.42896 0.05949
#
# Static dielectric constant tensor:
#      x y z
#    x 3.406260 0.000000 0.014730 
#    y 0.000000 2.702620 0.000000 
#    z 0.014730 0.000000 3.486800 
# 
# 
# High freq. dielectric constant tensor:
#      x y z
#    x 1.682200 0.000000 0.003550 
#    y 0.000000 1.615540 0.000000 
#    z 0.003550 0.000000 1.701700 
# 
# From -- ./inp_files/90674.got.cif
#   From: 2010.06.25/outbox.cif.g09.slc.cpg/sg10_46_cif.got.tgz:90674.got - 2010.06.27 22:07:45.
