data_PCOD8063104
_publ_section_title
;
Structure prediction by ZEFSAII (Michael W. Deem and Ramdas Pophale) SiO2 
 PCOD8063104
Probable space group: P 2/M
;
_chemical_formula_sum "Si O2"
_cell_formula_units_Z 24
_cell_length_a 15.532327
_cell_length_b 9.196767
_cell_length_c 15.444542
_cell_angle_alpha 90.000000
_cell_angle_beta 38.389515
_cell_angle_gamma 90.000000
_cell_volume 1370.065686
_symmetry_space_group_name_H-M "P 2/M"
_symmetry_group_IT_number 10
_symmetry_cell_setting 'monoclinic'
loop_
_space_group_symop_operation_xyz
x,y,z
-x,y,-z
-x,-y,-z
x,-y,z
loop_
_atom_site_type_symbol
_atom_site_label
_atom_site_fract_x
_atom_site_fract_y
_atom_site_fract_z
Si Si1 0.245855 0.169761 0.525839
Si Si2 0.489575 0.328928 0.738443
Si Si3 0.850337 0.831437 0.589886
Si Si4 0.197585 0.671362 0.900949
Si Si5 0.092290 0.327912 0.799224
Si Si6 0.589023 0.669694 0.849337
O O1 0.395433 0.246442 0.408715
O O2 0.169412 0.199545 0.495751
O O3 0.149239 0.239072 0.674144
O O4 0.266869 0.000000 0.527407
O O5 0.504272 0.500000 0.707977
O O6 0.340415 0.265699 0.826997
O O7 0.506722 0.293518 0.826284
O O8 0.736573 0.748056 0.735899
O O9 0.000000 0.771644 0.500000
O O10 0.835009 0.000000 0.624474
O O11 0.199052 0.500000 0.907574
O O12 0.182750 0.714805 0.812140
O O13 0.065694 0.725629 0.060405
O O14 0.100316 0.500000 0.774352
O O15 0.618297 0.500000 0.835425
O O16 0.500000 0.728484 0.000000
#
# Coordination Sequence:
#
# PCOD8063104 Si02
#       6
#     4   4   4   4   4   4
#     4  10  20  33  48  70  98 124 155 195 235 276
#     4   9  17  32  51  69  94 128 160 190 230 279
#     4   9  19  35  51  67  92 127 162 192 226 277
#     4   8  16  31  51  72  93 122 161 197 227 274
#     4   9  17  32  52  72  94 122 158 196 234 276
#     4   9  18  31  48  73 100 122 151 195 240 278
#
# _framework density 17.517408
#
# number of rings (size 3 to 8) (size 9 to 14) (size 15 to 20)
#    0.000    3.000    0.000    1.500    0.000    3.333 
#    0.000    8.333    0.000    0.000    0.000    0.000 
#    0.000    0.000    0.000    0.000    0.000    0.000 
#
# Total GULP energy -297588.612129 kJ/mol
# GULP energy per Si atom -12399.525505 kJ/mol
# Density = 1.747754 g / cm^3
# Si number density = 17.517408 Si / 1000 Ang^3
#
#
#
# Elastic Constant Matrix: (Units=GPa)
#
#
# Indices 1 2 3 4 5 6 
#
# 1 105.5810 36.5826 77.0758 0.0000 -29.4393 0.0000
# 2 36.5826 50.3187 56.6557 0.0000 -2.6536 0.0000
# 3 77.0758 56.6557 159.3941 0.0000 -5.8364 0.0000
# 4 0.0000 0.0000 0.0000 7.3709 0.0000 0.6034
# 5 -29.4393 -2.6536 -5.8364 0.0000 32.4759 0.0000
# 6 0.0000 0.0000 0.0000 0.6034 0.0000 20.0194
#
#
#
# Elastic Compliance Matrix: (Units=1/GPa)
#
#
# Indices 1 2 3 4 5 6 
#
# 1 0.022812 -0.006585 -0.008005 0.000000 0.018702 0.000000
# 2 -0.006585 0.035046 -0.009449 0.000000 -0.004803 0.000000
# 3 -0.008005 -0.009449 0.013297 0.000000 -0.005639 0.000000
# 4 0.000000 0.000000 0.000000 0.136004 0.000000 -0.004099
# 5 0.018702 -0.004803 -0.005639 0.000000 0.046339 0.000000
# 6 0.000000 0.000000 0.000000 -0.004099 0.000000 0.050075
#
#
# Mechanical properties :
#
#
# Convention : Reuss Voigt Hill
#
# Bulk Modulus (GPa) = 43.33360 72.88021 58.10690
# Shear Modulus (GPa) = 13.91430 21.63856 17.77643
#
# Velocity S-wave (km/s) = 2.82141 3.51844 3.18903
# Velocity P-wave (km/s) = 5.95021 7.62894 6.84126
#
# Compressibility (1/GPa) = 0.02307678
#
# Stress axis : x y z
#
# Youngs Moduli (GPa) = 43.83721 28.53414 75.20604
#
# Poissons Ratio (x) = 0.18789 0.60206
# Poissons Ratio (y) = 0.28865 0.71060
# Poissons Ratio (z) = 0.35094 0.26961
#
# Static dielectric constant tensor:
#      x y z
#    x 3.576400 0.000000 -0.241840 
#    y 0.000000 3.042090 0.000000 
#    z -0.241840 0.000000 3.395770 
# 
# 
# High freq. dielectric constant tensor:
#      x y z
#    x 1.677730 0.000000 -0.004400 
#    y 0.000000 1.655730 0.000000 
#    z -0.004400 0.000000 1.683750 
# 
# From -- ./inp_files/33737.got.cif
#   From: 2010.06.25/outbox.cif.g09.slc.cpg/sg10_17_cif.got.tgz:33737.got - 2010.06.27 22:07:45.
