data_PCOD8063314
_publ_section_title
;
Structure prediction by ZEFSAII (Michael W. Deem and Ramdas Pophale) SiO2 
 PCOD8063314
Probable space group: P 2/M
;
_chemical_formula_sum "Si O2"
_cell_formula_units_Z 32
_cell_length_a 12.030473
_cell_length_b 9.299899
_cell_length_c 31.131172
_cell_angle_alpha 90.000000
_cell_angle_beta 28.714880
_cell_angle_gamma 90.000000
_cell_volume 1673.423105
_symmetry_space_group_name_H-M "P 2/M"
_symmetry_group_IT_number 10
_symmetry_cell_setting 'monoclinic'
loop_
_space_group_symop_operation_xyz
x,y,z
-x,y,-z
-x,-y,-z
x,-y,z
loop_
_atom_site_type_symbol
_atom_site_label
_atom_site_fract_x
_atom_site_fract_y
_atom_site_fract_z
Si Si1 0.227878 0.841923 0.589222
Si Si2 0.954597 0.168970 0.064490
Si Si3 0.384603 0.329863 0.396611
Si Si4 0.498702 0.832489 0.728066
Si Si5 0.697831 0.331619 0.994255
Si Si6 0.784968 0.331956 0.324087
Si Si7 0.786715 0.330975 0.870022
Si Si8 0.022650 0.166913 0.569038
O O1 0.500000 0.855116 0.500000
O O2 0.157083 0.731644 0.649494
O O3 0.136897 0.780941 0.574823
O O4 0.117455 0.000000 0.634321
O O5 0.703739 0.215518 0.169696
O O6 0.162323 0.244184 0.018436
O O7 0.982374 0.000000 0.059931
O O8 0.000000 0.216619 0.000000
O O9 0.356617 0.500000 0.398375
O O10 0.509743 0.261327 0.312646
O O11 0.538703 0.294998 0.386548
O O12 0.135796 0.257960 0.491431
O O13 0.748494 0.803994 0.665045
O O14 0.470304 0.000000 0.725507
O O15 0.754515 0.500000 0.980462
O O16 0.759902 0.267117 0.926555
O O17 0.423834 0.299046 0.091526
O O18 0.817178 0.500000 0.318471
O O19 0.979055 0.264623 0.227592
O O20 0.802915 0.500000 0.871463
O O21 0.077631 0.000000 0.541318
#
# Coordination Sequence:
#
# PCOD8063314 Si02
#       8
#     4   4   4   4   4   4   4   4
#     4  10  20  35  54  76 104 139 180 221 259 308
#     4  10  22  39  57  79 110 144 180 226 275 320
#     4  11  22  35  56  85 114 142 179 229 274 313
#     4  10  22  39  58  79 106 146 187 221 268 329
#     4   9  17  34  59  80 105 140 178 218 267 323
#     4  10  20  33  52  79 111 144 178 216 268 322
#     4   8  16  32  54  81 109 139 174 218 269 323
#     4  10  21  38  57  77 108 149 187 221 266 324
#
# _framework density 19.122478999999998
#
# number of rings (size 3 to 8) (size 9 to 14) (size 15 to 20)
#    0.000    2.250    1.250    2.250    0.000    6.000 
#    0.000    3.750    0.000    0.000    0.000    0.000 
#    0.000    0.000    0.000    0.000    0.000    0.000 
#
# Total GULP energy -396591.606259 kJ/mol
# GULP energy per Si atom -12393.487696 kJ/mol
# Density = 1.907896 g / cm^3
# Si number density = 19.122479 Si / 1000 Ang^3
#
#
#
# Elastic Constant Matrix: (Units=GPa)
#
#
# Indices 1 2 3 4 5 6 
#
# 1 117.9324 43.6803 43.1759 0.0000 7.4595 0.0000
# 2 43.6803 44.9165 36.2007 0.0000 6.6025 0.0000
# 3 43.1759 36.2007 90.6154 0.0000 8.1683 0.0000
# 4 0.0000 0.0000 0.0000 23.2361 0.0000 4.2890
# 5 7.4595 6.6025 8.1683 0.0000 27.5136 0.0000
# 6 0.0000 0.0000 0.0000 4.2890 0.0000 33.4281
#
#
#
# Elastic Compliance Matrix: (Units=1/GPa)
#
#
# Indices 1 2 3 4 5 6 
#
# 1 0.013440 -0.011628 -0.001728 0.000000 -0.000341 0.000000
# 2 -0.011628 0.043351 -0.011431 0.000000 -0.003857 0.000000
# 3 -0.001728 -0.011431 0.016580 0.000000 -0.001711 0.000000
# 4 0.000000 0.000000 0.000000 0.044080 0.000000 -0.005656
# 5 -0.000341 -0.003857 -0.001711 0.000000 0.037871 0.000000
# 6 0.000000 0.000000 0.000000 -0.005656 0.000000 0.030641
#
#
# Mechanical properties :
#
#
# Convention : Reuss Voigt Hill
#
# Bulk Modulus (GPa) = 42.02002 55.50866 48.76434
# Shear Modulus (GPa) = 20.53657 25.52940 23.03298
#
# Velocity S-wave (km/s) = 3.28067 3.65779 3.47435
# Velocity P-wave (km/s) = 6.03094 6.85056 6.45378
#
# Compressibility (1/GPa) = 0.02379818
#
# Stress axis : x y z
#
# Youngs Moduli (GPa) = 74.40310 23.06776 60.31463
#
# Poissons Ratio (x) = 0.26822 0.10423
# Poissons Ratio (y) = 0.86513 0.68943
# Poissons Ratio (z) = 0.12857 0.26368
#
# Static dielectric constant tensor:
#      x y z
#    x 3.690850 0.000000 0.213850 
#    y 0.000000 3.359370 0.000000 
#    z 0.213850 0.000000 4.091720 
# 
# 
# High freq. dielectric constant tensor:
#      x y z
#    x 1.748500 0.000000 -0.005130 
#    y 0.000000 1.723520 0.000000 
#    z -0.005130 0.000000 1.746660 
# 
# From -- ./inp_files/58125.got.cif
#   From: 2010.06.25/outbox.cif.g09.slc.cpg/sg10_30_cif.got.tgz:58125.got - 2010.06.27 22:07:45.
