data_PCOD8063765
_publ_section_title
;
Structure prediction by ZEFSAII (Michael W. Deem and Ramdas Pophale) SiO2 
 PCOD8063765
Probable space group: P 2/M
;
_chemical_formula_sum "Si O2"
_cell_formula_units_Z 32
_cell_length_a 19.487446
_cell_length_b 8.791354
_cell_length_c 11.283728
_cell_angle_alpha 90.000000
_cell_angle_beta 57.736731
_cell_angle_gamma 90.000000
_cell_volume 1634.671321
_symmetry_space_group_name_H-M "P 2/M"
_symmetry_group_IT_number 10
_symmetry_cell_setting 'monoclinic'
loop_
_space_group_symop_operation_xyz
x,y,z
-x,y,-z
-x,-y,-z
x,-y,z
loop_
_atom_site_type_symbol
_atom_site_label
_atom_site_fract_x
_atom_site_fract_y
_atom_site_fract_z
Si Si1 0.186460 0.177854 0.149042
Si Si2 0.955672 0.177866 0.875376
Si Si3 0.409542 0.326484 0.054865
Si Si4 0.331754 0.325780 0.881711
Si Si5 0.733770 0.823835 0.686280
Si Si6 0.725610 0.678477 0.445640
Si Si7 0.122026 0.180219 0.810545
Si Si8 0.407182 0.179499 0.583844
O O1 0.093396 0.219412 0.199482
O O2 0.199652 0.220626 0.274647
O O3 0.204965 0.000000 0.111622
O O4 0.244847 0.271158 0.008746
O O5 0.049244 0.234466 0.787803
O O6 0.961992 0.000000 0.889171
O O7 0.904823 0.237273 0.034888
O O8 0.391006 0.500000 0.111429
O O9 0.354231 0.212315 0.180075
O O10 0.500000 0.277416 0.000000
O O11 0.396937 0.307080 0.926473
O O12 0.324607 0.500000 0.846281
O O13 0.361237 0.224898 0.745843
O O14 0.750906 0.726951 0.554189
O O15 0.739119 0.000000 0.647200
O O16 0.715855 0.500000 0.448724
O O17 0.795896 0.731575 0.292640
O O18 0.639636 0.750451 0.485930
O O19 0.139293 0.000000 0.786684
O O20 0.500000 0.240043 0.500000
O O21 0.405510 0.000000 0.571585
#
# Coordination Sequence:
#
# PCOD8063765 Si02
#       8
#     4   4   4   4   4   4   4   4
#     4   9  17  33  57  83 112 148 190 234 277 324
#     4   8  15  30  57  88 114 143 183 230 278 328
#     4   9  19  35  55  80 109 144 182 226 278 328
#     4  10  20  34  54  82 114 145 181 221 273 333
#     4  10  21  36  55  80 108 147 194 237 279 327
#     4  12  25  40  58  79 112 151 186 227 284 345
#     4   9  17  33  58  87 116 147 183 226 278 334
#     4  11  25  42  59  81 108 141 183 231 279 329
#
# _framework density 19.575800999999998
#
# number of rings (size 3 to 8) (size 9 to 14) (size 15 to 20)
#    0.000    2.250    0.000    3.750    1.750    3.250 
#    0.000    2.500    0.000    3.750    0.000    0.000 
#    0.000    0.000    0.000    0.000    0.000    0.000 
#
# Total GULP energy -396747.457263 kJ/mol
# GULP energy per Si atom -12398.358039 kJ/mol
# Density = 1.953125 g / cm^3
# Si number density = 19.575801 Si / 1000 Ang^3
#
#
#
# Elastic Constant Matrix: (Units=GPa)
#
#
# Indices 1 2 3 4 5 6 
#
# 1 137.8373 35.1540 28.1273 0.0000 -6.6085 0.0000
# 2 35.1540 70.4741 23.2831 0.0000 -1.2365 0.0000
# 3 28.1273 23.2831 56.4259 0.0000 5.7185 0.0000
# 4 0.0000 0.0000 0.0000 6.1521 0.0000 2.1274
# 5 -6.6085 -1.2365 5.7185 0.0000 24.1255 0.0000
# 6 0.0000 0.0000 0.0000 2.1274 0.0000 20.7666
#
#
#
# Elastic Compliance Matrix: (Units=1/GPa)
#
#
# Indices 1 2 3 4 5 6 
#
# 1 0.008935 -0.003274 -0.003416 0.000000 0.003089 0.000000
# 2 -0.003274 0.017779 -0.005846 0.000000 0.001400 0.000000
# 3 -0.003416 -0.005846 0.022503 0.000000 -0.006569 0.000000
# 4 0.000000 0.000000 0.000000 0.168516 0.000000 -0.017263
# 5 0.003089 0.001400 -0.006569 0.000000 0.043925 0.000000
# 6 0.000000 0.000000 0.000000 -0.017263 0.000000 0.049923
#
#
# Mechanical properties :
#
#
# Convention : Reuss Voigt Hill
#
# Bulk Modulus (GPa) = 41.41670 48.65176 45.03423
# Shear Modulus (GPa) = 14.50530 22.08703 18.29616
#
# Velocity S-wave (km/s) = 2.72505 3.36264 3.06049
# Velocity P-wave (km/s) = 5.57712 6.32324 5.96186
#
# Compressibility (1/GPa) = 0.02414485
#
# Stress axis : x y z
#
# Youngs Moduli (GPa) = 111.91675 56.24689 44.43825
#
# Poissons Ratio (x) = 0.18417 0.15180
# Poissons Ratio (y) = 0.36645 0.25978
# Poissons Ratio (z) = 0.38232 0.32881
#
# Static dielectric constant tensor:
#      x y z
#    x 3.990870 0.000000 0.041760 
#    y 0.000000 3.418200 0.000000 
#    z 0.041760 0.000000 3.347200 
# 
# 
# High freq. dielectric constant tensor:
#      x y z
#    x 1.783110 0.000000 0.005180 
#    y 0.000000 1.748230 0.000000 
#    z 0.005180 0.000000 1.740180 
# 
# From -- ./inp_files/54825.got.cif
#   From: 2010.06.25/outbox.cif.g09.slc.cpg/sg10_28_cif.got.tgz:54825.got - 2010.06.27 22:07:45.
