data_PCOD8063781
_publ_section_title
;
Structure prediction by ZEFSAII (Michael W. Deem and Ramdas Pophale) SiO2 
 PCOD8063781
Probable space group: P 2/M
;
_chemical_formula_sum "Si O2"
_cell_formula_units_Z 20
_cell_length_a 9.432806
_cell_length_b 7.518475
_cell_length_c 27.561900
_cell_angle_alpha 90.000000
_cell_angle_beta 148.403517
_cell_angle_gamma 90.000000
_cell_volume 1024.132351
_symmetry_space_group_name_H-M "P 2/M"
_symmetry_group_IT_number 10
_symmetry_cell_setting 'monoclinic'
loop_
_space_group_symop_operation_xyz
x,y,z
-x,y,-z
-x,-y,-z
x,-y,z
loop_
_atom_site_type_symbol
_atom_site_label
_atom_site_fract_x
_atom_site_fract_y
_atom_site_fract_z
Si Si1 0.860941 0.201949 0.712569
Si Si2 0.095931 0.500000 0.606143
Si Si3 0.291759 0.799693 0.083476
Si Si4 0.187024 0.210256 0.711408
Si Si5 0.601516 0.709454 0.081727
Si Si6 0.438006 0.500000 0.612417
O O1 0.609217 0.324177 0.652097
O O2 0.976261 0.251249 0.693136
O O3 0.092550 0.226324 0.820628
O O4 0.756652 0.000000 0.683083
O O5 0.104513 0.320814 0.640357
O O6 0.344796 0.500000 0.641167
O O7 0.814208 0.500000 0.496612
O O8 0.517638 0.717246 0.185251
O O9 0.401249 0.801503 0.060985
O O10 0.246979 0.000000 0.088363
O O11 0.000000 0.698808 0.000000
O O12 0.189250 0.000000 0.700002
O O13 0.583002 0.500000 0.082971
O O14 0.500000 0.773145 0.000000
#
# Coordination Sequence:
#
# PCOD8063781 Si02
#       6
#     4   2   4   4   4   2
#     4  10  21  40  65  87 116 154 196 245 286 340
#     4  11  25  41  62  83 120 155 180 247 300 353
#     4   9  19  35  54  82 118 154 195 235 277 335
#     4   9  20  39  62  89 115 152 201 240 286 341
#     4  10  20  34  54  85 120 152 193 235 277 337
#     4  11  25  43  58  89 118 147 196 233 302 363
#
# _framework density 19.528727
#
# number of rings (size 3 to 8) (size 9 to 14) (size 15 to 20)
#    0.000    2.200    1.000    2.400    4.200    6.800 
#    0.000    6.000    0.000    0.000    0.000    0.000 
#    0.000    0.000    0.000    0.000    0.000    0.000 
#
# Total GULP energy -247966.868482 kJ/mol
# GULP energy per Si atom -12398.343424 kJ/mol
# Density = 1.948428 g / cm^3
# Si number density = 19.528727 Si / 1000 Ang^3
#
#
#
# Elastic Constant Matrix: (Units=GPa)
#
#
# Indices 1 2 3 4 5 6 
#
# 1 89.1323 41.0997 82.2568 0.0000 -1.1264 0.0000
# 2 41.0997 89.0074 49.1976 0.0000 1.4411 0.0000
# 3 82.2568 49.1976 110.9657 0.0000 4.4864 0.0000
# 4 0.0000 0.0000 0.0000 20.5416 0.0000 7.4175
# 5 -1.1264 1.4411 4.4864 0.0000 39.6404 0.0000
# 6 0.0000 0.0000 0.0000 7.4175 0.0000 14.5431
#
#
#
# Elastic Compliance Matrix: (Units=1/GPa)
#
#
# Indices 1 2 3 4 5 6 
#
# 1 0.036571 -0.002487 -0.026172 0.000000 0.004092 0.000000
# 2 -0.002487 0.015053 -0.004827 0.000000 -0.000072 0.000000
# 3 -0.026172 -0.004827 0.030717 0.000000 -0.004045 0.000000
# 4 0.000000 0.000000 0.000000 0.059671 0.000000 -0.030435
# 5 0.004092 -0.000072 -0.004045 0.000000 0.025803 0.000000
# 6 0.000000 0.000000 0.000000 -0.030435 0.000000 0.084284
#
#
# Mechanical properties :
#
#
# Convention : Reuss Voigt Hill
#
# Bulk Modulus (GPa) = 65.07304 70.46817 67.77061
# Shear Modulus (GPa) = 15.42280 22.71511 19.06896
#
# Velocity S-wave (km/s) = 2.81330 3.41422 3.12822
# Velocity P-wave (km/s) = 6.62924 7.19063 6.91564
#
# Compressibility (1/GPa) = 0.01536735
#
# Stress axis : x y z
#
# Youngs Moduli (GPa) = 27.34392 66.43293 32.55554
#
# Poissons Ratio (x) = 0.16520 0.85206
# Poissons Ratio (y) = 0.06800 0.15716
# Poissons Ratio (z) = 0.71566 0.32070
#
# Static dielectric constant tensor:
#      x y z
#    x 3.545440 0.000000 0.081990 
#    y 0.000000 3.525170 0.000000 
#    z 0.081990 0.000000 3.686680 
# 
# 
# High freq. dielectric constant tensor:
#      x y z
#    x 1.750710 0.000000 0.002430 
#    y 0.000000 1.767350 0.000000 
#    z 0.002430 0.000000 1.762610 
# 
# From -- ./inp_files/33685.got.cif
#   From: 2010.06.25/outbox.cif.g09.slc.cpg/sg10_17_cif.got.tgz:33685.got - 2010.06.27 22:07:45.
