data_PCOD8063201
_publ_section_title
;
Structure prediction by ZEFSAII (Michael W. Deem and Ramdas Pophale) SiO2 
 PCOD8063201
Probable space group: P 2/M
;
_chemical_formula_sum "Si O2"
_cell_formula_units_Z 28
_cell_length_a 9.216652
_cell_length_b 8.991669
_cell_length_c 29.146690
_cell_angle_alpha 90.000000
_cell_angle_beta 141.622278
_cell_angle_gamma 90.000000
_cell_volume 1499.631457
_symmetry_space_group_name_H-M "P 2/M"
_symmetry_group_IT_number 10
_symmetry_cell_setting 'monoclinic'
loop_
_space_group_symop_operation_xyz
x,y,z
-x,y,-z
-x,-y,-z
x,-y,z
loop_
_atom_site_type_symbol
_atom_site_label
_atom_site_fract_x
_atom_site_fract_y
_atom_site_fract_z
Si Si1 0.030785 0.833544 0.282573
Si Si2 0.413200 0.674338 0.428498
Si Si3 0.826105 0.826716 0.998444
Si Si4 0.268350 0.826764 0.565195
Si Si5 0.994796 0.672511 0.130535
Si Si6 0.645459 0.835843 0.725795
Si Si7 0.332951 0.325941 0.865062
O O1 0.795463 0.747237 0.210312
O O2 0.163372 0.752491 0.357199
O O3 0.203179 0.835841 0.282586
O O4 0.962332 0.000000 0.280981
O O5 0.500000 0.720433 0.500000
O O6 0.373795 0.500000 0.413315
O O7 0.612419 0.725270 0.443121
O O8 0.945774 0.771712 0.074460
O O9 0.766831 0.000000 0.988197
O O10 0.590654 0.737499 0.931780
O O11 0.000000 0.793582 0.000000
O O12 0.382864 0.795289 0.644010
O O13 0.000000 0.780334 0.500000
O O14 0.303153 0.000000 0.560821
O O15 0.993709 0.500000 0.116741
O O16 0.252268 0.716063 0.213205
O O17 0.800152 0.709432 0.120454
O O18 0.653257 0.000000 0.750572
O O19 0.344820 0.500000 0.859064
#
# Coordination Sequence:
#
# PCOD8063201 Si02
#       7
#     4   4   4   4   4   4   4
#     4   9  17  31  53  78 103 135 174 214 257 302
#     4  10  20  33  50  75 107 141 176 215 260 308
#     4  11  24  39  54  75 105 140 175 210 253 305
#     4   9  18  33  53  77 104 136 175 217 262 311
#     4  10  20  34  55  81 104 131 170 213 258 308
#     4   8  15  29  50  75 102 132 168 212 257 301
#     4  10  20  35  57  83 107 132 168 213 259 308
#
# _framework density 18.671253
#
# number of rings (size 3 to 8) (size 9 to 14) (size 15 to 20)
#    0.000    2.429    0.000    3.429    0.000    9.429 
#    0.000    1.429    0.000    5.143    0.000    0.000 
#    0.000    0.000    0.000    0.000    0.000    0.000 
#
# Total GULP energy -347187.011875 kJ/mol
# GULP energy per Si atom -12399.536138 kJ/mol
# Density = 1.862876 g / cm^3
# Si number density = 18.671253 Si / 1000 Ang^3
#
#
#
# Elastic Constant Matrix: (Units=GPa)
#
#
# Indices 1 2 3 4 5 6 
#
# 1 45.6913 36.6704 44.8305 0.0000 -3.4126 0.0000
# 2 36.6704 96.5191 59.6721 0.0000 -11.2617 0.0000
# 3 44.8305 59.6721 157.9145 0.0000 -2.2133 0.0000
# 4 0.0000 0.0000 0.0000 39.0097 0.0000 -1.5071
# 5 -3.4126 -11.2617 -2.2133 0.0000 24.4099 0.0000
# 6 0.0000 0.0000 0.0000 -1.5071 0.0000 21.4549
#
#
#
# Elastic Compliance Matrix: (Units=1/GPa)
#
#
# Indices 1 2 3 4 5 6 
#
# 1 0.036099 -0.009628 -0.006610 0.000000 0.000006 0.000000
# 2 -0.009628 0.016954 -0.003587 0.000000 0.006150 0.000000
# 3 -0.006610 -0.003587 0.009540 0.000000 -0.001714 0.000000
# 4 0.000000 0.000000 0.000000 0.025704 0.000000 0.001806
# 5 0.000006 0.006150 -0.001714 0.000000 0.043650 0.000000
# 6 0.000000 0.000000 0.000000 0.001806 0.000000 0.046736
#
#
# Mechanical properties :
#
#
# Convention : Reuss Voigt Hill
#
# Bulk Modulus (GPa) = 43.58516 64.71899 54.15208
# Shear Modulus (GPa) = 22.12577 27.57169 24.84873
#
# Velocity S-wave (km/s) = 3.44614 3.84694 3.65205
# Velocity P-wave (km/s) = 6.26328 7.38035 6.84464
#
# Compressibility (1/GPa) = 0.02294359
#
# Stress axis : x y z
#
# Youngs Moduli (GPa) = 27.70177 58.98392 104.81685
#
# Poissons Ratio (x) = 0.56789 0.69283
# Poissons Ratio (y) = 0.26671 0.37598
# Poissons Ratio (z) = 0.18311 0.21157
#
# Static dielectric constant tensor:
#      x y z
#    x 3.056300 0.000000 0.035360 
#    y 0.000000 3.533600 0.000000 
#    z 0.035360 0.000000 3.856510 
# 
# 
# High freq. dielectric constant tensor:
#      x y z
#    x 1.679910 0.000000 0.000890 
#    y 0.000000 1.735200 0.000000 
#    z 0.000890 0.000000 1.747250 
# 
# From -- ./inp_files/37286.got.cif
#   From: 2010.06.25/outbox.cif.g09.slc.cpg/sg10_19_cif.got.tgz:37286.got - 2010.06.27 22:07:45.
