data_PCOD8063827
_publ_section_title
;
Structure prediction by ZEFSAII (Michael W. Deem and Ramdas Pophale) SiO2 
 PCOD8063827
Probable space group: P 2/M
;
_chemical_formula_sum "Si O2"
_cell_formula_units_Z 28
_cell_length_a 16.036117
_cell_length_b 8.957460
_cell_length_c 20.271738
_cell_angle_alpha 90.000000
_cell_angle_beta 150.034977
_cell_angle_gamma 90.000000
_cell_volume 1454.405658
_symmetry_space_group_name_H-M "P 2/M"
_symmetry_group_IT_number 10
_symmetry_cell_setting 'monoclinic'
loop_
_space_group_symop_operation_xyz
x,y,z
-x,y,-z
-x,-y,-z
x,-y,z
loop_
_atom_site_type_symbol
_atom_site_label
_atom_site_fract_x
_atom_site_fract_y
_atom_site_fract_z
Si Si1 0.069967 0.176724 0.235779
Si Si2 0.926263 0.173733 0.378556
Si Si3 0.650875 0.674310 0.650433
Si Si4 0.158654 0.324354 0.433401
Si Si5 0.547648 0.823182 0.103898
Si Si6 0.533215 0.326676 0.715732
Si Si7 0.304445 0.176855 0.049931
O O1 0.184261 0.232822 0.254142
O O2 0.136285 0.245715 0.348518
O O3 0.078736 0.000000 0.247324
O O4 0.882246 0.231874 0.093070
O O5 0.734877 0.224387 0.249587
O O6 0.000000 0.210236 0.500000
O O7 0.017646 0.271287 0.386738
O O8 0.946010 0.000000 0.373276
O O9 0.500000 0.725158 0.500000
O O10 0.688441 0.500000 0.666229
O O11 0.604100 0.714007 0.692807
O O12 0.145572 0.500000 0.412665
O O13 0.338910 0.280695 0.586325
O O14 0.424333 0.756936 0.074886
O O15 0.528218 0.000000 0.088872
O O16 0.500000 0.755507 0.000000
O O17 0.556135 0.500000 0.747106
O O18 0.637819 0.234444 0.839902
O O19 0.314971 0.000000 0.058542
#
# Coordination Sequence:
#
# PCOD8063827 Si02
#       7
#     4   4   4   4   4   4   4
#     4  11  23  38  60  90 118 147 192 242 290 342
#     4  10  20  34  55  83 112 146 193 243 291 343
#     4  10  20  40  63  84 116 154 195 235 283 346
#     4  11  22  38  59  84 116 155 197 240 290 346
#     4   9  17  33  56  78 108 150 190 230 282 339
#     4  10  22  39  60  84 114 155 195 235 284 348
#     4  10  22  39  59  86 119 153 190 240 294 346
#
# _framework density 19.251850000000001
#
# number of rings (size 3 to 8) (size 9 to 14) (size 15 to 20)
#    0.000    1.857    1.429    2.571    0.000    7.429 
#    0.000    3.571    0.000    1.714    0.000    0.000 
#    0.000    0.000    0.000    0.000    0.000    0.000 
#
# Total GULP energy -347320.579755 kJ/mol
# GULP energy per Si atom -12404.306420 kJ/mol
# Density = 1.920803 g / cm^3
# Si number density = 19.251850 Si / 1000 Ang^3
#
#
#
# Elastic Constant Matrix: (Units=GPa)
#
#
# Indices 1 2 3 4 5 6 
#
# 1 119.3249 27.8397 53.3837 0.0000 11.2218 0.0000
# 2 27.8397 38.5011 32.0163 0.0000 6.7633 0.0000
# 3 53.3837 32.0163 119.8991 0.0000 6.2583 0.0000
# 4 0.0000 0.0000 0.0000 39.8344 0.0000 16.1386
# 5 11.2218 6.7633 6.2583 0.0000 39.6675 0.0000
# 6 0.0000 0.0000 0.0000 16.1386 0.0000 49.3390
#
#
#
# Elastic Compliance Matrix: (Units=1/GPa)
#
#
# Indices 1 2 3 4 5 6 
#
# 1 0.011310 -0.004823 -0.003654 0.000000 -0.001801 0.000000
# 2 -0.004823 0.036195 -0.007327 0.000000 -0.003651 0.000000
# 3 -0.003654 -0.007327 0.011902 0.000000 0.000405 0.000000
# 4 0.000000 0.000000 0.000000 0.028939 0.000000 -0.009466
# 5 -0.001801 -0.003651 0.000405 0.000000 0.026278 0.000000
# 6 0.000000 0.000000 0.000000 -0.009466 0.000000 0.023364
#
#
# Mechanical properties :
#
#
# Convention : Reuss Voigt Hill
#
# Bulk Modulus (GPa) = 35.97196 56.02274 45.99735
# Shear Modulus (GPa) = 27.95446 36.73387 32.34417
#
# Velocity S-wave (km/s) = 3.81470 4.37288 4.10329
# Velocity P-wave (km/s) = 6.17479 7.39319 6.81129
#
# Compressibility (1/GPa) = 0.02779943
#
# Stress axis : x y z
#
# Youngs Moduli (GPa) = 88.41970 27.62796 84.01658
#
# Poissons Ratio (x) = 0.13326 0.30696
# Poissons Ratio (y) = 0.42649 0.61559
# Poissons Ratio (z) = 0.32305 0.20243
#
# Static dielectric constant tensor:
#      x y z
#    x 3.822280 0.000000 0.105240 
#    y 0.000000 3.289440 0.000000 
#    z 0.105240 0.000000 3.684710 
# 
# 
# High freq. dielectric constant tensor:
#      x y z
#    x 1.765010 0.000000 0.003380 
#    y 0.000000 1.727380 0.000000 
#    z 0.003380 0.000000 1.761520 
# 
# From -- ./inp_files/37299.got.cif
#   From: 2010.06.25/outbox.cif.g09.slc.cpg/sg10_19_cif.got.tgz:37299.got - 2010.06.27 22:07:45.
