data_PCOD8063481
_publ_section_title
;
Structure prediction by ZEFSAII (Michael W. Deem and Ramdas Pophale) SiO2 
 PCOD8063481
Probable space group: P 2/M
;
_chemical_formula_sum "Si O2"
_cell_formula_units_Z 24
_cell_length_a 9.923862
_cell_length_b 19.205219
_cell_length_c 9.923868
_cell_angle_alpha 90.000000
_cell_angle_beta 44.306751
_cell_angle_gamma 90.000000
_cell_volume 1321.134781
_symmetry_space_group_name_H-M "P 2/M"
_symmetry_group_IT_number 10
_symmetry_cell_setting 'monoclinic'
loop_
_space_group_symop_operation_xyz
x,y,z
-x,y,-z
-x,-y,-z
x,-y,z
loop_
_atom_site_type_symbol
_atom_site_label
_atom_site_fract_x
_atom_site_fract_y
_atom_site_fract_z
Si Si1 0.218403 0.863648 0.116572
Si Si2 0.210207 0.500000 0.117055
Si Si3 0.086651 0.393937 0.586651
Si Si4 0.086300 0.238774 0.586300
Si Si5 0.383429 0.863648 0.281597
Si Si6 0.617055 0.500000 0.710207
Si Si7 0.626469 0.000000 0.542154
Si Si8 0.957846 0.000000 0.873531
O O1 0.245088 0.883463 0.254912
O O2 0.059269 0.803459 0.213028
O O3 0.163650 0.932145 0.074393
O O4 0.414949 0.832861 0.914949
O O5 0.311207 0.500000 0.188793
O O6 0.069148 0.432746 0.205277
O O7 0.380849 0.500000 0.880849
O O8 0.120277 0.316175 0.620277
O O9 0.294723 0.432746 0.430852
O O10 0.000000 0.392786 0.500000
O O11 0.286972 0.196542 0.440731
O O12 0.000000 0.245635 0.500000
O O13 0.425607 0.932145 0.336350
O O14 0.500000 0.000000 0.500000
O O15 0.851054 0.000000 0.351054
O O16 0.000000 0.000000 0.000000
#
# Coordination Sequence:
#
# PCOD8063481 Si02
#       8
#     4   2   4   4   4   2   2   2
#     4  10  20  34  51  71  95 124 161 204 248 294
#     4   8  13  21  34  53  83 122 157 190 226 266
#     4   8  14  23  35  56  84 117 161 196 222 271
#     4   9  17  29  45  65  91 125 161 199 241 283
#     4  10  20  34  51  71  95 124 161 204 248 294
#     4   8  13  21  34  53  83 122 157 190 226 266
#     4  12  23  36  53  72  95 122 161 205 248 296
#     4  12  23  36  53  72  95 122 161 205 248 296
#
# _framework density 18.1662
#
# number of rings (size 3 to 8) (size 9 to 14) (size 15 to 20)
#    0.000    2.500    1.667    3.000    0.000    3.333 
#    0.000    6.667    0.000    0.000    0.000    0.000 
#    0.000    0.000    0.000    6.000    2.667    7.000 
#
# Total GULP energy -297489.818404 kJ/mol
# GULP energy per Si atom -12395.409100 kJ/mol
# Density = 1.812485 g / cm^3
# Si number density = 18.166200 Si / 1000 Ang^3
#
#
#
# Elastic Constant Matrix: (Units=GPa)
#
#
# Indices 1 2 3 4 5 6 
#
# 1 44.2887 36.7251 32.9386 0.0000 -8.7595 0.0000
# 2 36.7251 175.0855 65.7073 0.0000 -17.2697 0.0000
# 3 32.9386 65.7073 121.7913 0.0000 -37.4222 0.0000
# 4 0.0000 0.0000 0.0000 -8.1918 0.0000 2.6986
# 5 -8.7595 -17.2697 -37.4222 0.0000 30.1047 0.0000
# 6 0.0000 0.0000 0.0000 2.6986 0.0000 -3.6630
#
#
#
# Elastic Compliance Matrix: (Units=1/GPa)
#
#
# Indices 1 2 3 4 5 6 
#
# 1 0.030528 -0.004111 -0.006527 0.000000 -0.001588 0.000000
# 2 -0.004111 0.007739 -0.003344 0.000000 -0.000914 0.000000
# 3 -0.006527 -0.003344 0.017162 0.000000 0.017517 0.000000
# 4 0.000000 0.000000 0.000000 -0.161195 0.000000 -0.118756
# 5 -0.001588 -0.000914 0.017517 0.000000 0.054005 0.000000
# 6 0.000000 0.000000 0.000000 -0.118756 0.000000 -0.360492
#
#
# Mechanical properties :
#
#
# Convention : Reuss Voigt Hill
#
# Bulk Modulus (GPa) = 36.40881 67.98972 52.19926
# Shear Modulus (GPa) = -13.32852 17.36962 2.02055
#
# Velocity S-wave (km/s) = -2.71163 3.09552 1.05578
# Velocity P-wave (km/s) = 3.20651 7.09113 5.50299
#
# Compressibility (1/GPa) = 0.02746588
#
# Stress axis : x y z
#
# Youngs Moduli (GPa) = 32.75727 129.22273 58.26755
#
# Poissons Ratio (x) = 0.53119 0.38029
# Poissons Ratio (y) = 0.13465 0.19485
# Poissons Ratio (z) = 0.21379 0.43212
#
# Static dielectric constant tensor:
#      x y z
#    x 2.931660 0.000000 -0.358110 
#    y 0.000000 3.558780 0.000000 
#    z -0.358110 0.000000 3.532640 
# 
# 
# High freq. dielectric constant tensor:
#      x y z
#    x 1.652910 0.000000 -0.033510 
#    y 0.000000 1.701110 0.000000 
#    z -0.033510 0.000000 1.709150 
# 
# From -- ./inp_files/20198.got.cif
#   From: 2010.06.25/outbox.cif.g09.slc.cpg/sg10_11_cif.got.tgz:20198.got - 2010.06.27 22:07:45.
