data_PCOD8063295
_publ_section_title
;
Structure prediction by ZEFSAII (Michael W. Deem and Ramdas Pophale) SiO2 
 PCOD8063295
Probable space group: P 2/M
;
_chemical_formula_sum "Si O2"
_cell_formula_units_Z 30
_cell_length_a 12.491385
_cell_length_b 12.594758
_cell_length_c 11.840936
_cell_angle_alpha 90.000000
_cell_angle_beta 116.569365
_cell_angle_gamma 90.000000
_cell_volume 1666.153838
_symmetry_space_group_name_H-M "P 2/M"
_symmetry_group_IT_number 10
_symmetry_cell_setting 'monoclinic'
loop_
_space_group_symop_operation_xyz
x,y,z
-x,y,-z
-x,-y,-z
x,-y,z
loop_
_atom_site_type_symbol
_atom_site_label
_atom_site_fract_x
_atom_site_fract_y
_atom_site_fract_z
Si Si1 0.945388 0.743082 0.357071
Si Si2 0.000000 0.740148 0.000000
Si Si3 0.458140 0.385669 0.200028
Si Si4 0.710066 0.621519 0.248486
Si Si5 0.885766 0.373383 0.733085
Si Si6 0.863812 0.877796 0.115023
Si Si7 0.377126 0.383379 0.405928
Si Si8 0.376561 0.770227 0.984969
O O1 0.826179 0.684447 0.343936
O O2 0.920770 0.840568 0.260714
O O3 0.000000 0.786831 0.500000
O O4 0.027197 0.659876 0.327385
O O5 0.073562 0.669673 0.124854
O O6 0.910264 0.813224 0.029100
O O7 0.447696 0.500000 0.128971
O O8 0.601480 0.365801 0.287716
O O9 0.383607 0.398319 0.276553
O O10 0.398808 0.284529 0.114598
O O11 0.746339 0.500000 0.244639
O O12 0.664982 0.672026 0.110891
O O13 0.882454 0.500000 0.740727
O O14 0.752734 0.329033 0.634808
O O15 0.720885 0.862738 0.052800
O O16 0.896094 0.000000 0.113077
O O17 0.500000 0.319885 0.500000
O O18 0.379061 0.500000 0.467013
O O19 0.500000 0.822974 0.000000
#
# Coordination Sequence:
#
# PCOD8063295 Si02
#       8
#     4   2   4   4   4   4   4   4
#     4  10  22  35  49  73 102 135 178 212 249 301
#     4  10  20  36  56  80 104 126 172 214 260 318
#     4   9  16  27  46  69  99 136 165 196 238 291
#     4   9  17  28  45  70 101 135 163 197 240 291
#     4  10  20  33  52  77 109 142 167 203 249 299
#     4  10  21  37  56  75  97 127 168 224 275 309
#     4   9  18  29  41  64  96 135 175 197 223 276
#     4   9  17  30  48  74 101 124 161 202 249 308
#
# _framework density 18.005541000000001
#
# number of rings (size 3 to 8) (size 9 to 14) (size 15 to 20)
#    0.000    2.533    0.000    2.000    1.867    3.200 
#    0.000    4.000    0.000    0.000    0.000    0.000 
#    0.000    4.800    0.000    0.000    0.000    0.000 
#
# Total GULP energy -371645.721543 kJ/mol
# GULP energy per Si atom -12388.190718 kJ/mol
# Density = 1.796456 g / cm^3
# Si number density = 18.005541 Si / 1000 Ang^3
#
#
#
# Elastic Constant Matrix: (Units=GPa)
#
#
# Indices 1 2 3 4 5 6 
#
# 1 94.1105 26.3353 31.7375 0.0000 15.5650 0.0000
# 2 26.3353 68.6860 22.4106 0.0000 4.4509 0.0000
# 3 31.7375 22.4106 82.3299 0.0000 11.2235 0.0000
# 4 0.0000 0.0000 0.0000 9.9967 0.0000 1.2504
# 5 15.5650 4.4509 11.2235 0.0000 30.3756 0.0000
# 6 0.0000 0.0000 0.0000 1.2504 0.0000 27.8327
#
#
#
# Elastic Compliance Matrix: (Units=1/GPa)
#
#
# Indices 1 2 3 4 5 6 
#
# 1 0.013738 -0.003769 -0.003565 0.000000 -0.005170 0.000000
# 2 -0.003769 0.017029 -0.003270 0.000000 0.000644 0.000000
# 3 -0.003565 -0.003270 0.014844 0.000000 -0.003179 0.000000
# 4 0.000000 0.000000 0.000000 0.100598 0.000000 -0.004519
# 5 -0.005170 0.000644 -0.003179 0.000000 0.036650 0.000000
# 6 0.000000 0.000000 0.000000 -0.004519 0.000000 0.036132
#
#
# Mechanical properties :
#
#
# Convention : Reuss Voigt Hill
#
# Bulk Modulus (GPa) = 40.97976 45.12146 43.05061
# Shear Modulus (GPa) = 20.13407 24.61720 22.37564
#
# Velocity S-wave (km/s) = 3.34760 3.70158 3.52903
# Velocity P-wave (km/s) = 6.14417 6.58658 6.36922
#
# Compressibility (1/GPa) = 0.02440229
#
# Stress axis : x y z
#
# Youngs Moduli (GPa) = 72.79152 58.72185 67.36670
#
# Poissons Ratio (x) = 0.22133 0.24017
# Poissons Ratio (y) = 0.27436 0.22032
# Poissons Ratio (z) = 0.25951 0.19204
#
# Static dielectric constant tensor:
#      x y z
#    x 3.795280 0.000000 0.187950 
#    y 0.000000 2.917470 0.000000 
#    z 0.187950 0.000000 3.278400 
# 
# 
# High freq. dielectric constant tensor:
#      x y z
#    x 1.720340 0.000000 0.005200 
#    y 0.000000 1.647900 0.000000 
#    z 0.005200 0.000000 1.693130 
# 
# From -- ./inp_files/46750.got.cif
#   From: 2010.06.25/outbox.cif.g09.slc.cpg/sg10_24_cif.got.tgz:46750.got - 2010.06.27 22:07:45.
