data_PCOD8063705
_publ_section_title
;
Structure prediction by ZEFSAII (Michael W. Deem and Ramdas Pophale) SiO2 
 PCOD8063705
Probable space group: P 2/M
;
_chemical_formula_sum "Si O2"
_cell_formula_units_Z 24
_cell_length_a 10.054206
_cell_length_b 8.652974
_cell_length_c 21.378532
_cell_angle_alpha 90.000000
_cell_angle_beta 44.989865
_cell_angle_gamma 90.000000
_cell_volume 1314.919678
_symmetry_space_group_name_H-M "P 2/M"
_symmetry_group_IT_number 10
_symmetry_cell_setting 'monoclinic'
loop_
_space_group_symop_operation_xyz
x,y,z
-x,y,-z
-x,-y,-z
x,-y,z
loop_
_atom_site_type_symbol
_atom_site_label
_atom_site_fract_x
_atom_site_fract_y
_atom_site_fract_z
Si Si1 0.286831 0.181403 0.738961
Si Si2 0.010383 0.683577 0.926415
Si Si3 0.014388 0.681672 0.731833
Si Si4 0.292200 0.317663 0.069509
Si Si5 0.991727 0.682523 0.596682
Si Si6 0.281554 0.817907 0.408498
O O1 0.197925 0.258421 0.829998
O O2 0.186807 0.234388 0.708500
O O3 0.502723 0.233770 0.664165
O O4 0.267048 0.000000 0.752593
O O5 0.017067 0.500000 0.924463
O O6 0.827222 0.744699 0.949864
O O7 0.000000 0.750415 0.000000
O O8 0.051603 0.500000 0.725029
O O9 0.004724 0.737776 0.663871
O O10 0.817071 0.726728 0.830501
O O11 0.312349 0.500000 0.056782
O O12 0.500000 0.240959 0.000000
O O13 0.960783 0.500000 0.601752
O O14 0.183812 0.729670 0.498478
O O15 0.814452 0.768120 0.624621
O O16 0.256934 0.000000 0.426449
#
# Coordination Sequence:
#
# PCOD8063705 Si02
#       6
#     4   4   4   4   4   4
#     4  10  21  35  52  74 102 138 173 206 249 301
#     4   9  18  32  51  74  99 130 167 208 253 296
#     4   9  19  34  52  76 103 130 166 212 256 300
#     4   8  14  27  47  70  96 124 156 196 242 293
#     4  10  20  34  54  78 101 130 169 214 261 302
#     4  10  21  36  52  73 103 137 171 207 251 305
#
# _framework density 18.252065000000002
#
# number of rings (size 3 to 8) (size 9 to 14) (size 15 to 20)
#    0.000    2.667    0.000    3.500    0.000    6.333 
#    0.000    6.667    0.000    8.000    0.000    0.000 
#    0.000    0.000    0.000    0.000    0.000    0.000 
#
# Total GULP energy -297586.306508 kJ/mol
# GULP energy per Si atom -12399.429438 kJ/mol
# Density = 1.821052 g / cm^3
# Si number density = 18.252065 Si / 1000 Ang^3
#
#
#
# Elastic Constant Matrix: (Units=GPa)
#
#
# Indices 1 2 3 4 5 6 
#
# 1 115.5893 9.1012 96.3211 0.0000 0.9202 0.0000
# 2 9.1012 18.2722 10.8967 0.0000 -1.8444 0.0000
# 3 96.3211 10.8967 126.5144 0.0000 2.4371 0.0000
# 4 0.0000 0.0000 0.0000 17.5105 0.0000 -6.6143
# 5 0.9202 -1.8444 2.4371 0.0000 47.2284 0.0000
# 6 0.0000 0.0000 0.0000 -6.6143 0.0000 22.2792
#
#
#
# Elastic Compliance Matrix: (Units=1/GPa)
#
#
# Indices 1 2 3 4 5 6 
#
# 1 0.023695 -0.001050 -0.017958 0.000000 0.000424 0.000000
# 2 -0.001050 0.058037 -0.004247 0.000000 0.002506 0.000000
# 3 -0.017958 -0.004247 0.021960 0.000000 -0.000949 0.000000
# 4 0.000000 0.000000 0.000000 0.064322 0.000000 0.019096
# 5 0.000424 0.002506 -0.000949 0.000000 0.021312 0.000000
# 6 0.000000 0.000000 0.000000 0.019096 0.000000 0.050554
#
#
# Mechanical properties :
#
#
# Convention : Reuss Voigt Hill
#
# Bulk Modulus (GPa) = 17.48814 54.77933 36.13373
# Shear Modulus (GPa) = 16.36919 27.00740 21.68830
#
# Velocity S-wave (km/s) = 2.99798 3.85085 3.45086
# Velocity P-wave (km/s) = 4.64608 7.06044 5.97645
#
# Compressibility (1/GPa) = 0.05718160
#
# Stress axis : x y z
#
# Youngs Moduli (GPa) = 42.20327 17.23037 45.53666
#
# Poissons Ratio (x) = 0.01810 0.81773
# Poissons Ratio (y) = 0.04432 0.19341
# Poissons Ratio (z) = 0.75787 0.07318
#
# Static dielectric constant tensor:
#      x y z
#    x 3.589560 0.000000 -0.002750 
#    y 0.000000 3.171500 0.000000 
#    z -0.002750 0.000000 3.516990 
# 
# 
# High freq. dielectric constant tensor:
#      x y z
#    x 1.711150 0.000000 0.000210 
#    y 0.000000 1.692270 0.000000 
#    z 0.000210 0.000000 1.711760 
# 
# From -- ./inp_files/66312.got.cif
#   From: 2010.06.25/outbox.cif.g09.slc.cpg/sg10_34_cif.got.tgz:66312.got - 2010.06.27 22:07:45.
