data_PCOD8063074
_publ_section_title
;
Structure prediction by ZEFSAII (Michael W. Deem and Ramdas Pophale) SiO2 
 PCOD8063074
Probable space group: P 2/M
;
_chemical_formula_sum "Si O2"
_cell_formula_units_Z 24
_cell_length_a 15.206280
_cell_length_b 15.706718
_cell_length_c 8.728830
_cell_angle_alpha 90.000000
_cell_angle_beta 142.269243
_cell_angle_gamma 90.000000
_cell_volume 1275.797078
_symmetry_space_group_name_H-M "P 2/M"
_symmetry_group_IT_number 10
_symmetry_cell_setting 'monoclinic'
loop_
_space_group_symop_operation_xyz
x,y,z
-x,y,-z
-x,-y,-z
x,-y,z
loop_
_atom_site_type_symbol
_atom_site_label
_atom_site_fract_x
_atom_site_fract_y
_atom_site_fract_z
Si Si1 0.643976 0.141833 0.896074
Si Si2 0.438588 0.000000 0.586679
Si Si3 0.649692 0.406766 0.791160
Si Si4 0.279943 0.752632 0.286580
Si Si5 0.149569 0.000000 0.357279
Si Si6 0.167608 0.000000 0.725387
Si Si7 0.000000 0.148259 0.000000
Si Si8 0.472350 0.703126 0.135572
O O1 0.503481 0.086107 0.746414
O O2 0.644802 0.178232 0.722596
O O3 0.641212 0.219393 0.012050
O O4 0.782951 0.084076 0.116324
O O5 0.500000 0.000000 0.500000
O O6 0.268269 0.000000 0.383301
O O7 0.500000 0.412536 0.500000
O O8 0.725873 0.500000 0.898046
O O9 0.749028 0.335919 0.845095
O O10 0.607958 0.378846 0.905479
O O11 0.385017 0.732794 0.574143
O O12 0.127771 0.789270 0.127639
O O13 0.052831 0.085208 0.208673
O O14 0.223280 0.000000 0.625830
O O15 0.000000 0.000000 0.500000
O O16 0.500000 0.678937 0.000000
#
# Coordination Sequence:
#
# PCOD8063074 Si02
#       8
#     4   2   4   4   2   2   2   4
#     4  10  21  34  53  72 106 143 185 225 278 320
#     4  11  20  33  54  73 101 141 185 235 276 318
#     4   8  16  34  58  83 110 138 173 218 274 332
#     4  10  20  37  56  81 108 148 183 219 270 338
#     4  11  24  35  52  80 107 149 190 240 277 319
#     4  11  24  37  50  73 110 147 195 235 278 322
#     4  11  22  36  55  74 114 148 189 220 272 323
#     4  10  20  32  55  85 109 136 178 228 276 319
#
# _framework density 18.811767
#
# number of rings (size 3 to 8) (size 9 to 14) (size 15 to 20)
#    0.000    2.000    0.000    5.500    4.667    3.667 
#    0.000    0.417    0.000    0.000    0.000    1.167 
#    0.000    0.000    0.000    0.000    0.000    0.000 
#
# Total GULP energy -297378.910828 kJ/mol
# GULP energy per Si atom -12390.787951 kJ/mol
# Density = 1.876895 g / cm^3
# Si number density = 18.811767 Si / 1000 Ang^3
#
#
#
# Elastic Constant Matrix: (Units=GPa)
#
#
# Indices 1 2 3 4 5 6 
#
# 1 94.0729 54.0085 35.3147 0.0000 -7.8356 0.0000
# 2 54.0085 154.1442 39.6477 0.0000 1.3148 0.0000
# 3 35.3147 39.6477 70.9513 0.0000 -2.5494 0.0000
# 4 0.0000 0.0000 0.0000 6.2446 0.0000 2.1624
# 5 -7.8356 1.3148 -2.5494 0.0000 39.9447 0.0000
# 6 0.0000 0.0000 0.0000 2.1624 0.0000 18.1405
#
#
#
# Elastic Compliance Matrix: (Units=1/GPa)
#
#
# Indices 1 2 3 4 5 6 
#
# 1 0.015091 -0.003976 -0.005190 0.000000 0.002760 0.000000
# 2 -0.003976 0.008635 -0.002891 0.000000 -0.001249 0.000000
# 3 -0.005190 -0.002891 0.018302 0.000000 0.000245 0.000000
# 4 0.000000 0.000000 0.000000 0.167032 0.000000 -0.019911
# 5 0.002760 -0.001249 0.000245 0.000000 0.025633 0.000000
# 6 0.000000 0.000000 0.000000 -0.019911 0.000000 0.057499
#
#
# Mechanical properties :
#
#
# Convention : Reuss Voigt Hill
#
# Bulk Modulus (GPa) = 55.82542 64.12336 59.97439
# Shear Modulus (GPa) = 15.51458 25.54579 20.53019
#
# Velocity S-wave (km/s) = 2.87492 3.68906 3.30714
# Velocity P-wave (km/s) = 6.38439 7.23232 6.82154
#
# Compressibility (1/GPa) = 0.01791299
#
# Stress axis : x y z
#
# Youngs Moduli (GPa) = 66.26431 115.81043 54.63927
#
# Poissons Ratio (x) = 0.46047 0.28359
# Poissons Ratio (y) = 0.26347 0.15796
# Poissons Ratio (z) = 0.34393 0.33481
#
# Static dielectric constant tensor:
#      x y z
#    x 3.404080 0.000000 -0.109120 
#    y 0.000000 4.075130 0.000000 
#    z -0.109120 0.000000 3.309510 
# 
# 
# High freq. dielectric constant tensor:
#      x y z
#    x 1.720970 0.000000 -0.007260 
#    y 0.000000 1.738530 0.000000 
#    z -0.007260 0.000000 1.701980 
# 
# From -- ./inp_files/29746.got.cif
#   From: 2010.06.25/outbox.cif.g09.slc.cpg/sg10_15_cif.got.tgz:29746.got - 2010.06.27 22:07:45.
