data_PCOD8063559
_publ_section_title
;
Structure prediction by ZEFSAII (Michael W. Deem and Ramdas Pophale) SiO2 
 PCOD8063559
Probable space group: P 2/M
;
_chemical_formula_sum "Si O2"
_cell_formula_units_Z 32
_cell_length_a 20.748593
_cell_length_b 10.364120
_cell_length_c 20.884364
_cell_angle_alpha 90.000000
_cell_angle_beta 158.262606
_cell_angle_gamma 90.000000
_cell_volume 1663.252918
_symmetry_space_group_name_H-M "P 2/M"
_symmetry_group_IT_number 10
_symmetry_cell_setting 'monoclinic'
loop_
_space_group_symop_operation_xyz
x,y,z
-x,y,-z
-x,-y,-z
x,-y,z
loop_
_atom_site_type_symbol
_atom_site_label
_atom_site_fract_x
_atom_site_fract_y
_atom_site_fract_z
Si Si1 0.420110 0.851188 0.763312
Si Si2 0.197763 0.852623 0.859851
Si Si3 0.697895 0.642040 0.697966
Si Si4 0.949941 0.848770 0.522333
Si Si5 0.528646 0.650227 0.301798
Si Si6 0.847150 0.857111 0.910325
Si Si7 0.789989 0.644704 0.648731
Si Si8 0.851135 0.261643 0.045961
O O1 0.253503 0.821159 0.653283
O O2 0.420371 0.746424 0.707771
O O3 0.412660 0.000000 0.730020
O O4 0.597593 0.833028 0.968423
O O5 0.073657 0.785314 0.691842
O O6 0.143649 0.000000 0.810432
O O7 0.161522 0.804909 0.897471
O O8 0.500000 0.622365 0.500000
O O9 0.777375 0.500000 0.789746
O O10 0.713300 0.742237 0.770549
O O11 0.790812 0.705980 0.720859
O O12 0.000000 0.786193 0.500000
O O13 0.988801 0.000000 0.555447
O O14 0.572031 0.500000 0.324883
O O15 0.646016 0.704837 0.468441
O O16 0.324895 0.659761 0.131013
O O17 0.893901 0.840550 0.028626
O O18 0.765019 0.000000 0.826702
O O19 0.000000 0.840370 0.000000
O O20 0.726035 0.500000 0.601152
O O21 0.982213 0.645362 0.795904
#
# Coordination Sequence:
#
# PCOD8063559 Si02
#       8
#     4   4   4   4   4   4   4   4
#     4   9  18  33  52  78 112 146 180 217 268 319
#     4   9  18  31  49  75 106 141 179 220 267 317
#     4  10  21  38  57  76 102 138 181 230 282 339
#     4   9  17  30  51  81 114 145 180 220 260 312
#     4  10  21  36  56  82 110 140 184 231 272 325
#     4  11  23  38  54  78 109 141 182 231 283 339
#     4  10  20  34  52  76 102 134 177 226 275 325
#     4  11  20  35  56  76 105 144 180 225 277 331
#
# _framework density 19.239407
#
# number of rings (size 3 to 8) (size 9 to 14) (size 15 to 20)
#    0.000    2.125    1.250    2.250    0.000    3.500 
#    0.000    3.750    0.000    0.375    0.000    3.500 
#    0.000    0.000    0.000    0.000    0.000    0.000 
#
# Total GULP energy -396467.005804 kJ/mol
# GULP energy per Si atom -12389.593931 kJ/mol
# Density = 1.919562 g / cm^3
# Si number density = 19.239407 Si / 1000 Ang^3
#
#
#
# Elastic Constant Matrix: (Units=GPa)
#
#
# Indices 1 2 3 4 5 6 
#
# 1 128.3531 34.1514 64.9391 0.0000 -2.5176 0.0000
# 2 34.1514 74.6963 27.1333 0.0000 -6.8113 0.0000
# 3 64.9391 27.1333 122.5223 0.0000 0.0449 0.0000
# 4 0.0000 0.0000 0.0000 22.6935 0.0000 -6.5493
# 5 -2.5176 -6.8113 0.0449 0.0000 33.2042 0.0000
# 6 0.0000 0.0000 0.0000 -6.5493 0.0000 27.7528
#
#
#
# Elastic Compliance Matrix: (Units=1/GPa)
#
#
# Indices 1 2 3 4 5 6 
#
# 1 0.011334 -0.003242 -0.005289 0.000000 0.000201 0.000000
# 2 -0.003242 0.015789 -0.001779 0.000000 0.002995 0.000000
# 3 -0.005289 -0.001779 0.011359 0.000000 -0.000781 0.000000
# 4 0.000000 0.000000 0.000000 0.047286 0.000000 0.011159
# 5 0.000201 0.002995 -0.000781 0.000000 0.030747 0.000000
# 6 0.000000 0.000000 0.000000 0.011159 0.000000 0.038666
#
#
# Mechanical properties :
#
#
# Convention : Reuss Voigt Hill
#
# Bulk Modulus (GPa) = 55.98727 64.22438 60.10583
# Shear Modulus (GPa) = 27.50935 30.01996 28.76465
#
# Velocity S-wave (km/s) = 3.78543 3.95440 3.87083
# Velocity P-wave (km/s) = 6.94762 7.36911 7.16147
#
# Compressibility (1/GPa) = 0.01786120
#
# Stress axis : x y z
#
# Youngs Moduli (GPa) = 88.23339 63.33383 88.03257
#
# Poissons Ratio (x) = 0.20534 0.46561
# Poissons Ratio (y) = 0.28606 0.15664
# Poissons Ratio (z) = 0.46667 0.11269
#
# Static dielectric constant tensor:
#      x y z
#    x 3.911550 0.000000 -0.166460 
#    y 0.000000 3.332370 0.000000 
#    z -0.166460 0.000000 3.741950 
# 
# 
# High freq. dielectric constant tensor:
#      x y z
#    x 1.744740 0.000000 0.003600 
#    y 0.000000 1.716160 0.000000 
#    z 0.003600 0.000000 1.758390 
# 
# From -- ./inp_files/86281.got.cif
#   From: 2010.06.25/outbox.cif.g09.slc.cpg/sg10_44_cif.got.tgz:86281.got - 2010.06.27 22:07:45.
