data_PCOD8063724
_publ_section_title
;
Structure prediction by ZEFSAII (Michael W. Deem and Ramdas Pophale) SiO2 
 PCOD8063724
Probable space group: P 2/M
;
_chemical_formula_sum "Si O2"
_cell_formula_units_Z 24
_cell_length_a 4.992758
_cell_length_b 16.157651
_cell_length_c 16.284060
_cell_angle_alpha 90.000000
_cell_angle_beta 85.092534
_cell_angle_gamma 90.000000
_cell_volume 1308.839680
_symmetry_space_group_name_H-M "P 2/M"
_symmetry_group_IT_number 10
_symmetry_cell_setting 'monoclinic'
loop_
_space_group_symop_operation_xyz
x,y,z
-x,y,-z
-x,-y,-z
x,-y,z
loop_
_atom_site_type_symbol
_atom_site_label
_atom_site_fract_x
_atom_site_fract_y
_atom_site_fract_z
Si Si1 0.769964 0.161892 0.448035
Si Si2 0.498647 0.405076 0.597045
Si Si3 0.767790 0.094896 0.943421
Si Si4 0.419209 0.093108 0.708899
Si Si5 0.901544 0.176835 0.776893
Si Si6 0.994643 0.313186 0.657937
O O1 0.500000 0.190959 0.500000
O O2 0.680126 0.095371 0.382450
O O3 0.000000 0.121289 0.500000
O O4 0.899705 0.242139 0.404461
O O5 0.500000 0.387719 0.500000
O O6 0.572532 0.500000 0.612537
O O7 0.712224 0.346163 0.634303
O O8 0.212587 0.386623 0.647993
O O9 0.770094 0.161252 0.869078
O O10 0.789278 0.000000 0.909880
O O11 0.500000 0.109568 0.000000
O O12 0.000000 0.116822 0.000000
O O13 0.697860 0.142570 0.712439
O O14 0.185540 0.129651 0.772362
O O15 0.473568 0.000000 0.735493
O O16 0.955293 0.273290 0.750587
#
# Coordination Sequence:
#
# PCOD8063724 Si02
#       6
#     4   4   4   4   4   4
#     4  11  21  33  49  68  94 134 180 221 259 296
#     4  11  22  35  54  79 106 136 171 215 264 314
#     4  10  20  34  54  79 107 137 169 212 262 311
#     4  11  22  34  49  69  97 136 178 221 260 294
#     4  11  22  36  54  76 103 137 175 212 259 318
#     4  11  21  35  53  73 102 135 170 210 257 314
#
# _framework density 18.336853000000001
#
# number of rings (size 3 to 8) (size 9 to 14) (size 15 to 20)
#    0.000    1.167    0.000   10.000    0.000    3.333 
#    0.000    0.000    0.000    0.000    0.000    0.000 
#    0.000   13.333    0.000    0.000    0.000    0.000 
#
# Total GULP energy -297580.553904 kJ/mol
# GULP energy per Si atom -12399.189746 kJ/mol
# Density = 1.829512 g / cm^3
# Si number density = 18.336853 Si / 1000 Ang^3
#
#
#
# Elastic Constant Matrix: (Units=GPa)
#
#
# Indices 1 2 3 4 5 6 
#
# 1 97.1231 16.1570 23.1216 0.0000 2.9370 0.0000
# 2 16.1570 74.3056 37.0416 0.0000 -1.0708 0.0000
# 3 23.1216 37.0416 98.5622 0.0000 3.3791 0.0000
# 4 0.0000 0.0000 0.0000 23.7700 0.0000 -0.5798
# 5 2.9370 -1.0708 3.3791 0.0000 16.1504 0.0000
# 6 0.0000 0.0000 0.0000 -0.5798 0.0000 24.3279
#
#
#
# Elastic Compliance Matrix: (Units=1/GPa)
#
#
# Indices 1 2 3 4 5 6 
#
# 1 0.011061 -0.001433 -0.001998 0.000000 -0.001689 0.000000
# 2 -0.001433 0.016840 -0.006084 0.000000 0.002650 0.000000
# 3 -0.001998 -0.006084 0.012996 0.000000 -0.002759 0.000000
# 4 0.000000 0.000000 0.000000 0.042094 0.000000 0.001003
# 5 -0.001689 0.002650 -0.002759 0.000000 0.062978 0.000000
# 6 0.000000 0.000000 0.000000 0.001003 0.000000 0.041129
#
#
# Mechanical properties :
#
#
# Convention : Reuss Voigt Hill
#
# Bulk Modulus (GPa) = 45.73105 46.95902 46.34503
# Shear Modulus (GPa) = 23.42819 25.76104 24.59461
#
# Velocity S-wave (km/s) = 3.57831 3.75224 3.66630
# Velocity P-wave (km/s) = 6.48583 6.66611 6.57659
#
# Compressibility (1/GPa) = 0.02186698
#
# Stress axis : x y z
#
# Youngs Moduli (GPa) = 90.40403 59.38070 76.94933
#
# Poissons Ratio (x) = 0.08511 0.15377
# Poissons Ratio (y) = 0.12958 0.46813
# Poissons Ratio (z) = 0.18066 0.36125
#
# Static dielectric constant tensor:
#      x y z
#    x 3.703930 0.000000 -0.106690 
#    y 0.000000 3.226870 0.000000 
#    z -0.106690 0.000000 3.294390 
# 
# 
# High freq. dielectric constant tensor:
#      x y z
#    x 1.743050 0.000000 -0.005320 
#    y 0.000000 1.681480 0.000000 
#    z -0.005320 0.000000 1.684240 
# 
# From -- ./inp_files/59039.got.cif
#   From: 2010.06.25/outbox.cif.g09.slc.cpg/sg10_30_cif.got.tgz:59039.got - 2010.06.27 22:07:45.
