data_PCOD8063581
_publ_section_title
;
Structure prediction by ZEFSAII (Michael W. Deem and Ramdas Pophale) SiO2 
 PCOD8063581
Probable space group: P 2/M
;
_chemical_formula_sum "Si O2"
_cell_formula_units_Z 28
_cell_length_a 14.946238
_cell_length_b 8.892172
_cell_length_c 11.708769
_cell_angle_alpha 90.000000
_cell_angle_beta 118.876695
_cell_angle_gamma 90.000000
_cell_volume 1362.658433
_symmetry_space_group_name_H-M "P 2/M"
_symmetry_group_IT_number 10
_symmetry_cell_setting 'monoclinic'
loop_
_space_group_symop_operation_xyz
x,y,z
-x,y,-z
-x,-y,-z
x,-y,z
loop_
_atom_site_type_symbol
_atom_site_label
_atom_site_fract_x
_atom_site_fract_y
_atom_site_fract_z
Si Si1 0.494738 0.835029 0.862813
Si Si2 0.818737 0.672290 0.113378
Si Si3 0.696570 0.175049 0.854827
Si Si4 0.297381 0.329385 0.736556
Si Si5 0.015660 0.677756 0.378030
Si Si6 0.779186 0.824097 0.515873
Si Si7 0.618715 0.321547 0.579440
O O1 0.602120 0.787449 0.877916
O O2 0.414561 0.707114 0.779119
O O3 0.461518 0.000000 0.794097
O O4 0.500000 0.846227 0.000000
O O5 0.829670 0.500000 0.082205
O O6 0.724528 0.693769 0.143191
O O7 0.920066 0.727465 0.241221
O O8 0.796981 0.767783 0.985094
O O9 0.678249 0.263708 0.727267
O O10 0.709916 0.000000 0.834945
O O11 0.272111 0.500000 0.683911
O O12 0.225854 0.216223 0.621569
O O13 0.032357 0.500000 0.384595
O O14 0.112021 0.758527 0.376693
O O15 0.000000 0.729949 0.500000
O O16 0.681077 0.744818 0.511860
O O17 0.774960 0.000000 0.537442
O O18 0.500000 0.266355 0.500000
O O19 0.623221 0.500000 0.578923
#
# Coordination Sequence:
#
# PCOD8063581 Si02
#       7
#     4   4   4   4   4   4   4
#     4  10  20  34  52  83 123 161 197 244 311 374
#     4  10  21  37  60  89 124 164 206 253 307 366
#     4  11  23  39  61  88 127 167 205 258 315 374
#     4  11  21  35  57  87 122 163 208 254 305 365
#     4  10  20  40  65  92 128 168 211 261 313 370
#     4  12  25  40  63  94 127 163 207 260 320 378
#     4  11  25  46  70  93 121 163 216 264 309 373
#
# _framework density 20.548069999999999
#
# number of rings (size 3 to 8) (size 9 to 14) (size 15 to 20)
#    0.000    1.286    2.857    3.429    0.000    6.286 
#    0.000    0.714    0.000    4.286    0.000    0.000 
#    0.000    0.000    0.000    0.000    0.000    0.000 
#
# Total GULP energy -347167.166820 kJ/mol
# GULP energy per Si atom -12398.827386 kJ/mol
# Density = 2.050130 g / cm^3
# Si number density = 20.548070 Si / 1000 Ang^3
#
#
#
# Elastic Constant Matrix: (Units=GPa)
#
#
# Indices 1 2 3 4 5 6 
#
# 1 80.6116 39.5242 23.5896 0.0000 15.4075 0.0000
# 2 39.5242 90.7975 43.3812 0.0000 9.9484 0.0000
# 3 23.5896 43.3812 115.8097 0.0000 14.6941 0.0000
# 4 0.0000 0.0000 0.0000 31.9337 0.0000 1.4725
# 5 15.4075 9.9484 14.6941 0.0000 31.8838 0.0000
# 6 0.0000 0.0000 0.0000 1.4725 0.0000 34.3716
#
#
#
# Elastic Compliance Matrix: (Units=1/GPa)
#
#
# Indices 1 2 3 4 5 6 
#
# 1 0.016833 -0.006572 -0.000207 0.000000 -0.005988 0.000000
# 2 -0.006572 0.016100 -0.004735 0.000000 0.000334 0.000000
# 3 -0.000207 -0.004735 0.010887 0.000000 -0.003440 0.000000
# 4 0.000000 0.000000 0.000000 0.031377 0.000000 -0.001344
# 5 -0.005988 0.000334 -0.003440 0.000000 0.035739 0.000000
# 6 0.000000 0.000000 0.000000 -0.001344 0.000000 0.029151
#
#
# Mechanical properties :
#
#
# Convention : Reuss Voigt Hill
#
# Bulk Modulus (GPa) = 48.09570 55.57873 51.83722
# Shear Modulus (GPa) = 29.40403 31.68608 30.54505
#
# Velocity S-wave (km/s) = 3.78694 3.93115 3.85972
# Velocity P-wave (km/s) = 6.52522 6.90740 6.71903
#
# Compressibility (1/GPa) = 0.02079188
#
# Stress axis : x y z
#
# Youngs Moduli (GPa) = 59.40836 62.11234 91.85246
#
# Poissons Ratio (x) = 0.40822 0.01901
# Poissons Ratio (y) = 0.39045 0.43488
# Poissons Ratio (z) = 0.01230 0.29407
#
# Static dielectric constant tensor:
#      x y z
#    x 3.824330 0.000000 0.088110 
#    y 0.000000 3.712530 0.000000 
#    z 0.088110 0.000000 3.777750 
# 
# 
# High freq. dielectric constant tensor:
#      x y z
#    x 1.791650 0.000000 0.010010 
#    y 0.000000 1.800060 0.000000 
#    z 0.010010 0.000000 1.805800 
# 
# From -- ./inp_files/50045.got.cif
#   From: 2010.06.25/outbox.cif.g09.slc.cpg/sg10_26_cif.got.tgz:50045.got - 2010.06.27 22:07:45.
