data_PCOD8063339
_publ_section_title
;
Structure prediction by ZEFSAII (Michael W. Deem and Ramdas Pophale) SiO2 
 PCOD8063339
Probable space group: P 2/M
;
_chemical_formula_sum "Si O2"
_cell_formula_units_Z 24
_cell_length_a 23.317388
_cell_length_b 8.972949
_cell_length_c 11.586692
_cell_angle_alpha 90.000000
_cell_angle_beta 149.441581
_cell_angle_gamma 90.000000
_cell_volume 1232.520921
_symmetry_space_group_name_H-M "P 2/M"
_symmetry_group_IT_number 10
_symmetry_cell_setting 'monoclinic'
loop_
_space_group_symop_operation_xyz
x,y,z
-x,y,-z
-x,-y,-z
x,-y,z
loop_
_atom_site_type_symbol
_atom_site_label
_atom_site_fract_x
_atom_site_fract_y
_atom_site_fract_z
Si Si1 0.687103 0.328673 0.625615
Si Si2 0.127575 0.677503 0.233937
Si Si3 0.241328 0.331043 0.658108
Si Si4 0.675934 0.825339 0.847198
Si Si5 0.441595 0.327866 0.154528
Si Si6 0.875286 0.330681 0.309521
O O1 0.701759 0.500000 0.689591
O O2 0.796396 0.274900 0.743707
O O3 0.668947 0.226978 0.704178
O O4 0.573416 0.311845 0.350005
O O5 0.121400 0.500000 0.234561
O O6 0.189037 0.747888 0.453857
O O7 0.000000 0.741498 0.000000
O O8 0.267924 0.500000 0.668764
O O9 0.146204 0.320158 0.591377
O O10 0.359523 0.260222 0.911640
O O11 0.579452 0.751256 0.759055
O O12 0.657056 0.000000 0.818835
O O13 0.797633 0.782290 0.105952
O O14 0.405748 0.500000 0.109765
O O15 0.855889 0.500000 0.231708
O O16 0.000000 0.275768 0.500000
#
# Coordination Sequence:
#
# PCOD8063339 Si02
#       6
#     4   4   4   4   4   4
#     4  10  20  33  53  78 105 141 180 220 266 316
#     4   9  18  30  49  79 109 135 171 220 267 316
#     4   8  15  29  48  75 107 134 166 213 266 312
#     4  11  22  34  51  78 111 141 174 220 269 321
#     4   9  18  34  54  77 106 137 176 224 270 318
#     4   9  18  32  55  81 106 140 178 218 263 312
#
# _framework density 19.472286
#
# number of rings (size 3 to 8) (size 9 to 14) (size 15 to 20)
#    0.000    2.667    0.000    3.000    2.333    3.667 
#    0.000    3.333    0.000    4.500    0.000    5.833 
#    0.000    0.000    0.000    0.000    0.000    0.000 
#
# Total GULP energy -297457.013298 kJ/mol
# GULP energy per Si atom -12394.042221 kJ/mol
# Density = 1.942797 g / cm^3
# Si number density = 19.472286 Si / 1000 Ang^3
#
#
#
# Elastic Constant Matrix: (Units=GPa)
#
#
# Indices 1 2 3 4 5 6 
#
# 1 78.8899 21.0104 75.3183 0.0000 7.6403 0.0000
# 2 21.0104 53.0852 23.8787 0.0000 -1.1376 0.0000
# 3 75.3183 23.8787 120.8347 0.0000 6.0095 0.0000
# 4 0.0000 0.0000 0.0000 10.1653 0.0000 0.0772
# 5 7.6403 -1.1376 6.0095 0.0000 42.9847 0.0000
# 6 0.0000 0.0000 0.0000 0.0772 0.0000 3.6048
#
#
#
# Elastic Compliance Matrix: (Units=1/GPa)
#
#
# Indices 1 2 3 4 5 6 
#
# 1 0.032515 -0.004272 -0.019264 0.000000 -0.003199 0.000000
# 2 -0.004272 0.021291 -0.001621 0.000000 0.001550 0.000000
# 3 -0.019264 -0.001621 0.020579 0.000000 0.000504 0.000000
# 4 0.000000 0.000000 0.000000 0.098390 0.000000 -0.002108
# 5 -0.003199 0.001550 0.000504 0.000000 0.023803 0.000000
# 6 0.000000 0.000000 0.000000 -0.002108 0.000000 0.277451
#
#
# Mechanical properties :
#
#
# Convention : Reuss Voigt Hill
#
# Bulk Modulus (GPa) = 41.54624 54.80272 48.17448
# Shear Modulus (GPa) = 9.39199 20.19113 14.79156
#
# Velocity S-wave (km/s) = 2.19857 3.22361 2.75911
# Velocity P-wave (km/s) = 5.27517 6.48542 5.91134
#
# Compressibility (1/GPa) = 0.02406957
#
# Stress axis : x y z
#
# Youngs Moduli (GPa) = 30.75456 46.96784 48.59395
#
# Poissons Ratio (x) = 0.20067 0.93612
# Poissons Ratio (y) = 0.13140 0.07879
# Poissons Ratio (z) = 0.59246 0.07615
#
# Static dielectric constant tensor:
#      x y z
#    x 3.489390 0.000000 0.052450 
#    y 0.000000 3.011210 0.000000 
#    z 0.052450 0.000000 3.907890 
# 
# 
# High freq. dielectric constant tensor:
#      x y z
#    x 1.752210 0.000000 0.006290 
#    y 0.000000 1.697220 0.000000 
#    z 0.006290 0.000000 1.776110 
# 
# From -- ./inp_files/56536.got.cif
#   From: 2010.06.25/outbox.cif.g09.slc.cpg/sg10_29_cif.got.tgz:56536.got - 2010.06.27 22:07:45.
