data_PCOD8063891
_publ_section_title
;
Structure prediction by ZEFSAII (Michael W. Deem and Ramdas Pophale) SiO2 
 PCOD8063891
Probable space group: P 2/M
;
_chemical_formula_sum "Si O2"
_cell_formula_units_Z 30
_cell_length_a 14.273254
_cell_length_b 13.106696
_cell_length_c 21.036552
_cell_angle_alpha 90.000000
_cell_angle_beta 22.933591
_cell_angle_gamma 90.000000
_cell_volume 1533.490209
_symmetry_space_group_name_H-M "P 2/M"
_symmetry_group_IT_number 10
_symmetry_cell_setting 'monoclinic'
loop_
_space_group_symop_operation_xyz
x,y,z
-x,y,-z
-x,-y,-z
x,-y,z
loop_
_atom_site_type_symbol
_atom_site_label
_atom_site_fract_x
_atom_site_fract_y
_atom_site_fract_z
Si Si1 0.236494 0.614512 0.765984
Si Si2 0.000000 0.226799 0.000000
Si Si3 0.974329 0.386713 0.446876
Si Si4 0.420125 0.297074 0.121591
Si Si5 0.771377 0.116168 0.027889
Si Si6 0.221879 0.381688 0.558307
Si Si7 0.752791 0.115358 0.691261
Si Si8 0.072580 0.295321 0.149381
O O1 0.189033 0.500000 0.821595
O O2 0.187366 0.699128 0.848964
O O3 0.516194 0.627605 0.574248
O O4 0.071395 0.630281 0.807494
O O5 0.150472 0.155154 0.952208
O O6 0.889000 0.500000 0.517068
O O7 0.230926 0.387782 0.250404
O O8 0.000000 0.327844 0.500000
O O9 0.784797 0.344411 0.512204
O O10 0.281891 0.193168 0.228739
O O11 0.500000 0.282657 0.000000
O O12 0.648641 0.328033 0.021582
O O13 0.918581 0.178789 0.881648
O O14 0.851799 0.000000 0.968037
O O15 0.482251 0.128120 0.206592
O O16 0.132529 0.500000 0.617930
O O17 0.047678 0.305741 0.706242
O O18 0.000000 0.140141 0.500000
O O19 0.763225 0.000000 0.711998
#
# Coordination Sequence:
#
# PCOD8063891 Si02
#       8
#     4   2   4   4   4   4   4   4
#     4  10  21  35  55  82 114 148 186 233 279 331
#     4  10  20  34  56  84 110 148 186 228 278 338
#     4  10  22  37  54  79 112 150 189 232 283 336
#     4  11  21  35  55  82 111 148 188 232 281 332
#     4   9  19  36  58  82 112 147 187 233 284 333
#     4  10  20  36  57  79 111 149 188 232 283 338
#     4   9  19  36  58  82 109 143 184 232 283 337
#     4  10  20  35  55  82 107 146 191 229 283 338
#
# _framework density 19.563217000000002
#
# number of rings (size 3 to 8) (size 9 to 14) (size 15 to 20)
#    0.000    2.133    1.333    1.600    0.000    6.933 
#    0.000    1.333    0.000    7.200    0.000    0.000 
#    0.000    0.000    0.000    0.000    0.000    0.000 
#
# Total GULP energy -371721.328559 kJ/mol
# GULP energy per Si atom -12390.710952 kJ/mol
# Density = 1.951869 g / cm^3
# Si number density = 19.563217 Si / 1000 Ang^3
#
#
#
# Elastic Constant Matrix: (Units=GPa)
#
#
# Indices 1 2 3 4 5 6 
#
# 1 118.1006 35.8989 44.1390 0.0000 2.4025 0.0000
# 2 35.8989 79.9474 35.2251 0.0000 -2.4067 0.0000
# 3 44.1390 35.2251 97.7542 0.0000 0.8396 0.0000
# 4 0.0000 0.0000 0.0000 29.4516 0.0000 -1.5001
# 5 2.4025 -2.4067 0.8396 0.0000 37.2958 0.0000
# 6 0.0000 0.0000 0.0000 -1.5001 0.0000 17.0307
#
#
#
# Elastic Compliance Matrix: (Units=1/GPa)
#
#
# Indices 1 2 3 4 5 6 
#
# 1 0.010868 -0.003264 -0.003724 0.000000 -0.000827 0.000000
# 2 -0.003264 0.015893 -0.004264 0.000000 0.001332 0.000000
# 3 -0.003724 -0.004264 0.013451 0.000000 -0.000338 0.000000
# 4 0.000000 0.000000 0.000000 0.034107 0.000000 0.003004
# 5 -0.000827 0.001332 -0.000338 0.000000 0.026960 0.000000
# 6 0.000000 0.000000 0.000000 0.003004 0.000000 0.058982
#
#
# Mechanical properties :
#
#
# Convention : Reuss Voigt Hill
#
# Bulk Modulus (GPa) = 56.47606 58.48092 57.47849
# Shear Modulus (GPa) = 26.50152 28.79155 27.64653
#
# Velocity S-wave (km/s) = 3.68456 3.84046 3.76332
# Velocity P-wave (km/s) = 6.85803 7.04441 6.95184
#
# Compressibility (1/GPa) = 0.01770662
#
# Stress axis : x y z
#
# Youngs Moduli (GPa) = 92.01140 62.92077 74.34504
#
# Poissons Ratio (x) = 0.20539 0.27686
# Poissons Ratio (y) = 0.30035 0.31704
# Poissons Ratio (z) = 0.34265 0.26832
#
# Static dielectric constant tensor:
#      x y z
#    x 3.776480 0.000000 -0.099490 
#    y 0.000000 3.543410 0.000000 
#    z -0.099490 0.000000 3.544290 
# 
# 
# High freq. dielectric constant tensor:
#      x y z
#    x 1.772890 0.000000 -0.012470 
#    y 0.000000 1.751890 0.000000 
#    z -0.012470 0.000000 1.754120 
# 
# From -- ./inp_files/85344.got.cif
#   From: 2010.06.25/outbox.cif.g09.slc.cpg/sg10_43_cif.got.tgz:85344.got - 2010.06.27 22:07:45.
