data_PCOD8063247
_publ_section_title
;
Structure prediction by ZEFSAII (Michael W. Deem and Ramdas Pophale) SiO2 
 PCOD8063247
Probable space group: P 2/M
;
_chemical_formula_sum "Si O2"
_cell_formula_units_Z 24
_cell_length_a 25.405847
_cell_length_b 8.940341
_cell_length_c 19.332792
_cell_angle_alpha 90.000000
_cell_angle_beta 17.782010
_cell_angle_gamma 90.000000
_cell_volume 1341.053681
_symmetry_space_group_name_H-M "P 2/M"
_symmetry_group_IT_number 10
_symmetry_cell_setting 'monoclinic'
loop_
_space_group_symop_operation_xyz
x,y,z
-x,y,-z
-x,-y,-z
x,-y,z
loop_
_atom_site_type_symbol
_atom_site_label
_atom_site_fract_x
_atom_site_fract_y
_atom_site_fract_z
Si Si1 0.981544 0.164650 0.105000
Si Si2 0.644486 0.824173 0.372865
Si Si3 0.635904 0.822495 0.031432
Si Si4 0.986064 0.165069 0.435547
Si Si5 0.351722 0.674367 0.131143
Si Si6 0.356890 0.324086 0.478270
O O1 0.833306 0.280540 0.312373
O O2 0.931817 0.000000 0.195993
O O3 0.000000 0.157193 0.000000
O O4 0.171274 0.213852 0.894166
O O5 0.500000 0.774163 0.500000
O O6 0.616045 0.730926 0.477775
O O7 0.634468 0.000000 0.403933
O O8 0.497219 0.751762 0.254926
O O9 0.615053 0.000000 0.055071
O O10 0.825106 0.778607 0.825489
O O11 0.607187 0.761989 0.990255
O O12 0.000000 0.154916 0.500000
O O13 0.832575 0.276301 0.605440
O O14 0.945240 0.000000 0.456285
O O15 0.344108 0.500000 0.123640
O O16 0.500000 0.713557 0.000000
O O17 0.378151 0.500000 0.447867
#
# Coordination Sequence:
#
# PCOD8063247 Si02
#       6
#     4   4   4   4   4   4
#     4   8  15  30  51  72  96 130 168 201 239 292
#     4   9  18  34  55  76  99 130 168 206 244 292
#     4  10  20  35  54  74  98 130 171 210 243 289
#     4   8  16  31  51  73  95 127 169 205 239 288
#     4  10  20  33  51  77 106 132 160 199 248 298
#     4  11  21  32  50  76 104 132 164 204 251 297
#
# _framework density 17.896374999999999
#
# number of rings (size 3 to 8) (size 9 to 14) (size 15 to 20)
#    0.000    2.667    0.000    4.500    0.000    8.333 
#    0.000    1.667    0.000    2.000    0.000    0.000 
#    0.000    0.000    0.000    0.000    0.000    0.000 
#
# Total GULP energy -297468.706783 kJ/mol
# GULP energy per Si atom -12394.529449 kJ/mol
# Density = 1.785564 g / cm^3
# Si number density = 17.896375 Si / 1000 Ang^3
#
#
#
# Elastic Constant Matrix: (Units=GPa)
#
#
# Indices 1 2 3 4 5 6 
#
# 1 69.0314 48.3387 62.2780 0.0000 -22.7065 0.0000
# 2 48.3387 104.9476 70.9097 0.0000 -10.4415 0.0000
# 3 62.2780 70.9097 163.4670 0.0000 -19.4572 0.0000
# 4 0.0000 0.0000 0.0000 -18.3467 0.0000 1.3384
# 5 -22.7065 -10.4415 -19.4572 0.0000 30.2712 0.0000
# 6 0.0000 0.0000 0.0000 1.3384 0.0000 23.6964
#
#
#
# Elastic Compliance Matrix: (Units=1/GPa)
#
#
# Indices 1 2 3 4 5 6 
#
# 1 0.031835 -0.008697 -0.006357 0.000000 0.016794 0.000000
# 2 -0.008697 0.015881 -0.004007 0.000000 -0.003621 0.000000
# 3 -0.006357 -0.004007 0.010336 0.000000 0.000493 0.000000
# 4 0.000000 0.000000 0.000000 -0.054282 0.000000 0.003066
# 5 0.016794 -0.003621 0.000493 0.000000 0.044700 0.000000
# 6 0.000000 0.000000 0.000000 0.003066 0.000000 0.042027
#
#
# Mechanical properties :
#
#
# Convention : Reuss Voigt Hill
#
# Bulk Modulus (GPa) = 50.17297 77.83320 64.00309
# Shear Modulus (GPa) = 36.96485 17.51883 27.24184
#
# Velocity S-wave (km/s) = 4.54970 3.13214 3.90577
# Velocity P-wave (km/s) = 7.46296 7.52767 7.49539
#
# Compressibility (1/GPa) = 0.01993105
#
# Stress axis : x y z
#
# Youngs Moduli (GPa) = 31.41149 62.96671 96.74834
#
# Poissons Ratio (x) = 0.54764 0.61503
# Poissons Ratio (y) = 0.27319 0.38764
# Poissons Ratio (z) = 0.19968 0.25229
#
# Static dielectric constant tensor:
#      x y z
#    x 3.111730 0.000000 -0.432030 
#    y 0.000000 3.318330 0.000000 
#    z -0.432030 0.000000 3.976670 
# 
# 
# High freq. dielectric constant tensor:
#      x y z
#    x 1.655120 0.000000 -0.021290 
#    y 0.000000 1.692650 0.000000 
#    z -0.021290 0.000000 1.707940 
# 
# From -- ./inp_files/33748.got.cif
#   From: 2010.06.25/outbox.cif.g09.slc.cpg/sg10_17_cif.got.tgz:33748.got - 2010.06.27 22:07:45.
