data_PCOD8063405
_publ_section_title
;
Structure prediction by ZEFSAII (Michael W. Deem and Ramdas Pophale) SiO2 
 PCOD8063405
Probable space group: P 2/M
;
_chemical_formula_sum "Si O2"
_cell_formula_units_Z 22
_cell_length_a 4.997173
_cell_length_b 19.500069
_cell_length_c 11.817929
_cell_angle_alpha 90.000000
_cell_angle_beta 80.235483
_cell_angle_gamma 90.000000
_cell_volume 1134.917570
_symmetry_space_group_name_H-M "P 2/M"
_symmetry_group_IT_number 10
_symmetry_cell_setting 'monoclinic'
loop_
_space_group_symop_operation_xyz
x,y,z
-x,y,-z
-x,-y,-z
x,-y,z
loop_
_atom_site_type_symbol
_atom_site_label
_atom_site_fract_x
_atom_site_fract_y
_atom_site_fract_z
Si Si1 0.728103 0.576642 0.576573
Si Si2 0.211528 0.000000 0.082890
Si Si3 0.024538 0.870933 0.235660
Si Si4 0.056924 0.726666 0.125649
Si Si5 0.528150 0.164924 0.630340
Si Si6 0.491611 0.691359 0.744580
O O1 0.500000 0.573793 0.500000
O O2 0.787847 0.500000 0.619720
O O3 0.623509 0.623110 0.685752
O O4 0.000000 0.607679 0.500000
O O5 0.162293 0.065606 0.164062
O O6 0.500000 0.000000 0.000000
O O7 0.000000 0.000000 0.000000
O O8 0.038500 0.807553 0.148684
O O9 0.184506 0.860357 0.342012
O O10 0.708044 0.878901 0.290240
O O11 0.354136 0.704369 0.147299
O O12 0.828669 0.683389 0.209936
O O13 0.000000 0.710881 0.000000
O O14 0.500000 0.151279 0.500000
O O15 0.518403 0.246160 0.654528
#
# Coordination Sequence:
#
# PCOD8063405 Si02
#       6
#     4   2   4   4   4   4
#     4  10  20  34  54  81 112 143 176 218 268 319
#     4  12  24  40  61  80 107 142 180 228 274 316
#     4  10  22  37  55  82 106 137 181 220 267 321
#     4  10  20  35  55  78 106 138 178 227 270 307
#     4  10  20  36  56  80 111 141 174 218 265 318
#     4  10  20  33  55  80 106 141 180 220 263 317
#
# _framework density 19.384667
#
# number of rings (size 3 to 8) (size 9 to 14) (size 15 to 20)
#    0.000    1.818    0.000    4.364    0.000    5.818 
#    0.000    2.727    0.000    3.273    0.000    0.000 
#    0.000    0.000    0.000    0.000    0.000    0.000 
#
# Total GULP energy -272743.189964 kJ/mol
# GULP energy per Si atom -12397.417726 kJ/mol
# Density = 1.934055 g / cm^3
# Si number density = 19.384667 Si / 1000 Ang^3
#
#
#
# Elastic Constant Matrix: (Units=GPa)
#
#
# Indices 1 2 3 4 5 6 
#
# 1 94.6083 16.8512 13.0664 0.0000 -8.3836 0.0000
# 2 16.8512 80.6986 44.1279 0.0000 -17.3465 0.0000
# 3 13.0664 44.1279 83.6883 0.0000 6.9513 0.0000
# 4 0.0000 0.0000 0.0000 19.8766 0.0000 -5.0213
# 5 -8.3836 -17.3465 6.9513 0.0000 31.0428 0.0000
# 6 0.0000 0.0000 0.0000 -5.0213 0.0000 20.6491
#
#
#
# Elastic Compliance Matrix: (Units=1/GPa)
#
#
# Indices 1 2 3 4 5 6 
#
# 1 0.011192 -0.000894 -0.001514 0.000000 0.002862 0.000000
# 2 -0.000894 0.023361 -0.013493 0.000000 0.015834 0.000000
# 3 -0.001514 -0.013493 0.020339 0.000000 -0.012503 0.000000
# 4 0.000000 0.000000 0.000000 0.053603 0.000000 0.013035
# 5 0.002862 0.015834 -0.012503 0.000000 0.044634 0.000000
# 6 0.000000 0.000000 0.000000 0.013035 0.000000 0.051598
#
#
# Mechanical properties :
#
#
# Convention : Reuss Voigt Hill
#
# Bulk Modulus (GPa) = 43.31080 45.23179 44.27129
# Shear Modulus (GPa) = 20.47292 26.64368 23.55830
#
# Velocity S-wave (km/s) = 3.25336 3.71141 3.48991
# Velocity P-wave (km/s) = 6.04183 6.46146 6.25517
#
# Compressibility (1/GPa) = 0.02308893
#
# Stress axis : x y z
#
# Youngs Moduli (GPa) = 89.35112 42.80724 49.16700
#
# Poissons Ratio (x) = 0.03828 0.07442
# Poissons Ratio (y) = 0.07990 0.66343
# Poissons Ratio (z) = 0.13524 0.57761
#
# Static dielectric constant tensor:
#      x y z
#    x 3.864160 0.000000 -0.020070 
#    y 0.000000 3.415830 0.000000 
#    z -0.020070 0.000000 3.290780 
# 
# 
# High freq. dielectric constant tensor:
#      x y z
#    x 1.782240 0.000000 0.001840 
#    y 0.000000 1.731280 0.000000 
#    z 0.001840 0.000000 1.745790 
# 
# From -- ./inp_files/39360.got.cif
#   From: 2010.06.25/outbox.cif.g09.slc.cpg/sg10_20_cif.got.tgz:39360.got - 2010.06.27 22:07:45.
