data_PCOD8063385
_publ_section_title
;
Structure prediction by ZEFSAII (Michael W. Deem and Ramdas Pophale) SiO2 
 PCOD8063385
Probable space group: P 2/M
;
_chemical_formula_sum "Si O2"
_cell_formula_units_Z 28
_cell_length_a 15.167839
_cell_length_b 19.909434
_cell_length_c 9.520315
_cell_angle_alpha 90.000000
_cell_angle_beta 29.305163
_cell_angle_gamma 90.000000
_cell_volume 1407.187811
_symmetry_space_group_name_H-M "P 2/M"
_symmetry_group_IT_number 10
_symmetry_cell_setting 'monoclinic'
loop_
_space_group_symop_operation_xyz
x,y,z
-x,y,-z
-x,-y,-z
x,-y,z
loop_
_atom_site_type_symbol
_atom_site_label
_atom_site_fract_x
_atom_site_fract_y
_atom_site_fract_z
Si Si1 0.019463 0.704851 0.808178
Si Si2 0.465175 0.817894 0.889573
Si Si3 0.833932 0.077536 0.630533
Si Si4 0.857430 0.844513 0.324107
Si Si5 0.362530 0.290894 0.809763
Si Si6 0.715592 0.572771 0.975164
Si Si7 0.887948 0.426856 0.449158
O O1 0.122420 0.772874 0.623362
O O2 0.135570 0.637442 0.618772
O O3 0.000000 0.707445 0.000000
O O4 0.835246 0.708071 0.979198
O O5 0.650281 0.843743 0.558071
O O6 0.374382 0.758783 0.925234
O O7 0.500000 0.791894 0.000000
O O8 0.334954 0.881699 0.075655
O O9 0.887700 0.097699 0.396967
O O10 0.000000 0.092724 0.500000
O O11 0.778766 0.000000 0.708014
O O12 0.000000 0.855345 0.000000
O O13 0.500000 0.267236 0.500000
O O14 0.409696 0.366955 0.794313
O O15 0.626426 0.500000 0.134709
O O16 0.737107 0.580065 0.778188
O O17 0.913014 0.576212 0.765702
O O18 0.861913 0.500000 0.409047
#
# Coordination Sequence:
#
# PCOD8063385 Si02
#       7
#     4   4   4   4   4   4   4
#     4  10  20  33  54  82 114 149 193 242 291 346
#     4  10  23  39  61  89 119 157 196 244 285 346
#     4  10  22  41  64  91 120 153 193 234 281 345
#     4  10  21  38  59  86 121 157 193 242 288 340
#     4  11  21  35  56  82 112 152 190 241 297 346
#     4   8  16  30  49  75 104 143 191 239 292 346
#     4   8  15  29  49  74 106 143 192 241 286 345
#
# _framework density 19.897842000000001
#
# number of rings (size 3 to 8) (size 9 to 14) (size 15 to 20)
#    0.000    2.429    0.000    3.429    4.000    3.429 
#    0.000    0.000    0.000    5.143    0.000    0.000 
#    0.000    0.000    0.000    0.000    0.000    0.000 
#
# Total GULP energy -346990.204126 kJ/mol
# GULP energy per Si atom -12392.507290 kJ/mol
# Density = 1.985255 g / cm^3
# Si number density = 19.897842 Si / 1000 Ang^3
#
#
#
# Elastic Constant Matrix: (Units=GPa)
#
#
# Indices 1 2 3 4 5 6 
#
# 1 93.4085 62.5599 32.8833 0.0000 -1.0490 0.0000
# 2 62.5599 142.0861 53.0990 0.0000 -1.8051 0.0000
# 3 32.8833 53.0990 96.6118 0.0000 -0.8223 0.0000
# 4 0.0000 0.0000 0.0000 20.1248 0.0000 4.4657
# 5 -1.0490 -1.8051 -0.8223 0.0000 17.0009 0.0000
# 6 0.0000 0.0000 0.0000 4.4657 0.0000 26.4276
#
#
#
# Elastic Compliance Matrix: (Units=1/GPa)
#
#
# Indices 1 2 3 4 5 6 
#
# 1 0.015460 -0.006089 -0.001914 0.000000 0.000215 0.000000
# 2 -0.006089 0.011264 -0.004113 0.000000 0.000621 0.000000
# 3 -0.001914 -0.004113 0.013263 0.000000 0.000087 0.000000
# 4 0.000000 0.000000 0.000000 0.051626 0.000000 -0.008724
# 5 0.000215 0.000621 0.000087 0.000000 0.058904 0.000000
# 6 0.000000 0.000000 0.000000 -0.008724 0.000000 0.039313
#
#
# Mechanical properties :
#
#
# Convention : Reuss Voigt Hill
#
# Bulk Modulus (GPa) = 63.46843 69.91009 66.68926
# Shear Modulus (GPa) = 22.79847 24.94828 23.87338
#
# Velocity S-wave (km/s) = 3.38860 3.54477 3.46757
# Velocity P-wave (km/s) = 6.87580 7.20865 7.04419
#
# Compressibility (1/GPa) = 0.01575586
#
# Stress axis : x y z
#
# Youngs Moduli (GPa) = 64.68377 88.77896 75.39597
#
# Poissons Ratio (x) = 0.54058 0.14427
# Poissons Ratio (y) = 0.39386 0.31010
# Poissons Ratio (z) = 0.12378 0.36515
#
# Static dielectric constant tensor:
#      x y z
#    x 3.500700 0.000000 0.008000 
#    y 0.000000 4.015850 0.000000 
#    z 0.008000 0.000000 3.487690 
# 
# 
# High freq. dielectric constant tensor:
#      x y z
#    x 1.761330 0.000000 0.001630 
#    y 0.000000 1.786310 0.000000 
#    z 0.001630 0.000000 1.764500 
# 
# From -- ./inp_files/30367.got.cif
#   From: 2010.06.25/outbox.cif.g09.slc.cpg/sg10_16_cif.got.tgz:30367.got - 2010.06.27 22:07:45.
