data_PCOD8063049
_publ_section_title
;
Structure prediction by ZEFSAII (Michael W. Deem and Ramdas Pophale) SiO2 
 PCOD8063049
Probable space group: P 2/M
;
_chemical_formula_sum "Si O2"
_cell_formula_units_Z 32
_cell_length_a 15.261701
_cell_length_b 9.253915
_cell_length_c 22.770026
_cell_angle_alpha 90.000000
_cell_angle_beta 30.756796
_cell_angle_gamma 90.000000
_cell_volume 1644.555244
_symmetry_space_group_name_H-M "P 2/M"
_symmetry_group_IT_number 10
_symmetry_cell_setting 'monoclinic'
loop_
_space_group_symop_operation_xyz
x,y,z
-x,y,-z
-x,-y,-z
x,-y,z
loop_
_atom_site_type_symbol
_atom_site_label
_atom_site_fract_x
_atom_site_fract_y
_atom_site_fract_z
Si Si1 0.972563 0.828989 0.084362
Si Si2 0.528516 0.669691 0.918455
Si Si3 0.809285 0.164087 0.693069
Si Si4 0.581792 0.834591 0.714772
Si Si5 0.297830 0.332447 0.557892
Si Si6 0.827511 0.167261 0.473761
Si Si7 0.310679 0.330925 0.683313
Si Si8 0.297259 0.671082 0.943527
O O1 0.790803 0.765430 0.210728
O O2 0.977409 0.000000 0.092643
O O3 0.000000 0.792526 0.000000
O O4 0.117450 0.751404 0.039857
O O5 0.551412 0.500000 0.905851
O O6 0.706781 0.734739 0.795844
O O7 0.373552 0.712540 0.963586
O O8 0.500000 0.731192 0.000000
O O9 0.742326 0.184897 0.665778
O O10 0.007663 0.209314 0.582207
O O11 0.782260 0.000000 0.729475
O O12 0.655378 0.792375 0.608782
O O13 0.426905 0.727361 0.818706
O O14 0.513337 0.000000 0.755881
O O15 0.278393 0.500000 0.556711
O O16 0.167012 0.250272 0.590924
O O17 0.244037 0.298114 0.655750
O O18 0.490975 0.284532 0.430829
O O19 0.828841 0.000000 0.457744
O O20 0.287037 0.500000 0.712210
O O21 0.271858 0.500000 0.950668
#
# Coordination Sequence:
#
# PCOD8063049 Si02
#       8
#     4   4   4   4   4   4   4   4
#     4  11  25  41  59  85 116 148 187 235 287 337
#     4   9  19  36  56  78 107 143 181 224 274 326
#     4   9  18  33  51  75 107 144 182 219 264 319
#     4   9  18  34  54  75 110 150 182 222 270 321
#     4   9  20  38  59  83 110 144 184 228 279 331
#     4  10  20  32  52  82 111 142 183 224 269 326
#     4   9  20  41  62  80 109 146 185 228 277 334
#     4  10  21  37  57  82 110 145 188 229 278 335
#
# _framework density 19.45815
#
# number of rings (size 3 to 8) (size 9 to 14) (size 15 to 20)
#    0.000    2.500    0.000    1.875    1.750    6.250 
#    0.000    5.000    0.000    3.750    0.000    0.000 
#    0.000    0.000    0.000    0.000    0.000    0.000 
#
# Total GULP energy -396771.141307 kJ/mol
# GULP energy per Si atom -12399.098166 kJ/mol
# Density = 1.941386 g / cm^3
# Si number density = 19.458150 Si / 1000 Ang^3
#
#
#
# Elastic Constant Matrix: (Units=GPa)
#
#
# Indices 1 2 3 4 5 6 
#
# 1 59.7230 29.7003 20.8794 0.0000 9.9608 0.0000
# 2 29.7003 55.8409 36.2450 0.0000 5.6155 0.0000
# 3 20.8794 36.2450 78.2208 0.0000 10.1796 0.0000
# 4 0.0000 0.0000 0.0000 30.8074 0.0000 -2.5804
# 5 9.9608 5.6155 10.1796 0.0000 29.5651 0.0000
# 6 0.0000 0.0000 0.0000 -2.5804 0.0000 34.5436
#
#
#
# Elastic Compliance Matrix: (Units=1/GPa)
#
#
# Indices 1 2 3 4 5 6 
#
# 1 0.023669 -0.012008 -0.000013 0.000000 -0.005689 0.000000
# 2 -0.012008 0.031722 -0.011763 0.000000 0.002071 0.000000
# 3 -0.000013 -0.011763 0.018789 0.000000 -0.004231 0.000000
# 4 0.000000 0.000000 0.000000 0.032664 0.000000 0.002440
# 5 -0.005689 0.002071 -0.004231 0.000000 0.036804 0.000000
# 6 0.000000 0.000000 0.000000 0.002440 0.000000 0.029131
#
#
# Mechanical properties :
#
#
# Convention : Reuss Voigt Hill
#
# Bulk Modulus (GPa) = 37.57878 40.82600 39.20239
# Shear Modulus (GPa) = 21.81328 26.11390 23.96359
#
# Velocity S-wave (km/s) = 3.35182 3.66738 3.51314
# Velocity P-wave (km/s) = 5.85953 6.24179 6.05368
#
# Compressibility (1/GPa) = 0.02661076
#
# Stress axis : x y z
#
# Youngs Moduli (GPa) = 42.24906 31.52417 53.22250
#
# Poissons Ratio (x) = 0.37855 0.00071
# Poissons Ratio (y) = 0.50733 0.62605
# Poissons Ratio (z) = 0.00057 0.37082
#
# Static dielectric constant tensor:
#      x y z
#    x 3.618640 0.000000 0.055140 
#    y 0.000000 3.438400 0.000000 
#    z 0.055140 0.000000 3.564480 
# 
# 
# High freq. dielectric constant tensor:
#      x y z
#    x 1.761810 0.000000 0.000270 
#    y 0.000000 1.750680 0.000000 
#    z 0.000270 0.000000 1.753000 
# 
# From -- ./inp_files/89558.got.cif
#   From: 2010.06.25/outbox.cif.g09.slc.cpg/sg10_45_cif.got.tgz:89558.got - 2010.06.27 22:07:45.
