data_PCOD8063059
_publ_section_title
;
Structure prediction by ZEFSAII (Michael W. Deem and Ramdas Pophale) SiO2 
 PCOD8063059
Probable space group: P 2/M
;
_chemical_formula_sum "Si O2"
_cell_formula_units_Z 32
_cell_length_a 24.335028
_cell_length_b 9.300617
_cell_length_c 19.142443
_cell_angle_alpha 90.000000
_cell_angle_beta 156.879797
_cell_angle_gamma 90.000000
_cell_volume 1701.215052
_symmetry_space_group_name_H-M "P 2/M"
_symmetry_group_IT_number 10
_symmetry_cell_setting 'monoclinic'
loop_
_space_group_symop_operation_xyz
x,y,z
-x,y,-z
-x,-y,-z
x,-y,z
loop_
_atom_site_type_symbol
_atom_site_label
_atom_site_fract_x
_atom_site_fract_y
_atom_site_fract_z
Si Si1 0.153302 0.657323 0.148453
Si Si2 0.997565 0.331261 0.161386
Si Si3 0.535188 0.170130 0.933032
Si Si4 0.552868 0.830800 0.798228
Si Si5 0.279904 0.830289 0.724870
Si Si6 0.249366 0.169455 0.385355
Si Si7 0.820537 0.666213 0.085769
Si Si8 0.987143 0.333022 0.564204
O O1 0.227496 0.500000 0.238856
O O2 0.239237 0.773172 0.293911
O O3 0.130491 0.707111 0.041583
O O4 0.000000 0.642806 0.000000
O O5 0.035359 0.500000 0.199770
O O6 0.942284 0.288692 0.173504
O O7 0.137679 0.242538 0.306930
O O8 0.554199 0.233684 0.878244
O O9 0.389649 0.225655 0.795512
O O10 0.525496 0.000000 0.918638
O O11 0.664412 0.215731 0.133218
O O12 0.405042 0.791074 0.591546
O O13 0.579778 0.000000 0.828545
O O14 0.680195 0.755912 0.906205
O O15 0.135933 0.751419 0.541089
O O16 0.256814 0.000000 0.693223
O O17 0.221398 0.000000 0.353431
O O18 0.783193 0.500000 0.031221
O O19 0.874465 0.696336 0.227853
O O20 0.948133 0.500000 0.518032
O O21 0.000000 0.274508 0.500000
#
# Coordination Sequence:
#
# PCOD8063059 Si02
#       8
#     4   4   4   4   4   4   4   4
#     4   8  15  31  54  77 103 137 174 213 255 303
#     4   9  19  36  56  78 105 137 177 220 256 301
#     4   8  16  32  51  73 102 132 167 216 259 300
#     4  10  21  36  52  74 108 141 172 213 263 314
#     4   9  17  31  54  76  94 128 177 217 254 304
#     4  10  20  32  53  84 111 136 169 212 264 317
#     4  10  22  38  54  75 105 141 180 219 260 309
#     4  10  21  35  50  72 106 138 168 214 268 312
#
# _framework density 18.810085999999998
#
# number of rings (size 3 to 8) (size 9 to 14) (size 15 to 20)
#    0.000    2.750    0.000    2.625    1.750    4.500 
#    0.000    2.500    0.000    3.750    0.000    0.000 
#    0.000    0.000    0.000    0.000    0.000    0.000 
#
# Total GULP energy -396676.695372 kJ/mol
# GULP energy per Si atom -12396.146730 kJ/mol
# Density = 1.876727 g / cm^3
# Si number density = 18.810086 Si / 1000 Ang^3
#
#
#
# Elastic Constant Matrix: (Units=GPa)
#
#
# Indices 1 2 3 4 5 6 
#
# 1 77.0473 30.4525 41.7062 0.0000 -5.4893 0.0000
# 2 30.4525 59.5741 54.1543 0.0000 6.4728 0.0000
# 3 41.7062 54.1543 108.9821 0.0000 7.2388 0.0000
# 4 0.0000 0.0000 0.0000 19.2432 0.0000 -7.4975
# 5 -5.4893 6.4728 7.2388 0.0000 26.7915 0.0000
# 6 0.0000 0.0000 0.0000 -7.4975 0.0000 14.4021
#
#
#
# Elastic Compliance Matrix: (Units=1/GPa)
#
#
# Indices 1 2 3 4 5 6 
#
# 1 0.018182 -0.005975 -0.004411 0.000000 0.006361 0.000000
# 2 -0.005975 0.032875 -0.013686 0.000000 -0.005469 0.000000
# 3 -0.004411 -0.013686 0.017825 0.000000 -0.002413 0.000000
# 4 0.000000 0.000000 0.000000 0.065188 0.000000 0.033936
# 5 0.006361 -0.005469 -0.002413 0.000000 0.040602 0.000000
# 6 0.000000 0.000000 0.000000 0.033936 0.000000 0.087101
#
#
# Mechanical properties :
#
#
# Convention : Reuss Voigt Hill
#
# Bulk Modulus (GPa) = 48.22308 55.35881 51.79095
# Shear Modulus (GPa) = 15.78126 20.04005 17.91065
#
# Velocity S-wave (km/s) = 2.89965 3.26757 3.08909
# Velocity P-wave (km/s) = 6.07480 6.61289 6.34954
#
# Compressibility (1/GPa) = 0.02073696
#
# Stress axis : x y z
#
# Youngs Moduli (GPa) = 55.00035 30.41780 56.10039
#
# Poissons Ratio (x) = 0.18175 0.24748
# Poissons Ratio (y) = 0.32863 0.76781
# Poissons Ratio (z) = 0.24263 0.41631
#
# Static dielectric constant tensor:
#      x y z
#    x 3.801920 0.000000 -0.343090 
#    y 0.000000 3.210930 0.000000 
#    z -0.343090 0.000000 3.431420 
# 
# 
# High freq. dielectric constant tensor:
#      x y z
#    x 1.727780 0.000000 -0.010640 
#    y 0.000000 1.711510 0.000000 
#    z -0.010640 0.000000 1.724240 
# 
# From -- ./inp_files/86980.got.cif
#   From: 2010.06.25/outbox.cif.g09.slc.cpg/sg10_44_cif.got.tgz:86980.got - 2010.06.27 22:07:45.
