data_PCOD8063151
_publ_section_title
;
Structure prediction by ZEFSAII (Michael W. Deem and Ramdas Pophale) SiO2 
 PCOD8063151
Probable space group: P 2/M
;
_chemical_formula_sum "Si O2"
_cell_formula_units_Z 30
_cell_length_a 11.068844
_cell_length_b 9.640063
_cell_length_c 17.870702
_cell_angle_alpha 90.000000
_cell_angle_beta 118.928283
_cell_angle_gamma 90.000000
_cell_volume 1668.952173
_symmetry_space_group_name_H-M "P 2/M"
_symmetry_group_IT_number 10
_symmetry_cell_setting 'monoclinic'
loop_
_space_group_symop_operation_xyz
x,y,z
-x,y,-z
-x,-y,-z
x,-y,z
loop_
_atom_site_type_symbol
_atom_site_label
_atom_site_fract_x
_atom_site_fract_y
_atom_site_fract_z
Si Si1 0.913900 0.163680 0.579768
Si Si2 0.096824 0.835744 0.257210
Si Si3 0.255903 0.840318 0.162449
Si Si4 0.877314 0.344457 0.114101
Si Si5 0.444872 0.165550 0.781520
Si Si6 0.643495 0.845331 0.083530
Si Si7 0.000000 0.731391 0.000000
Si Si8 0.203149 0.834965 0.606826
O O1 0.857528 0.205849 0.644943
O O2 0.810887 0.218481 0.483613
O O3 0.069651 0.219687 0.613117
O O4 0.920563 0.000000 0.574647
O O5 0.214154 0.789094 0.233356
O O6 0.960526 0.748912 0.197939
O O7 0.063924 0.000000 0.240392
O O8 0.401107 0.768293 0.182726
O O9 0.289399 0.000000 0.176823
O O10 0.131684 0.821182 0.066080
O O11 0.857580 0.500000 0.139460
O O12 0.732788 0.264444 0.062984
O O13 0.950832 0.359563 0.055405
O O14 0.379661 0.214460 0.840183
O O15 0.344282 0.222854 0.685673
O O16 0.452839 0.000000 0.784035
O O17 0.712122 0.000000 0.105568
O O18 0.500000 0.858277 0.000000
O O19 0.208034 0.000000 0.611261
#
# Coordination Sequence:
#
# PCOD8063151 Si02
#       8
#     4   4   4   4   4   4   2   4
#     4   8  13  23  40  64  91 120 155 190 229 279
#     4   9  17  30  48  69  93 120 155 196 232 273
#     4   9  17  28  45  68  92 122 159 197 236 276
#     4  11  22  34  49  70  95 122 155 194 237 280
#     4   9  16  27  43  67  98 125 153 193 238 280
#     4  10  20  33  50  71  95 125 160 195 233 280
#     4  10  20  34  48  62  89 126 161 194 231 280
#     4   8  13  21  37  62  93 125 152 185 233 283
#
# _framework density 17.975352000000001
#
# number of rings (size 3 to 8) (size 9 to 14) (size 15 to 20)
#    0.000    2.800    0.000    3.200    0.000    5.067 
#    0.000    0.667    0.000    4.800    0.000    7.467 
#    0.000    4.267    0.000    0.000    0.000    0.000 
#
# Total GULP energy -371684.051349 kJ/mol
# GULP energy per Si atom -12389.468378 kJ/mol
# Density = 1.793444 g / cm^3
# Si number density = 17.975352 Si / 1000 Ang^3
#
#
#
# Elastic Constant Matrix: (Units=GPa)
#
#
# Indices 1 2 3 4 5 6 
#
# 1 91.7535 24.8268 51.7554 0.0000 4.2957 0.0000
# 2 24.8268 43.9422 9.0863 0.0000 -6.4519 0.0000
# 3 51.7554 9.0863 129.9012 0.0000 -4.9498 0.0000
# 4 0.0000 0.0000 0.0000 4.3710 0.0000 -3.0678
# 5 4.2957 -6.4519 -4.9498 0.0000 30.3381 0.0000
# 6 0.0000 0.0000 0.0000 -3.0678 0.0000 8.1785
#
#
#
# Elastic Compliance Matrix: (Units=1/GPa)
#
#
# Indices 1 2 3 4 5 6 
#
# 1 0.017294 -0.009239 -0.006452 0.000000 -0.005466 0.000000
# 2 -0.009239 0.028706 0.001968 0.000000 0.007734 0.000000
# 3 -0.006452 0.001968 0.010246 0.000000 0.003004 0.000000
# 4 0.000000 0.000000 0.000000 0.310538 0.000000 0.116486
# 5 -0.005466 0.007734 0.003004 0.000000 0.035871 0.000000
# 6 0.000000 0.000000 0.000000 0.116486 0.000000 0.165966
#
#
# Mechanical properties :
#
#
# Convention : Reuss Voigt Hill
#
# Bulk Modulus (GPa) = 34.72439 48.54822 41.63630
# Shear Modulus (GPa) = 8.25534 20.57275 14.41404
#
# Velocity S-wave (km/s) = 2.14536 3.38671 2.83482
# Velocity P-wave (km/s) = 5.04940 6.50845 5.82479
#
# Compressibility (1/GPa) = 0.02879821
#
# Stress axis : x y z
#
# Youngs Moduli (GPa) = 57.82229 34.83594 97.60134
#
# Poissons Ratio (x) = 0.32187 0.62977
# Poissons Ratio (y) = 0.53425 -0.19208
# Poissons Ratio (z) = 0.37310 -0.06856
#
# Static dielectric constant tensor:
#      x y z
#    x 3.527100 0.000000 -0.051870 
#    y 0.000000 2.718290 0.000000 
#    z -0.051870 0.000000 3.637480 
# 
# 
# High freq. dielectric constant tensor:
#      x y z
#    x 1.695280 0.000000 -0.007790 
#    y 0.000000 1.626680 0.000000 
#    z -0.007790 0.000000 1.703010 
# 
# From -- ./inp_files/76233.got.cif
#   From: 2010.06.25/outbox.cif.g09.slc.cpg/sg10_39_cif.got.tgz:76233.got - 2010.06.27 22:07:45.
