data_PCOD8063245
_publ_section_title
;
Structure prediction by ZEFSAII (Michael W. Deem and Ramdas Pophale) SiO2 
 PCOD8063245
Probable space group: P 2/M
;
_chemical_formula_sum "Si O2"
_cell_formula_units_Z 30
_cell_length_a 9.325827
_cell_length_b 14.024806
_cell_length_c 13.648046
_cell_angle_alpha 90.000000
_cell_angle_beta 115.099083
_cell_angle_gamma 90.000000
_cell_volume 1616.513744
_symmetry_space_group_name_H-M "P 2/M"
_symmetry_group_IT_number 10
_symmetry_cell_setting 'monoclinic'
loop_
_space_group_symop_operation_xyz
x,y,z
-x,y,-z
-x,-y,-z
x,-y,z
loop_
_atom_site_type_symbol
_atom_site_label
_atom_site_fract_x
_atom_site_fract_y
_atom_site_fract_z
Si Si1 0.179988 0.805276 0.541665
Si Si2 0.387613 0.886158 0.778766
Si Si3 0.882123 0.106637 0.166396
Si Si4 0.311639 0.783618 0.192176
Si Si5 0.267192 0.606492 0.503309
Si Si6 0.000000 0.833272 0.000000
Si Si7 0.797908 0.886389 0.656482
Si Si8 0.374558 0.395245 0.325808
O O1 0.289218 0.847526 0.657837
O O2 0.177704 0.689434 0.537700
O O3 0.255350 0.846189 0.463445
O O4 0.000000 0.842405 0.500000
O O5 0.288051 0.853518 0.847171
O O6 0.555574 0.832293 0.838096
O O7 0.415588 0.000000 0.779878
O O8 0.027263 0.155658 0.266575
O O9 0.883131 0.000000 0.205468
O O10 0.911138 0.105877 0.057979
O O11 0.316750 0.847356 0.292084
O O12 0.353709 0.675686 0.229546
O O13 0.140884 0.773773 0.090422
O O14 0.196060 0.500000 0.504295
O O15 0.447556 0.608084 0.586802
O O16 0.258979 0.628808 0.384190
O O17 0.788036 0.000000 0.655159
O O18 0.332629 0.500000 0.273279
#
# Coordination Sequence:
#
# PCOD8063245 Si02
#       8
#     4   4   4   4   4   2   4   4
#     4  12  21  32  53  80 116 156 180 215 268 326
#     4  11  23  35  53  83 116 147 186 223 264 328
#     4   9  19  37  55  76 105 145 189 228 270 317
#     4  11  21  38  56  82 107 142 185 237 278 319
#     4   9  18  33  53  81 110 144 185 222 265 324
#     4  10  23  38  61  78 102 140 186 238 288 326
#     4  10  20  33  51  76 114 154 185 213 260 325
#     4   9  17  33  58  80 106 141 180 224 271 326
#
# _framework density 18.558456
#
# number of rings (size 3 to 8) (size 9 to 14) (size 15 to 20)
#    0.000    1.867    4.000    1.800    0.000    3.467 
#    0.000    3.000    0.000    0.000    0.000    2.800 
#    0.000    0.000    0.000    0.000    0.000    0.000 
#
# Total GULP energy -371733.548049 kJ/mol
# GULP energy per Si atom -12391.118268 kJ/mol
# Density = 1.851622 g / cm^3
# Si number density = 18.558456 Si / 1000 Ang^3
#
#
#
# Elastic Constant Matrix: (Units=GPa)
#
#
# Indices 1 2 3 4 5 6 
#
# 1 97.8200 29.1194 34.1226 0.0000 -9.2170 0.0000
# 2 29.1194 99.6907 24.3012 0.0000 -2.4164 0.0000
# 3 34.1226 24.3012 75.5275 0.0000 -8.1287 0.0000
# 4 0.0000 0.0000 0.0000 8.0431 0.0000 1.1166
# 5 -9.2170 -2.4164 -8.1287 0.0000 26.4211 0.0000
# 6 0.0000 0.0000 0.0000 1.1166 0.0000 21.2971
#
#
#
# Elastic Compliance Matrix: (Units=1/GPa)
#
#
# Indices 1 2 3 4 5 6 
#
# 1 0.012886 -0.002551 -0.004698 0.000000 0.002817 0.000000
# 2 -0.002551 0.011390 -0.002582 0.000000 -0.000642 0.000000
# 3 -0.004698 -0.002582 0.016539 0.000000 0.003213 0.000000
# 4 0.000000 0.000000 0.000000 0.125241 0.000000 -0.006567
# 5 0.002817 -0.000642 0.003213 0.000000 0.039761 0.000000
# 6 0.000000 0.000000 0.000000 -0.006567 0.000000 0.047299
#
#
# Mechanical properties :
#
#
# Convention : Reuss Voigt Hill
#
# Bulk Modulus (GPa) = 47.27023 49.79164 48.53093
# Shear Modulus (GPa) = 17.86807 23.51860 20.69334
#
# Velocity S-wave (km/s) = 3.10627 3.56374 3.34284
# Velocity P-wave (km/s) = 6.19609 6.61978 6.41143
#
# Compressibility (1/GPa) = 0.02115496
#
# Stress axis : x y z
#
# Youngs Moduli (GPa) = 77.60134 87.79823 60.46221
#
# Poissons Ratio (x) = 0.22393 0.28406
# Poissons Ratio (y) = 0.19793 0.15608
# Poissons Ratio (z) = 0.36458 0.22665
#
# Static dielectric constant tensor:
#      x y z
#    x 3.640180 0.000000 -0.182230 
#    y 0.000000 3.435030 0.000000 
#    z -0.182230 0.000000 3.277750 
# 
# 
# High freq. dielectric constant tensor:
#      x y z
#    x 1.722060 0.000000 -0.004940 
#    y 0.000000 1.704840 0.000000 
#    z -0.004940 0.000000 1.699940 
# 
# From -- ./inp_files/43010.got.cif
#   From: 2010.06.25/outbox.cif.g09.slc.cpg/sg10_22_cif.got.tgz:43010.got - 2010.06.27 22:07:45.
