data_PCOD8063083
_publ_section_title
;
Structure prediction by ZEFSAII (Michael W. Deem and Ramdas Pophale) SiO2 
 PCOD8063083
Probable space group: P 2/M
;
_chemical_formula_sum "Si O2"
_cell_formula_units_Z 32
_cell_length_a 14.059959
_cell_length_b 9.215124
_cell_length_c 27.549365
_cell_angle_alpha 90.000000
_cell_angle_beta 30.137988
_cell_angle_gamma 90.000000
_cell_volume 1792.146121
_symmetry_space_group_name_H-M "P 2/M"
_symmetry_group_IT_number 10
_symmetry_cell_setting 'monoclinic'
loop_
_space_group_symop_operation_xyz
x,y,z
-x,y,-z
-x,-y,-z
x,-y,z
loop_
_atom_site_type_symbol
_atom_site_label
_atom_site_fract_x
_atom_site_fract_y
_atom_site_fract_z
Si Si1 0.795729 0.663050 0.107805
Si Si2 0.029628 0.830185 0.133228
Si Si3 0.683183 0.169194 0.800433
Si Si4 0.361140 0.831928 0.734179
Si Si5 0.313812 0.663989 0.948654
Si Si6 0.726132 0.331404 0.587049
Si Si7 0.861510 0.331019 0.631972
Si Si8 0.292472 0.830919 0.102803
O O1 0.806855 0.500000 0.125395
O O2 0.711173 0.776577 0.182249
O O3 0.659810 0.661989 0.120922
O O4 0.000000 0.715684 0.000000
O O5 0.128234 0.772242 0.139201
O O6 0.802061 0.802836 0.234308
O O7 0.069685 0.000000 0.105917
O O8 0.113415 0.735328 0.052017
O O9 0.476170 0.236000 0.899040
O O10 0.800557 0.242829 0.705968
O O11 0.779804 0.197629 0.810281
O O12 0.664730 0.000000 0.796769
O O13 0.556651 0.751944 0.634609
O O14 0.408122 0.000000 0.718137
O O15 0.326842 0.500000 0.963320
O O16 0.676473 0.500000 0.608232
O O17 0.748248 0.281672 0.633595
O O18 0.917028 0.299275 0.473507
O O19 0.825089 0.500000 0.658025
O O20 0.313632 0.000000 0.083544
O O21 0.500000 0.759676 0.000000
#
# Coordination Sequence:
#
# PCOD8063083 Si02
#       8
#     4   4   4   4   4   4   4   4
#     4  10  20  33  46  64  98 142 176 199 239 307
#     4  10  20  35  51  70 100 137 175 214 254 301
#     4  11  21  33  54  79 103 134 170 215 267 310
#     4  11  22  32  50  78 105 133 171 220 262 297
#     4  11  21  32  48  71 101 137 174 211 249 301
#     4   9  19  37  59  77 104 142 173 201 251 321
#     4   9  19  37  58  81 104 134 173 212 253 305
#     4   9  17  33  54  72  98 140 180 210 254 315
#
# _framework density 17.855687
#
# number of rings (size 3 to 8) (size 9 to 14) (size 15 to 20)
#    0.000    2.000    2.500    2.625    0.000    5.750 
#    0.000    3.125    0.000    0.750    0.000    5.250 
#    0.000    0.000    0.000    0.000    0.000    0.000 
#
# Total GULP energy -396693.728807 kJ/mol
# GULP energy per Si atom -12396.679025 kJ/mol
# Density = 1.781505 g / cm^3
# Si number density = 17.855687 Si / 1000 Ang^3
#
#
#
# Elastic Constant Matrix: (Units=GPa)
#
#
# Indices 1 2 3 4 5 6 
#
# 1 100.3618 41.5103 40.8210 0.0000 -13.9691 0.0000
# 2 41.5103 75.2105 46.1781 0.0000 -6.7074 0.0000
# 3 40.8210 46.1781 78.7640 0.0000 -12.9319 0.0000
# 4 0.0000 0.0000 0.0000 30.1042 0.0000 -6.1499
# 5 -13.9691 -6.7074 -12.9319 0.0000 28.2752 0.0000
# 6 0.0000 0.0000 0.0000 -6.1499 0.0000 15.9279
#
#
#
# Elastic Compliance Matrix: (Units=1/GPa)
#
#
# Indices 1 2 3 4 5 6 
#
# 1 0.014167 -0.005248 -0.003591 0.000000 0.004112 0.000000
# 2 -0.005248 0.022731 -0.010971 0.000000 -0.002218 0.000000
# 3 -0.003591 -0.010971 0.021916 0.000000 0.005647 0.000000
# 4 0.000000 0.000000 0.000000 0.036062 0.000000 0.013924
# 5 0.004112 -0.002218 0.005647 0.000000 0.039455 0.000000
# 6 0.000000 0.000000 0.000000 0.013924 0.000000 0.068159
#
#
# Mechanical properties :
#
#
# Convention : Reuss Voigt Hill
#
# Bulk Modulus (GPa) = 52.09598 56.81724 54.45661
# Shear Modulus (GPa) = 20.12006 23.24991 21.68498
#
# Velocity S-wave (km/s) = 3.36045 3.61238 3.48869
# Velocity P-wave (km/s) = 6.65555 7.02057 6.84049
#
# Compressibility (1/GPa) = 0.01919534
#
# Stress axis : x y z
#
# Youngs Moduli (GPa) = 70.58496 43.99346 45.62808
#
# Poissons Ratio (x) = 0.23088 0.16383
# Poissons Ratio (y) = 0.37043 0.50058
# Poissons Ratio (z) = 0.25344 0.48265
#
# Static dielectric constant tensor:
#      x y z
#    x 3.459910 0.000000 -0.189840 
#    y 0.000000 3.200770 0.000000 
#    z -0.189840 0.000000 3.175830 
# 
# 
# High freq. dielectric constant tensor:
#      x y z
#    x 1.686370 0.000000 -0.014040 
#    y 0.000000 1.683400 0.000000 
#    z -0.014040 0.000000 1.674120 
# 
# From -- ./inp_files/66020.got.cif
#   From: 2010.06.25/outbox.cif.g09.slc.cpg/sg10_34_cif.got.tgz:66020.got - 2010.06.27 22:07:45.
