data_PCOD8063346
_publ_section_title
;
Structure prediction by ZEFSAII (Michael W. Deem and Ramdas Pophale) SiO2 
 PCOD8063346
Probable space group: P 2/M
;
_chemical_formula_sum "Si O2"
_cell_formula_units_Z 28
_cell_length_a 9.387101
_cell_length_b 8.973441
_cell_length_c 27.350727
_cell_angle_alpha 90.000000
_cell_angle_beta 141.041850
_cell_angle_gamma 90.000000
_cell_volume 1448.568901
_symmetry_space_group_name_H-M "P 2/M"
_symmetry_group_IT_number 10
_symmetry_cell_setting 'monoclinic'
loop_
_space_group_symop_operation_xyz
x,y,z
-x,y,-z
-x,-y,-z
x,-y,z
loop_
_atom_site_type_symbol
_atom_site_label
_atom_site_fract_x
_atom_site_fract_y
_atom_site_fract_z
Si Si1 0.812790 0.177069 0.488300
Si Si2 0.033214 0.823364 0.364960
Si Si3 0.719717 0.672162 0.036049
Si Si4 0.755357 0.671685 0.935043
Si Si5 0.450572 0.675482 0.767600
Si Si6 0.698391 0.176925 0.659477
Si Si7 0.170787 0.675505 0.207715
O O1 0.561642 0.233507 0.407319
O O2 0.000000 0.241595 0.500000
O O3 0.860238 0.234949 0.555809
O O4 0.821434 0.000000 0.489345
O O5 0.782810 0.760750 0.295565
O O6 0.185658 0.767509 0.360077
O O7 0.020020 0.000000 0.361169
O O8 0.726691 0.500000 0.053031
O O9 0.958388 0.738706 0.118969
O O10 0.500000 0.753266 0.000000
O O11 0.663763 0.691429 0.964511
O O12 0.788959 0.500000 0.927702
O O13 0.582966 0.741341 0.850097
O O14 0.000000 0.751815 0.000000
O O15 0.403850 0.500000 0.759522
O O16 0.597604 0.714423 0.758884
O O17 0.833721 0.245858 0.740993
O O18 0.710249 0.000000 0.666225
O O19 0.150851 0.500000 0.210565
#
# Coordination Sequence:
#
# PCOD8063346 Si02
#       7
#     4   4   4   4   4   4   4
#     4   9  17  33  58  81 100 132 176 214 252 306
#     4  10  21  36  55  80 108 137 172 214 258 309
#     4   9  17  28  46  73 102 134 174 216 257 304
#     4   9  15  28  48  71 100 134 173 217 258 299
#     4  10  20  33  53  80 108 138 175 218 263 309
#     4  10  21  36  55  79 108 139 172 212 259 309
#     4  10  20  34  52  79 110 138 174 218 262 309
#
# _framework density 19.329422999999998
#
# number of rings (size 3 to 8) (size 9 to 14) (size 15 to 20)
#    0.000    2.429    1.429    1.286    2.000    4.000 
#    0.000    0.714    0.000    6.000    0.000    0.000 
#    0.000    0.000    0.000    0.000    0.000    0.000 
#
# Total GULP energy -347055.933391 kJ/mol
# GULP energy per Si atom -12394.854764 kJ/mol
# Density = 1.928543 g / cm^3
# Si number density = 19.329423 Si / 1000 Ang^3
#
#
#
# Elastic Constant Matrix: (Units=GPa)
#
#
# Indices 1 2 3 4 5 6 
#
# 1 130.2346 17.7787 47.9188 0.0000 2.2094 0.0000
# 2 17.7787 9.2002 14.5776 0.0000 -2.7939 0.0000
# 3 47.9188 14.5776 114.2833 0.0000 -11.5280 0.0000
# 4 0.0000 0.0000 0.0000 28.6824 0.0000 4.6017
# 5 2.2094 -2.7939 -11.5280 0.0000 38.2240 0.0000
# 6 0.0000 0.0000 0.0000 4.6017 0.0000 23.2528
#
#
#
# Elastic Compliance Matrix: (Units=1/GPa)
#
#
# Indices 1 2 3 4 5 6 
#
# 1 0.011195 -0.018292 -0.002641 0.000000 -0.002781 0.000000
# 2 -0.018292 0.167001 -0.012680 0.000000 0.009440 0.000000
# 3 -0.002641 -0.012680 0.011754 0.000000 0.002771 0.000000
# 4 0.000000 0.000000 0.000000 0.036008 0.000000 -0.007126
# 5 -0.002781 0.009440 0.002771 0.000000 0.027848 0.000000
# 6 0.000000 0.000000 0.000000 -0.007126 0.000000 0.044416
#
#
# Mechanical properties :
#
#
# Convention : Reuss Voigt Hill
#
# Bulk Modulus (GPa) = 8.14843 46.02980 27.08912
# Shear Modulus (GPa) = 12.30451 29.59470 20.94960
#
# Velocity S-wave (km/s) = 2.52577 3.91713 3.29571
# Velocity P-wave (km/s) = 3.56801 6.65760 5.34108
#
# Compressibility (1/GPa) = 0.12272303
#
# Stress axis : x y z
#
# Youngs Moduli (GPa) = 89.32955 5.98801 85.07406
#
# Poissons Ratio (x) = 0.10953 0.22468
# Poissons Ratio (y) = 1.63405 1.07872
# Poissons Ratio (z) = 0.23592 0.07593
#
# Static dielectric constant tensor:
#      x y z
#    x 3.762330 0.000000 -0.002200 
#    y 0.000000 2.933180 0.000000 
#    z -0.002200 0.000000 3.819910 
# 
# 
# High freq. dielectric constant tensor:
#      x y z
#    x 1.769700 0.000000 -0.000980 
#    y 0.000000 1.685850 0.000000 
#    z -0.000980 0.000000 1.770000 
# 
# From -- ./inp_files/28194.got.cif
#   From: 2010.06.25/outbox.cif.g09.slc.cpg/sg10_15_cif.got.tgz:28194.got - 2010.06.27 22:07:45.
