data_PCOD8063160
_publ_section_title
;
Structure prediction by ZEFSAII (Michael W. Deem and Ramdas Pophale) SiO2 
 PCOD8063160
Probable space group: P 2/M
;
_chemical_formula_sum "Si O2"
_cell_formula_units_Z 32
_cell_length_a 22.970341
_cell_length_b 9.155374
_cell_length_c 20.677191
_cell_angle_alpha 90.000000
_cell_angle_beta 156.243023
_cell_angle_gamma 90.000000
_cell_volume 1751.810889
_symmetry_space_group_name_H-M "P 2/M"
_symmetry_group_IT_number 10
_symmetry_cell_setting 'monoclinic'
loop_
_space_group_symop_operation_xyz
x,y,z
-x,y,-z
-x,-y,-z
x,-y,z
loop_
_atom_site_type_symbol
_atom_site_label
_atom_site_fract_x
_atom_site_fract_y
_atom_site_fract_z
Si Si1 0.334176 0.670769 0.332317
Si Si2 0.262131 0.167800 0.796897
Si Si3 0.097345 0.834875 0.162295
Si Si4 0.050074 0.333573 0.664634
Si Si5 0.143202 0.670363 0.015200
Si Si6 0.475904 0.168095 0.133050
Si Si7 0.718334 0.669993 0.313693
Si Si8 0.254633 0.330305 0.989599
O O1 0.500000 0.724188 0.500000
O O2 0.324206 0.500000 0.337983
O O3 0.249319 0.754604 0.303113
O O4 0.262765 0.708191 0.190729
O O5 0.315975 0.255409 0.789536
O O6 0.111508 0.231972 0.670167
O O7 0.239127 0.000000 0.754237
O O8 0.382719 0.187583 0.973759
O O9 0.130069 0.000000 0.217238
O O10 0.000000 0.828804 0.000000
O O11 0.007832 0.754176 0.127511
O O12 0.080870 0.500000 0.674897
O O13 0.881971 0.302234 0.501340
O O14 0.122536 0.297848 0.806929
O O15 0.105517 0.500000 0.976865
O O16 0.207515 0.722090 0.012455
O O17 0.623960 0.255702 0.273787
O O18 0.509643 0.000000 0.182279
O O19 0.393573 0.236558 0.110509
O O20 0.679761 0.500000 0.269189
O O21 0.298207 0.500000 0.033390
#
# Coordination Sequence:
#
# PCOD8063160 Si02
#       8
#     4   4   4   4   4   4   4   4
#     4   9  17  30  49  75 105 131 157 195 240 281
#     4  10  20  33  50  72  96 123 156 194 239 291
#     4   9  17  29  47  72 100 129 160 194 232 275
#     4   9  19  34  50  70  95 122 156 199 241 282
#     4   9  17  31  53  75  94 125 166 200 233 279
#     4  10  21  35  50  70  97 127 159 196 238 286
#     4  11  21  32  49  72  96 123 156 196 243 290
#     4   9  18  35  55  71  91 124 165 202 236 279
#
# _framework density 18.266811000000001
#
# number of rings (size 3 to 8) (size 9 to 14) (size 15 to 20)
#    0.000    2.500    0.000    2.250    0.000    7.750 
#    0.000    1.250    0.000    7.500    0.000    0.000 
#    0.000    0.000    0.000    0.000    0.000    0.000 
#
# Total GULP energy -396892.234949 kJ/mol
# GULP energy per Si atom -12402.882342 kJ/mol
# Density = 1.822524 g / cm^3
# Si number density = 18.266811 Si / 1000 Ang^3
#
#
#
# Elastic Constant Matrix: (Units=GPa)
#
#
# Indices 1 2 3 4 5 6 
#
# 1 120.5353 58.5781 43.3384 0.0000 33.3656 0.0000
# 2 58.5781 105.4309 49.9655 0.0000 28.7184 0.0000
# 3 43.3384 49.9655 84.6720 0.0000 34.9172 0.0000
# 4 0.0000 0.0000 0.0000 16.9228 0.0000 0.7062
# 5 33.3656 28.7184 34.9172 0.0000 31.0366 0.0000
# 6 0.0000 0.0000 0.0000 0.7062 0.0000 18.8860
#
#
#
# Elastic Compliance Matrix: (Units=1/GPa)
#
#
# Indices 1 2 3 4 5 6 
#
# 1 0.013346 -0.004718 0.000130 0.000000 -0.010128 0.000000
# 2 -0.004718 0.015559 -0.005449 0.000000 -0.003194 0.000000
# 3 0.000130 -0.005449 0.024135 0.000000 -0.022250 0.000000
# 4 0.000000 0.000000 0.000000 0.059184 0.000000 -0.002213
# 5 -0.010128 -0.003194 -0.022250 0.000000 0.071095 0.000000
# 6 0.000000 0.000000 0.000000 -0.002213 0.000000 0.053032
#
#
# Mechanical properties :
#
#
# Convention : Reuss Voigt Hill
#
# Bulk Modulus (GPa) = 30.33571 68.26689 49.30130
# Shear Modulus (GPa) = 18.69758 23.95284 21.32521
#
# Velocity S-wave (km/s) = 3.20282 3.62508 3.42047
# Velocity P-wave (km/s) = 5.50640 7.41450 6.53052
#
# Compressibility (1/GPa) = 0.03296446
#
# Stress axis : x y z
#
# Youngs Moduli (GPa) = 74.92874 64.27271 41.43351
#
# Poissons Ratio (x) = 0.30323 -0.00537
# Poissons Ratio (y) = 0.35350 0.22579
# Poissons Ratio (z) = -0.00971 0.35025
#
# Static dielectric constant tensor:
#      x y z
#    x 3.313810 0.000000 0.193710 
#    y 0.000000 3.445250 0.000000 
#    z 0.193710 0.000000 3.290950 
# 
# 
# High freq. dielectric constant tensor:
#      x y z
#    x 1.696060 0.000000 0.021680 
#    y 0.000000 1.711740 0.000000 
#    z 0.021680 0.000000 1.697680 
# 
# From -- ./inp_files/90639.got.cif
#   From: 2010.06.25/outbox.cif.g09.slc.cpg/sg10_46_cif.got.tgz:90639.got - 2010.06.27 22:07:45.
