data_PCOD8063419
_publ_section_title
;
Structure prediction by ZEFSAII (Michael W. Deem and Ramdas Pophale) SiO2 
 PCOD8063419
Probable space group: P 2/M
;
_chemical_formula_sum "Si O2"
_cell_formula_units_Z 32
_cell_length_a 25.517438
_cell_length_b 9.236176
_cell_length_c 14.822760
_cell_angle_alpha 90.000000
_cell_angle_beta 29.656490
_cell_angle_gamma 90.000000
_cell_volume 1728.570371
_symmetry_space_group_name_H-M "P 2/M"
_symmetry_group_IT_number 10
_symmetry_cell_setting 'monoclinic'
loop_
_space_group_symop_operation_xyz
x,y,z
-x,y,-z
-x,-y,-z
x,-y,z
loop_
_atom_site_type_symbol
_atom_site_label
_atom_site_fract_x
_atom_site_fract_y
_atom_site_fract_z
Si Si1 0.773402 0.832327 0.438025
Si Si2 0.938578 0.171687 0.337249
Si Si3 0.821322 0.832981 0.036203
Si Si4 0.099479 0.172224 0.406740
Si Si5 0.536272 0.833340 0.848197
Si Si6 0.719429 0.833298 0.996403
Si Si7 0.713690 0.669458 0.354690
Si Si8 0.477874 0.669027 0.764213
O O1 0.861838 0.769326 0.373601
O O2 0.661408 0.809656 0.653969
O O3 0.780259 0.743108 0.335324
O O4 0.793738 0.000000 0.384103
O O5 0.902678 0.234955 0.488173
O O6 0.929989 0.000000 0.354944
O O7 0.057664 0.219442 0.135848
O O8 0.748725 0.734254 0.207379
O O9 0.808681 0.000000 0.084293
O O10 0.786883 0.809611 0.985272
O O11 0.208643 0.218789 0.195299
O O12 0.000000 0.236368 0.500000
O O13 0.089945 0.000000 0.422061
O O14 0.473202 0.739094 0.870041
O O15 0.504548 0.000000 0.880080
O O16 0.500000 0.778776 0.000000
O O17 0.685761 0.000000 0.035925
O O18 0.613794 0.737598 0.159977
O O19 0.736956 0.500000 0.322460
O O20 0.589505 0.704118 0.550248
O O21 0.458112 0.500000 0.803485
#
# Coordination Sequence:
#
# PCOD8063419 Si02
#       8
#     4   4   4   4   4   4   4   4
#     4   9  18  33  54  80 109 139 174 220 266 314
#     4   9  17  30  52  83 113 141 173 210 264 324
#     4  10  20  35  56  83 109 137 177 224 271 317
#     4   9  15  28  52  82 115 143 169 211 264 319
#     4   9  18  32  53  82 109 136 177 224 267 313
#     4  10  20  33  56  86 112 140 177 221 266 315
#     4  10  22  40  57  73 101 144 185 225 272 319
#     4  10  22  38  54  74 106 146 184 221 267 321
#
# _framework density 18.512407
#
# number of rings (size 3 to 8) (size 9 to 14) (size 15 to 20)
#    0.000    2.500    1.250    0.750    1.750    3.250 
#    0.000    5.625    0.000    1.125    0.000    0.000 
#    0.000    0.000    0.000    0.000    0.000    0.000 
#
# Total GULP energy -396864.086840 kJ/mol
# GULP energy per Si atom -12402.002714 kJ/mol
# Density = 1.847027 g / cm^3
# Si number density = 18.512407 Si / 1000 Ang^3
#
#
#
# Elastic Constant Matrix: (Units=GPa)
#
#
# Indices 1 2 3 4 5 6 
#
# 1 73.5238 34.9845 44.4871 0.0000 -13.9194 0.0000
# 2 34.9845 57.4909 40.6245 0.0000 -0.8035 0.0000
# 3 44.4871 40.6245 87.1726 0.0000 3.7213 0.0000
# 4 0.0000 0.0000 0.0000 15.9479 0.0000 0.4789
# 5 -13.9194 -0.8035 3.7213 0.0000 37.4118 0.0000
# 6 0.0000 0.0000 0.0000 0.4789 0.0000 8.0051
#
#
#
# Elastic Compliance Matrix: (Units=1/GPa)
#
#
# Indices 1 2 3 4 5 6 
#
# 1 0.025264 -0.008671 -0.009285 0.000000 0.010137 0.000000
# 2 -0.008671 0.029027 -0.009029 0.000000 -0.001705 0.000000
# 3 -0.009285 -0.009029 0.020661 0.000000 -0.005704 0.000000
# 4 0.000000 0.000000 0.000000 0.062817 0.000000 -0.003758
# 5 0.010137 -0.001705 -0.005704 0.000000 0.031032 0.000000
# 6 0.000000 0.000000 0.000000 -0.003758 0.000000 0.125146
#
#
# Mechanical properties :
#
#
# Convention : Reuss Voigt Hill
#
# Bulk Modulus (GPa) = 47.66065 50.93107 49.29586
# Shear Modulus (GPa) = 14.08800 18.81238 16.45019
#
# Velocity S-wave (km/s) = 2.76162 3.19125 2.98418
# Velocity P-wave (km/s) = 5.99749 6.41486 6.20968
#
# Compressibility (1/GPa) = 0.02098167
#
# Stress axis : x y z
#
# Youngs Moduli (GPa) = 39.58179 34.45036 48.39967
#
# Poissons Ratio (x) = 0.29873 0.44939
# Poissons Ratio (y) = 0.34322 0.43702
# Poissons Ratio (z) = 0.36751 0.31107
#
# Static dielectric constant tensor:
#      x y z
#    x 3.513730 0.000000 -0.021520 
#    y 0.000000 3.098970 0.000000 
#    z -0.021520 0.000000 3.427950 
# 
# 
# High freq. dielectric constant tensor:
#      x y z
#    x 1.725830 0.000000 -0.000640 
#    y 0.000000 1.681660 0.000000 
#    z -0.000640 0.000000 1.722820 
# 
# From -- ./inp_files/66468.got.cif
#   From: 2010.06.25/outbox.cif.g09.slc.cpg/sg10_34_cif.got.tgz:66468.got - 2010.06.27 22:07:45.
