data_PCOD8063093
_publ_section_title
;
Structure prediction by ZEFSAII (Michael W. Deem and Ramdas Pophale) SiO2 
 PCOD8063093
Probable space group: P 2/M
;
_chemical_formula_sum "Si O2"
_cell_formula_units_Z 32
_cell_length_a 25.304753
_cell_length_b 9.271668
_cell_length_c 24.099940
_cell_angle_alpha 90.000000
_cell_angle_beta 162.248664
_cell_angle_gamma 90.000000
_cell_volume 1723.908218
_symmetry_space_group_name_H-M "P 2/M"
_symmetry_group_IT_number 10
_symmetry_cell_setting 'monoclinic'
loop_
_space_group_symop_operation_xyz
x,y,z
-x,y,-z
-x,-y,-z
x,-y,z
loop_
_atom_site_type_symbol
_atom_site_label
_atom_site_fract_x
_atom_site_fract_y
_atom_site_fract_z
Si Si1 0.302810 0.828882 0.302809
Si Si2 0.800950 0.667304 0.408389
Si Si3 0.809442 0.829256 0.927330
Si Si4 0.500007 0.666988 0.191716
Si Si5 0.809439 0.170745 0.691552
Si Si6 0.199068 0.667303 0.806504
Si Si7 0.794713 0.838463 0.294714
Si Si8 0.499998 0.828145 0.306301
O O1 0.500000 0.779161 0.500000
O O2 0.215356 0.765589 0.159584
O O3 0.215356 0.765589 0.271127
O O4 0.284745 0.000000 0.284744
O O5 0.787164 0.500000 0.378564
O O6 0.674642 0.705556 0.332780
O O7 0.730857 0.756206 0.285667
O O8 0.000010 0.707867 0.623272
O O9 0.668017 0.768714 0.828815
O O10 0.786965 0.000000 0.901468
O O11 0.000002 0.784909 0.139511
O O12 0.500003 0.500000 0.208813
O O13 0.500000 0.764702 0.245453
O O14 0.325381 0.705558 0.983513
O O15 0.668012 0.231286 0.507214
O O16 0.786963 0.000000 0.672461
O O17 0.212850 0.500000 0.804247
O O18 0.269151 0.756208 0.823957
O O19 0.000000 0.840941 0.500000
O O20 0.717611 0.000000 0.217613
O O21 0.500000 0.000000 0.301730
#
# Coordination Sequence:
#
# PCOD8063093 Si02
#       8
#     4   4   4   4   4   4   4   4
#     4   9  13  21  39  64  97 130 156 190 238 290
#     4   9  18  34  54  73  96 128 163 199 239 284
#     4   9  16  26  42  66  96 128 159 194 241 293
#     4  10  22  37  52  71  94 126 171 210 239 280
#     4   9  16  26  42  66  96 128 159 194 241 293
#     4   9  18  34  54  73  96 128 163 199 239 284
#     4   9  17  30  51  80 109 131 154 191 241 294
#     4  10  20  33  47  67  96 126 160 202 245 288
#
# _framework density 18.562474000000002
#
# number of rings (size 3 to 8) (size 9 to 14) (size 15 to 20)
#    0.000    2.750    1.250    0.750    0.000    5.500 
#    0.000    2.500    0.000    0.000    0.000    1.750 
#    0.000    2.000    0.000    0.000    0.000    0.000 
#
# Total GULP energy -396684.531919 kJ/mol
# GULP energy per Si atom -12396.391622 kJ/mol
# Density = 1.852023 g / cm^3
# Si number density = 18.562474 Si / 1000 Ang^3
#
#
#
# Elastic Constant Matrix: (Units=GPa)
#
#
# Indices 1 2 3 4 5 6 
#
# 1 151.3073 47.1636 85.2323 0.0000 -7.8835 0.0000
# 2 47.1636 42.0116 31.8086 0.0000 -4.3607 0.0000
# 3 85.2323 31.8086 130.9146 0.0000 2.0926 0.0000
# 4 0.0000 0.0000 0.0000 9.6083 0.0000 2.7471
# 5 -7.8835 -4.3607 2.0926 0.0000 21.9891 0.0000
# 6 0.0000 0.0000 0.0000 2.7471 0.0000 -0.0586
#
#
#
# Elastic Compliance Matrix: (Units=1/GPa)
#
#
# Indices 1 2 3 4 5 6 
#
# 1 0.013516 -0.009934 -0.006442 0.000000 0.003489 0.000000
# 2 -0.009934 0.037419 -0.002690 0.000000 0.004115 0.000000
# 3 -0.006442 -0.002690 0.012551 0.000000 -0.004037 0.000000
# 4 0.000000 0.000000 0.000000 0.007228 0.000000 0.338735
# 5 0.003489 0.004115 -0.004037 0.000000 0.047928 0.000000
# 6 0.000000 0.000000 0.000000 0.338735 0.000000 -1.184743
#
#
# Mechanical properties :
#
#
# Convention : Reuss Voigt Hill
#
# Bulk Modulus (GPa) = 39.44121 72.51584 55.97852
# Shear Modulus (GPa) = -4.90428 16.97636 6.03604
#
# Velocity S-wave (km/s) = -1.62720 3.02744 1.80522
# Velocity P-wave (km/s) = 4.21469 7.16737 5.87940
#
# Compressibility (1/GPa) = 0.02535419
#
# Stress axis : x y z
#
# Youngs Moduli (GPa) = 73.98617 26.72427 79.67777
#
# Poissons Ratio (x) = 0.26548 0.51326
# Poissons Ratio (y) = 0.73499 0.21432
# Poissons Ratio (z) = 0.47660 0.07189
#
# Static dielectric constant tensor:
#      x y z
#    x 3.407740 0.000000 0.054730 
#    y 0.000000 3.007320 0.000000 
#    z 0.054730 0.000000 3.600460 
# 
# 
# High freq. dielectric constant tensor:
#      x y z
#    x 1.720250 0.000000 0.003080 
#    y 0.000000 1.666840 0.000000 
#    z 0.003080 0.000000 1.731090 
# 
# From -- ./inp_files/90636.got.cif
#   From: 2010.06.25/outbox.cif.g09.slc.cpg/sg10_46_cif.got.tgz:90636.got - 2010.06.27 22:07:45.
