data_PCOD8063631
_publ_section_title
;
Structure prediction by ZEFSAII (Michael W. Deem and Ramdas Pophale) SiO2 
 PCOD8063631
Probable space group: P 2/M
;
_chemical_formula_sum "Si O2"
_cell_formula_units_Z 12
_cell_length_a 20.779752
_cell_length_b 7.661967
_cell_length_c 9.070832
_cell_angle_alpha 90.000000
_cell_angle_beta 28.951732
_cell_angle_gamma 90.000000
_cell_volume 699.098379
_symmetry_space_group_name_H-M "P 2/M"
_symmetry_group_IT_number 10
_symmetry_cell_setting 'monoclinic'
loop_
_space_group_symop_operation_xyz
x,y,z
-x,y,-z
-x,-y,-z
x,-y,z
loop_
_atom_site_type_symbol
_atom_site_label
_atom_site_fract_x
_atom_site_fract_y
_atom_site_fract_z
Si Si1 0.905647 0.195991 0.321770
Si Si2 0.902282 0.500000 0.559741
Si Si3 0.379832 0.305197 0.149285
Si Si4 0.398193 0.500000 0.836189
O O1 0.926890 0.327690 0.413692
O O2 0.753773 0.193893 0.567464
O O3 0.942122 0.000000 0.300760
O O4 0.000000 0.256273 0.000000
O O5 0.000000 0.500000 0.500000
O O6 0.752373 0.500000 0.923040
O O7 0.351366 0.500000 0.272030
O O8 0.500000 0.215205 0.000000
O O9 0.419626 0.327484 0.896038
O O10 0.500000 0.500000 0.500000
#
# Coordination Sequence:
#
# PCOD8063631 Si02
#       4
#     4   2   4   2
#     4  10  20  34  53  77 104 133 169 211 252 301
#     4  10  21  34  52  74 100 140 169 206 256 294
#     4   8  16  30  49  73  96 130 162 204 252 294
#     4   8  15  28  46  70  94 124 165 202 240 290
#
# _framework density 17.164967000000001
#
# number of rings (size 3 to 8) (size 9 to 14) (size 15 to 20)
#    1.000    2.000    1.667    0.500    0.000    4.000 
#    0.000    0.000    0.000   16.000    0.000    0.000 
#    0.000    0.000    0.000    0.000    0.000    0.000 
#
# Total GULP energy -148669.690291 kJ/mol
# GULP energy per Si atom -12389.140858 kJ/mol
# Density = 1.712590 g / cm^3
# Si number density = 17.164967 Si / 1000 Ang^3
#
#
#
# Elastic Constant Matrix: (Units=GPa)
#
#
# Indices 1 2 3 4 5 6 
#
# 1 160.8249 29.8434 69.7347 0.0000 -3.5385 0.0000
# 2 29.8434 72.6898 35.5542 0.0000 2.7107 0.0000
# 3 69.7347 35.5542 157.4653 0.0000 -7.1894 0.0000
# 4 0.0000 0.0000 0.0000 12.3605 0.0000 0.2197
# 5 -3.5385 2.7107 -7.1894 0.0000 10.3946 0.0000
# 6 0.0000 0.0000 0.0000 0.2197 0.0000 6.5888
#
#
#
# Elastic Compliance Matrix: (Units=1/GPa)
#
#
# Indices 1 2 3 4 5 6 
#
# 1 0.007893 -0.001791 -0.003043 0.000000 0.001049 0.000000
# 2 -0.001791 0.016331 -0.003218 0.000000 -0.007094 0.000000
# 3 -0.003043 -0.003218 0.008690 0.000000 0.005814 0.000000
# 4 0.000000 0.000000 0.000000 0.080951 0.000000 -0.002700
# 5 0.001049 -0.007094 0.005814 0.000000 0.102432 0.000000
# 6 0.000000 0.000000 0.000000 -0.002700 0.000000 0.151862
#
#
# Mechanical properties :
#
#
# Convention : Reuss Voigt Hill
#
# Bulk Modulus (GPa) = 59.48981 73.47160 66.48071
# Shear Modulus (GPa) = 12.82485 22.92529 17.87507
#
# Velocity S-wave (km/s) = 2.73637 3.65853 3.23053
# Velocity P-wave (km/s) = 6.68705 7.79376 7.26152
#
# Compressibility (1/GPa) = 0.01680960
#
# Stress axis : x y z
#
# Youngs Moduli (GPa) = 126.69593 61.23300 115.07053
#
# Poissons Ratio (x) = 0.10968 0.35017
# Poissons Ratio (y) = 0.22694 0.37031
# Poissons Ratio (z) = 0.38555 0.19705
#
# Static dielectric constant tensor:
#      x y z
#    x 3.213280 0.000000 -0.171190 
#    y 0.000000 2.956450 0.000000 
#    z -0.171190 0.000000 2.855750 
# 
# 
# High freq. dielectric constant tensor:
#      x y z
#    x 1.659200 0.000000 -0.016440 
#    y 0.000000 1.643560 0.000000 
#    z -0.016440 0.000000 1.649020 
# 
# From -- ./inp_files/10442.got.cif
#   From: 2010.06.25/outbox.cif.g09.slc.cpg/sg10_6_cif.got.tgz:10442.got - 2010.06.27 22:07:45.
