data_PCOD8063395
_publ_section_title
;
Structure prediction by ZEFSAII (Michael W. Deem and Ramdas Pophale) SiO2 
 PCOD8063395
Probable space group: P 2/M
;
_chemical_formula_sum "Si O2"
_cell_formula_units_Z 32
_cell_length_a 22.226385
_cell_length_b 9.109598
_cell_length_c 8.040741
_cell_angle_alpha 90.000000
_cell_angle_beta 90.749622
_cell_angle_gamma 90.000000
_cell_volume 1627.897092
_symmetry_space_group_name_H-M "P 2/M"
_symmetry_group_IT_number 10
_symmetry_cell_setting 'monoclinic'
loop_
_space_group_symop_operation_xyz
x,y,z
-x,y,-z
-x,-y,-z
x,-y,z
loop_
_atom_site_type_symbol
_atom_site_label
_atom_site_fract_x
_atom_site_fract_y
_atom_site_fract_z
Si Si1 0.239497 0.672203 0.294007
Si Si2 0.113927 0.669432 0.642673
Si Si3 0.007985 0.340889 0.190101
Si Si4 0.432526 0.174530 0.498674
Si Si5 0.356739 0.171017 0.807905
Si Si6 0.879632 0.827757 0.695353
Si Si7 0.644891 0.171783 0.819383
Si Si8 0.245538 0.333545 0.682155
O O1 0.235497 0.500000 0.259932
O O2 0.177675 0.745245 0.226829
O O3 0.293575 0.739209 0.190651
O O4 0.249351 0.709337 0.488025
O O5 0.111217 0.500000 0.578902
O O6 0.113901 0.783987 0.494624
O O7 0.176934 0.689747 0.744686
O O8 0.056464 0.714668 0.747429
O O9 0.024830 0.500000 0.274142
O O10 0.058633 0.219450 0.215480
O O11 0.000000 0.370348 0.000000
O O12 0.500000 0.238978 0.500000
O O13 0.399353 0.237519 0.663397
O O14 0.400513 0.226941 0.326523
O O15 0.434402 0.000000 0.505692
O O16 0.289626 0.233751 0.791111
O O17 0.351405 0.000000 0.775949
O O18 0.382081 0.202445 0.995784
O O19 0.870393 0.000000 0.715543
O O20 0.658687 0.000000 0.796344
O O21 0.266603 0.500000 0.708559
#
# Coordination Sequence:
#
# PCOD8063395 Si02
#       8
#     4   4   4   4   4   4   4   4
#     4  10  20  36  58  81 107 144 187 228 282 342
#     4   9  19  36  56  78 105 142 188 230 273 334
#     4  10  21  37  55  75 106 147 189 233 281 335
#     4   9  18  34  56  82 117 156 189 228 277 330
#     4  10  20  33  54  84 115 150 188 230 282 332
#     4  11  22  35  55  82 110 141 182 232 284 335
#     4  10  20  34  55  85 117 147 188 236 282 334
#     4   9  18  33  54  79 106 141 186 233 280 333
#
# _framework density 19.657263
#
# number of rings (size 3 to 8) (size 9 to 14) (size 15 to 20)
#    0.000    2.250    1.250    2.625    0.000    6.250 
#    0.000    3.750    0.000    1.500    0.000    1.750 
#    0.000    0.000    0.000    0.000    0.000    0.000 
#
# Total GULP energy -396648.282721 kJ/mol
# GULP energy per Si atom -12395.258835 kJ/mol
# Density = 1.961252 g / cm^3
# Si number density = 19.657263 Si / 1000 Ang^3
#
#
#
# Elastic Constant Matrix: (Units=GPa)
#
#
# Indices 1 2 3 4 5 6 
#
# 1 152.9396 43.0697 65.6656 0.0000 -0.7154 0.0000
# 2 43.0697 67.6349 34.4131 0.0000 -0.7000 0.0000
# 3 65.6656 34.4131 105.4940 0.0000 0.6271 0.0000
# 4 0.0000 0.0000 0.0000 19.4169 0.0000 -2.1409
# 5 -0.7154 -0.7000 0.6271 0.0000 14.9262 0.0000
# 6 0.0000 0.0000 0.0000 -2.1409 0.0000 20.5433
#
#
#
# Elastic Compliance Matrix: (Units=1/GPa)
#
#
# Indices 1 2 3 4 5 6 
#
# 1 0.009641 -0.003692 -0.004800 0.000000 0.000491 0.000000
# 2 -0.003692 0.019159 -0.003957 0.000000 0.000888 0.000000
# 3 -0.004800 -0.003957 0.013764 0.000000 -0.000994 0.000000
# 4 0.000000 0.000000 0.000000 0.052100 0.000000 0.005429
# 5 0.000491 0.000888 -0.000994 0.000000 0.067103 0.000000
# 6 0.000000 0.000000 0.000000 0.005429 0.000000 0.049244
#
#
# Mechanical properties :
#
#
# Convention : Reuss Voigt Hill
#
# Bulk Modulus (GPa) = 56.60581 68.04059 62.32320
# Shear Modulus (GPa) = 20.67844 23.17194 21.92519
#
# Velocity S-wave (km/s) = 3.24690 3.43709 3.34334
# Velocity P-wave (km/s) = 6.55098 7.10211 6.83211
#
# Compressibility (1/GPa) = 0.01766603
#
# Stress axis : x y z
#
# Youngs Moduli (GPa) = 103.71834 52.19488 72.65560
#
# Poissons Ratio (x) = 0.19272 0.34874
# Poissons Ratio (y) = 0.38297 0.28748
# Poissons Ratio (z) = 0.49783 0.20652
#
# Static dielectric constant tensor:
#      x y z
#    x 8.326590 0.000000 -0.181730 
#    y 0.000000 3.327250 0.000000 
#    z -0.181730 0.000000 3.544560 
# 
# 
# High freq. dielectric constant tensor:
#      x y z
#    x 1.770390 0.000000 -0.003180 
#    y 0.000000 1.741710 0.000000 
#    z -0.003180 0.000000 1.757830 
# 
# From -- ./inp_files/33917.got.cif
#   From: 2010.06.25/outbox.cif.g09.slc.cpg/sg10_17_cif.got.tgz:33917.got - 2010.06.27 22:07:45.
