data_PCOD8063434
_publ_section_title
;
Structure prediction by ZEFSAII (Michael W. Deem and Ramdas Pophale) SiO2 
 PCOD8063434
Probable space group: P 2/M
;
_chemical_formula_sum "Si O2"
_cell_formula_units_Z 24
_cell_length_a 16.568642
_cell_length_b 7.730937
_cell_length_c 15.158569
_cell_angle_alpha 90.000000
_cell_angle_beta 141.310135
_cell_angle_gamma 90.000000
_cell_volume 1213.751965
_symmetry_space_group_name_H-M "P 2/M"
_symmetry_group_IT_number 10
_symmetry_cell_setting 'monoclinic'
loop_
_space_group_symop_operation_xyz
x,y,z
-x,y,-z
-x,-y,-z
x,-y,z
loop_
_atom_site_type_symbol
_atom_site_label
_atom_site_fract_x
_atom_site_fract_y
_atom_site_fract_z
Si Si1 0.597375 0.196924 0.154358
Si Si2 0.568408 0.299075 0.830312
Si Si3 0.393675 0.695745 0.334908
Si Si4 0.972859 0.000000 0.122682
Si Si5 0.201780 0.000000 0.196870
Si Si6 0.875196 0.794505 0.339337
Si Si7 0.145990 0.696940 0.875223
O O1 0.542191 0.208319 0.206275
O O2 0.743174 0.272379 0.274344
O O3 0.610533 0.000000 0.136343
O O4 0.500000 0.288159 0.000000
O O5 0.553845 0.500000 0.836175
O O6 0.546606 0.251114 0.709107
O O7 0.709469 0.234870 0.981198
O O8 0.500000 0.709949 0.500000
O O9 0.338018 0.500000 0.281318
O O10 0.281945 0.824457 0.266730
O O11 0.952744 0.825367 0.161089
O O12 0.120112 0.000000 0.216736
O O13 0.881549 0.000000 0.961262
O O14 0.881928 0.701067 0.251639
O O15 0.000000 0.731389 0.500000
O O16 0.878292 0.000000 0.329062
O O17 0.127272 0.500000 0.894212
#
# Coordination Sequence:
#
# PCOD8063434 Si02
#       7
#     4   4   4   2   2   4   4
#     4  10  20  33  58  89 116 155 203 249 295 356
#     4  10  21  36  59  88 116 153 201 254 303 353
#     4  10  22  42  64  91 127 160 201 259 314 370
#     4  11  24  40  63  92 123 153 207 263 304 367
#     4  11  23  40  66  91 117 165 199 251 322 377
#     4  10  21  39  59  86 127 165 200 251 309 363
#     4  11  22  39  64  87 119 165 205 253 308 364
#
# _framework density 19.773396999999999
#
# number of rings (size 3 to 8) (size 9 to 14) (size 15 to 20)
#    0.000    1.667    4.167    0.250    2.333    2.000 
#    3.000    1.667    0.000    0.000    0.000    0.000 
#    0.000    0.000    0.000    0.000    0.000    0.000 
#
# Total GULP energy -297594.272992 kJ/mol
# GULP energy per Si atom -12399.761375 kJ/mol
# Density = 1.972839 g / cm^3
# Si number density = 19.773397 Si / 1000 Ang^3
#
#
#
# Elastic Constant Matrix: (Units=GPa)
#
#
# Indices 1 2 3 4 5 6 
#
# 1 170.6823 56.4029 71.7169 0.0000 6.8198 0.0000
# 2 56.4029 81.1945 26.9164 0.0000 8.8951 0.0000
# 3 71.7169 26.9164 127.7808 0.0000 -4.5081 0.0000
# 4 0.0000 0.0000 0.0000 18.9595 0.0000 -4.9927
# 5 6.8198 8.8951 -4.5081 0.0000 35.0568 0.0000
# 6 0.0000 0.0000 0.0000 -4.9927 0.0000 14.6210
#
#
#
# Elastic Compliance Matrix: (Units=1/GPa)
#
#
# Indices 1 2 3 4 5 6 
#
# 1 0.009312 -0.004949 -0.004223 0.000000 -0.001099 0.000000
# 2 -0.004949 0.016376 -0.000788 0.000000 -0.003294 0.000000
# 3 -0.004223 -0.000788 0.010446 0.000000 0.002365 0.000000
# 4 0.000000 0.000000 0.000000 0.057956 0.000000 0.019790
# 5 -0.001099 -0.003294 0.002365 0.000000 0.029879 0.000000
# 6 0.000000 0.000000 0.000000 0.019790 0.000000 0.075153
#
#
# Mechanical properties :
#
#
# Convention : Reuss Voigt Hill
#
# Bulk Modulus (GPa) = 61.67489 76.63667 69.15578
# Shear Modulus (GPa) = 22.27710 28.70221 25.48966
#
# Velocity S-wave (km/s) = 3.36016 3.81406 3.59428
# Velocity P-wave (km/s) = 6.80535 7.63136 7.23016
#
# Compressibility (1/GPa) = 0.01621405
#
# Stress axis : x y z
#
# Youngs Moduli (GPa) = 107.38292 61.06522 95.73484
#
# Poissons Ratio (x) = 0.30219 0.40429
# Poissons Ratio (y) = 0.53141 0.07546
# Poissons Ratio (z) = 0.45348 0.04814
#
# Static dielectric constant tensor:
#      x y z
#    x 3.674320 0.000000 0.032810 
#    y 0.000000 3.607070 0.000000 
#    z 0.032810 0.000000 3.659480 
# 
# 
# High freq. dielectric constant tensor:
#      x y z
#    x 1.770160 0.000000 -0.008550 
#    y 0.000000 1.771130 0.000000 
#    z -0.008550 0.000000 1.762120 
# 
# From -- ./inp_files/54630.got.cif
#   From: 2010.06.25/outbox.cif.g09.slc.cpg/sg10_28_cif.got.tgz:54630.got - 2010.06.27 22:07:45.
