data_PCOD8063446
_publ_section_title
;
Structure prediction by ZEFSAII (Michael W. Deem and Ramdas Pophale) SiO2 
 PCOD8063446
Probable space group: P 2/M
;
_chemical_formula_sum "Si O2"
_cell_formula_units_Z 32
_cell_length_a 15.018043
_cell_length_b 8.757674
_cell_length_c 14.021189
_cell_angle_alpha 90.000000
_cell_angle_beta 90.976520
_cell_angle_gamma 90.000000
_cell_volume 1843.842757
_symmetry_space_group_name_H-M "P 2/M"
_symmetry_group_IT_number 10
_symmetry_cell_setting 'monoclinic'
loop_
_space_group_symop_operation_xyz
x,y,z
-x,y,-z
-x,-y,-z
x,-y,z
loop_
_atom_site_type_symbol
_atom_site_label
_atom_site_fract_x
_atom_site_fract_y
_atom_site_fract_z
Si Si1 0.833832 0.178555 0.683306
Si Si2 0.702735 0.168453 0.830586
Si Si3 0.981649 0.320222 0.811874
Si Si4 0.099002 0.179027 0.517300
Si Si5 0.847269 0.819968 0.277980
Si Si6 0.402781 0.320491 0.018733
Si Si7 0.125618 0.172819 0.033619
Si Si8 0.756298 0.680314 0.113989
O O1 0.733792 0.211559 0.722921
O O2 0.902678 0.289861 0.736042
O O3 0.836812 0.215898 0.570815
O O4 0.859409 0.000000 0.702390
O O5 0.629249 0.280672 0.874374
O O6 0.793520 0.174345 0.891090
O O7 0.660239 0.000000 0.832527
O O8 0.001632 0.500000 0.817974
O O9 0.957905 0.255462 0.916836
O O10 0.065369 0.227224 0.776960
O O11 0.145454 0.245085 0.613722
O O12 0.000000 0.250347 0.500000
O O13 0.086629 0.000000 0.532849
O O14 0.762345 0.745210 0.221929
O O15 0.834577 0.000000 0.276112
O O16 0.407605 0.500000 0.009732
O O17 0.500000 0.248584 0.000000
O O18 0.332554 0.254895 0.939728
O O19 0.100181 0.000000 0.004542
O O20 0.155072 0.265950 0.940553
O O21 0.754203 0.500000 0.116165
#
# Coordination Sequence:
#
# PCOD8063446 Si02
#       8
#     4   4   4   4   4   4   4   4
#     4   9  16  30  48  67  93 126 164 203 241 279
#     4   8  15  26  45  72  98 120 147 190 236 275
#     4  11  20  29  43  66  93 124 162 202 242 274
#     4   9  16  29  50  69  87 122 171 210 237 271
#     4  11  21  33  48  65  90 126 166 200 236 281
#     4   9  18  33  53  74  97 125 151 178 224 289
#     4   9  17  31  48  65  89 124 163 194 229 279
#     4  10  20  34  49  69  97 121 149 193 239 282
#
# _framework density 17.355059000000001
#
# number of rings (size 3 to 8) (size 9 to 14) (size 15 to 20)
#    0.000    2.500    1.250    3.000    0.000    4.250 
#    0.000    4.375    0.000    0.000    0.000    0.875 
#    0.000    7.000    0.000    0.000    0.000    0.000 
#
# Total GULP energy -396611.114893 kJ/mol
# GULP energy per Si atom -12394.097340 kJ/mol
# Density = 1.731556 g / cm^3
# Si number density = 17.355059 Si / 1000 Ang^3
#
#
#
# Elastic Constant Matrix: (Units=GPa)
#
#
# Indices 1 2 3 4 5 6 
#
# 1 66.8937 4.9372 45.6344 0.0000 -12.6478 0.0000
# 2 4.9372 35.1594 18.5271 0.0000 1.9372 0.0000
# 3 45.6344 18.5271 133.1400 0.0000 -5.6460 0.0000
# 4 0.0000 0.0000 0.0000 13.4815 0.0000 -0.0350
# 5 -12.6478 1.9372 -5.6460 0.0000 19.0972 0.0000
# 6 0.0000 0.0000 0.0000 -0.0350 0.0000 17.2201
#
#
#
# Elastic Compliance Matrix: (Units=1/GPa)
#
#
# Indices 1 2 3 4 5 6 
#
# 1 0.022140 -0.000092 -0.007042 0.000000 0.012591 0.000000
# 2 -0.000092 0.031068 -0.004484 0.000000 -0.004538 0.000000
# 3 -0.007042 -0.004484 0.010502 0.000000 -0.001104 0.000000
# 4 0.000000 0.000000 0.000000 0.074176 0.000000 0.000151
# 5 0.012591 -0.004538 -0.001104 0.000000 0.060836 0.000000
# 6 0.000000 0.000000 0.000000 0.000151 0.000000 0.058072
#
#
# Mechanical properties :
#
#
# Convention : Reuss Voigt Hill
#
# Bulk Modulus (GPa) = 24.70748 41.48784 33.09766
# Shear Modulus (GPa) = 17.03453 21.03273 19.03363
#
# Velocity S-wave (km/s) = 3.13634 3.48502 3.31527
# Velocity P-wave (km/s) = 5.23286 6.33649 5.81094
#
# Compressibility (1/GPa) = 0.04047357
#
# Stress axis : x y z
#
# Youngs Moduli (GPa) = 45.16617 32.18776 95.22220
#
# Poissons Ratio (x) = 0.00296 0.67056
# Poissons Ratio (y) = 0.00416 0.42699
# Poissons Ratio (z) = 0.31806 0.14433
#
# Static dielectric constant tensor:
#      x y z
#    x 3.176100 0.000000 -0.046840 
#    y 0.000000 3.091690 0.000000 
#    z -0.046840 0.000000 3.605610 
# 
# 
# High freq. dielectric constant tensor:
#      x y z
#    x 1.628970 0.000000 -0.009320 
#    y 0.000000 1.658930 0.000000 
#    z -0.009320 0.000000 1.670890 
# 
# From -- ./inp_files/66164.got.cif
#   From: 2010.06.25/outbox.cif.g09.slc.cpg/sg10_34_cif.got.tgz:66164.got - 2010.06.27 22:07:45.
