data_PCOD8063415
_publ_section_title
;
Structure prediction by ZEFSAII (Michael W. Deem and Ramdas Pophale) SiO2 
 PCOD8063415
Probable space group: P 2/M
;
_chemical_formula_sum "Si O2"
_cell_formula_units_Z 26
_cell_length_a 16.415075
_cell_length_b 7.697469
_cell_length_c 15.929345
_cell_angle_alpha 90.000000
_cell_angle_beta 38.139919
_cell_angle_gamma 90.000000
_cell_volume 1243.039050
_symmetry_space_group_name_H-M "P 2/M"
_symmetry_group_IT_number 10
_symmetry_cell_setting 'monoclinic'
loop_
_space_group_symop_operation_xyz
x,y,z
-x,y,-z
-x,-y,-z
x,-y,z
loop_
_atom_site_type_symbol
_atom_site_label
_atom_site_fract_x
_atom_site_fract_y
_atom_site_fract_z
Si Si1 0.271912 0.694733 0.470359
Si Si2 0.358440 0.204360 0.579324
Si Si3 0.757092 0.693122 0.008485
Si Si4 0.969796 0.698345 0.699913
Si Si5 0.849414 0.795376 0.111220
Si Si6 0.379897 0.000000 0.963574
Si Si7 0.166857 0.000000 0.277930
Si Si8 0.665923 0.000000 0.699578
O O1 0.290022 0.500000 0.419818
O O2 0.338260 0.701499 0.507532
O O3 0.118715 0.744211 0.602403
O O4 0.339112 0.828542 0.352981
O O5 0.500000 0.264786 0.500000
O O6 0.239523 0.260002 0.737407
O O7 0.356605 0.000000 0.565210
O O8 0.704732 0.500000 0.029352
O O9 0.890543 0.734893 0.849484
O O10 0.787500 0.701314 0.081729
O O11 0.646819 0.830482 0.071456
O O12 0.952440 0.500000 0.682249
O O13 0.918615 0.826787 0.668670
O O14 0.844132 0.000000 0.099943
O O15 0.000000 0.731642 0.000000
O O16 0.533589 0.000000 0.862736
O O17 0.297297 0.000000 0.115518
O O18 0.207694 0.000000 0.342081
#
# Coordination Sequence:
#
# PCOD8063415 Si02
#       8
#     4   4   4   4   4   2   2   2
#     4  11  24  41  63  91 124 165 202 248 308 364
#     4  10  22  38  58  83 124 168 208 255 302 354
#     4  10  20  36  62  89 117 161 206 250 304 358
#     4   9  20  39  63  94 127 153 198 255 304 367
#     4  10  20  33  55  87 121 160 208 259 304 352
#     4  10  23  42  62  86 124 153 198 255 300 359
#     4  10  22  42  69  92 115 161 198 243 325 368
#     4  12  26  42  63  91 124 157 205 254 297 378
#
# _framework density 20.916478000000001
#
# number of rings (size 3 to 8) (size 9 to 14) (size 15 to 20)
#    0.000    1.846    1.538    1.615    2.154    3.692 
#    0.000    1.538    0.000    4.615    0.000    0.000 
#    0.000    0.000    0.000    0.000    0.000    0.000 
#
# Total GULP energy -322492.424644 kJ/mol
# GULP energy per Si atom -12403.554794 kJ/mol
# Density = 2.086887 g / cm^3
# Si number density = 20.916478 Si / 1000 Ang^3
#
#
#
# Elastic Constant Matrix: (Units=GPa)
#
#
# Indices 1 2 3 4 5 6 
#
# 1 112.8849 38.9826 39.8088 0.0000 -7.5010 0.0000
# 2 38.9826 105.5422 31.8013 0.0000 -2.4477 0.0000
# 3 39.8088 31.8013 84.0295 0.0000 -13.0291 0.0000
# 4 0.0000 0.0000 0.0000 3.6414 0.0000 0.1366
# 5 -7.5010 -2.4477 -13.0291 0.0000 31.8484 0.0000
# 6 0.0000 0.0000 0.0000 0.1366 0.0000 8.1112
#
#
#
# Elastic Compliance Matrix: (Units=1/GPa)
#
#
# Indices 1 2 3 4 5 6 
#
# 1 0.011392 -0.002934 -0.004170 0.000000 0.000752 0.000000
# 2 -0.002934 0.011474 -0.003121 0.000000 -0.001086 0.000000
# 3 -0.004170 -0.003121 0.015875 0.000000 0.005272 0.000000
# 4 0.000000 0.000000 0.000000 0.274790 0.000000 -0.004627
# 5 0.000752 -0.001086 0.005272 0.000000 0.033649 0.000000
# 6 0.000000 0.000000 0.000000 -0.004627 0.000000 0.123364
#
#
# Mechanical properties :
#
#
# Convention : Reuss Voigt Hill
#
# Bulk Modulus (GPa) = 54.67121 58.18246 56.42683
# Shear Modulus (GPa) = 10.05854 21.51114 15.78484
#
# Velocity S-wave (km/s) = 2.19530 3.21039 2.75009
# Velocity P-wave (km/s) = 5.71143 6.45129 6.09260
#
# Compressibility (1/GPa) = 0.01829116
#
# Stress axis : x y z
#
# Youngs Moduli (GPa) = 87.77874 87.15627 62.99313
#
# Poissons Ratio (x) = 0.25570 0.26269
# Poissons Ratio (y) = 0.25753 0.19658
# Poissons Ratio (z) = 0.36605 0.27199
#
# Static dielectric constant tensor:
#      x y z
#    x 3.600970 0.000000 -0.130870 
#    y 0.000000 3.810670 0.000000 
#    z -0.130870 0.000000 3.768280 
# 
# 
# High freq. dielectric constant tensor:
#      x y z
#    x 1.810290 0.000000 -0.006040 
#    y 0.000000 1.824900 0.000000 
#    z -0.006040 0.000000 1.819540 
# 
# From -- ./inp_files/66832.got.cif
#   From: 2010.06.25/outbox.cif.g09.slc.cpg/sg10_34_cif.got.tgz:66832.got - 2010.06.27 22:07:45.
