data_PCOD8063608
_publ_section_title
;
Structure prediction by ZEFSAII (Michael W. Deem and Ramdas Pophale) SiO2 
 PCOD8063608
Probable space group: P 2/M
;
_chemical_formula_sum "Si O2"
_cell_formula_units_Z 28
_cell_length_a 9.349903
_cell_length_b 9.042600
_cell_length_c 29.606261
_cell_angle_alpha 90.000000
_cell_angle_beta 37.331811
_cell_angle_gamma 90.000000
_cell_volume 1517.975064
_symmetry_space_group_name_H-M "P 2/M"
_symmetry_group_IT_number 10
_symmetry_cell_setting 'monoclinic'
loop_
_space_group_symop_operation_xyz
x,y,z
-x,y,-z
-x,-y,-z
x,-y,z
loop_
_atom_site_type_symbol
_atom_site_label
_atom_site_fract_x
_atom_site_fract_y
_atom_site_fract_z
Si Si1 0.430901 0.827569 0.566859
Si Si2 0.655875 0.676494 0.002164
Si Si3 0.176463 0.671164 0.865980
Si Si4 0.731250 0.674184 0.568293
Si Si5 0.526899 0.327871 0.856519
Si Si6 0.886276 0.826936 0.704208
Si Si7 0.400277 0.675350 0.298917
O O1 0.500000 0.767936 0.500000
O O2 0.587303 0.746889 0.564476
O O3 0.158823 0.792087 0.644514
O O4 0.487445 0.000000 0.556219
O O5 0.669162 0.500000 0.000532
O O6 0.918160 0.746176 0.930647
O O7 0.500000 0.734691 0.000000
O O8 0.534404 0.733215 0.078543
O O9 0.138648 0.500000 0.865788
O O10 0.295087 0.698467 0.884607
O O11 0.347779 0.733650 0.783526
O O12 0.720623 0.500000 0.563916
O O13 0.617055 0.721481 0.644677
O O14 0.000000 0.730717 0.500000
O O15 0.598276 0.500000 0.838915
O O16 0.746697 0.236902 0.782149
O O17 0.809069 0.750165 0.676907
O O18 0.836665 0.000000 0.712147
O O19 0.374119 0.500000 0.298381
#
# Coordination Sequence:
#
# PCOD8063608 Si02
#       7
#     4   4   4   4   4   4   4
#     4  10  22  38  54  74 101 136 175 209 244 292
#     4   9  16  25  42  70  97 122 160 207 247 287
#     4   8  14  26  44  66  93 125 160 197 238 289
#     4  10  21  35  53  80 109 134 164 206 255 302
#     4   9  17  30  49  70  95 128 161 199 251 301
#     4  10  20  34  53  76 101 130 168 211 250 295
#     4   9  18  33  53  76 102 132 166 206 253 302
#
# _framework density 18.445626000000001
#
# number of rings (size 3 to 8) (size 9 to 14) (size 15 to 20)
#    0.000    2.714    0.000    2.571    0.000    5.143 
#    0.000    2.857    0.000    7.286    0.000    0.000 
#    0.000    0.000    0.000    0.000    0.000    0.000 
#
# Total GULP energy -347168.388570 kJ/mol
# GULP energy per Si atom -12398.871020 kJ/mol
# Density = 1.840364 g / cm^3
# Si number density = 18.445626 Si / 1000 Ang^3
#
#
#
# Elastic Constant Matrix: (Units=GPa)
#
#
# Indices 1 2 3 4 5 6 
#
# 1 145.8425 42.8400 93.8248 0.0000 9.4187 0.0000
# 2 42.8400 37.0972 41.0273 0.0000 -1.4155 0.0000
# 3 93.8248 41.0273 144.1237 0.0000 10.4784 0.0000
# 4 0.0000 0.0000 0.0000 20.3544 0.0000 -1.4626
# 5 9.4187 -1.4155 10.4784 0.0000 34.8326 0.0000
# 6 0.0000 0.0000 0.0000 -1.4626 0.0000 20.9847
#
#
#
# Elastic Compliance Matrix: (Units=1/GPa)
#
#
# Indices 1 2 3 4 5 6 
#
# 1 0.013577 -0.008997 -0.006118 0.000000 -0.002196 0.000000
# 2 -0.008997 0.046202 -0.007779 0.000000 0.006650 0.000000
# 3 -0.006118 -0.007779 0.013330 0.000000 -0.002672 0.000000
# 4 0.000000 0.000000 0.000000 0.049377 0.000000 0.003441
# 5 -0.002196 0.006650 -0.002672 0.000000 0.030377 0.000000
# 6 0.000000 0.000000 0.000000 0.003441 0.000000 0.047894
#
#
# Mechanical properties :
#
#
# Convention : Reuss Voigt Hill
#
# Bulk Modulus (GPa) = 36.60011 75.82750 56.21380
# Shear Modulus (GPa) = 19.55790 25.19243 22.37516
#
# Velocity S-wave (km/s) = 3.25976 3.69964 3.48664
# Velocity P-wave (km/s) = 5.83552 7.71023 6.83743
#
# Compressibility (1/GPa) = 0.02732232
#
# Stress axis : x y z
#
# Youngs Moduli (GPa) = 73.65333 21.64388 75.01876
#
# Poissons Ratio (x) = 0.19472 0.45897
# Poissons Ratio (y) = 0.66263 0.58357
# Poissons Ratio (z) = 0.45061 0.16837
#
# Static dielectric constant tensor:
#      x y z
#    x 3.379700 0.000000 0.004510 
#    y 0.000000 3.027430 0.000000 
#    z 0.004510 0.000000 3.761080 
# 
# 
# High freq. dielectric constant tensor:
#      x y z
#    x 1.714720 0.000000 0.000350 
#    y 0.000000 1.674550 0.000000 
#    z 0.000350 0.000000 1.734850 
# 
# From -- ./inp_files/37926.got.cif
#   From: 2010.06.25/outbox.cif.g09.slc.cpg/sg10_19_cif.got.tgz:37926.got - 2010.06.27 22:07:45.
