data_PCOD8063897
_publ_section_title
;
Structure prediction by ZEFSAII (Michael W. Deem and Ramdas Pophale) SiO2 
 PCOD8063897
Probable space group: P 2/M
;
_chemical_formula_sum "Si O2"
_cell_formula_units_Z 18
_cell_length_a 12.258784
_cell_length_b 11.301455
_cell_length_c 8.842507
_cell_angle_alpha 90.000000
_cell_angle_beta 49.051723
_cell_angle_gamma 90.000000
_cell_volume 925.289267
_symmetry_space_group_name_H-M "P 2/M"
_symmetry_group_IT_number 10
_symmetry_cell_setting 'monoclinic'
loop_
_space_group_symop_operation_xyz
x,y,z
-x,y,-z
-x,-y,-z
x,-y,z
loop_
_atom_site_type_symbol
_atom_site_label
_atom_site_fract_x
_atom_site_fract_y
_atom_site_fract_z
Si Si1 0.664916 0.245937 0.358146
Si Si2 0.000000 0.306629 0.500000
Si Si3 0.229239 0.500000 0.754718
Si Si4 0.044593 0.500000 0.211591
Si Si5 0.109516 0.866251 0.022572
Si Si6 0.151047 0.865551 0.541343
O O1 0.500000 0.205122 0.500000
O O2 0.673253 0.386427 0.371216
O O3 0.739992 0.175821 0.427818
O O4 0.743780 0.210140 0.127407
O O5 0.048479 0.384088 0.312332
O O6 0.143995 0.227380 0.409460
O O7 0.097636 0.500000 0.759254
O O8 0.180319 0.500000 0.974639
O O9 0.021489 0.861551 0.258271
O O10 0.149640 0.000000 0.939999
O O11 0.000000 0.809992 0.000000
O O12 0.192044 0.000000 0.455963
#
# Coordination Sequence:
#
# PCOD8063897 Si02
#       6
#     4   2   2   2   4   4
#     4  11  21  33  54  82 117 146 186 231 275 325
#     4  11  19  36  56  92 111 139 182 240 276 331
#     4  11  21  38  53  84 110 147 185 237 276 331
#     4  10  22  34  63  82 109 142 190 234 285 317
#     4   8  16  31  51  77 107 140 180 223 267 314
#     4  10  20  34  56  84 114 147 181 226 278 330
#
# _framework density 19.453375999999999
#
# number of rings (size 3 to 8) (size 9 to 14) (size 15 to 20)
#    0.000    2.000    2.222    4.000    6.222    1.778 
#    0.000    0.000    0.000    6.667    0.000    9.333 
#    0.000    0.000    0.000    0.000    0.000    0.000 
#
# Total GULP energy -223007.975866 kJ/mol
# GULP energy per Si atom -12389.331993 kJ/mol
# Density = 1.940910 g / cm^3
# Si number density = 19.453376 Si / 1000 Ang^3
#
#
#
# Elastic Constant Matrix: (Units=GPa)
#
#
# Indices 1 2 3 4 5 6 
#
# 1 93.7036 48.9210 40.2712 0.0000 -3.9186 0.0000
# 2 48.9210 135.9483 23.3324 0.0000 -0.9503 0.0000
# 3 40.2712 23.3324 57.5067 0.0000 -9.2127 0.0000
# 4 0.0000 0.0000 0.0000 448.0019 0.0000 -88.2472
# 5 -3.9186 -0.9503 -9.2127 0.0000 36.3263 0.0000
# 6 0.0000 0.0000 0.0000 -88.2472 0.0000 40.7274
#
#
#
# Elastic Compliance Matrix: (Units=1/GPa)
#
#
# Indices 1 2 3 4 5 6 
#
# 1 0.017539 -0.004498 -0.010604 0.000000 -0.000915 0.000000
# 2 -0.004498 0.009074 -0.000596 0.000000 -0.000399 0.000000
# 3 -0.010604 -0.000596 0.025924 0.000000 0.005415 0.000000
# 4 0.000000 0.000000 0.000000 0.003894 0.000000 0.008438
# 5 -0.000915 -0.000399 0.005415 0.000000 0.028792 0.000000
# 6 0.000000 0.000000 0.000000 0.008438 0.000000 0.042837
#
#
# Mechanical properties :
#
#
# Convention : Reuss Voigt Hill
#
# Bulk Modulus (GPa) = 47.29902 56.91198 52.10550
# Shear Modulus (GPa) = 30.02938 116.65339 73.34138
#
# Velocity S-wave (km/s) = 3.93320 7.75215 6.14678
# Velocity P-wave (km/s) = 6.70773 10.46168 8.78750
#
# Compressibility (1/GPa) = 0.02114209
#
# Stress axis : x y z
#
# Youngs Moduli (GPa) = 57.01460 110.20789 38.57370
#
# Poissons Ratio (x) = 0.49571 0.40904
# Poissons Ratio (y) = 0.25645 0.02297
# Poissons Ratio (z) = 0.60459 0.06564
#
# Static dielectric constant tensor:
#      x y z
#    x 3.348150 0.000000 0.133340 
#    y 0.000000 3.891420 0.000000 
#    z 0.133340 0.000000 3.501420 
# 
# 
# High freq. dielectric constant tensor:
#      x y z
#    x 1.727310 0.000000 0.018330 
#    y 0.000000 1.787860 0.000000 
#    z 0.018330 0.000000 1.723400 
# 
# From -- ./inp_files/23378.got.cif
#   From: 2010.06.25/outbox.cif.g09.slc.cpg/sg10_12_cif.got.tgz:23378.got - 2010.06.27 22:07:45.
