data_PCOD8063774
_publ_section_title
;
Structure prediction by ZEFSAII (Michael W. Deem and Ramdas Pophale) SiO2 
 PCOD8063774
Probable space group: P 2/M
;
_chemical_formula_sum "Si O2"
_cell_formula_units_Z 32
_cell_length_a 12.355648
_cell_length_b 8.903977
_cell_length_c 14.492294
_cell_angle_alpha 90.000000
_cell_angle_beta 91.717174
_cell_angle_gamma 90.000000
_cell_volume 1593.645119
_symmetry_space_group_name_H-M "P 2/M"
_symmetry_group_IT_number 10
_symmetry_cell_setting 'monoclinic'
loop_
_space_group_symop_operation_xyz
x,y,z
-x,y,-z
-x,-y,-z
x,-y,z
loop_
_atom_site_type_symbol
_atom_site_label
_atom_site_fract_x
_atom_site_fract_y
_atom_site_fract_z
Si Si1 0.305278 0.826627 0.711747
Si Si2 0.108324 0.677828 0.812030
Si Si3 0.458055 0.829152 0.235737
Si Si4 0.710273 0.670234 0.663296
Si Si5 0.112167 0.177483 0.206545
Si Si6 0.618396 0.327890 0.469879
Si Si7 0.403321 0.330744 0.059249
Si Si8 0.164926 0.330431 0.017000
O O1 0.211631 0.732782 0.757752
O O2 0.414141 0.804000 0.774737
O O3 0.332381 0.772980 0.609597
O O4 0.270109 0.000000 0.707194
O O5 0.103522 0.500000 0.802514
O O6 0.001878 0.751427 0.764930
O O7 0.110541 0.725885 0.920541
O O8 0.411436 0.723570 0.314744
O O9 0.392274 0.783129 0.143209
O O10 0.430430 0.000000 0.259650
O O11 0.729166 0.500000 0.697245
O O12 0.799067 0.771703 0.716438
O O13 0.709947 0.683236 0.552645
O O14 0.137599 0.226334 0.102619
O O15 0.103933 0.000000 0.209495
O O16 0.500000 0.268910 0.500000
O O17 0.606641 0.500000 0.436120
O O18 0.428690 0.500000 0.095166
O O19 0.292761 0.327124 0.999246
O O20 0.500000 0.269014 0.000000
O O21 0.126734 0.500000 0.040136
#
# Coordination Sequence:
#
# PCOD8063774 Si02
#       8
#     4   4   4   4   4   4   4   4
#     4  11  24  40  61  92 131 165 199 251 314 372
#     4  11  24  43  66  89 120 164 214 259 302 360
#     4  11  22  35  55  87 124 162 197 242 306 364
#     4  11  22  39  64  91 121 157 203 253 298 358
#     4  12  25  41  63  91 126 163 205 257 312 366
#     4  10  21  39  65  95 123 159 206 252 301 363
#     4  10  20  34  54  82 118 162 206 249 298 357
#     4  10  21  38  61  89 120 161 212 258 300 357
#
# _framework density 20.079754000000001
#
# number of rings (size 3 to 8) (size 9 to 14) (size 15 to 20)
#    0.000    1.250    2.500    3.750    0.000    6.500 
#    0.000    0.625    0.000    3.750    0.000    0.000 
#    0.000    0.000    0.000    0.000    0.000    0.000 
#
# Total GULP energy -396801.787982 kJ/mol
# GULP energy per Si atom -12400.055874 kJ/mol
# Density = 2.003405 g / cm^3
# Si number density = 20.079754 Si / 1000 Ang^3
#
#
#
# Elastic Constant Matrix: (Units=GPa)
#
#
# Indices 1 2 3 4 5 6 
#
# 1 100.1606 48.6604 26.4214 0.0000 5.7940 0.0000
# 2 48.6604 112.2321 43.6100 0.0000 0.8855 0.0000
# 3 26.4214 43.6100 76.3804 0.0000 8.5007 0.0000
# 4 0.0000 0.0000 0.0000 -1.9826 0.0000 -8.5053
# 5 5.7940 0.8855 8.5007 0.0000 21.4418 0.0000
# 6 0.0000 0.0000 0.0000 -8.5053 0.0000 33.1890
#
#
#
# Elastic Compliance Matrix: (Units=1/GPa)
#
#
# Indices 1 2 3 4 5 6 
#
# 1 0.012959 -0.005109 -0.001255 0.000000 -0.002793 0.000000
# 2 -0.005109 0.013566 -0.006350 0.000000 0.003338 0.000000
# 3 -0.001255 -0.006350 0.017874 0.000000 -0.006485 0.000000
# 4 0.000000 0.000000 0.000000 -0.240255 0.000000 -0.061570
# 5 -0.002793 0.003338 -0.006485 0.000000 0.049826 0.000000
# 6 0.000000 0.000000 0.000000 -0.061570 0.000000 0.014352
#
#
# Mechanical properties :
#
#
# Convention : Reuss Voigt Hill
#
# Bulk Modulus (GPa) = 52.71129 58.46183 55.58656
# Shear Modulus (GPa) = -50.03605 21.86839 -14.08383
#
# Velocity S-wave (km/s) = -4.99727 3.30370 -2.65126
# Velocity P-wave (km/s) = 2.64368 6.61291 4.28611
#
# Compressibility (1/GPa) = 0.01897127
#
# Stress axis : x y z
#
# Youngs Moduli (GPa) = 77.16925 73.71267 55.94808
#
# Poissons Ratio (x) = 0.37658 0.07021
# Poissons Ratio (y) = 0.39424 0.35527
# Poissons Ratio (z) = 0.09683 0.46807
#
# Static dielectric constant tensor:
#      x y z
#    x 3.770800 0.000000 0.082430 
#    y 0.000000 3.635620 0.000000 
#    z 0.082430 0.000000 3.585750 
# 
# 
# High freq. dielectric constant tensor:
#      x y z
#    x 1.789110 0.000000 0.007660 
#    y 0.000000 1.785030 0.000000 
#    z 0.007660 0.000000 1.774310 
# 
# From -- ./inp_files/63814.got.cif
#   From: 2010.06.25/outbox.cif.g09.slc.cpg/sg10_32_cif.got.tgz:63814.got - 2010.06.27 22:07:45.
