data_PCOD8063200
_publ_section_title
;
Structure prediction by ZEFSAII (Michael W. Deem and Ramdas Pophale) SiO2 
 PCOD8063200
Probable space group: P 2/M
;
_chemical_formula_sum "Si O2"
_cell_formula_units_Z 28
_cell_length_a 14.465631
_cell_length_b 8.880098
_cell_length_c 13.377695
_cell_angle_alpha 90.000000
_cell_angle_beta 123.024437
_cell_angle_gamma 90.000000
_cell_volume 1440.812568
_symmetry_space_group_name_H-M "P 2/M"
_symmetry_group_IT_number 10
_symmetry_cell_setting 'monoclinic'
loop_
_space_group_symop_operation_xyz
x,y,z
-x,y,-z
-x,-y,-z
x,-y,z
loop_
_atom_site_type_symbol
_atom_site_label
_atom_site_fract_x
_atom_site_fract_y
_atom_site_fract_z
Si Si1 0.821292 0.320956 0.213465
Si Si2 0.258558 0.321671 0.300675
Si Si3 0.390972 0.171575 0.218700
Si Si4 0.597170 0.678920 0.984083
Si Si5 0.791092 0.322369 0.420883
Si Si6 0.942037 0.322359 0.690706
Si Si7 0.379210 0.172207 0.548874
O O1 0.820083 0.500000 0.208821
O O2 0.821489 0.267766 0.328259
O O3 0.933526 0.256575 0.228095
O O4 0.714105 0.257803 0.093465
O O5 0.262936 0.500000 0.291098
O O6 0.284779 0.246820 0.209242
O O7 0.137189 0.265592 0.266059
O O8 0.348317 0.273387 0.435761
O O9 0.423666 0.257077 0.137580
O O10 0.490802 0.183712 0.355844
O O11 0.362756 0.000000 0.175849
O O12 0.597184 0.500000 0.978030
O O13 0.500000 0.735291 0.000000
O O14 0.766106 0.500000 0.410691
O O15 0.890642 0.276943 0.553379
O O16 0.681487 0.234092 0.388372
O O17 0.948813 0.500000 0.700831
O O18 0.344385 0.000000 0.507253
#
# Coordination Sequence:
#
# PCOD8063200 Si02
#       7
#     4   4   4   4   4   4   4
#     4   9  16  29  51  77 105 135 169 213 258 298
#     4  10  20  34  55  80 103 130 168 213 255 300
#     4  11  23  37  53  73 102 140 174 207 254 308
#     4  10  21  36  55  79 104 132 171 216 254 292
#     4   9  16  28  51  80 106 134 169 209 252 301
#     4   8  15  28  49  79 107 131 164 207 257 306
#     4  10  20  33  50  75 107 139 168 203 254 311
#
# _framework density 19.433478000000001
#
# number of rings (size 3 to 8) (size 9 to 14) (size 15 to 20)
#    0.000    2.429    0.000    3.857    0.000    7.143 
#    0.000    1.429    0.000   16.286    0.000    0.000 
#    0.000    0.000    0.000    0.000    0.000    0.000 
#
# Total GULP energy -347130.939307 kJ/mol
# GULP energy per Si atom -12397.533547 kJ/mol
# Density = 1.938925 g / cm^3
# Si number density = 19.433478 Si / 1000 Ang^3
#
#
#
# Elastic Constant Matrix: (Units=GPa)
#
#
# Indices 1 2 3 4 5 6 
#
# 1 148.3075 34.0258 49.6133 0.0000 -8.4235 0.0000
# 2 34.0258 33.6110 14.5384 0.0000 0.2687 0.0000
# 3 49.6133 14.5384 59.2490 0.0000 -4.4171 0.0000
# 4 0.0000 0.0000 0.0000 14.7441 0.0000 -1.6241
# 5 -8.4235 0.2687 -4.4171 0.0000 34.1243 0.0000
# 6 0.0000 0.0000 0.0000 -1.6241 0.0000 9.3129
#
#
#
# Elastic Compliance Matrix: (Units=1/GPa)
#
#
# Indices 1 2 3 4 5 6 
#
# 1 0.011123 -0.008175 -0.007168 0.000000 0.001882 0.000000
# 2 -0.008175 0.039353 -0.003014 0.000000 -0.002718 0.000000
# 3 -0.007168 -0.003014 0.023718 0.000000 0.001324 0.000000
# 4 0.000000 0.000000 0.000000 0.069152 0.000000 0.012060
# 5 0.001882 -0.002718 0.001324 0.000000 0.029962 0.000000
# 6 0.000000 0.000000 0.000000 0.012060 0.000000 0.109481
#
#
# Mechanical properties :
#
#
# Convention : Reuss Voigt Hill
#
# Bulk Modulus (GPa) = 26.67966 48.61361 37.64663
# Shear Modulus (GPa) = 15.06042 21.16894 18.11468
#
# Velocity S-wave (km/s) = 2.78685 3.30404 3.05641
# Velocity P-wave (km/s) = 4.91059 6.29486 5.64532
#
# Compressibility (1/GPa) = 0.03748174
#
# Stress axis : x y z
#
# Youngs Moduli (GPa) = 89.90343 25.41091 42.16165
#
# Poissons Ratio (x) = 0.20773 0.30221
# Poissons Ratio (y) = 0.73495 0.12706
# Poissons Ratio (z) = 0.64441 0.07658
#
# Static dielectric constant tensor:
#      x y z
#    x 4.019700 0.000000 0.074870 
#    y 0.000000 3.252220 0.000000 
#    z 0.074870 0.000000 3.393710 
# 
# 
# High freq. dielectric constant tensor:
#      x y z
#    x 1.773830 0.000000 -0.005960 
#    y 0.000000 1.723810 0.000000 
#    z -0.005960 0.000000 1.735750 
# 
# From -- ./inp_files/49494.got.cif
#   From: 2010.06.25/outbox.cif.g09.slc.cpg/sg10_25_cif.got.tgz:49494.got - 2010.06.27 22:07:45.
