data_PCOD8063987
_publ_section_title
;
Structure prediction by ZEFSAII (Michael W. Deem and Ramdas Pophale) SiO2 
 PCOD8063987
Probable space group: P 2/M
;
_chemical_formula_sum "Si O2"
_cell_formula_units_Z 28
_cell_length_a 12.083146
_cell_length_b 13.036364
_cell_length_c 9.514086
_cell_angle_alpha 90.000000
_cell_angle_beta 66.884564
_cell_angle_gamma 90.000000
_cell_volume 1378.342682
_symmetry_space_group_name_H-M "P 2/M"
_symmetry_group_IT_number 10
_symmetry_cell_setting 'monoclinic'
loop_
_space_group_symop_operation_xyz
x,y,z
-x,y,-z
-x,-y,-z
x,-y,z
loop_
_atom_site_type_symbol
_atom_site_label
_atom_site_fract_x
_atom_site_fract_y
_atom_site_fract_z
Si Si1 0.875987 0.614494 0.366784
Si Si2 0.317985 0.500000 0.170931
Si Si3 0.440776 0.500000 0.813325
Si Si4 0.123530 0.787282 0.404506
Si Si5 0.720834 0.318146 0.191035
Si Si6 0.351285 0.883352 0.206240
Si Si7 0.620228 0.120012 0.121734
Si Si8 0.135277 0.654183 0.157744
O O1 0.831800 0.500000 0.430833
O O2 0.883759 0.682640 0.502404
O O3 0.780927 0.668123 0.311550
O O4 0.004730 0.601456 0.225856
O O5 0.411916 0.500000 0.256270
O O6 0.232393 0.599047 0.211641
O O7 0.396688 0.500000 0.992754
O O8 0.392356 0.396301 0.762302
O O9 0.248054 0.846862 0.366582
O O10 0.121077 0.765213 0.237667
O O11 0.000000 0.851103 0.500000
O O12 0.683594 0.198177 0.197993
O O13 0.820407 0.344599 0.023894
O O14 0.477970 0.866958 0.219287
O O15 0.328354 0.000000 0.183526
O O16 0.350301 0.835360 0.049242
O O17 0.658339 0.000000 0.127080
#
# Coordination Sequence:
#
# PCOD8063987 Si02
#       8
#     4   2   2   4   4   4   4   4
#     4  11  23  38  53  80 122 164 202 233 287 354
#     4   9  18  29  49  82 108 141 193 243 284 330
#     4   9  20  29  48  88 115 147 180 236 308 341
#     4  10  22  36  55  86 115 155 198 240 291 339
#     4  11  20  36  58  85 124 150 194 245 297 358
#     4   9  18  37  63  90 114 145 196 251 299 344
#     4   9  19  35  64  94 114 146 194 255 300 339
#     4  10  20  34  59  80 109 156 203 248 282 340
#
# _framework density 20.314253999999998
#
# number of rings (size 3 to 8) (size 9 to 14) (size 15 to 20)
#    0.000    2.143    2.857    1.286    3.000    2.857 
#    0.000    1.429    0.000    6.000    0.000    0.000 
#    0.000    0.000    0.000    0.000    0.000    0.000 
#
# Total GULP energy -346887.713570 kJ/mol
# GULP energy per Si atom -12388.846913 kJ/mol
# Density = 2.026802 g / cm^3
# Si number density = 20.314254 Si / 1000 Ang^3
#
#
#
# Elastic Constant Matrix: (Units=GPa)
#
#
# Indices 1 2 3 4 5 6 
#
# 1 121.8463 45.6012 28.4033 0.0000 -11.9926 0.0000
# 2 45.6012 53.1463 5.2468 0.0000 -6.0174 0.0000
# 3 28.4033 5.2468 41.5045 0.0000 -13.4228 0.0000
# 4 0.0000 0.0000 0.0000 19.9301 0.0000 -2.7633
# 5 -11.9926 -6.0174 -13.4228 0.0000 36.2403 0.0000
# 6 0.0000 0.0000 0.0000 -2.7633 0.0000 37.1433
#
#
#
# Elastic Compliance Matrix: (Units=1/GPa)
#
#
# Indices 1 2 3 4 5 6 
#
# 1 0.014542 -0.011665 -0.008574 0.000000 -0.000300 0.000000
# 2 -0.011665 0.028626 0.005286 0.000000 0.002851 0.000000
# 3 -0.008574 0.005286 0.032559 0.000000 0.010100 0.000000
# 4 0.000000 0.000000 0.000000 0.050698 0.000000 0.003772
# 5 -0.000300 0.002851 0.010100 0.000000 0.031708 0.000000
# 6 0.000000 0.000000 0.000000 0.003772 0.000000 0.027203
#
#
# Mechanical properties :
#
#
# Convention : Reuss Voigt Hill
#
# Bulk Modulus (GPa) = 21.82402 41.66663 31.74533
# Shear Modulus (GPa) = 21.69042 27.81247 24.75144
#
# Velocity S-wave (km/s) = 3.27118 3.70416 3.49438
# Velocity P-wave (km/s) = 5.00340 6.23298 5.65173
#
# Compressibility (1/GPa) = 0.04582107
#
# Stress axis : x y z
#
# Youngs Moduli (GPa) = 68.76750 34.93361 30.71303
#
# Poissons Ratio (x) = 0.40749 0.26334
# Poissons Ratio (y) = 0.80216 -0.16235
# Poissons Ratio (z) = 0.58962 -0.18466
#
# Static dielectric constant tensor:
#      x y z
#    x 3.458910 0.000000 0.282400 
#    y 0.000000 3.493820 0.000000 
#    z 0.282400 0.000000 2.525470 
# 
# 
# High freq. dielectric constant tensor:
#      x y z
#    x 1.795750 0.000000 -0.020350 
#    y 0.000000 1.776570 0.000000 
#    z -0.020350 0.000000 1.771030 
# 
# From -- ./inp_files/24974.got.cif
#   From: 2010.06.25/outbox.cif.g09.slc.cpg/sg10_13_cif.got.tgz:24974.got - 2010.06.27 22:07:45.
