data_PCOD8063973
_publ_section_title
;
Structure prediction by ZEFSAII (Michael W. Deem and Ramdas Pophale) SiO2 
 PCOD8063973
Probable space group: P 2/M
;
_chemical_formula_sum "Si O2"
_cell_formula_units_Z 32
_cell_length_a 9.070547
_cell_length_b 14.083888
_cell_length_c 13.026813
_cell_angle_alpha 90.000000
_cell_angle_beta 90.000014
_cell_angle_gamma 90.000000
_cell_volume 1664.156707
_symmetry_space_group_name_H-M "P 2/M"
_symmetry_group_IT_number 10
_symmetry_cell_setting 'monoclinic'
loop_
_space_group_symop_operation_xyz
x,y,z
-x,y,-z
-x,-y,-z
x,-y,z
loop_
_atom_site_type_symbol
_atom_site_label
_atom_site_fract_x
_atom_site_fract_y
_atom_site_fract_z
Si Si1 0.334272 0.387092 0.500000
Si Si2 0.175032 0.893392 0.611333
Si Si3 0.824968 0.893392 0.611333
Si Si4 0.170918 0.393445 0.702781
Si Si5 0.828117 0.210758 0.812177
Si Si6 0.674717 0.109802 1.000000
Si Si7 0.829082 0.606555 0.702781
Si Si8 0.828118 0.789242 0.187823
O O1 0.500000 0.347374 0.500000
O O2 0.330163 0.500000 0.500000
O O3 0.253909 0.351782 0.603213
O O4 0.253909 0.351782 0.396787
O O5 0.230934 0.854073 0.500000
O O6 0.233233 0.831348 0.705380
O O7 1.000000 0.892895 0.612117
O O8 0.234389 0.000000 0.626541
O O9 0.766767 0.831348 0.705380
O O10 0.765611 0.000000 0.626541
O O11 0.223473 0.500000 0.732683
O O12 0.198088 0.324511 0.801002
O O13 0.000000 0.392620 0.672545
O O14 0.801912 0.324511 0.801002
O O15 1.000000 0.187300 0.831991
O O16 0.733775 0.165588 0.901947
O O17 0.733776 0.165588 0.098053
O O18 0.729147 0.000000 1.000000
O O19 0.500000 0.114261 0.000000
O O20 0.776528 0.500000 0.732683
#
# Coordination Sequence:
#
# PCOD8063973 Si02
#       8
#     4   4   4   4   4   4   4   4
#     4   9  17  29  47  73 108 153 196 227 261 316
#     4   8  14  25  44  74 107 132 162 214 271 317
#     4   8  14  25  44  74 107 132 162 214 271 317
#     4   9  18  32  51  79 114 147 182 230 282 323
#     4  10  20  34  58  83 105 141 189 230 270 327
#     4  11  25  43  60  79 108 142 177 227 286 337
#     4   9  18  32  51  79 114 147 182 230 282 323
#     4  10  20  34  58  83 105 141 189 230 270 327
#
# _framework density 19.228959
#
# number of rings (size 3 to 8) (size 9 to 14) (size 15 to 20)
#    0.000    2.750    0.000    2.250    1.750    4.500 
#    0.000    0.625    0.000    3.750    0.000    3.500 
#    0.000    0.000    0.000    0.000    0.000    0.000 
#
# Total GULP energy -396581.330236 kJ/mol
# GULP energy per Si atom -12393.166570 kJ/mol
# Density = 1.918519 g / cm^3
# Si number density = 19.228959 Si / 1000 Ang^3
#
#
#
# Elastic Constant Matrix: (Units=GPa)
#
#
# Indices 1 2 3 4 5 6 
#
# 1 59.0572 33.7142 43.0365 0.0000 -0.0001 0.0000
# 2 33.7142 105.4847 75.7256 0.0000 -0.0001 0.0000
# 3 43.0365 75.7256 139.0772 0.0000 -0.0002 0.0000
# 4 0.0000 0.0000 0.0000 31.4667 0.0000 0.0000
# 5 -0.0001 -0.0001 -0.0002 0.0000 9.1564 0.0000
# 6 0.0000 0.0000 0.0000 0.0000 0.0000 16.8503
#
#
#
# Elastic Compliance Matrix: (Units=1/GPa)
#
#
# Indices 1 2 3 4 5 6 
#
# 1 0.022678 -0.003629 -0.005042 0.000000 0.000000 0.000000
# 2 -0.003629 0.016144 -0.007667 0.000000 0.000000 0.000000
# 3 -0.005042 -0.007667 0.012925 0.000000 0.000000 0.000000
# 4 0.000000 0.000000 0.000000 0.031780 0.000000 0.000000
# 5 0.000000 0.000000 0.000000 0.000000 0.109214 0.000000
# 6 0.000000 0.000000 0.000000 0.000000 0.000000 0.059346
#
#
# Mechanical properties :
#
#
# Convention : Reuss Voigt Hill
#
# Bulk Modulus (GPa) = 52.43367 67.61907 60.02637
# Shear Modulus (GPa) = 17.17500 21.57084 19.37292
#
# Velocity S-wave (km/s) = 2.99186 3.35295 3.17754
# Velocity P-wave (km/s) = 6.26596 7.08740 6.68930
#
# Compressibility (1/GPa) = 0.01907171
#
# Stress axis : x y z
#
# Youngs Moduli (GPa) = 44.09466 61.94206 77.36852
#
# Poissons Ratio (x) = 0.22478 0.39008
# Poissons Ratio (y) = 0.16001 0.59321
# Poissons Ratio (z) = 0.22232 0.47493
#
# Static dielectric constant tensor:
#      x y z
#    x 3.194000 0.000000 0.000000 
#    y 0.000000 3.797870 0.000000 
#    z 0.000000 0.000000 3.875130 
# 
# 
# High freq. dielectric constant tensor:
#      x y z
#    x 1.709480 0.000000 0.000000 
#    y 0.000000 1.758600 0.000000 
#    z 0.000000 0.000000 1.735790 
# 
# From -- ./inp_files/42985.got.cif
#   From: 2010.06.25/outbox.cif.g09.slc.cpg/sg10_22_cif.got.tgz:42985.got - 2010.06.27 22:07:45.
