data_PCOD8063959
_publ_section_title
;
Structure prediction by ZEFSAII (Michael W. Deem and Ramdas Pophale) SiO2 
 PCOD8063959
Probable space group: P 2/M
;
_chemical_formula_sum "Si O2"
_cell_formula_units_Z 32
_cell_length_a 21.136207
_cell_length_b 10.262340
_cell_length_c 20.905659
_cell_angle_alpha 90.000000
_cell_angle_beta 159.035563
_cell_angle_gamma 90.000000
_cell_volume 1622.421113
_symmetry_space_group_name_H-M "P 2/M"
_symmetry_group_IT_number 10
_symmetry_cell_setting 'monoclinic'
loop_
_space_group_symop_operation_xyz
x,y,z
-x,y,-z
-x,-y,-z
x,-y,z
loop_
_atom_site_type_symbol
_atom_site_label
_atom_site_fract_x
_atom_site_fract_y
_atom_site_fract_z
Si Si1 0.461541 0.151859 0.533036
Si Si2 0.554662 0.751750 0.857391
Si Si3 0.804497 0.652897 0.531837
Si Si4 0.853069 0.647074 0.214319
Si Si5 0.411064 0.143120 0.847111
Si Si6 0.114762 0.153248 0.279023
Si Si7 0.202335 0.642058 0.701838
Si Si8 0.283363 0.849923 0.117652
O O1 0.500000 0.216061 0.500000
O O2 0.253957 0.172043 0.352753
O O3 0.594956 0.216145 0.711924
O O4 0.506026 0.000000 0.572516
O O5 0.381985 0.667456 0.679497
O O6 0.531760 0.845561 0.897554
O O7 0.617395 0.834583 0.856021
O O8 0.713782 0.654240 0.025030
O O9 0.831325 0.500000 0.576954
O O10 0.809682 0.751744 0.595636
O O11 0.959276 0.704847 0.631048
O O12 0.891319 0.500000 0.270260
O O13 0.774036 0.709243 0.205195
O O14 0.269550 0.259930 0.710497
O O15 0.322253 0.000000 0.761070
O O16 0.500000 0.162628 0.000000
O O17 0.111742 0.000000 0.298475
O O18 0.918882 0.203630 0.073817
O O19 0.299560 0.500000 0.787761
O O20 0.000000 0.618136 0.500000
O O21 0.268142 0.000000 0.119085
#
# Coordination Sequence:
#
# PCOD8063959 Si02
#       8
#     4   4   4   4   4   4   4   4
#     4   9  18  34  58  90 126 156 191 241 287 337
#     4  12  21  37  60  81 114 158 194 242 296 352
#     4  11  23  38  59  90 120 149 199 250 292 352
#     4  10  21  37  56  83 113 147 193 248 297 347
#     4  11  24  39  56  83 115 149 192 244 300 357
#     4  10  20  36  59  89 122 158 197 235 290 348
#     4  10  21  40  62  81 108 149 197 248 300 358
#     4  10  20  34  57  87 118 156 197 237 288 348
#
# _framework density 19.723607999999999
#
# number of rings (size 3 to 8) (size 9 to 14) (size 15 to 20)
#    0.000    1.625    3.750    1.500    0.000    3.500 
#    0.000    3.125    0.000    0.375    0.000    0.875 
#    0.000    0.000    0.000    0.000    0.000    0.000 
#
# Total GULP energy -396459.701748 kJ/mol
# GULP energy per Si atom -12389.365680 kJ/mol
# Density = 1.967872 g / cm^3
# Si number density = 19.723608 Si / 1000 Ang^3
#
#
#
# Elastic Constant Matrix: (Units=GPa)
#
#
# Indices 1 2 3 4 5 6 
#
# 1 137.9989 34.0467 52.3403 0.0000 0.4986 0.0000
# 2 34.0467 69.3394 19.5649 0.0000 7.4128 0.0000
# 3 52.3403 19.5649 133.3729 0.0000 4.5448 0.0000
# 4 0.0000 0.0000 0.0000 19.8778 0.0000 4.4799
# 5 0.4986 7.4128 4.5448 0.0000 33.0529 0.0000
# 6 0.0000 0.0000 0.0000 4.4799 0.0000 29.7511
#
#
#
# Elastic Compliance Matrix: (Units=1/GPa)
#
#
# Indices 1 2 3 4 5 6 
#
# 1 0.009389 -0.003842 -0.003160 0.000000 0.001154 0.000000
# 2 -0.003842 0.016936 -0.000853 0.000000 -0.003623 0.000000
# 3 -0.003160 -0.000853 0.008897 0.000000 -0.000984 0.000000
# 4 0.000000 0.000000 0.000000 0.052075 0.000000 -0.007841
# 5 0.001154 -0.003623 -0.000984 0.000000 0.031185 0.000000
# 6 0.000000 0.000000 0.000000 -0.007841 0.000000 0.034793
#
#
# Mechanical properties :
#
#
# Convention : Reuss Voigt Hill
#
# Bulk Modulus (GPa) = 51.25308 61.40166 56.32737
# Shear Modulus (GPa) = 28.49190 32.18699 30.33945
#
# Velocity S-wave (km/s) = 3.80486 4.04406 3.92628
# Velocity P-wave (km/s) = 6.73384 7.28042 7.01246
#
# Compressibility (1/GPa) = 0.01951102
#
# Stress axis : x y z
#
# Youngs Moduli (GPa) = 106.51102 59.04495 112.40131
#
# Poissons Ratio (x) = 0.22683 0.35522
# Poissons Ratio (y) = 0.40918 0.09592
# Poissons Ratio (z) = 0.33660 0.05039
#
# Static dielectric constant tensor:
#      x y z
#    x 4.445100 0.000000 -0.182350 
#    y 0.000000 3.372770 0.000000 
#    z -0.182350 0.000000 3.822560 
# 
# 
# High freq. dielectric constant tensor:
#      x y z
#    x 1.768860 0.000000 0.004760 
#    y 0.000000 1.732290 0.000000 
#    z 0.004760 0.000000 1.778460 
# 
# From -- ./inp_files/86267.got.cif
#   From: 2010.06.25/outbox.cif.g09.slc.cpg/sg10_44_cif.got.tgz:86267.got - 2010.06.27 22:07:45.
