data_PCOD8063442
_publ_section_title
;
Structure prediction by ZEFSAII (Michael W. Deem and Ramdas Pophale) SiO2 
 PCOD8063442
Probable space group: P 2/M
;
_chemical_formula_sum "Si O2"
_cell_formula_units_Z 28
_cell_length_a 13.321594
_cell_length_b 17.374193
_cell_length_c 19.525983
_cell_angle_alpha 90.000000
_cell_angle_beta 19.851162
_cell_angle_gamma 90.000000
_cell_volume 1534.663668
_symmetry_space_group_name_H-M "P 2/M"
_symmetry_group_IT_number 10
_symmetry_cell_setting 'monoclinic'
loop_
_space_group_symop_operation_xyz
x,y,z
-x,y,-z
-x,-y,-z
x,-y,z
loop_
_atom_site_type_symbol
_atom_site_label
_atom_site_fract_x
_atom_site_fract_y
_atom_site_fract_z
Si Si1 0.683748 0.908544 0.445953
Si Si2 0.619371 0.588340 0.029963
Si Si3 0.025010 0.588680 0.325972
Si Si4 0.290158 0.333180 0.355027
Si Si5 0.672006 0.157180 0.698404
Si Si6 0.355363 0.087926 0.019218
Si Si7 0.324310 0.089872 0.801273
O O1 0.500000 0.874744 0.500000
O O2 0.535123 0.873211 0.608880
O O3 0.669292 0.000000 0.454719
O O4 0.020874 0.882003 0.231768
O O5 0.673117 0.500000 0.014838
O O6 0.895600 0.616412 0.803618
O O7 0.577976 0.633365 0.129369
O O8 0.322938 0.598959 0.177238
O O9 0.924897 0.500000 0.388576
O O10 0.758439 0.635826 0.535368
O O11 0.322941 0.241672 0.336852
O O12 0.000000 0.358802 0.500000
O O13 0.525609 0.151915 0.866476
O O14 0.471440 0.103053 0.780014
O O15 0.000000 0.123980 0.500000
O O16 0.379717 0.000000 0.975201
O O17 0.500000 0.091503 0.000000
O O18 0.293266 0.000000 0.808309
O O19 0.000000 0.127817 0.000000
#
# Coordination Sequence:
#
# PCOD8063442 Si02
#       7
#     4   4   4   4   4   4   4
#     4   9  17  31  51  73  91 111 151 204 252 292
#     4   8  13  23  40  62  85 122 168 200 235 284
#     4   8  13  23  41  61  86 123 165 203 236 281
#     4   9  17  28  38  61  96 130 160 199 245 297
#     4  11  22  34  46  72 103 134 166 200 257 312
#     4  10  20  34  49  66  91 126 166 205 245 295
#     4  10  20  35  56  75  93 124 167 215 255 296
#
# _framework density 18.245038999999998
#
# number of rings (size 3 to 8) (size 9 to 14) (size 15 to 20)
#    0.000    2.714    0.000    3.429    0.000    6.286 
#   10.286    0.000    0.000    0.000    0.000    0.000 
#    0.000    2.286    0.000    3.143    0.000    2.857 
#
# Total GULP energy -346871.438684 kJ/mol
# GULP energy per Si atom -12388.265667 kJ/mol
# Density = 1.820351 g / cm^3
# Si number density = 18.245039 Si / 1000 Ang^3
#
#
#
# Elastic Constant Matrix: (Units=GPa)
#
#
# Indices 1 2 3 4 5 6 
#
# 1 73.6320 13.9686 61.1189 0.0000 7.0124 0.0000
# 2 13.9686 29.4834 37.2275 0.0000 11.0611 0.0000
# 3 61.1189 37.2275 141.8408 0.0000 20.7943 0.0000
# 4 0.0000 0.0000 0.0000 14.5208 0.0000 -1.2827
# 5 7.0124 11.0611 20.7943 0.0000 45.2458 0.0000
# 6 0.0000 0.0000 0.0000 -1.2827 0.0000 -11.9550
#
#
#
# Elastic Compliance Matrix: (Units=1/GPa)
#
#
# Indices 1 2 3 4 5 6 
#
# 1 0.021262 0.002033 -0.009800 0.000000 0.000711 0.000000
# 2 0.002033 0.052913 -0.013747 0.000000 -0.006933 0.000000
# 3 -0.009800 -0.013747 0.015189 0.000000 -0.002101 0.000000
# 4 0.000000 0.000000 0.000000 0.068220 0.000000 -0.007320
# 5 0.000711 -0.006933 -0.002101 0.000000 0.024652 0.000000
# 6 0.000000 0.000000 0.000000 -0.007320 0.000000 -0.082861
#
#
# Mechanical properties :
#
#
# Convention : Reuss Voigt Hill
#
# Bulk Modulus (GPa) = 21.58122 52.17626 36.87874
# Shear Modulus (GPa) = 31.67610 18.40505 25.04057
#
# Velocity S-wave (km/s) = 4.17123 3.17956 3.70869
# Velocity P-wave (km/s) = 5.92057 6.49146 6.21258
#
# Compressibility (1/GPa) = 0.04633657
#
# Stress axis : x y z
#
# Youngs Moduli (GPa) = 47.03257 18.89886 65.83716
#
# Poissons Ratio (x) = -0.03843 0.64518
# Poissons Ratio (y) = -0.09563 0.90509
# Poissons Ratio (z) = 0.46090 0.25981
#
# Static dielectric constant tensor:
#      x y z
#    x 3.319980 0.000000 0.493110 
#    y 0.000000 3.014960 0.000000 
#    z 0.493110 0.000000 3.746700 
# 
# 
# High freq. dielectric constant tensor:
#      x y z
#    x 1.682490 0.000000 0.038690 
#    y 0.000000 1.669200 0.000000 
#    z 0.038690 0.000000 1.707750 
# 
# From -- ./inp_files/77206.got.cif
#   From: 2010.06.25/outbox.cif.g09.slc.cpg/sg10_39_cif.got.tgz:77206.got - 2010.06.27 22:07:45.
