data_PCOD8063560
_publ_section_title
;
Structure prediction by ZEFSAII (Michael W. Deem and Ramdas Pophale) SiO2 
 PCOD8063560
Probable space group: P 2/M
;
_chemical_formula_sum "Si O2"
_cell_formula_units_Z 28
_cell_length_a 19.219850
_cell_length_b 7.996197
_cell_length_c 20.902864
_cell_angle_alpha 90.000000
_cell_angle_beta 152.180665
_cell_angle_gamma 90.000000
_cell_volume 1499.212628
_symmetry_space_group_name_H-M "P 2/M"
_symmetry_group_IT_number 10
_symmetry_cell_setting 'monoclinic'
loop_
_space_group_symop_operation_xyz
x,y,z
-x,y,-z
-x,-y,-z
x,-y,z
loop_
_atom_site_type_symbol
_atom_site_label
_atom_site_fract_x
_atom_site_fract_y
_atom_site_fract_z
Si Si1 0.663628 0.684917 0.816570
Si Si2 0.896314 0.809873 0.324502
Si Si3 0.802883 0.689882 0.380394
Si Si4 0.240417 0.000000 0.173220
Si Si5 0.034184 0.685948 0.859007
Si Si6 0.492905 0.190819 0.795938
Si Si7 0.936279 0.000000 0.846471
Si Si8 0.764248 0.690107 0.090302
O O1 0.635137 0.500000 0.762710
O O2 0.663608 0.832204 0.763417
O O3 0.536237 0.719478 0.765172
O O4 0.822284 0.684345 0.979505
O O5 0.812334 0.802103 0.324348
O O6 0.797906 0.715208 0.192016
O O7 0.060179 0.729834 0.461158
O O8 0.912367 0.000000 0.315886
O O9 0.814470 0.500000 0.366755
O O10 0.650635 0.717758 0.293443
O O11 0.200582 0.000000 0.215577
O O12 0.093026 0.000000 0.010284
O O13 0.958417 0.500000 0.799825
O O14 0.087275 0.730956 0.830274
O O15 0.922451 0.831744 0.792025
O O16 0.453693 0.000000 0.749400
O O17 0.626594 0.195833 0.956219
O O18 0.715076 0.500000 0.037367
#
# Coordination Sequence:
#
# PCOD8063560 Si02
#       8
#     4   4   4   2   4   4   2   4
#     4   9  16  28  43  64  95 130 166 207 254 299
#     4  11  22  37  55  76 101 133 170 213 261 308
#     4  11  22  38  55  73 102 137 168 210 263 312
#     4   9  16  26  38  66  90 133 164 206 239 309
#     4   8  16  27  42  64  94 128 166 207 248 298
#     4  11  20  33  53  77 102 133 175 218 257 306
#     4   9  16  24  42  60  96 127 170 196 253 295
#     4  10  20  34  52  76 102 135 174 212 258 309
#
# _framework density 18.676472
#
# number of rings (size 3 to 8) (size 9 to 14) (size 15 to 20)
#    0.000    2.143    0.714    6.000    4.000    1.143 
#    0.000    5.714    0.000    0.000    0.000    0.000 
#    0.000    2.286    0.000    6.000    0.000    5.000 
#
# Total GULP energy -347160.134646 kJ/mol
# GULP energy per Si atom -12398.576237 kJ/mol
# Density = 1.863396 g / cm^3
# Si number density = 18.676472 Si / 1000 Ang^3
#
#
#
# Elastic Constant Matrix: (Units=GPa)
#
#
# Indices 1 2 3 4 5 6 
#
# 1 98.5135 44.4578 30.5132 0.0000 27.4898 0.0000
# 2 44.4578 119.0539 14.6949 0.0000 3.7895 0.0000
# 3 30.5132 14.6949 31.6676 0.0000 12.8890 0.0000
# 4 0.0000 0.0000 0.0000 15.2771 0.0000 0.9274
# 5 27.4898 3.7895 12.8890 0.0000 6.1209 0.0000
# 6 0.0000 0.0000 0.0000 0.9274 0.0000 30.0291
#
#
#
# Elastic Compliance Matrix: (Units=1/GPa)
#
#
# Indices 1 2 3 4 5 6 
#
# 1 -0.004276 0.002726 -0.029902 0.000000 0.080484 0.000000
# 2 0.002726 0.007630 0.005164 0.000000 -0.027841 0.000000
# 3 -0.029902 0.005164 0.032429 0.000000 0.062811 0.000000
# 4 0.000000 0.000000 0.000000 0.065581 0.000000 -0.002025
# 5 0.080484 -0.027841 0.062811 0.000000 -0.313117 0.000000
# 6 0.000000 0.000000 0.000000 -0.002025 0.000000 0.033364
#
#
# Mechanical properties :
#
#
# Convention : Reuss Voigt Hill
#
# Bulk Modulus (GPa) = -121.34957 47.61853 -36.86552
# Shear Modulus (GPa) = -36.46663 20.92335 -7.77164
#
# Velocity S-wave (km/s) = -4.42355 3.35073 -2.04211
# Velocity P-wave (km/s) = 9.55019 6.36567 5.03410
#
# Compressibility (1/GPa) = -0.00824066
#
# Stress axis : x y z
#
# Youngs Moduli (GPa) = -233.85764 131.05473 30.83636
#
# Poissons Ratio (x) = -0.35724 0.92208
# Poissons Ratio (y) = 0.63746 -0.15925
# Poissons Ratio (z) = -6.99286 -0.67680
#
# Static dielectric constant tensor:
#      x y z
#    x 3.431560 0.000000 0.079450 
#    y 0.000000 3.761890 0.000000 
#    z 0.079450 0.000000 2.876070 
# 
# 
# High freq. dielectric constant tensor:
#      x y z
#    x 1.719400 0.000000 0.008680 
#    y 0.000000 1.750080 0.000000 
#    z 0.008680 0.000000 1.661490 
# 
# From -- ./inp_files/85675.got.cif
#   From: 2010.06.25/outbox.cif.g09.slc.cpg/sg10_43_cif.got.tgz:85675.got - 2010.06.27 22:07:45.
