data_PCOD8063566
_publ_section_title
;
Structure prediction by ZEFSAII (Michael W. Deem and Ramdas Pophale) SiO2 
 PCOD8063566
Probable space group: P 2/M
;
_chemical_formula_sum "Si O2"
_cell_formula_units_Z 32
_cell_length_a 8.920452
_cell_length_b 14.434266
_cell_length_c 13.953532
_cell_angle_alpha 90.000000
_cell_angle_beta 64.075435
_cell_angle_gamma 90.000000
_cell_volume 1615.862188
_symmetry_space_group_name_H-M "P 2/M"
_symmetry_group_IT_number 10
_symmetry_cell_setting 'monoclinic'
loop_
_space_group_symop_operation_xyz
x,y,z
-x,y,-z
-x,-y,-z
x,-y,z
loop_
_atom_site_type_symbol
_atom_site_label
_atom_site_fract_x
_atom_site_fract_y
_atom_site_fract_z
Si Si1 0.814734 0.395894 0.011899
Si Si2 0.664441 0.104231 0.899809
Si Si3 0.535082 0.896240 0.726642
Si Si4 0.910598 0.264174 0.828918
Si Si5 0.335286 0.602682 0.606651
Si Si6 0.716581 0.271010 0.206176
Si Si7 0.823576 0.100994 0.496190
Si Si8 0.060488 0.716886 0.592960
O O1 0.738100 0.500000 0.027792
O O2 0.704480 0.328952 0.110652
O O3 0.820276 0.351913 0.903859
O O4 0.000000 0.402094 0.000000
O O5 0.639156 0.109024 0.794166
O O6 0.815400 0.171011 0.884657
O O7 0.710184 0.000000 0.920460
O O8 0.500000 0.139053 0.000000
O O9 0.383068 0.824831 0.772283
O O10 0.669258 0.873469 0.607336
O O11 0.461260 0.000000 0.733353
O O12 0.094190 0.249256 0.819427
O O13 0.911991 0.283314 0.713431
O O14 0.500000 0.603288 0.500000
O O15 0.292118 0.500000 0.656236
O O16 0.366061 0.667200 0.688691
O O17 0.183362 0.633068 0.581136
O O18 0.838506 0.185893 0.417651
O O19 0.000000 0.096456 0.500000
O O20 0.792312 0.000000 0.455660
O O21 0.000000 0.707601 0.500000
#
# Coordination Sequence:
#
# PCOD8063566 Si02
#       8
#     4   4   4   4   4   4   4   4
#     4   9  18  35  58  81 106 141 186 232 279 330
#     4  10  20  34  52  76 109 147 183 220 267 326
#     4  10  20  34  55  82 112 148 185 222 269 326
#     4  10  21  34  55  84 109 141 183 230 278 325
#     4  10  21  36  54  79 110 144 183 226 274 328
#     4  10  20  36  59  83 112 145 182 229 278 325
#     4   9  17  31  52  77 106 142 183 221 259 313
#     4  10  20  34  54  80 110 144 181 223 276 329
#
# _framework density 19.803667999999998
#
# number of rings (size 3 to 8) (size 9 to 14) (size 15 to 20)
#    0.000    2.250    0.000    3.375    0.000    5.250 
#    0.000    1.875    0.000   15.375    0.000    0.000 
#    0.000    0.000    0.000    0.000    0.000    0.000 
#
# Total GULP energy -396639.578810 kJ/mol
# GULP energy per Si atom -12394.986838 kJ/mol
# Density = 1.975859 g / cm^3
# Si number density = 19.803668 Si / 1000 Ang^3
#
#
#
# Elastic Constant Matrix: (Units=GPa)
#
#
# Indices 1 2 3 4 5 6 
#
# 1 37.1048 41.0074 27.4337 0.0000 -9.2058 0.0000
# 2 41.0074 152.2585 66.5813 0.0000 -10.5183 0.0000
# 3 27.4337 66.5813 121.3160 0.0000 5.5851 0.0000
# 4 0.0000 0.0000 0.0000 53.1499 0.0000 2.3496
# 5 -9.2058 -10.5183 5.5851 0.0000 27.5432 0.0000
# 6 0.0000 0.0000 0.0000 2.3496 0.0000 26.1744
#
#
#
# Elastic Compliance Matrix: (Units=1/GPa)
#
#
# Indices 1 2 3 4 5 6 
#
# 1 0.043598 -0.008299 -0.005884 0.000000 0.012596 0.000000
# 2 -0.008299 0.010758 -0.004127 0.000000 0.002171 0.000000
# 3 -0.005884 -0.004127 0.012115 0.000000 -0.006000 0.000000
# 4 0.000000 0.000000 0.000000 0.018890 0.000000 -0.001696
# 5 0.012596 0.002171 -0.006000 0.000000 0.042562 0.000000
# 6 0.000000 0.000000 0.000000 -0.001696 0.000000 0.038357
#
#
# Mechanical properties :
#
#
# Convention : Reuss Voigt Hill
#
# Bulk Modulus (GPa) = 33.50113 64.52491 49.01302
# Shear Modulus (GPa) = 23.49054 33.08396 28.28725
#
# Velocity S-wave (km/s) = 3.44782 4.09173 3.78350
# Velocity P-wave (km/s) = 5.72742 7.41458 6.62493
#
# Compressibility (1/GPa) = 0.02984974
#
# Stress axis : x y z
#
# Youngs Moduli (GPa) = 22.93673 92.95578 82.54211
#
# Poissons Ratio (x) = 0.77143 0.48570
# Poissons Ratio (y) = 0.19035 0.34069
# Poissons Ratio (z) = 0.13497 0.38367
#
# Static dielectric constant tensor:
#      x y z
#    x 3.184670 0.000000 -0.044970 
#    y 0.000000 4.129520 0.000000 
#    z -0.044970 0.000000 3.840670 
# 
# 
# High freq. dielectric constant tensor:
#      x y z
#    x 1.732720 0.000000 -0.008900 
#    y 0.000000 1.785860 0.000000 
#    z -0.008900 0.000000 1.787060 
# 
# From -- ./inp_files/61817.got.cif
#   From: 2010.06.25/outbox.cif.g09.slc.cpg/sg10_31_cif.got.tgz:61817.got - 2010.06.27 22:07:45.
