data_PCOD8063267
_publ_section_title
;
Structure prediction by ZEFSAII (Michael W. Deem and Ramdas Pophale) SiO2 
 PCOD8063267
Probable space group: P 2/M
;
_chemical_formula_sum "Si O2"
_cell_formula_units_Z 24
_cell_length_a 11.396213
_cell_length_b 9.040928
_cell_length_c 21.929821
_cell_angle_alpha 90.000000
_cell_angle_beta 147.501056
_cell_angle_gamma 90.000000
_cell_volume 1213.983027
_symmetry_space_group_name_H-M "P 2/M"
_symmetry_group_IT_number 10
_symmetry_cell_setting 'monoclinic'
loop_
_space_group_symop_operation_xyz
x,y,z
-x,y,-z
-x,-y,-z
x,-y,z
loop_
_atom_site_type_symbol
_atom_site_label
_atom_site_fract_x
_atom_site_fract_y
_atom_site_fract_z
Si Si1 0.490337 0.835537 0.067602
Si Si2 0.668793 0.173910 0.336960
Si Si3 0.179128 0.825636 0.127885
Si Si4 0.053508 0.674281 0.870488
Si Si5 0.071290 0.825081 0.434974
Si Si6 0.927522 0.673815 0.261009
O O1 0.699463 0.746351 0.181815
O O2 0.487304 0.000000 0.096407
O O3 0.500000 0.850513 0.000000
O O4 0.274497 0.748365 0.992712
O O5 0.421616 0.221427 0.211719
O O6 0.840755 0.232479 0.362541
O O7 0.735727 0.226070 0.434649
O O8 0.694437 0.000000 0.348710
O O9 0.141907 0.740293 0.175077
O O10 0.163874 0.000000 0.133657
O O11 0.000000 0.774239 0.000000
O O12 0.073606 0.500000 0.888061
O O13 0.009307 0.715819 0.780556
O O14 0.106901 0.740839 0.386065
O O15 0.072857 0.000000 0.423403
O O16 0.907269 0.500000 0.259750
#
# Coordination Sequence:
#
# PCOD8063267 Si02
#       6
#     4   4   4   4   4   4
#     4   9  17  30  50  75 103 138 179 219 260 311
#     4   8  17  35  55  80 109 138 177 228 274 315
#     4  10  21  36  56  80 108 141 181 225 269 323
#     4  10  21  36  51  74 112 148 178 218 270 325
#     4   9  17  33  59  81 104 140 181 223 271 324
#     4  10  20  33  51  79 112 142 176 223 274 320
#
# _framework density 19.769634
#
# number of rings (size 3 to 8) (size 9 to 14) (size 15 to 20)
#    0.000    2.667    0.000    2.500    2.333    4.333 
#    0.000    4.167    0.000    5.000    0.000    0.000 
#    0.000    0.000    0.000    0.000    0.000    0.000 
#
# Total GULP energy -297508.977172 kJ/mol
# GULP energy per Si atom -12396.207382 kJ/mol
# Density = 1.972464 g / cm^3
# Si number density = 19.769634 Si / 1000 Ang^3
#
#
#
# Elastic Constant Matrix: (Units=GPa)
#
#
# Indices 1 2 3 4 5 6 
#
# 1 64.4024 28.8564 35.8116 0.0000 -7.6683 0.0000
# 2 28.8564 67.6809 26.4500 0.0000 -8.5833 0.0000
# 3 35.8116 26.4500 110.3524 0.0000 -10.2165 0.0000
# 4 0.0000 0.0000 0.0000 20.5319 0.0000 -3.7960
# 5 -7.6683 -8.5833 -10.2165 0.0000 33.6235 0.0000
# 6 0.0000 0.0000 0.0000 -3.7960 0.0000 26.6072
#
#
#
# Elastic Compliance Matrix: (Units=1/GPa)
#
#
# Indices 1 2 3 4 5 6 
#
# 1 0.021781 -0.007040 -0.005235 0.000000 0.001580 0.000000
# 2 -0.007040 0.018890 -0.002001 0.000000 0.002608 0.000000
# 3 -0.005235 -0.002001 0.011403 0.000000 0.001760 0.000000
# 4 0.000000 0.000000 0.000000 0.050024 0.000000 0.007137
# 5 0.001580 0.002608 0.001760 0.000000 0.031302 0.000000
# 6 0.000000 0.000000 0.000000 0.007137 0.000000 0.038602
#
#
# Mechanical properties :
#
#
# Convention : Reuss Voigt Hill
#
# Bulk Modulus (GPa) = 42.51491 47.18573 44.85032
# Shear Modulus (GPa) = 23.99288 26.24038 25.11663
#
# Velocity S-wave (km/s) = 3.48749 3.64718 3.56823
# Velocity P-wave (km/s) = 6.14562 6.45410 6.30175
#
# Compressibility (1/GPa) = 0.02352116
#
# Stress axis : x y z
#
# Youngs Moduli (GPa) = 45.91216 52.93836 87.69413
#
# Poissons Ratio (x) = 0.37271 0.45904
# Poissons Ratio (y) = 0.32324 0.17551
# Poissons Ratio (z) = 0.24033 0.10595
#
# Static dielectric constant tensor:
#      x y z
#    x 3.542580 0.000000 -0.042880 
#    y 0.000000 3.366250 0.000000 
#    z -0.042880 0.000000 3.744300 
# 
# 
# High freq. dielectric constant tensor:
#      x y z
#    x 1.761990 0.000000 -0.017200 
#    y 0.000000 1.749640 0.000000 
#    z -0.017200 0.000000 1.764500 
# 
# From -- ./inp_files/56683.got.cif
#   From: 2010.06.25/outbox.cif.g09.slc.cpg/sg10_29_cif.got.tgz:56683.got - 2010.06.27 22:07:45.
