data_PCOD8063008
_publ_section_title
;
Structure prediction by ZEFSAII (Michael W. Deem and Ramdas Pophale) SiO2 
 PCOD8063008
Probable space group: P 2/M
;
_chemical_formula_sum "Si O2"
_cell_formula_units_Z 28
_cell_length_a 16.418317
_cell_length_b 9.167445
_cell_length_c 13.853187
_cell_angle_alpha 90.000000
_cell_angle_beta 47.962474
_cell_angle_gamma 90.000000
_cell_volume 1548.616289
_symmetry_space_group_name_H-M "P 2/M"
_symmetry_group_IT_number 10
_symmetry_cell_setting 'monoclinic'
loop_
_space_group_symop_operation_xyz
x,y,z
-x,y,-z
-x,-y,-z
x,-y,z
loop_
_atom_site_type_symbol
_atom_site_label
_atom_site_fract_x
_atom_site_fract_y
_atom_site_fract_z
Si Si1 0.628871 0.172837 0.498147
Si Si2 0.733738 0.666501 0.032882
Si Si3 0.181353 0.830406 0.317867
Si Si4 0.158576 0.169608 0.560584
Si Si5 0.385862 0.827543 0.707523
Si Si6 0.056008 0.328116 0.253268
Si Si7 0.623733 0.331687 0.922016
O O1 0.727134 0.232196 0.487306
O O2 0.648179 0.223991 0.372759
O O3 0.510200 0.229190 0.630409
O O4 0.625810 0.000000 0.504129
O O5 0.728352 0.500000 0.070484
O O6 0.701762 0.763269 0.149087
O O7 0.855941 0.707262 0.900220
O O8 0.648650 0.697451 0.014222
O O9 0.153904 0.804258 0.450621
O O10 0.093388 0.743756 0.324160
O O11 0.303167 0.771039 0.203117
O O12 0.175258 0.000000 0.294909
O O13 0.059573 0.259802 0.687614
O O14 0.144540 0.000000 0.598160
O O15 0.380435 0.000000 0.720922
O O16 0.045379 0.500000 0.278624
O O17 0.648546 0.500000 0.876099
O O18 0.500000 0.287131 0.000000
#
# Coordination Sequence:
#
# PCOD8063008 Si02
#       7
#     4   4   4   4   4   4   4
#     4   8  17  34  53  78 106 131 163 210 258 306
#     4   9  19  34  51  72 101 134 167 211 258 295
#     4  10  20  32  50  77 105 135 170 213 261 299
#     4  10  20  34  53  76 106 134 168 218 262 297
#     4   9  17  33  58  78  99 134 171 203 253 315
#     4  10  21  37  53  72 103 141 177 209 250 309
#     4   9  19  34  49  70 105 143 174 207 249 303
#
# _framework density 18.080656999999999
#
# number of rings (size 3 to 8) (size 9 to 14) (size 15 to 20)
#    0.000    2.714    0.000    3.000    2.000    6.000 
#    0.000    3.571    0.000    4.286    0.000    0.000 
#    0.000    0.000    0.000    0.000    0.000    0.000 
#
# Total GULP energy -347173.051822 kJ/mol
# GULP energy per Si atom -12399.037565 kJ/mol
# Density = 1.803950 g / cm^3
# Si number density = 18.080657 Si / 1000 Ang^3
#
#
#
# Elastic Constant Matrix: (Units=GPa)
#
#
# Indices 1 2 3 4 5 6 
#
# 1 74.9943 37.0414 48.0116 0.0000 -18.0431 0.0000
# 2 37.0414 62.9850 51.5158 0.0000 -1.9740 0.0000
# 3 48.0116 51.5158 109.8837 0.0000 -3.6443 0.0000
# 4 0.0000 0.0000 0.0000 18.8430 0.0000 -7.3777
# 5 -18.0431 -1.9740 -3.6443 0.0000 22.6703 0.0000
# 6 0.0000 0.0000 0.0000 -7.3777 0.0000 20.7873
#
#
#
# Elastic Compliance Matrix: (Units=1/GPa)
#
#
# Indices 1 2 3 4 5 6 
#
# 1 0.027233 -0.010056 -0.006529 0.000000 0.019749 0.000000
# 2 -0.010056 0.029467 -0.009653 0.000000 -0.006990 0.000000
# 3 -0.006529 -0.009653 0.016366 0.000000 -0.003406 0.000000
# 4 0.000000 0.000000 0.000000 0.061635 0.000000 0.021875
# 5 0.019749 -0.006990 -0.003406 0.000000 0.058673 0.000000
# 6 0.000000 0.000000 0.000000 0.021875 0.000000 0.055870
#
#
# Mechanical properties :
#
#
# Convention : Reuss Voigt Hill
#
# Bulk Modulus (GPa) = 48.56943 57.88897 53.22920
# Shear Modulus (GPa) = 16.20309 19.87972 18.04140
#
# Velocity S-wave (km/s) = 2.99683 3.31947 3.16227
# Velocity P-wave (km/s) = 6.23664 6.83948 6.54500
#
# Compressibility (1/GPa) = 0.02058908
#
# Stress axis : x y z
#
# Youngs Moduli (GPa) = 36.72000 33.93657 61.10323
#
# Poissons Ratio (x) = 0.34128 0.39896
# Poissons Ratio (y) = 0.36927 0.58980
# Poissons Ratio (z) = 0.23976 0.32757
#
# Static dielectric constant tensor:
#      x y z
#    x 3.470800 0.000000 -0.199850 
#    y 0.000000 3.175700 0.000000 
#    z -0.199850 0.000000 3.355070 
# 
# 
# High freq. dielectric constant tensor:
#      x y z
#    x 1.693650 0.000000 -0.011300 
#    y 0.000000 1.685840 0.000000 
#    z -0.011300 0.000000 1.702360 
# 
# From -- ./inp_files/63682.got.cif
#   From: 2010.06.25/outbox.cif.g09.slc.cpg/sg10_32_cif.got.tgz:63682.got - 2010.06.27 22:07:45.
