data_PCOD8063316
_publ_section_title
;
Structure prediction by ZEFSAII (Michael W. Deem and Ramdas Pophale) SiO2 
 PCOD8063316
Probable space group: P 2/M
;
_chemical_formula_sum "Si O2"
_cell_formula_units_Z 28
_cell_length_a 18.709397
_cell_length_b 8.967249
_cell_length_c 14.250621
_cell_angle_alpha 90.000000
_cell_angle_beta 139.772499
_cell_angle_gamma 90.000000
_cell_volume 1544.070549
_symmetry_space_group_name_H-M "P 2/M"
_symmetry_group_IT_number 10
_symmetry_cell_setting 'monoclinic'
loop_
_space_group_symop_operation_xyz
x,y,z
-x,y,-z
-x,-y,-z
x,-y,z
loop_
_atom_site_type_symbol
_atom_site_label
_atom_site_fract_x
_atom_site_fract_y
_atom_site_fract_z
Si Si1 0.129212 0.338281 0.122130
Si Si2 0.509187 0.673620 0.400915
Si Si3 0.484711 0.828422 0.091403
Si Si4 0.324983 0.326673 0.067841
Si Si5 0.671149 0.828203 0.424849
Si Si6 0.118686 0.324348 0.318387
Si Si7 0.884300 0.824779 0.075356
O O1 0.183997 0.500000 0.150378
O O2 0.166612 0.285203 0.262432
O O3 0.155710 0.216254 0.070190
O O4 0.000000 0.365271 0.000000
O O5 0.500000 0.724248 0.500000
O O6 0.539594 0.500000 0.423720
O O7 0.394164 0.708388 0.232078
O O8 0.607786 0.764068 0.451757
O O9 0.392252 0.723793 0.044054
O O10 0.600551 0.804530 0.260217
O O11 0.445932 0.000000 0.060068
O O12 0.500000 0.777777 0.000000
O O13 0.297217 0.500000 0.031454
O O14 0.210615 0.235339 0.951261
O O15 0.787058 0.743681 0.520258
O O16 0.696386 0.000000 0.470105
O O17 0.104979 0.500000 0.320093
O O18 0.000417 0.249766 0.219449
O O19 0.897115 0.000000 0.097725
#
# Coordination Sequence:
#
# PCOD8063316 Si02
#       7
#     4   4   4   4   4   4   4
#     4   8  16  30  45  63  92 137 183 215 248 295
#     4   9  19  34  50  70 100 143 181 211 255 310
#     4   9  19  38  61  82 106 135 168 213 270 325
#     4  10  20  34  53  78 107 138 178 218 259 314
#     4  10  20  33  52  80 107 133 173 219 263 311
#     4  10  20  34  51  71 103 144 182 217 259 310
#     4  11  21  32  49  74 106 140 179 222 263 305
#
# _framework density 18.133886
#
# number of rings (size 3 to 8) (size 9 to 14) (size 15 to 20)
#    0.000    2.429    0.000    3.429    2.000    4.857 
#    0.000    0.000    0.000    0.857    0.000    6.000 
#    0.000    0.000    0.000    0.000    0.000    0.000 
#
# Total GULP energy -347154.245136 kJ/mol
# GULP energy per Si atom -12398.365898 kJ/mol
# Density = 1.809261 g / cm^3
# Si number density = 18.133886 Si / 1000 Ang^3
#
#
#
# Elastic Constant Matrix: (Units=GPa)
#
#
# Indices 1 2 3 4 5 6 
#
# 1 93.3272 55.6482 59.5416 0.0000 -0.1186 0.0000
# 2 55.6482 115.9445 53.5176 0.0000 16.1250 0.0000
# 3 59.5416 53.5176 88.6968 0.0000 11.6130 0.0000
# 4 0.0000 0.0000 0.0000 22.9220 0.0000 3.8605
# 5 -0.1186 16.1250 11.6130 0.0000 31.4743 0.0000
# 6 0.0000 0.0000 0.0000 3.8605 0.0000 31.0719
#
#
#
# Elastic Compliance Matrix: (Units=1/GPa)
#
#
# Indices 1 2 3 4 5 6 
#
# 1 0.022119 -0.006053 -0.012203 0.000000 0.007687 0.000000
# 2 -0.006053 0.014021 -0.003628 0.000000 -0.005867 0.000000
# 3 -0.012203 -0.003628 0.022505 0.000000 -0.006491 0.000000
# 4 0.000000 0.000000 0.000000 0.044559 0.000000 -0.005536
# 5 0.007687 -0.005867 -0.006491 0.000000 0.037202 0.000000
# 6 0.000000 0.000000 0.000000 -0.005536 0.000000 0.032871
#
#
# Mechanical properties :
#
#
# Convention : Reuss Voigt Hill
#
# Bulk Modulus (GPa) = 67.21735 70.59813 68.90774
# Shear Modulus (GPa) = 22.52225 25.71105 24.11665
#
# Velocity S-wave (km/s) = 3.52802 3.76951 3.65077
# Velocity P-wave (km/s) = 7.33101 7.61326 7.47347
#
# Compressibility (1/GPa) = 0.01487711
#
# Stress axis : x y z
#
# Youngs Moduli (GPa) = 45.21013 71.32372 44.43431
#
# Poissons Ratio (x) = 0.43169 0.54222
# Poissons Ratio (y) = 0.27364 0.16123
# Poissons Ratio (z) = 0.55169 0.25879
#
# Static dielectric constant tensor:
#      x y z
#    x 3.166520 0.000000 0.001330 
#    y 0.000000 3.344350 0.000000 
#    z 0.001330 0.000000 3.452950 
# 
# 
# High freq. dielectric constant tensor:
#      x y z
#    x 1.678510 0.000000 0.018450 
#    y 0.000000 1.707660 0.000000 
#    z 0.018450 0.000000 1.694100 
# 
# From -- ./inp_files/68682.got.cif
#   From: 2010.06.25/outbox.cif.g09.slc.cpg/sg10_35_cif.got.tgz:68682.got - 2010.06.27 22:07:45.
