data_PCOD8063408
_publ_section_title
;
Structure prediction by ZEFSAII (Michael W. Deem and Ramdas Pophale) SiO2 
 PCOD8063408
Probable space group: P 2/M
;
_chemical_formula_sum "Si O2"
_cell_formula_units_Z 28
_cell_length_a 14.509961
_cell_length_b 8.635389
_cell_length_c 11.741906
_cell_angle_alpha 90.000000
_cell_angle_beta 69.867679
_cell_angle_gamma 90.000000
_cell_volume 1381.357854
_symmetry_space_group_name_H-M "P 2/M"
_symmetry_group_IT_number 10
_symmetry_cell_setting 'monoclinic'
loop_
_space_group_symop_operation_xyz
x,y,z
-x,y,-z
-x,-y,-z
x,-y,z
loop_
_atom_site_type_symbol
_atom_site_label
_atom_site_fract_x
_atom_site_fract_y
_atom_site_fract_z
Si Si1 0.868767 0.322547 0.109408
Si Si2 0.704759 0.318395 0.678920
Si Si3 0.087629 0.183264 0.384247
Si Si4 0.479379 0.315834 0.383766
Si Si5 0.956127 0.818015 0.851378
Si Si6 0.345921 0.679137 0.847813
Si Si7 0.387177 0.179855 0.060551
O O1 0.900989 0.500000 0.111083
O O2 0.753378 0.301770 0.183391
O O3 0.929153 0.218613 0.173368
O O4 0.890471 0.272406 0.970511
O O5 0.720298 0.500000 0.663684
O O6 0.808582 0.238608 0.610146
O O7 0.626537 0.260327 0.617289
O O8 0.663769 0.278601 0.820235
O O9 0.072883 0.242757 0.261417
O O10 0.000000 0.250455 0.500000
O O11 0.085297 0.000000 0.387673
O O12 0.500000 0.245868 0.500000
O O13 0.484905 0.500000 0.385313
O O14 0.563999 0.253712 0.263771
O O15 0.937440 0.000000 0.871767
O O16 0.363113 0.500000 0.874309
O O17 0.333450 0.781489 0.965818
O O18 0.374684 0.000000 0.095644
O O19 0.500000 0.229754 0.000000
#
# Coordination Sequence:
#
# PCOD8063408 Si02
#       7
#     4   4   4   4   4   4   4
#     4  10  20  33  55  84 113 144 180 234 291 334
#     4  11  22  37  62  89 115 150 191 241 289 337
#     4  10  23  42  61  82 115 156 194 237 289 342
#     4   9  19  36  56  80 113 150 186 226 280 340
#     4  10  20  36  57  79 108 148 188 229 282 342
#     4  10  20  35  56  83 114 149 188 232 283 340
#     4  11  22  35  56  85 118 153 189 234 285 339
#
# _framework density 20.269908999999998
#
# number of rings (size 3 to 8) (size 9 to 14) (size 15 to 20)
#    0.000    1.857    1.429    3.429    0.000    6.571 
#    0.000    1.429    0.000    3.857    0.000    0.000 
#    0.000    0.000    0.000    0.000    0.000    0.000 
#
# Total GULP energy -347256.633390 kJ/mol
# GULP energy per Si atom -12402.022621 kJ/mol
# Density = 2.022377 g / cm^3
# Si number density = 20.269909 Si / 1000 Ang^3
#
#
#
# Elastic Constant Matrix: (Units=GPa)
#
#
# Indices 1 2 3 4 5 6 
#
# 1 147.3617 9.1405 56.4603 0.0000 -2.5971 0.0000
# 2 9.1405 18.5947 6.6514 0.0000 0.6624 0.0000
# 3 56.4603 6.6514 95.3294 0.0000 9.9592 0.0000
# 4 0.0000 0.0000 0.0000 9.8940 0.0000 -1.7099
# 5 -2.5971 0.6624 9.9592 0.0000 34.0984 0.0000
# 6 0.0000 0.0000 0.0000 -1.7099 0.0000 29.6083
#
#
#
# Elastic Compliance Matrix: (Units=1/GPa)
#
#
# Indices 1 2 3 4 5 6 
#
# 1 0.009070 -0.002598 -0.005434 0.000000 0.002328 0.000000
# 2 -0.002598 0.055900 -0.002298 0.000000 -0.000613 0.000000
# 3 -0.005434 -0.002298 0.014345 0.000000 -0.004559 0.000000
# 4 0.000000 0.000000 0.000000 0.102090 0.000000 0.005896
# 5 0.002328 -0.000613 -0.004559 0.000000 0.030848 0.000000
# 6 0.000000 0.000000 0.000000 0.005896 0.000000 0.034115
#
#
# Mechanical properties :
#
#
# Convention : Reuss Voigt Hill
#
# Bulk Modulus (GPa) = 17.04862 45.08782 31.06822
# Shear Modulus (GPa) = 17.44728 27.32238 22.38483
#
# Velocity S-wave (km/s) = 2.93703 3.67540 3.32676
# Velocity P-wave (km/s) = 4.46437 6.34850 5.48790
#
# Compressibility (1/GPa) = 0.05865576
#
# Stress axis : x y z
#
# Youngs Moduli (GPa) = 110.25163 17.88922 69.71132
#
# Poissons Ratio (x) = 0.04647 0.37881
# Poissons Ratio (y) = 0.28641 0.16018
# Poissons Ratio (z) = 0.59910 0.04110
#
# Static dielectric constant tensor:
#      x y z
#    x 3.947280 0.000000 0.016160 
#    y 0.000000 3.449130 0.000000 
#    z 0.016160 0.000000 3.667740 
# 
# 
# High freq. dielectric constant tensor:
#      x y z
#    x 1.809890 0.000000 -0.001590 
#    y 0.000000 1.774330 0.000000 
#    z -0.001590 0.000000 1.778910 
# 
# From -- ./inp_files/49068.got.cif
#   From: 2010.06.25/outbox.cif.g09.slc.cpg/sg10_25_cif.got.tgz:49068.got - 2010.06.27 22:07:45.
