data_PCOD8063742
_publ_section_title
;
Structure prediction by ZEFSAII (Michael W. Deem and Ramdas Pophale) SiO2 
 PCOD8063742
Probable space group: P 2/M
;
_chemical_formula_sum "Si O2"
_cell_formula_units_Z 24
_cell_length_a 14.042857
_cell_length_b 9.200736
_cell_length_c 10.165846
_cell_angle_alpha 90.000000
_cell_angle_beta 90.207542
_cell_angle_gamma 90.000000
_cell_volume 1313.465652
_symmetry_space_group_name_H-M "P 2/M"
_symmetry_group_IT_number 10
_symmetry_cell_setting 'monoclinic'
loop_
_space_group_symop_operation_xyz
x,y,z
-x,y,-z
-x,-y,-z
x,-y,z
loop_
_atom_site_type_symbol
_atom_site_label
_atom_site_fract_x
_atom_site_fract_y
_atom_site_fract_z
Si Si1 0.390136 0.833286 0.030018
Si Si2 0.104738 0.328218 0.845713
Si Si3 0.298824 0.327268 0.266034
Si Si4 0.894890 0.328510 0.857652
Si Si5 0.609618 0.830288 0.493709
Si Si6 0.718566 0.830869 0.231324
O O1 0.366999 0.731267 0.152345
O O2 0.365921 0.000000 0.065891
O O3 0.500000 0.815226 0.000000
O O4 0.331765 0.779943 0.902955
O O5 0.118278 0.500000 0.834252
O O6 0.181507 0.252850 0.751077
O O7 0.997876 0.279836 0.801260
O O8 0.121210 0.269657 0.994495
O O9 0.307513 0.500000 0.271364
O O10 0.190204 0.275412 0.236918
O O11 0.328279 0.261128 0.404553
O O12 0.895344 0.500000 0.870277
O O13 0.500000 0.781311 0.500000
O O14 0.648138 0.792020 0.349763
O O15 0.619713 0.000000 0.528049
O O16 0.741510 0.000000 0.229558
#
# Coordination Sequence:
#
# PCOD8063742 Si02
#       6
#     4   4   4   4   4   4
#     4  10  20  35  55  78 106 142 181 220 269 329
#     4   9  16  32  56  78 107 145 178 213 268 327
#     4  11  21  35  56  84 111 136 178 231 273 312
#     4   8  16  31  53  80 109 143 176 212 266 330
#     4  10  22  41  59  74 105 153 189 216 265 330
#     4  10  20  34  54  81 107 136 183 231 267 312
#
# _framework density 18.272271
#
# number of rings (size 3 to 8) (size 9 to 14) (size 15 to 20)
#    0.000    2.333    1.667    2.500    0.000    4.000 
#    0.000    5.833    0.000    5.000    0.000    0.000 
#    0.000    0.000    0.000    0.000    0.000    0.000 
#
# Total GULP energy -297581.797187 kJ/mol
# GULP energy per Si atom -12399.241549 kJ/mol
# Density = 1.823068 g / cm^3
# Si number density = 18.272271 Si / 1000 Ang^3
#
#
#
# Elastic Constant Matrix: (Units=GPa)
#
#
# Indices 1 2 3 4 5 6 
#
# 1 128.5211 33.6975 28.1442 0.0000 -1.3332 0.0000
# 2 33.6975 42.7889 25.6514 0.0000 0.3561 0.0000
# 3 28.1442 25.6514 55.9303 0.0000 2.4275 0.0000
# 4 0.0000 0.0000 0.0000 24.3883 0.0000 -2.0479
# 5 -1.3332 0.3561 2.4275 0.0000 33.1914 0.0000
# 6 0.0000 0.0000 0.0000 -2.0479 0.0000 29.9825
#
#
#
# Elastic Compliance Matrix: (Units=1/GPa)
#
#
# Indices 1 2 3 4 5 6 
#
# 1 0.009970 -0.006666 -0.001987 0.000000 0.000617 0.000000
# 2 -0.006666 0.036708 -0.013495 0.000000 0.000325 0.000000
# 3 -0.001987 -0.013495 0.025145 0.000000 -0.001774 0.000000
# 4 0.000000 0.000000 0.000000 0.041240 0.000000 0.002817
# 5 0.000617 0.000325 -0.001774 0.000000 0.030279 0.000000
# 6 0.000000 0.000000 0.000000 0.002817 0.000000 0.033545
#
#
# Mechanical properties :
#
#
# Convention : Reuss Voigt Hill
#
# Bulk Modulus (GPa) = 36.32686 44.69184 40.50935
# Shear Modulus (GPa) = 21.70534 26.82891 24.26713
#
# Velocity S-wave (km/s) = 3.45031 3.83598 3.64824
# Velocity P-wave (km/s) = 5.98305 6.64316 6.32173
#
# Compressibility (1/GPa) = 0.02752784
#
# Stress axis : x y z
#
# Youngs Moduli (GPa) = 100.30084 27.24238 39.76893
#
# Poissons Ratio (x) = 0.18160 0.07900
# Poissons Ratio (y) = 0.66860 0.53668
# Poissons Ratio (z) = 0.19925 0.36764
#
# Static dielectric constant tensor:
#      x y z
#    x 3.685640 0.000000 0.135190 
#    y 0.000000 3.178940 0.000000 
#    z 0.135190 0.000000 3.275840 
# 
# 
# High freq. dielectric constant tensor:
#      x y z
#    x 1.725730 0.000000 0.002920 
#    y 0.000000 1.688240 0.000000 
#    z 0.002920 0.000000 1.692400 
# 
# From -- ./inp_files/27330.got.cif
#   From: 2010.06.25/outbox.cif.g09.slc.cpg/sg10_14_cif.got.tgz:27330.got - 2010.06.27 22:07:45.
