data_PCOD8063605
_publ_section_title
;
Structure prediction by ZEFSAII (Michael W. Deem and Ramdas Pophale) SiO2 
 PCOD8063605
Probable space group: P 2/M
;
_chemical_formula_sum "Si O2"
_cell_formula_units_Z 24
_cell_length_a 18.157715
_cell_length_b 9.140693
_cell_length_c 24.070252
_cell_angle_alpha 90.000000
_cell_angle_beta 18.776140
_cell_angle_gamma 90.000000
_cell_volume 1285.888790
_symmetry_space_group_name_H-M "P 2/M"
_symmetry_group_IT_number 10
_symmetry_cell_setting 'monoclinic'
loop_
_space_group_symop_operation_xyz
x,y,z
-x,y,-z
-x,-y,-z
x,-y,z
loop_
_atom_site_type_symbol
_atom_site_label
_atom_site_fract_x
_atom_site_fract_y
_atom_site_fract_z
Si Si1 0.878148 0.335606 0.975406
Si Si2 0.491403 0.330116 0.665231
Si Si3 0.807232 0.171744 0.515150
Si Si4 0.527137 0.667175 0.807882
Si Si5 0.670572 0.831449 0.327807
Si Si6 0.194837 0.163624 0.314140
O O1 0.977330 0.500000 0.911314
O O2 0.079340 0.218868 0.831508
O O3 0.707424 0.301779 0.148099
O O4 0.743380 0.322592 0.012659
O O5 0.542868 0.500000 0.620717
O O6 0.729493 0.253976 0.514510
O O7 0.413425 0.264329 0.663139
O O8 0.650331 0.227967 0.676773
O O9 0.073346 0.203671 0.341804
O O10 0.765617 0.000000 0.537293
O O11 0.611714 0.500000 0.740485
O O12 0.595666 0.726024 0.820579
O O13 0.500000 0.805737 0.500000
O O14 0.682303 0.000000 0.301371
O O15 0.000000 0.174852 0.500000
O O16 0.295894 0.000000 0.239329
#
# Coordination Sequence:
#
# PCOD8063605 Si02
#       6
#     4   4   4   4   4   4
#     4   9  19  34  51  74 101 129 164 203 243 289
#     4  10  20  34  53  76 100 128 164 203 244 292
#     4   9  16  26  41  64  96 130 162 197 237 283
#     4   9  16  25  40  65  96 127 161 200 238 282
#     4  11  24  38  52  73  98 126 163 203 245 296
#     4   8  14  23  36  59  93 130 162 192 233 283
#
# _framework density 18.664134000000001
#
# number of rings (size 3 to 8) (size 9 to 14) (size 15 to 20)
#    0.000    2.667    0.000    4.500    0.000   11.000 
#    0.000    0.000    0.000    0.000    0.000    1.167 
#    0.000    9.333    0.000    0.000    0.000    0.000 
#
# Total GULP energy -297413.738481 kJ/mol
# GULP energy per Si atom -12392.239103 kJ/mol
# Density = 1.862165 g / cm^3
# Si number density = 18.664134 Si / 1000 Ang^3
#
#
#
# Elastic Constant Matrix: (Units=GPa)
#
#
# Indices 1 2 3 4 5 6 
#
# 1 103.3511 75.8659 57.4148 0.0000 -45.1105 0.0000
# 2 75.8659 132.3930 48.8857 0.0000 -23.7895 0.0000
# 3 57.4148 48.8857 34.5797 0.0000 -13.4542 0.0000
# 4 0.0000 0.0000 0.0000 21.1252 0.0000 -12.4506
# 5 -45.1105 -23.7895 -13.4542 0.0000 23.5923 0.0000
# 6 0.0000 0.0000 0.0000 -12.4506 0.0000 37.1157
#
#
#
# Elastic Compliance Matrix: (Units=1/GPa)
#
#
# Indices 1 2 3 4 5 6 
#
# 1 -0.044937 -0.008125 0.063588 0.000000 -0.057853 0.000000
# 2 -0.008125 0.014649 -0.009660 0.000000 -0.006273 0.000000
# 3 0.063588 -0.009660 -0.025045 0.000000 0.097563 0.000000
# 4 0.000000 0.000000 0.000000 0.059002 0.000000 0.019792
# 5 -0.057853 -0.006273 0.097563 0.000000 -0.018920 0.000000
# 6 0.000000 0.000000 0.000000 0.019792 0.000000 0.033582
#
#
# Mechanical properties :
#
#
# Convention : Reuss Voigt Hill
#
# Bulk Modulus (GPa) = 27.56755 70.51740 49.04247
# Shear Modulus (GPa) = -81.72019 22.24380 -29.73819
#
# Velocity S-wave (km/s) = -6.62417 3.45598 -3.99599
# Velocity P-wave (km/s) = 6.61089 7.33413 2.24562
#
# Compressibility (1/GPa) = 0.03627454
#
# Stress axis : x y z
#
# Youngs Moduli (GPa) = -22.25349 68.26562 -39.92836
#
# Poissons Ratio (x) = 0.55464 2.53897
# Poissons Ratio (y) = -0.18081 -0.38569
# Poissons Ratio (z) = 1.41506 0.65941
#
# Static dielectric constant tensor:
#      x y z
#    x 4.006140 0.000000 -0.658630 
#    y 0.000000 3.619730 0.000000 
#    z -0.658630 0.000000 3.100260 
# 
# 
# High freq. dielectric constant tensor:
#      x y z
#    x 1.732020 0.000000 -0.045600 
#    y 0.000000 1.737840 0.000000 
#    z -0.045600 0.000000 1.666130 
# 
# From -- ./inp_files/33973.got.cif
#   From: 2010.06.25/outbox.cif.g09.slc.cpg/sg10_17_cif.got.tgz:33973.got - 2010.06.27 22:07:45.
