data_PCOD8063885
_publ_section_title
;
Structure prediction by ZEFSAII (Michael W. Deem and Ramdas Pophale) SiO2 
 PCOD8063885
Probable space group: P 2/M
;
_chemical_formula_sum "Si O2"
_cell_formula_units_Z 28
_cell_length_a 9.271737
_cell_length_b 9.175478
_cell_length_c 27.289410
_cell_angle_alpha 90.000000
_cell_angle_beta 141.458179
_cell_angle_gamma 90.000000
_cell_volume 1446.544299
_symmetry_space_group_name_H-M "P 2/M"
_symmetry_group_IT_number 10
_symmetry_cell_setting 'monoclinic'
loop_
_space_group_symop_operation_xyz
x,y,z
-x,y,-z
-x,-y,-z
x,-y,z
loop_
_atom_site_type_symbol
_atom_site_label
_atom_site_fract_x
_atom_site_fract_y
_atom_site_fract_z
Si Si1 0.990997 0.672816 0.772984
Si Si2 0.310816 0.327353 0.487889
Si Si3 0.228732 0.663276 0.934042
Si Si4 0.227936 0.838245 0.028985
Si Si5 0.784449 0.327115 0.333985
Si Si6 0.669618 0.825772 0.206889
Si Si7 0.458258 0.328120 0.631808
O O1 0.027089 0.500000 0.774135
O O2 0.724859 0.717323 0.706094
O O3 0.110807 0.729811 0.854497
O O4 0.101872 0.759434 0.757330
O O5 0.500000 0.262861 0.500000
O O6 0.339506 0.500000 0.497741
O O7 0.354360 0.262151 0.553852
O O8 0.054483 0.284302 0.402585
O O9 0.137335 0.500000 0.916958
O O10 0.500000 0.670390 0.000000
O O11 0.156136 0.749472 0.962419
O O12 0.444029 0.772067 0.116584
O O13 0.298212 0.000000 0.030853
O O14 0.000000 0.839849 0.000000
O O15 0.746907 0.500000 0.317555
O O16 0.648577 0.241676 0.255442
O O17 0.681709 0.269582 0.358320
O O18 0.684307 0.000000 0.214112
O O19 0.429943 0.500000 0.623270
#
# Coordination Sequence:
#
# PCOD8063885 Si02
#       7
#     4   4   4   4   4   4   4
#     4  10  20  36  57  81 110 142 180 225 273 324
#     4   9  16  29  53  84 113 143 178 218 264 316
#     4  10  20  35  56  83 110 138 176 226 277 322
#     4  10  23  40  56  76 106 146 187 224 267 323
#     4  10  20  34  56  83 112 144 178 222 272 318
#     4  11  23  38  55  78 108 144 185 225 267 321
#     4   9  18  32  54  85 114 140 178 223 267 320
#
# _framework density 19.356475
#
# number of rings (size 3 to 8) (size 9 to 14) (size 15 to 20)
#    0.000    2.143    1.429    1.714    2.000    5.714 
#    0.000    0.714    0.000    5.571    0.000    0.000 
#    0.000    0.000    0.000    0.000    0.000    0.000 
#
# Total GULP energy -347209.149985 kJ/mol
# GULP energy per Si atom -12400.326785 kJ/mol
# Density = 1.931242 g / cm^3
# Si number density = 19.356475 Si / 1000 Ang^3
#
#
#
# Elastic Constant Matrix: (Units=GPa)
#
#
# Indices 1 2 3 4 5 6 
#
# 1 119.7657 26.6879 36.0395 0.0000 -12.0375 0.0000
# 2 26.6879 39.1036 20.6391 0.0000 -7.3336 0.0000
# 3 36.0395 20.6391 94.9910 0.0000 -15.4954 0.0000
# 4 0.0000 0.0000 0.0000 90.6247 0.0000 -48.0483
# 5 -12.0375 -7.3336 -15.4954 0.0000 40.4134 0.0000
# 6 0.0000 0.0000 0.0000 -48.0483 0.0000 40.4148
#
#
#
# Elastic Compliance Matrix: (Units=1/GPa)
#
#
# Indices 1 2 3 4 5 6 
#
# 1 0.010483 -0.005582 -0.002582 0.000000 0.001120 0.000000
# 2 -0.005582 0.032209 -0.004478 0.000000 0.002465 0.000000
# 3 -0.002582 -0.004478 0.013037 0.000000 0.003417 0.000000
# 4 0.000000 0.000000 0.000000 0.029850 0.000000 0.035488
# 5 0.001120 0.002465 0.003417 0.000000 0.026835 0.000000
# 6 0.000000 0.000000 0.000000 0.035488 0.000000 0.066934
#
#
# Mechanical properties :
#
#
# Convention : Reuss Voigt Hill
#
# Bulk Modulus (GPa) = 32.84607 46.73257 39.78932
# Shear Modulus (GPa) = 23.27969 45.65685 34.46827
#
# Velocity S-wave (km/s) = 3.47173 4.86195 4.22442
# Velocity P-wave (km/s) = 5.75121 7.46416 6.66296
#
# Compressibility (1/GPa) = 0.03044504
#
# Stress axis : x y z
#
# Youngs Moduli (GPa) = 95.39358 31.04767 76.70323
#
# Poissons Ratio (x) = 0.17330 0.19803
# Poissons Ratio (y) = 0.53247 0.34349
# Poissons Ratio (z) = 0.24628 0.13904
#
# Static dielectric constant tensor:
#      x y z
#    x 4.620910 0.000000 -1.518840 
#    y 0.000000 3.207110 0.000000 
#    z -1.518840 0.000000 5.743420 
# 
# 
# High freq. dielectric constant tensor:
#      x y z
#    x 1.764470 0.000000 -0.005110 
#    y 0.000000 1.706360 0.000000 
#    z -0.005110 0.000000 1.769170 
# 
# From -- ./inp_files/36921.got.cif
#   From: 2010.06.25/outbox.cif.g09.slc.cpg/sg10_19_cif.got.tgz:36921.got - 2010.06.27 22:07:45.
