data_PCOD8063842
_publ_section_title
;
Structure prediction by ZEFSAII (Michael W. Deem and Ramdas Pophale) SiO2 
 PCOD8063842
Probable space group: P 2/M
;
_chemical_formula_sum "Si O2"
_cell_formula_units_Z 24
_cell_length_a 12.403782
_cell_length_b 7.615817
_cell_length_c 24.741844
_cell_angle_alpha 90.000000
_cell_angle_beta 32.904946
_cell_angle_gamma 90.000000
_cell_volume 1269.696632
_symmetry_space_group_name_H-M "P 2/M"
_symmetry_group_IT_number 10
_symmetry_cell_setting 'monoclinic'
loop_
_space_group_symop_operation_xyz
x,y,z
-x,y,-z
-x,-y,-z
x,-y,z
loop_
_atom_site_type_symbol
_atom_site_label
_atom_site_fract_x
_atom_site_fract_y
_atom_site_fract_z
Si Si1 0.710063 0.699047 0.391329
Si Si2 0.364944 0.205488 0.263668
Si Si3 0.227781 0.198259 0.751264
Si Si4 0.051722 0.500000 0.889930
Si Si5 0.052531 0.205384 0.607429
Si Si6 0.658963 0.793195 0.604643
Si Si7 0.323416 0.500000 0.879629
O O1 0.500000 0.780762 0.500000
O O2 0.673970 0.500000 0.387988
O O3 0.791013 0.804499 0.305679
O O4 0.876147 0.704586 0.367704
O O5 0.300207 0.264956 0.351143
O O6 0.548057 0.323353 0.167374
O O7 0.179907 0.243802 0.302420
O O8 0.427536 0.000000 0.235974
O O9 0.443713 0.272645 0.676483
O O10 0.068355 0.325796 0.846140
O O11 0.192981 0.000000 0.787407
O O12 0.218080 0.500000 0.866108
O O13 0.833133 0.500000 0.006300
O O14 0.174841 0.286600 0.505269
O O15 0.094844 0.000000 0.594326
O O16 0.670855 0.000000 0.595388
#
# Coordination Sequence:
#
# PCOD8063842 Si02
#       7
#     4   4   4   2   4   4   2
#     4  11  22  34  53  85 124 159 195 234 273 332
#     4  10  21  38  58  85 118 155 195 233 284 345
#     4  11  21  37  61  84 118 155 188 234 285 337
#     4  11  24  42  59  89 114 143 196 241 300 347
#     4  10  20  34  55  83 120 161 196 227 272 340
#     4   9  17  32  55  83 118 157 188 224 275 336
#     4  11  24  40  63  84 116 148 184 251 299 341
#
# _framework density 18.902153999999999
#
# number of rings (size 3 to 8) (size 9 to 14) (size 15 to 20)
#    0.000    1.667    4.167    1.000    1.167    3.333 
#    1.500    2.500    0.000    2.000    0.000    3.500 
#    0.000    0.000    0.000    0.000    0.000    0.000 
#
# Total GULP energy -297638.504147 kJ/mol
# GULP energy per Si atom -12401.604339 kJ/mol
# Density = 1.885913 g / cm^3
# Si number density = 18.902154 Si / 1000 Ang^3
#
#
#
# Elastic Constant Matrix: (Units=GPa)
#
#
# Indices 1 2 3 4 5 6 
#
# 1 116.2439 25.5516 46.9104 0.0000 -1.3760 0.0000
# 2 25.5516 89.1510 53.4729 0.0000 -0.1536 0.0000
# 3 46.9104 53.4729 118.8207 0.0000 4.9337 0.0000
# 4 0.0000 0.0000 0.0000 21.1785 0.0000 -4.8690
# 5 -1.3760 -0.1536 4.9337 0.0000 24.7095 0.0000
# 6 0.0000 0.0000 0.0000 -4.8690 0.0000 22.7701
#
#
#
# Elastic Compliance Matrix: (Units=1/GPa)
#
#
# Indices 1 2 3 4 5 6 
#
# 1 0.010308 -0.000655 -0.003830 0.000000 0.001335 0.000000
# 2 -0.000655 0.015460 -0.006758 0.000000 0.001409 0.000000
# 3 -0.003830 -0.006758 0.013089 0.000000 -0.002869 0.000000
# 4 0.000000 0.000000 0.000000 0.049659 0.000000 0.010619
# 5 0.001335 0.001409 -0.002869 0.000000 0.041126 0.000000
# 6 0.000000 0.000000 0.000000 0.010619 0.000000 0.046188
#
#
# Mechanical properties :
#
#
# Convention : Reuss Voigt Hill
#
# Bulk Modulus (GPa) = 61.08183 64.00948 62.54566
# Shear Modulus (GPa) = 24.53718 26.95033 25.74375
#
# Velocity S-wave (km/s) = 3.60685 3.78005 3.69446
# Velocity P-wave (km/s) = 7.05200 7.27934 7.16657
#
# Compressibility (1/GPa) = 0.01637148
#
# Stress axis : x y z
#
# Youngs Moduli (GPa) = 97.01132 64.68219 76.40256
#
# Poissons Ratio (x) = 0.04234 0.29266
# Poissons Ratio (y) = 0.06350 0.51630
# Poissons Ratio (z) = 0.37160 0.43710
#
# Static dielectric constant tensor:
#      x y z
#    x 3.419690 0.000000 0.035550 
#    y 0.000000 3.435570 0.000000 
#    z 0.035550 0.000000 3.244590 
# 
# 
# High freq. dielectric constant tensor:
#      x y z
#    x 1.733820 0.000000 0.003150 
#    y 0.000000 1.736800 0.000000 
#    z 0.003150 0.000000 1.701610 
# 
# From -- ./inp_files/45217.got.cif
#   From: 2010.06.25/outbox.cif.g09.slc.cpg/sg10_23_cif.got.tgz:45217.got - 2010.06.27 22:07:45.
