data_PCOD8063500
_publ_section_title
;
Structure prediction by ZEFSAII (Michael W. Deem and Ramdas Pophale) SiO2 
 PCOD8063500
Probable space group: P 2/M
;
_chemical_formula_sum "Si O2"
_cell_formula_units_Z 28
_cell_length_a 28.276932
_cell_length_b 9.031772
_cell_length_c 9.960222
_cell_angle_alpha 90.000000
_cell_angle_beta 37.010482
_cell_angle_gamma 90.000000
_cell_volume 1531.238052
_symmetry_space_group_name_H-M "P 2/M"
_symmetry_group_IT_number 10
_symmetry_cell_setting 'monoclinic'
loop_
_space_group_symop_operation_xyz
x,y,z
-x,y,-z
-x,-y,-z
x,-y,z
loop_
_atom_site_type_symbol
_atom_site_label
_atom_site_fract_x
_atom_site_fract_y
_atom_site_fract_z
Si Si1 0.008689 0.825574 0.635762
Si Si2 0.306128 0.327077 0.166664
Si Si3 0.545682 0.825625 0.770020
Si Si4 0.125740 0.674007 0.566872
Si Si5 0.298894 0.172030 0.456356
Si Si6 0.878260 0.827622 0.144844
Si Si7 0.450389 0.825134 0.738466
O O1 0.081128 0.743150 0.541205
O O2 0.000000 0.773024 0.500000
O O3 0.024798 0.000000 0.603642
O O4 0.931696 0.782161 0.896998
O O5 0.320994 0.500000 0.131535
O O6 0.216501 0.287834 0.333621
O O7 0.326486 0.265078 0.266593
O O8 0.364574 0.250108 0.928426
O O9 0.639349 0.789101 0.564902
O O10 0.504102 0.757553 0.735026
O O11 0.533349 0.000000 0.792461
O O12 0.500000 0.757757 0.000000
O O13 0.109607 0.500000 0.610384
O O14 0.097692 0.741734 0.773505
O O15 0.210342 0.213070 0.700337
O O16 0.305043 0.000000 0.402229
O O17 0.887487 0.000000 0.158027
O O18 0.500000 0.775499 0.500000
O O19 0.437102 0.000000 0.775946
#
# Coordination Sequence:
#
# PCOD8063500 Si02
#       7
#     4   4   4   4   4   4   4
#     4  10  21  37  54  79 112 140 171 214 266 321
#     4  10  20  34  52  75 105 135 171 215 259 306
#     4   9  15  27  50  75 100 128 164 210 254 298
#     4  10  21  36  56  80 103 137 181 219 260 313
#     4   9  16  30  53  76 100 132 171 215 261 302
#     4   9  18  33  55  80 105 136 174 217 265 314
#     4  10  20  34  51  76 104 136 177 214 253 306
#
# _framework density 18.285855999999999
#
# number of rings (size 3 to 8) (size 9 to 14) (size 15 to 20)
#    0.000    2.429    1.429    1.286    0.000    4.571 
#    2.571    1.429    0.000    0.000    0.000    0.000 
#    0.000    0.000    0.000    0.000    0.000    0.000 
#
# Total GULP energy -347082.636175 kJ/mol
# GULP energy per Si atom -12395.808435 kJ/mol
# Density = 1.824424 g / cm^3
# Si number density = 18.285856 Si / 1000 Ang^3
#
#
#
# Elastic Constant Matrix: (Units=GPa)
#
#
# Indices 1 2 3 4 5 6 
#
# 1 130.8379 39.0559 74.9421 0.0000 4.3867 0.0000
# 2 39.0559 48.7559 48.8634 0.0000 0.5335 0.0000
# 3 74.9421 48.8634 142.4980 0.0000 3.2504 0.0000
# 4 0.0000 0.0000 0.0000 17.5547 0.0000 -9.0102
# 5 4.3867 0.5335 3.2504 0.0000 27.6614 0.0000
# 6 0.0000 0.0000 0.0000 -9.0102 0.0000 14.0648
#
#
#
# Elastic Compliance Matrix: (Units=1/GPa)
#
#
# Indices 1 2 3 4 5 6 
#
# 1 0.011690 -0.004902 -0.004439 0.000000 -0.001238 0.000000
# 2 -0.004902 0.033317 -0.008873 0.000000 0.001178 0.000000
# 3 -0.004439 -0.008873 0.012408 0.000000 -0.000583 0.000000
# 4 0.000000 0.000000 0.000000 0.084871 0.000000 0.054370
# 5 -0.001238 0.001178 -0.000583 0.000000 0.036394 0.000000
# 6 0.000000 0.000000 0.000000 0.054370 0.000000 0.105929
#
#
# Mechanical properties :
#
#
# Convention : Reuss Voigt Hill
#
# Bulk Modulus (GPa) = 47.64913 71.97939 59.81426
# Shear Modulus (GPa) = 15.24229 22.47156 18.85692
#
# Velocity S-wave (km/s) = 2.89027 3.50938 3.21476
# Velocity P-wave (km/s) = 6.10350 7.47461 6.82358
#
# Compressibility (1/GPa) = 0.02098674
#
# Stress axis : x y z
#
# Youngs Moduli (GPa) = 85.53958 30.01433 80.59213
#
# Poissons Ratio (x) = 0.14714 0.35774
# Poissons Ratio (y) = 0.41935 0.71512
# Poissons Ratio (z) = 0.37970 0.26633
#
# Static dielectric constant tensor:
#      x y z
#    x 3.491010 0.000000 -0.155140 
#    y 0.000000 3.172190 0.000000 
#    z -0.155140 0.000000 3.497980 
# 
# 
# High freq. dielectric constant tensor:
#      x y z
#    x 1.708270 0.000000 -0.018830 
#    y 0.000000 1.687150 0.000000 
#    z -0.018830 0.000000 1.707540 
# 
# From -- ./inp_files/36939.got.cif
#   From: 2010.06.25/outbox.cif.g09.slc.cpg/sg10_19_cif.got.tgz:36939.got - 2010.06.27 22:07:45.
