data_PCOD8063444
_publ_section_title
;
Structure prediction by ZEFSAII (Michael W. Deem and Ramdas Pophale) SiO2 
 PCOD8063444
Probable space group: P 2/M
;
_chemical_formula_sum "Si O2"
_cell_formula_units_Z 28
_cell_length_a 14.386842
_cell_length_b 8.831440
_cell_length_c 17.721729
_cell_angle_alpha 90.000000
_cell_angle_beta 136.917265
_cell_angle_gamma 90.000000
_cell_volume 1538.005718
_symmetry_space_group_name_H-M "P 2/M"
_symmetry_group_IT_number 10
_symmetry_cell_setting 'monoclinic'
loop_
_space_group_symop_operation_xyz
x,y,z
-x,y,-z
-x,-y,-z
x,-y,z
loop_
_atom_site_type_symbol
_atom_site_label
_atom_site_fract_x
_atom_site_fract_y
_atom_site_fract_z
Si Si1 0.825138 0.178027 0.677825
Si Si2 0.587724 0.171183 0.249288
Si Si3 0.640445 0.818521 0.119105
Si Si4 0.391791 0.179617 0.574189
Si Si5 0.323921 0.677888 0.274121
Si Si6 0.866894 0.821100 0.140895
Si Si7 0.724444 0.172309 0.908924
O O1 0.734071 0.226422 0.552451
O O2 0.780933 0.269427 0.724764
O O3 0.979034 0.225540 0.749132
O O4 0.812149 0.000000 0.686895
O O5 0.652032 0.246609 0.212096
O O6 0.633570 0.246931 0.356158
O O7 0.425475 0.179300 0.144790
O O8 0.639617 0.000000 0.283000
O O9 0.767846 0.753900 0.146850
O O10 0.638837 0.000000 0.120348
O O11 0.500000 0.758679 0.000000
O O12 0.530185 0.247193 0.622371
O O13 0.413755 0.000000 0.591023
O O14 0.342106 0.500000 0.287756
O O15 0.262030 0.725160 0.156963
O O16 0.846920 0.000000 0.128301
O O17 0.825551 0.762113 0.033001
O O18 0.761380 0.000000 0.908074
#
# Coordination Sequence:
#
# PCOD8063444 Si02
#       7
#     4   4   4   4   4   4   4
#     4  10  20  34  49  69 100 134 166 199 239 288
#     4   8  13  23  43  71  99 125 156 194 238 280
#     4   9  13  21  42  74 104 127 155 196 239 279
#     4   9  18  33  52  72  97 130 164 201 242 286
#     4  11  22  34  51  73  94 122 166 212 251 289
#     4   9  17  28  46  73 103 134 164 193 234 293
#     4   9  16  30  50  73 100 129 161 197 241 290
#
# _framework density 18.205393999999998
#
# number of rings (size 3 to 8) (size 9 to 14) (size 15 to 20)
#    0.000    2.714    1.429    2.571    0.000    2.857 
#    0.000    4.286    0.000    4.286    0.000   12.000 
#    0.000    5.714    0.000    0.000    0.000    0.000 
#
# Total GULP energy -347061.341831 kJ/mol
# GULP energy per Si atom -12395.047923 kJ/mol
# Density = 1.816396 g / cm^3
# Si number density = 18.205394 Si / 1000 Ang^3
#
#
#
# Elastic Constant Matrix: (Units=GPa)
#
#
# Indices 1 2 3 4 5 6 
#
# 1 138.5130 24.2522 68.0756 0.0000 -6.2788 0.0000
# 2 24.2522 27.8778 11.2920 0.0000 -1.1957 0.0000
# 3 68.0756 11.2920 91.5559 0.0000 -0.5322 0.0000
# 4 0.0000 0.0000 0.0000 5.3599 0.0000 0.6020
# 5 -6.2788 -1.1957 -0.5322 0.0000 24.5072 0.0000
# 6 0.0000 0.0000 0.0000 0.6020 0.0000 -1.6264
#
#
#
# Elastic Compliance Matrix: (Units=1/GPa)
#
#
# Indices 1 2 3 4 5 6 
#
# 1 0.012937 -0.007628 -0.008663 0.000000 0.002754 0.000000
# 2 -0.007628 0.042329 0.000452 0.000000 0.000121 0.000000
# 3 -0.008663 0.000452 0.017297 0.000000 -0.001822 0.000000
# 4 0.000000 0.000000 0.000000 0.179126 0.000000 0.066298
# 5 0.002754 0.000121 -0.001822 0.000000 0.041476 0.000000
# 6 0.000000 0.000000 0.000000 0.066298 0.000000 -0.590323
#
#
# Mechanical properties :
#
#
# Convention : Reuss Voigt Hill
#
# Bulk Modulus (GPa) = 24.45848 51.68738 38.07293
# Shear Modulus (GPa) = -19.85305 15.93659 -1.95823
#
# Velocity S-wave (km/s) = -3.30586 2.96189 -1.03825
# Velocity P-wave (km/s) = 1.05247 6.33640 4.41827
#
# Compressibility (1/GPa) = 0.04088561
#
# Stress axis : x y z
#
# Youngs Moduli (GPa) = 77.29469 23.62455 57.81308
#
# Poissons Ratio (x) = 0.18021 0.50082
# Poissons Ratio (y) = 0.58960 -0.02612
# Poissons Ratio (z) = 0.66959 -0.01067
#
# Static dielectric constant tensor:
#      x y z
#    x 3.535930 0.000000 -0.226590 
#    y 0.000000 2.813130 0.000000 
#    z -0.226590 0.000000 3.487320 
# 
# 
# High freq. dielectric constant tensor:
#      x y z
#    x 1.706980 0.000000 -0.017730 
#    y 0.000000 1.645490 0.000000 
#    z -0.017730 0.000000 1.706780 
# 
# From -- ./inp_files/68607.got.cif
#   From: 2010.06.25/outbox.cif.g09.slc.cpg/sg10_35_cif.got.tgz:68607.got - 2010.06.27 22:07:45.
