data_PCOD8063886
_publ_section_title
;
Structure prediction by ZEFSAII (Michael W. Deem and Ramdas Pophale) SiO2 
 PCOD8063886
Probable space group: P 2/M
;
_chemical_formula_sum "Si O2"
_cell_formula_units_Z 32
_cell_length_a 14.793866
_cell_length_b 9.156723
_cell_length_c 22.285505
_cell_angle_alpha 90.000000
_cell_angle_beta 31.973320
_cell_angle_gamma 90.000000
_cell_volume 1598.564411
_symmetry_space_group_name_H-M "P 2/M"
_symmetry_group_IT_number 10
_symmetry_cell_setting 'monoclinic'
loop_
_space_group_symop_operation_xyz
x,y,z
-x,y,-z
-x,-y,-z
x,-y,z
loop_
_atom_site_type_symbol
_atom_site_label
_atom_site_fract_x
_atom_site_fract_y
_atom_site_fract_z
Si Si1 0.135714 0.832760 0.239387
Si Si2 0.147828 0.829023 0.776161
Si Si3 0.399376 0.828389 0.190503
Si Si4 0.491734 0.667740 0.762525
Si Si5 0.640890 0.337409 0.971579
Si Si6 0.899393 0.328835 0.997381
Si Si7 0.227446 0.834073 0.594470
Si Si8 0.477915 0.669858 0.633986
O O1 0.230370 0.785380 0.247569
O O2 0.193186 0.737872 0.149982
O O3 0.932355 0.812304 0.360906
O O4 0.182637 0.000000 0.197860
O O5 0.164169 0.797009 0.696602
O O6 0.304245 0.756816 0.723140
O O7 0.972536 0.757434 0.898644
O O8 0.145758 0.000000 0.791250
O O9 0.381956 0.764970 0.267462
O O10 0.425962 0.000000 0.177791
O O11 0.569405 0.756176 0.066953
O O12 0.520110 0.500000 0.764069
O O13 0.542943 0.696340 0.664928
O O14 0.296684 0.714328 0.883321
O O15 0.688075 0.500000 0.968047
O O16 0.500000 0.344905 0.000000
O O17 0.924498 0.500000 0.971911
O O18 0.000000 0.278724 0.000000
O O19 0.378446 0.725345 0.492553
O O20 0.296777 0.000000 0.551701
O O21 0.442043 0.500000 0.641984
#
# Coordination Sequence:
#
# PCOD8063886 Si02
#       8
#     4   4   4   4   4   4   4   4
#     4   9  19  37  56  79 115 154 192 239 288 339
#     4  11  23  38  60  90 121 151 189 238 290 345
#     4  10  20  34  56  83 113 153 196 234 285 348
#     4  10  22  39  59  84 117 154 192 239 290 342
#     4   9  17  30  50  77 110 147 186 231 282 335
#     4  10  20  39  61  84 119 157 191 235 290 345
#     4  10  23  41  60  85 117 151 192 243 291 335
#     4  11  23  42  63  84 113 153 197 238 289 349
#
# _framework density 20.017961
#
# number of rings (size 3 to 8) (size 9 to 14) (size 15 to 20)
#    0.000    2.000    1.250    1.875    1.750    6.750 
#    0.000    0.625    0.000    3.750    0.000    0.000 
#    0.000    0.000    0.000    0.000    0.000    0.000 
#
# Total GULP energy -396876.922858 kJ/mol
# GULP energy per Si atom -12402.403839 kJ/mol
# Density = 1.997240 g / cm^3
# Si number density = 20.017961 Si / 1000 Ang^3
#
#
#
# Elastic Constant Matrix: (Units=GPa)
#
#
# Indices 1 2 3 4 5 6 
#
# 1 76.2070 31.0819 6.8606 0.0000 8.1839 0.0000
# 2 31.0819 85.3194 30.6981 0.0000 10.6698 0.0000
# 3 6.8606 30.6981 66.9304 0.0000 12.3031 0.0000
# 4 0.0000 0.0000 0.0000 23.4946 0.0000 7.3938
# 5 8.1839 10.6698 12.3031 0.0000 24.0520 0.0000
# 6 0.0000 0.0000 0.0000 7.3938 0.0000 30.6098
#
#
#
# Elastic Compliance Matrix: (Units=1/GPa)
#
#
# Indices 1 2 3 4 5 6 
#
# 1 0.015771 -0.005927 0.001772 0.000000 -0.003643 0.000000
# 2 -0.005927 0.016497 -0.006606 0.000000 -0.001923 0.000000
# 3 0.001772 -0.006606 0.019163 0.000000 -0.007475 0.000000
# 4 0.000000 0.000000 0.000000 0.046065 0.000000 -0.011127
# 5 -0.003643 -0.001923 -0.007475 0.000000 0.047493 0.000000
# 6 0.000000 0.000000 0.000000 -0.011127 0.000000 0.035357
#
#
# Mechanical properties :
#
#
# Convention : Reuss Voigt Hill
#
# Bulk Modulus (GPa) = 33.43463 40.63755 37.03609
# Shear Modulus (GPa) = 23.60295 26.28570 24.94433
#
# Velocity S-wave (km/s) = 3.43751 3.62761 3.53384
# Velocity P-wave (km/s) = 5.70034 6.15554 5.93231
#
# Compressibility (1/GPa) = 0.02990911
#
# Stress axis : x y z
#
# Youngs Moduli (GPa) = 63.40574 60.61659 52.18391
#
# Poissons Ratio (x) = 0.35930 -0.09245
# Poissons Ratio (y) = 0.37583 0.34470
# Poissons Ratio (z) = -0.11234 0.40040
#
# Static dielectric constant tensor:
#      x y z
#    x 3.761940 0.000000 0.006340 
#    y 0.000000 3.692900 0.000000 
#    z 0.006340 0.000000 3.441020 
# 
# 
# High freq. dielectric constant tensor:
#      x y z
#    x 1.789180 0.000000 -0.000080 
#    y 0.000000 1.782440 0.000000 
#    z -0.000080 0.000000 1.761380 
# 
# From -- ./inp_files/89537.got.cif
#   From: 2010.06.25/outbox.cif.g09.slc.cpg/sg10_45_cif.got.tgz:89537.got - 2010.06.27 22:07:45.
