data_PCOD8063882
_publ_section_title
;
Structure prediction by ZEFSAII (Michael W. Deem and Ramdas Pophale) SiO2 
 PCOD8063882
Probable space group: P 2/M
;
_chemical_formula_sum "Si O2"
_cell_formula_units_Z 32
_cell_length_a 27.757982
_cell_length_b 9.498065
_cell_length_c 11.844244
_cell_angle_alpha 90.000000
_cell_angle_beta 147.209952
_cell_angle_gamma 90.000000
_cell_volume 1691.136708
_symmetry_space_group_name_H-M "P 2/M"
_symmetry_group_IT_number 10
_symmetry_cell_setting 'monoclinic'
loop_
_space_group_symop_operation_xyz
x,y,z
-x,y,-z
-x,-y,-z
x,-y,z
loop_
_atom_site_type_symbol
_atom_site_label
_atom_site_fract_x
_atom_site_fract_y
_atom_site_fract_z
Si Si1 0.420993 0.658329 0.422048
Si Si2 0.724108 0.833064 0.463148
Si Si3 0.616748 0.162415 0.036293
Si Si4 0.867361 0.164811 0.296337
Si Si5 0.052040 0.836085 0.774471
Si Si6 0.081645 0.831788 0.083689
Si Si7 0.298545 0.659025 0.979948
Si Si8 0.416041 0.837754 0.632876
O O1 0.500000 0.718727 0.500000
O O2 0.445505 0.500000 0.510811
O O3 0.404517 0.757531 0.494070
O O4 0.330724 0.658074 0.172142
O O5 0.686575 0.784828 0.268206
O O6 0.824580 0.776870 0.680188
O O7 0.656533 0.773495 0.424335
O O8 0.722255 0.000000 0.465756
O O9 0.627663 0.263525 0.950695
O O10 0.635189 0.000000 0.039089
O O11 0.515262 0.179303 0.879755
O O12 0.885328 0.221097 0.203813
O O13 0.791556 0.253976 0.206295
O O14 0.950937 0.192553 0.541516
O O15 0.842403 0.000000 0.246081
O O16 0.070743 0.000000 0.819614
O O17 0.072619 0.769501 0.938196
O O18 0.079251 0.000000 0.076746
O O19 0.000000 0.775436 0.000000
O O20 0.283825 0.500000 0.907016
O O21 0.395161 0.000000 0.566442
#
# Coordination Sequence:
#
# PCOD8063882 Si02
#       8
#     4   4   4   4   4   4   4   4
#     4  10  21  38  54  72 107 147 178 214 265 319
#     4   9  19  33  51  80 113 142 172 220 275 316
#     4  10  20  35  55  79 109 144 180 221 269 317
#     4   9  18  33  55  80 107 138 174 222 268 314
#     4   8  16  31  50  78 111 138 171 216 268 319
#     4   9  17  28  46  75 110 142 171 208 261 323
#     4  11  23  36  53  78 108 143 182 222 265 319
#     4  10  20  34  56  83 109 137 178 226 270 320
#
# _framework density 18.922183
#
# number of rings (size 3 to 8) (size 9 to 14) (size 15 to 20)
#    0.000    2.500    1.250    1.500    3.500    2.750 
#    0.000    1.875    0.000    1.500    0.000    0.875 
#    0.000    0.000    0.000    0.000    0.000    0.000 
#
# Total GULP energy -396691.185184 kJ/mol
# GULP energy per Si atom -12396.599537 kJ/mol
# Density = 1.887911 g / cm^3
# Si number density = 18.922183 Si / 1000 Ang^3
#
#
#
# Elastic Constant Matrix: (Units=GPa)
#
#
# Indices 1 2 3 4 5 6 
#
# 1 96.3670 30.6638 49.3229 0.0000 5.5208 0.0000
# 2 30.6638 51.2175 28.2518 0.0000 4.0180 0.0000
# 3 49.3229 28.2518 105.2652 0.0000 -3.4291 0.0000
# 4 0.0000 0.0000 0.0000 9.6686 0.0000 4.9741
# 5 5.5208 4.0180 -3.4291 0.0000 36.2067 0.0000
# 6 0.0000 0.0000 0.0000 4.9741 0.0000 -2.2427
#
#
#
# Elastic Compliance Matrix: (Units=1/GPa)
#
#
# Indices 1 2 3 4 5 6 
#
# 1 0.015256 -0.005842 -0.005652 0.000000 -0.002213 0.000000
# 2 -0.005842 0.025515 -0.004187 0.000000 -0.002337 0.000000
# 3 -0.005652 -0.004187 0.013356 0.000000 0.002591 0.000000
# 4 0.000000 0.000000 0.000000 0.048307 0.000000 0.107143
# 5 -0.002213 -0.002337 0.002591 0.000000 0.028461 0.000000
# 6 0.000000 0.000000 0.000000 0.107143 0.000000 -0.208263
#
#
# Mechanical properties :
#
#
# Convention : Reuss Voigt Hill
#
# Bulk Modulus (GPa) = 43.92743 52.14744 48.03744
# Shear Modulus (GPa) = -130.15103 18.36726 -55.89188
#
# Velocity S-wave (km/s) = -8.30250 3.11894 -5.44076
# Velocity P-wave (km/s) = 8.28514 6.37096 3.74529
#
# Compressibility (1/GPa) = 0.02276482
#
# Stress axis : x y z
#
# Youngs Moduli (GPa) = 65.54908 39.19266 74.87076
#
# Poissons Ratio (x) = 0.22897 0.42320
# Poissons Ratio (y) = 0.38294 0.31346
# Poissons Ratio (z) = 0.37051 0.16409
#
# Static dielectric constant tensor:
#      x y z
#    x 3.621970 0.000000 -0.048640 
#    y 0.000000 3.007320 0.000000 
#    z -0.048640 0.000000 3.642930 
# 
# 
# High freq. dielectric constant tensor:
#      x y z
#    x 1.740170 0.000000 0.002120 
#    y 0.000000 1.681120 0.000000 
#    z 0.002120 0.000000 1.744690 
# 
# From -- ./inp_files/58312.got.cif
#   From: 2010.06.25/outbox.cif.g09.slc.cpg/sg10_30_cif.got.tgz:58312.got - 2010.06.27 22:07:45.
