data_PCOD8063762
_publ_section_title
;
Structure prediction by ZEFSAII (Michael W. Deem and Ramdas Pophale) SiO2 
 PCOD8063762
Probable space group: P 2/M
;
_chemical_formula_sum "Si O2"
_cell_formula_units_Z 32
_cell_length_a 23.186879
_cell_length_b 9.495322
_cell_length_c 14.287598
_cell_angle_alpha 90.000000
_cell_angle_beta 147.508531
_cell_angle_gamma 90.000000
_cell_volume 1689.764649
_symmetry_space_group_name_H-M "P 2/M"
_symmetry_group_IT_number 10
_symmetry_cell_setting 'monoclinic'
loop_
_space_group_symop_operation_xyz
x,y,z
-x,y,-z
-x,-y,-z
x,-y,z
loop_
_atom_site_type_symbol
_atom_site_label
_atom_site_fract_x
_atom_site_fract_y
_atom_site_fract_z
Si Si1 0.750377 0.659766 0.431028
Si Si2 0.077642 0.833145 0.689103
Si Si3 0.004159 0.658029 0.254834
Si Si4 0.611051 0.166811 0.105677
Si Si5 0.681590 0.664350 0.543453
Si Si6 0.681904 0.834479 0.000762
Si Si7 0.496014 0.834330 0.386338
Si Si8 0.097811 0.338153 0.078047
O O1 0.728855 0.500000 0.368764
O O2 0.876480 0.685615 0.620471
O O3 0.709754 0.764308 0.295613
O O4 0.688365 0.690844 0.442136
O O5 0.000000 0.783244 0.500000
O O6 0.026150 0.772996 0.711597
O O7 0.080243 0.000000 0.702145
O O8 0.197703 0.770460 0.838434
O O9 0.995382 0.500000 0.284472
O O10 0.919582 0.677193 0.055748
O O11 0.622408 0.000000 0.130781
O O12 0.500000 0.219839 0.000000
O O13 0.619165 0.217222 0.008437
O O14 0.664217 0.500000 0.543210
O O15 0.584190 0.752789 0.449117
O O16 0.787915 0.728244 0.738439
O O17 0.617405 0.793522 0.817908
O O18 0.693843 0.000000 0.024572
O O19 0.500000 0.785977 0.500000
O O20 0.518417 0.000000 0.408370
O O21 0.102563 0.500000 0.118381
O O22 0.000000 0.263361 0.000000
#
# Coordination Sequence:
#
# PCOD8063762 Si02
#       8
#     4   4   4   4   4   4   4   4
#     4  10  20  34  54  82 113 141 171 218 275 325
#     4  10  21  37  57  79 108 147 184 222 270 323
#     4  10  20  34  55  82 109 140 180 222 267 320
#     4  10  20  35  58  81 103 138 183 224 265 320
#     4  10  20  35  57  82 110 143 181 224 268 322
#     4   9  19  37  56  77 109 145 182 221 269 329
#     4  10  22  39  58  79 107 146 185 225 274 322
#     4   9  16  32  56  80 109 146 180 213 267 332
#
# _framework density 18.937548
#
# number of rings (size 3 to 8) (size 9 to 14) (size 15 to 20)
#    0.000    2.250    1.250    1.500    1.750    3.750 
#    0.000    1.875    0.000    0.750    0.000    0.000 
#    0.000    0.000    0.000    0.000    0.000    0.000 
#
# Total GULP energy -396776.608573 kJ/mol
# GULP energy per Si atom -12399.269018 kJ/mol
# Density = 1.889444 g / cm^3
# Si number density = 18.937548 Si / 1000 Ang^3
#
#
#
# Elastic Constant Matrix: (Units=GPa)
#
#
# Indices 1 2 3 4 5 6 
#
# 1 116.7793 26.6987 49.0589 0.0000 1.3332 0.0000
# 2 26.6987 22.1551 27.1711 0.0000 -0.2678 0.0000
# 3 49.0589 27.1711 129.1805 0.0000 -4.3700 0.0000
# 4 0.0000 0.0000 0.0000 19.3848 0.0000 5.6241
# 5 1.3332 -0.2678 -4.3700 0.0000 32.5789 0.0000
# 6 0.0000 0.0000 0.0000 5.6241 0.0000 26.0249
#
#
#
# Elastic Compliance Matrix: (Units=1/GPa)
#
#
# Indices 1 2 3 4 5 6 
#
# 1 0.012246 -0.012166 -0.002122 0.000000 -0.000886 0.000000
# 2 -0.012166 0.072962 -0.010738 0.000000 -0.000343 0.000000
# 3 -0.002122 -0.010738 0.010855 0.000000 0.001455 0.000000
# 4 0.000000 0.000000 0.000000 0.055037 0.000000 -0.011894
# 5 -0.000886 -0.000343 0.001455 0.000000 0.030923 0.000000
# 6 0.000000 0.000000 0.000000 -0.011894 0.000000 0.040995
#
#
# Mechanical properties :
#
#
# Convention : Reuss Voigt Hill
#
# Bulk Modulus (GPa) = 21.73362 52.66358 37.19860
# Shear Modulus (GPa) = 17.33663 26.61015 21.97339
#
# Velocity S-wave (km/s) = 3.02895 3.75260 3.41002
# Velocity P-wave (km/s) = 4.87176 6.82975 5.93210
#
# Compressibility (1/GPa) = 0.04601166
#
# Stress axis : x y z
#
# Youngs Moduli (GPa) = 81.65874 13.70576 92.12707
#
# Poissons Ratio (x) = 0.16675 0.19547
# Poissons Ratio (y) = 0.99347 0.98923
# Poissons Ratio (z) = 0.17326 0.14717
#
# Static dielectric constant tensor:
#      x y z
#    x 3.477500 0.000000 0.022080 
#    y 0.000000 3.122520 0.000000 
#    z 0.022080 0.000000 3.792930 
# 
# 
# High freq. dielectric constant tensor:
#      x y z
#    x 1.740550 0.000000 -0.000870 
#    y 0.000000 1.699460 0.000000 
#    z -0.000870 0.000000 1.751920 
# 
# From -- ./inp_files/71461.got.cif
#   From: 2010.06.25/outbox.cif.g09.slc.cpg/sg10_36_cif.got.tgz:71461.got - 2010.06.27 22:07:45.
