data_PCOD8063960
_publ_section_title
;
Structure prediction by ZEFSAII (Michael W. Deem and Ramdas Pophale) SiO2 
 PCOD8063960
Probable space group: P 2/M
;
_chemical_formula_sum "Si O2"
_cell_formula_units_Z 32
_cell_length_a 11.911723
_cell_length_b 12.892499
_cell_length_c 11.572536
_cell_angle_alpha 90.000000
_cell_angle_beta 63.943157
_cell_angle_gamma 90.000000
_cell_volume 1596.577516
_symmetry_space_group_name_H-M "P 2/M"
_symmetry_group_IT_number 10
_symmetry_cell_setting 'monoclinic'
loop_
_space_group_symop_operation_xyz
x,y,z
-x,y,-z
-x,-y,-z
x,-y,z
loop_
_atom_site_type_symbol
_atom_site_label
_atom_site_fract_x
_atom_site_fract_y
_atom_site_fract_z
Si Si1 0.472939 0.613473 0.223248
Si Si2 0.129872 0.879400 0.508364
Si Si3 0.109756 0.623339 0.166795
Si Si4 0.735532 0.755630 0.743224
Si Si5 0.273789 0.279663 0.890602
Si Si6 0.373446 0.385761 0.512841
Si Si7 0.853224 0.263122 0.289249
Si Si8 0.640570 0.885142 0.979006
O O1 0.477062 0.500000 0.158829
O O2 0.402427 0.701839 0.181064
O O3 0.614071 0.642906 0.196537
O O4 0.380887 0.603669 0.372821
O O5 0.231761 0.807867 0.395047
O O6 0.114309 0.838380 0.647768
O O7 0.000000 0.868069 0.500000
O O8 0.172683 0.000000 0.493366
O O9 0.114266 0.500000 0.171386
O O10 0.163954 0.669640 0.262038
O O11 0.968705 0.660869 0.219270
O O12 0.185170 0.661587 0.020729
O O13 0.734733 0.848112 0.836247
O O14 0.197321 0.236481 0.815506
O O15 0.341208 0.181118 0.914580
O O16 0.500000 0.329097 0.500000
O O17 0.364514 0.500000 0.575452
O O18 0.251646 0.322471 0.593763
O O19 0.681747 0.000000 0.993914
O O20 0.500000 0.880871 0.000000
#
# Coordination Sequence:
#
# PCOD8063960 Si02
#       8
#     4   4   4   4   4   4   4   4
#     4  11  21  35  60  93 128 166 204 248 305 374
#     4  11  24  44  67  89 119 163 212 263 323 381
#     4  11  25  41  62  93 130 173 212 254 307 367
#     4  11  21  41  64  93 123 159 208 267 311 372
#     4  11  24  40  62  91 133 169 209 256 307 372
#     4  10  20  34  57  87 121 163 200 237 298 371
#     4  12  23  41  64  93 129 162 207 260 312 371
#     4  10  21  39  63  88 118 161 210 260 314 366
#
# _framework density 20.042874000000001
#
# number of rings (size 3 to 8) (size 9 to 14) (size 15 to 20)
#    0.000    1.125    5.000    1.875    0.000    2.500 
#    0.000    2.500    0.000    3.375    0.000    0.000 
#    0.000    0.000    0.000    0.000    0.000    0.000 
#
# Total GULP energy -396687.558096 kJ/mol
# GULP energy per Si atom -12396.486191 kJ/mol
# Density = 1.999726 g / cm^3
# Si number density = 20.042874 Si / 1000 Ang^3
#
#
#
# Elastic Constant Matrix: (Units=GPa)
#
#
# Indices 1 2 3 4 5 6 
#
# 1 110.2088 53.0237 31.1200 0.0000 -1.1878 0.0000
# 2 53.0237 150.3284 51.7491 0.0000 4.7333 0.0000
# 3 31.1200 51.7491 85.7151 0.0000 4.2166 0.0000
# 4 0.0000 0.0000 0.0000 26.5384 0.0000 -6.8181
# 5 -1.1878 4.7333 4.2166 0.0000 36.6567 0.0000
# 6 0.0000 0.0000 0.0000 -6.8181 0.0000 24.9206
#
#
#
# Elastic Compliance Matrix: (Units=1/GPa)
#
#
# Indices 1 2 3 4 5 6 
#
# 1 0.011266 -0.003258 -0.002174 0.000000 0.001036 0.000000
# 2 -0.003258 0.009349 -0.004422 0.000000 -0.000804 0.000000
# 3 -0.002174 -0.004422 0.015187 0.000000 -0.001246 0.000000
# 4 0.000000 0.000000 0.000000 0.040530 0.000000 0.011089
# 5 0.001036 -0.000804 -0.001246 0.000000 0.027561 0.000000
# 6 0.000000 0.000000 0.000000 0.011089 0.000000 0.043161
#
#
# Mechanical properties :
#
#
# Convention : Reuss Voigt Hill
#
# Bulk Modulus (GPa) = 62.13608 68.67089 65.40349
# Shear Modulus (GPa) = 29.04835 31.64710 30.34772
#
# Velocity S-wave (km/s) = 3.81111 3.97794 3.89542
# Velocity P-wave (km/s) = 7.10176 7.44547 7.27564
#
# Compressibility (1/GPa) = 0.01609371
#
# Stress axis : x y z
#
# Youngs Moduli (GPa) = 88.76018 106.96670 65.84638
#
# Poissons Ratio (x) = 0.34849 0.14318
# Poissons Ratio (y) = 0.28918 0.29116
# Poissons Ratio (z) = 0.19300 0.47298
#
# Static dielectric constant tensor:
#      x y z
#    x 3.701630 0.000000 0.035200 
#    y 0.000000 3.811620 0.000000 
#    z 0.035200 0.000000 3.612230 
# 
# 
# High freq. dielectric constant tensor:
#      x y z
#    x 1.785570 0.000000 -0.003920 
#    y 0.000000 1.779210 0.000000 
#    z -0.003920 0.000000 1.783090 
# 
# From -- ./inp_files/46975.got.cif
#   From: 2010.06.25/outbox.cif.g09.slc.cpg/sg10_24_cif.got.tgz:46975.got - 2010.06.27 22:07:45.
