data_PCOD8063856
_publ_section_title
;
Structure prediction by ZEFSAII (Michael W. Deem and Ramdas Pophale) SiO2 
 PCOD8063856
Probable space group: P 2/M
;
_chemical_formula_sum "Si O2"
_cell_formula_units_Z 28
_cell_length_a 19.786642
_cell_length_b 8.844193
_cell_length_c 14.246737
_cell_angle_alpha 90.000000
_cell_angle_beta 146.607580
_cell_angle_gamma 90.000000
_cell_volume 1372.147173
_symmetry_space_group_name_H-M "P 2/M"
_symmetry_group_IT_number 10
_symmetry_cell_setting 'monoclinic'
loop_
_space_group_symop_operation_xyz
x,y,z
-x,y,-z
-x,-y,-z
x,-y,z
loop_
_atom_site_type_symbol
_atom_site_label
_atom_site_fract_x
_atom_site_fract_y
_atom_site_fract_z
Si Si1 0.766205 0.176186 0.891759
Si Si2 0.539571 0.678837 0.149271
Si Si3 0.956580 0.677349 0.235575
Si Si4 0.790541 0.179502 0.415046
Si Si5 0.538088 0.823995 0.760712
Si Si6 0.865543 0.834606 0.303466
Si Si7 0.615914 0.329693 0.566657
O O1 0.661944 0.209922 0.847945
O O2 0.725782 0.237653 0.743214
O O3 0.794837 0.000000 0.916265
O O4 0.889402 0.264222 0.064136
O O5 0.537320 0.500000 0.156512
O O6 0.674920 0.741840 0.329643
O O7 0.447267 0.751014 0.118918
O O8 0.500000 0.732536 0.000000
O O9 0.977997 0.500000 0.255878
O O10 0.867786 0.716372 0.220992
O O11 0.086815 0.759454 0.393899
O O12 0.784143 0.223906 0.296545
O O13 0.786237 0.000000 0.423091
O O14 0.420845 0.749659 0.573194
O O15 0.511375 0.000000 0.738696
O O16 0.000000 0.857746 0.500000
O O17 0.818836 0.000000 0.212376
O O18 0.500000 0.328324 0.500000
O O19 0.659963 0.500000 0.596967
#
# Coordination Sequence:
#
# PCOD8063856 Si02
#       7
#     4   4   4   4   4   4   4
#     4  10  20  34  55  85 117 147 185 229 275 334
#     4  11  25  41  57  81 112 147 189 236 279 324
#     4  11  21  32  52  81 112 144 180 227 284 332
#     4  10  21  38  57  75 104 145 189 230 274 331
#     4  10  21  37  58  82 111 151 191 228 275 331
#     4   8  16  31  49  71  99 136 178 221 268 322
#     4   9  17  32  55  83 114 145 179 227 284 332
#
# _framework density 20.405975999999999
#
# number of rings (size 3 to 8) (size 9 to 14) (size 15 to 20)
#    0.000    2.143    0.000    4.286    2.000    7.714 
#    0.000    0.000    0.000    0.857    0.000    6.000 
#    0.000    0.000    0.000    0.000    0.000    0.000 
#
# Total GULP energy -347214.362308 kJ/mol
# GULP energy per Si atom -12400.512940 kJ/mol
# Density = 2.035953 g / cm^3
# Si number density = 20.405976 Si / 1000 Ang^3
#
#
#
# Elastic Constant Matrix: (Units=GPa)
#
#
# Indices 1 2 3 4 5 6 
#
# 1 41.5252 22.1483 11.9836 0.0000 -9.3993 0.0000
# 2 22.1483 103.8301 31.1269 0.0000 -9.6492 0.0000
# 3 11.9836 31.1269 87.3015 0.0000 -18.9938 0.0000
# 4 0.0000 0.0000 0.0000 29.0323 0.0000 -6.5462
# 5 -9.3993 -9.6492 -18.9938 0.0000 27.6662 0.0000
# 6 0.0000 0.0000 0.0000 -6.5462 0.0000 26.6841
#
#
#
# Elastic Compliance Matrix: (Units=1/GPa)
#
#
# Indices 1 2 3 4 5 6 
#
# 1 0.028756 -0.005306 -0.000391 0.000000 0.007651 0.000000
# 2 -0.005306 0.011804 -0.003499 0.000000 -0.000088 0.000000
# 3 -0.000391 -0.003499 0.014650 0.000000 0.008704 0.000000
# 4 0.000000 0.000000 0.000000 0.036461 0.000000 0.008945
# 5 0.007651 -0.000088 0.008704 0.000000 0.044689 0.000000
# 6 0.000000 0.000000 0.000000 0.008945 0.000000 0.039670
#
#
# Mechanical properties :
#
#
# Convention : Reuss Voigt Hill
#
# Bulk Modulus (GPa) = 27.16128 40.35272 33.75700
# Shear Modulus (GPa) = 24.19017 27.83637 26.01327
#
# Velocity S-wave (km/s) = 3.44677 3.69742 3.57429
# Velocity P-wave (km/s) = 5.40181 6.16812 5.79764
#
# Compressibility (1/GPa) = 0.03681711
#
# Stress axis : x y z
#
# Youngs Moduli (GPa) = 34.77498 84.71831 68.26092
#
# Poissons Ratio (x) = 0.44951 0.02669
# Poissons Ratio (y) = 0.18451 0.23888
# Poissons Ratio (z) = 0.01360 0.29647
#
# Static dielectric constant tensor:
#      x y z
#    x 3.599770 0.000000 -0.186240 
#    y 0.000000 3.680420 0.000000 
#    z -0.186240 0.000000 3.722070 
# 
# 
# High freq. dielectric constant tensor:
#      x y z
#    x 1.762460 0.000000 -0.011010 
#    y 0.000000 1.804910 0.000000 
#    z -0.011010 0.000000 1.800390 
# 
# From -- ./inp_files/70315.got.cif
#   From: 2010.06.25/outbox.cif.g09.slc.cpg/sg10_36_cif.got.tgz:70315.got - 2010.06.27 22:07:45.
