data_PCOD8063814
_publ_section_title
;
Structure prediction by ZEFSAII (Michael W. Deem and Ramdas Pophale) SiO2 
 PCOD8063814
Probable space group: P 2/M
;
_chemical_formula_sum "Si O2"
_cell_formula_units_Z 28
_cell_length_a 15.271457
_cell_length_b 9.592906
_cell_length_c 20.837064
_cell_angle_alpha 90.000000
_cell_angle_beta 152.081317
_cell_angle_gamma 90.000000
_cell_volume 1429.273243
_symmetry_space_group_name_H-M "P 2/M"
_symmetry_group_IT_number 10
_symmetry_cell_setting 'monoclinic'
loop_
_space_group_symop_operation_xyz
x,y,z
-x,y,-z
-x,-y,-z
x,-y,z
loop_
_atom_site_type_symbol
_atom_site_label
_atom_site_fract_x
_atom_site_fract_y
_atom_site_fract_z
Si Si1 0.206731 0.839357 0.112493
Si Si2 0.626758 0.663264 0.674735
Si Si3 0.551131 0.836713 0.852111
Si Si4 0.239886 0.336369 0.369156
Si Si5 0.818982 0.336694 0.425183
Si Si6 0.989069 0.662902 0.318257
Si Si7 0.678261 0.151633 0.073295
O O1 0.347809 0.747492 0.244467
O O2 0.272583 0.812312 0.082027
O O3 0.229535 0.000000 0.146086
O O4 0.000000 0.788551 0.000000
O O5 0.624594 0.500000 0.690023
O O6 0.785142 0.698294 0.722791
O O7 0.434942 0.721256 0.521653
O O8 0.364641 0.751232 0.712268
O O9 0.495497 0.000000 0.817854
O O10 0.624501 0.784382 0.968843
O O11 0.251423 0.500000 0.386342
O O12 0.074592 0.279585 0.306443
O O13 0.771952 0.500000 0.385328
O O14 0.000000 0.294916 0.500000
O O15 0.872270 0.302433 0.533346
O O16 0.941560 0.500000 0.287184
O O17 0.797346 0.746491 0.195979
O O18 0.776644 0.000000 0.126670
O O19 0.500000 0.125905 0.000000
#
# Coordination Sequence:
#
# PCOD8063814 Si02
#       7
#     4   4   4   4   4   4   4
#     4  10  22  37  52  74 110 149 183 225 273 318
#     4   9  17  33  55  76 103 138 178 219 264 316
#     4  10  22  39  58  81 113 153 192 229 277 335
#     4   8  16  31  52  78 106 135 169 220 271 313
#     4  10  21  37  59  88 117 144 181 232 287 339
#     4  10  20  34  55  82 111 141 179 224 275 330
#     4  10  22  39  57  80 110 144 185 230 274 326
#
# _framework density 19.590375999999999
#
# number of rings (size 3 to 8) (size 9 to 14) (size 15 to 20)
#    0.000    2.429    0.000    2.571    2.000    3.714 
#    0.000    2.143    0.000    0.000    0.000    0.000 
#    0.000    0.000    0.000    0.000    0.000    0.000 
#
# Total GULP energy -346928.058773 kJ/mol
# GULP energy per Si atom -12390.287813 kJ/mol
# Density = 1.954579 g / cm^3
# Si number density = 19.590376 Si / 1000 Ang^3
#
#
#
# Elastic Constant Matrix: (Units=GPa)
#
#
# Indices 1 2 3 4 5 6 
#
# 1 93.2624 21.9315 19.2704 0.0000 -4.2571 0.0000
# 2 21.9315 51.1856 39.7724 0.0000 -4.2064 0.0000
# 3 19.2704 39.7724 77.2357 0.0000 -5.9226 0.0000
# 4 0.0000 0.0000 0.0000 35.5353 0.0000 -4.7815
# 5 -4.2571 -4.2064 -5.9226 0.0000 35.5609 0.0000
# 6 0.0000 0.0000 0.0000 -4.7815 0.0000 22.4210
#
#
#
# Elastic Compliance Matrix: (Units=1/GPa)
#
#
# Indices 1 2 3 4 5 6 
#
# 1 0.011961 -0.004648 -0.000530 0.000000 0.000794 0.000000
# 2 -0.004648 0.034415 -0.016503 0.000000 0.000766 0.000000
# 3 -0.000530 -0.016503 0.021701 0.000000 0.001599 0.000000
# 4 0.000000 0.000000 0.000000 0.028972 0.000000 0.006179
# 5 0.000794 0.000766 0.001599 0.000000 0.028573 0.000000
# 6 0.000000 0.000000 0.000000 0.006179 0.000000 0.045919
#
#
# Mechanical properties :
#
#
# Convention : Reuss Voigt Hill
#
# Bulk Modulus (GPa) = 40.46323 42.62580 41.54452
# Shear Modulus (GPa) = 22.40736 28.08407 25.24571
#
# Velocity S-wave (km/s) = 3.38567 3.79035 3.59371
# Velocity P-wave (km/s) = 5.99860 6.40011 6.20261
#
# Compressibility (1/GPa) = 0.02471379
#
# Stress axis : x y z
#
# Youngs Moduli (GPa) = 83.60376 29.05732 46.08159
#
# Poissons Ratio (x) = 0.13506 0.02442
# Poissons Ratio (y) = 0.38858 0.76051
# Poissons Ratio (z) = 0.04431 0.47955
#
# Static dielectric constant tensor:
#      x y z
#    x 4.132870 0.000000 0.132060 
#    y 0.000000 3.373860 0.000000 
#    z 0.132060 0.000000 3.501210 
# 
# 
# High freq. dielectric constant tensor:
#      x y z
#    x 1.786510 0.000000 -0.002680 
#    y 0.000000 1.741310 0.000000 
#    z -0.002680 0.000000 1.749870 
# 
# From -- ./inp_files/84911.got.cif
#   From: 2010.06.25/outbox.cif.g09.slc.cpg/sg10_43_cif.got.tgz:84911.got - 2010.06.27 22:07:45.
