data_PCOD8063504
_publ_section_title
;
Structure prediction by ZEFSAII (Michael W. Deem and Ramdas Pophale) SiO2 
 PCOD8063504
Probable space group: P 2/M
;
_chemical_formula_sum "Si O2"
_cell_formula_units_Z 28
_cell_length_a 15.088123
_cell_length_b 8.910595
_cell_length_c 11.988594
_cell_angle_alpha 90.000000
_cell_angle_beta 60.048008
_cell_angle_gamma 90.000000
_cell_volume 1396.531373
_symmetry_space_group_name_H-M "P 2/M"
_symmetry_group_IT_number 10
_symmetry_cell_setting 'monoclinic'
loop_
_space_group_symop_operation_xyz
x,y,z
-x,y,-z
-x,-y,-z
x,-y,z
loop_
_atom_site_type_symbol
_atom_site_label
_atom_site_fract_x
_atom_site_fract_y
_atom_site_fract_z
Si Si1 0.772203 0.173855 0.983266
Si Si2 0.321251 0.827265 0.346244
Si Si3 0.483035 0.667909 0.385691
Si Si4 0.382838 0.677170 0.084576
Si Si5 0.004705 0.823565 0.122551
Si Si6 0.289754 0.332381 0.769429
Si Si7 0.801573 0.824133 0.369470
O O1 0.688314 0.270401 0.971630
O O2 0.889692 0.213518 0.877552
O O3 0.746992 0.000000 0.980097
O O4 0.770061 0.215346 0.115320
O O5 0.418959 0.790454 0.360115
O O6 0.325464 0.729329 0.232508
O O7 0.219799 0.792945 0.485192
O O8 0.324917 0.000000 0.307483
O O9 0.500000 0.723479 0.500000
O O10 0.433075 0.500000 0.413117
O O11 0.594296 0.661500 0.259706
O O12 0.387154 0.500000 0.082013
O O13 0.500000 0.739902 0.000000
O O14 0.913165 0.765402 0.260129
O O15 0.994570 0.000000 0.114315
O O16 0.000000 0.751701 0.000000
O O17 0.242387 0.500000 0.805614
O O18 0.282306 0.270203 0.647617
O O19 0.786555 0.000000 0.354662
#
# Coordination Sequence:
#
# PCOD8063504 Si02
#       7
#     4   4   4   4   4   4   4
#     4  11  22  38  63  89 116 152 199 250 293 341
#     4  11  23  37  59  88 117 151 197 252 297 340
#     4  10  20  34  51  76 115 158 191 226 288 361
#     4  11  25  45  65  84 115 159 200 240 294 362
#     4   9  17  34  60  88 120 158 194 235 295 353
#     4  11  21  33  53  83 119 156 193 235 291 351
#     4  10  20  36  57  85 119 153 193 238 290 349
#
# _framework density 20.049676000000002
#
# number of rings (size 3 to 8) (size 9 to 14) (size 15 to 20)
#    0.000    1.571    2.857    2.571    0.000    6.571 
#    0.000    2.857    0.000    4.286    0.000    0.000 
#    0.000    0.000    0.000    0.000    0.000    0.000 
#
# Total GULP energy -347068.847199 kJ/mol
# GULP energy per Si atom -12395.315971 kJ/mol
# Density = 2.000404 g / cm^3
# Si number density = 20.049676 Si / 1000 Ang^3
#
#
#
# Elastic Constant Matrix: (Units=GPa)
#
#
# Indices 1 2 3 4 5 6 
#
# 1 73.4495 29.2049 34.6700 0.0000 -8.4313 0.0000
# 2 29.2049 57.6235 32.4434 0.0000 -3.1968 0.0000
# 3 34.6700 32.4434 115.9584 0.0000 -6.8286 0.0000
# 4 0.0000 0.0000 0.0000 28.0919 0.0000 3.6971
# 5 -8.4313 -3.1968 -6.8286 0.0000 30.7531 0.0000
# 6 0.0000 0.0000 0.0000 3.6971 0.0000 15.4137
#
#
#
# Elastic Compliance Matrix: (Units=1/GPa)
#
#
# Indices 1 2 3 4 5 6 
#
# 1 0.018481 -0.007330 -0.003264 0.000000 0.003580 0.000000
# 2 -0.007330 0.023530 -0.004424 0.000000 -0.000546 0.000000
# 3 -0.003264 -0.004424 0.010900 0.000000 0.001066 0.000000
# 4 0.000000 0.000000 0.000000 0.036758 0.000000 -0.008817
# 5 0.003580 -0.000546 0.001066 0.000000 0.033678 0.000000
# 6 0.000000 0.000000 0.000000 -0.008817 0.000000 0.066992
#
#
# Mechanical properties :
#
#
# Convention : Reuss Voigt Hill
#
# Bulk Modulus (GPa) = 43.71604 48.85198 46.28401
# Shear Modulus (GPa) = 21.92986 24.89929 23.41457
#
# Velocity S-wave (km/s) = 3.31082 3.52785 3.42106
# Velocity P-wave (km/s) = 6.03875 6.40412 6.22412
#
# Compressibility (1/GPa) = 0.02287490
#
# Stress axis : x y z
#
# Youngs Moduli (GPa) = 54.10942 42.49971 91.74263
#
# Poissons Ratio (x) = 0.31154 0.29943
# Poissons Ratio (y) = 0.39664 0.40584
# Poissons Ratio (z) = 0.17660 0.18800
#
# Static dielectric constant tensor:
#      x y z
#    x 3.573670 0.000000 -0.212960 
#    y 0.000000 3.461070 0.000000 
#    z -0.212960 0.000000 3.973120 
# 
# 
# High freq. dielectric constant tensor:
#      x y z
#    x 1.764770 0.000000 -0.012620 
#    y 0.000000 1.769900 0.000000 
#    z -0.012620 0.000000 1.790180 
# 
# From -- ./inp_files/49655.got.cif
#   From: 2010.06.25/outbox.cif.g09.slc.cpg/sg10_25_cif.got.tgz:49655.got - 2010.06.27 22:07:45.
