data_PCOD8063463
_publ_section_title
;
Structure prediction by ZEFSAII (Michael W. Deem and Ramdas Pophale) SiO2 
 PCOD8063463
Probable space group: P 2/M
;
_chemical_formula_sum "Si O2"
_cell_formula_units_Z 28
_cell_length_a 28.014452
_cell_length_b 9.107296
_cell_length_c 9.466703
_cell_angle_alpha 90.000000
_cell_angle_beta 39.968737
_cell_angle_gamma 90.000000
_cell_volume 1551.512456
_symmetry_space_group_name_H-M "P 2/M"
_symmetry_group_IT_number 10
_symmetry_cell_setting 'monoclinic'
loop_
_space_group_symop_operation_xyz
x,y,z
-x,y,-z
-x,-y,-z
x,-y,z
loop_
_atom_site_type_symbol
_atom_site_label
_atom_site_fract_x
_atom_site_fract_y
_atom_site_fract_z
Si Si1 0.646702 0.172021 0.512054
Si Si2 0.796184 0.326523 0.143684
Si Si3 0.058509 0.166854 0.673690
Si Si4 0.501309 0.171200 0.661068
Si Si5 0.894538 0.832241 0.123462
Si Si6 0.426094 0.666206 0.076068
Si Si7 0.081074 0.327017 0.356433
O O1 0.719219 0.247347 0.281747
O O2 0.581665 0.203114 0.546716
O O3 0.632918 0.241475 0.698466
O O4 0.659237 0.000000 0.505563
O O5 0.783726 0.500000 0.173604
O O6 0.828561 0.272356 0.219789
O O7 0.856057 0.272753 0.893053
O O8 0.106133 0.180098 0.707004
O O9 0.101633 0.265724 0.463210
O O10 0.056095 0.000000 0.626506
O O11 0.974169 0.223880 0.885819
O O12 0.500000 0.223356 0.500000
O O13 0.480931 0.000000 0.717546
O O14 0.439855 0.259657 0.891596
O O15 0.880094 0.000000 0.109089
O O16 0.397136 0.500000 0.118089
O O17 0.500000 0.666022 0.000000
O O18 0.078894 0.500000 0.366627
O O19 0.000000 0.262954 0.500000
#
# Coordination Sequence:
#
# PCOD8063463 Si02
#       7
#     4   4   4   4   4   4   4
#     4  10  20  35  55  78 106 140 177 218 263 314
#     4  11  22  35  52  75 105 139 176 220 268 320
#     4   9  18  32  52  75  98 126 168 219 264 312
#     4   9  18  34  57  84 111 141 178 216 257 307
#     4   9  18  33  51  74 100 128 167 215 264 313
#     4   9  17  31  53  80 108 138 174 212 251 303
#     4  10  20  34  50  73 103 137 179 222 268 320
#
# _framework density 18.046907000000001
#
# number of rings (size 3 to 8) (size 9 to 14) (size 15 to 20)
#    0.000    2.429    1.429    2.143    0.000    4.571 
#    0.000    2.857    0.000    5.143    0.000    0.000 
#    0.000    0.000    0.000    0.000    0.000    0.000 
#
# Total GULP energy -347174.347994 kJ/mol
# GULP energy per Si atom -12399.083857 kJ/mol
# Density = 1.800583 g / cm^3
# Si number density = 18.046907 Si / 1000 Ang^3
#
#
#
# Elastic Constant Matrix: (Units=GPa)
#
#
# Indices 1 2 3 4 5 6 
#
# 1 72.1375 36.9749 50.7121 0.0000 10.9317 0.0000
# 2 36.9749 73.2158 58.9716 0.0000 3.1897 0.0000
# 3 50.7121 58.9716 122.8645 0.0000 9.8987 0.0000
# 4 0.0000 0.0000 0.0000 35.2618 0.0000 1.0894
# 5 10.9317 3.1897 9.8987 0.0000 29.8102 0.0000
# 6 0.0000 0.0000 0.0000 1.0894 0.0000 22.2124
#
#
#
# Elastic Compliance Matrix: (Units=1/GPa)
#
#
# Indices 1 2 3 4 5 6 
#
# 1 0.021825 -0.006331 -0.005527 0.000000 -0.005491 0.000000
# 2 -0.006331 0.024144 -0.009201 0.000000 0.002793 0.000000
# 3 -0.005527 -0.009201 0.014995 0.000000 -0.001968 0.000000
# 4 0.000000 0.000000 0.000000 0.028402 0.000000 -0.001393
# 5 -0.005491 0.002793 -0.001968 0.000000 0.035914 0.000000
# 6 0.000000 0.000000 0.000000 -0.001393 0.000000 0.045088
#
#
# Mechanical properties :
#
#
# Convention : Reuss Voigt Hill
#
# Bulk Modulus (GPa) = 53.05887 62.39279 57.72583
# Shear Modulus (GPa) = 22.85523 25.56083 24.20803
#
# Velocity S-wave (km/s) = 3.56256 3.76753 3.66648
# Velocity P-wave (km/s) = 6.81079 7.31938 7.06966
#
# Compressibility (1/GPa) = 0.01884699
#
# Stress axis : x y z
#
# Youngs Moduli (GPa) = 45.81900 41.41755 66.68869
#
# Poissons Ratio (x) = 0.26220 0.36861
# Poissons Ratio (y) = 0.29007 0.61358
# Poissons Ratio (z) = 0.25326 0.38107
#
# Static dielectric constant tensor:
#      x y z
#    x 3.172660 0.000000 0.111090 
#    y 0.000000 3.321880 0.000000 
#    z 0.111090 0.000000 3.363570 
# 
# 
# High freq. dielectric constant tensor:
#      x y z
#    x 1.679030 0.000000 0.012280 
#    y 0.000000 1.701620 0.000000 
#    z 0.012280 0.000000 1.693300 
# 
# From -- ./inp_files/36938.got.cif
#   From: 2010.06.25/outbox.cif.g09.slc.cpg/sg10_19_cif.got.tgz:36938.got - 2010.06.27 22:07:45.
