data_PCOD8063991
_publ_section_title
;
Structure prediction by ZEFSAII (Michael W. Deem and Ramdas Pophale) SiO2 
 PCOD8063991
Probable space group: P 2/M
;
_chemical_formula_sum "Si O2"
_cell_formula_units_Z 18
_cell_length_a 8.047404
_cell_length_b 11.282934
_cell_length_c 10.176737
_cell_angle_alpha 90.000000
_cell_angle_beta 57.744730
_cell_angle_gamma 90.000000
_cell_volume 781.433120
_symmetry_space_group_name_H-M "P 2/M"
_symmetry_group_IT_number 10
_symmetry_cell_setting 'monoclinic'
loop_
_space_group_symop_operation_xyz
x,y,z
-x,y,-z
-x,-y,-z
x,-y,z
loop_
_atom_site_type_symbol
_atom_site_label
_atom_site_fract_x
_atom_site_fract_y
_atom_site_fract_z
Si Si1 0.000000 0.797385 0.500000
Si Si2 0.787503 0.000000 0.447197
Si Si3 0.878479 0.361817 0.757546
Si Si4 0.676978 0.365575 0.345280
Si Si5 0.222274 0.769915 0.944355
Si Si6 0.614360 0.000000 0.232677
O O1 0.092788 0.880260 0.573898
O O2 0.160974 0.710860 0.360762
O O3 0.748183 0.000000 0.307952
O O4 0.606228 0.000000 0.623291
O O5 0.814003 0.500000 0.776205
O O6 0.113366 0.350392 0.674589
O O7 0.761086 0.294607 0.922107
O O8 0.500000 0.299163 0.500000
O O9 0.615151 0.500000 0.357457
O O10 0.680614 0.320378 0.196624
O O11 0.345186 0.890476 0.881456
O O12 0.000000 0.799158 0.000000
#
# Coordination Sequence:
#
# PCOD8063991 Si02
#       6
#     2   2   4   4   4   2
#     4  11  23  42  62  88 129 165 202 246 302 375
#     4  10  24  41  63  94 119 161 206 254 303 357
#     4  10  21  38  62  88 122 167 203 242 304 370
#     4   9  18  32  57  90 120 152 201 258 305 349
#     4  10  20  34  59  91 127 153 199 256 306 354
#     4  11  23  39  67  91 118 157 210 258 306 351
#
# _framework density 23.034600999999999
#
# number of rings (size 3 to 8) (size 9 to 14) (size 15 to 20)
#    0.000    2.000    0.000    4.000    6.222    4.444 
#    0.000    2.222    0.000    1.333    0.000    0.000 
#    0.000    0.000    0.000    0.000    0.000    0.000 
#
# Total GULP energy -223117.205087 kJ/mol
# GULP energy per Si atom -12395.400283 kJ/mol
# Density = 2.298217 g / cm^3
# Si number density = 23.034601 Si / 1000 Ang^3
#
#
#
# Elastic Constant Matrix: (Units=GPa)
#
#
# Indices 1 2 3 4 5 6 
#
# 1 17.0752 13.2936 5.5949 0.0000 -4.4272 0.0000
# 2 13.2936 150.9671 60.2392 0.0000 5.2950 0.0000
# 3 5.5949 60.2392 155.7109 0.0000 -5.7410 0.0000
# 4 0.0000 0.0000 0.0000 56.7867 0.0000 1.0789
# 5 -4.4272 5.2950 -5.7410 0.0000 31.5429 0.0000
# 6 0.0000 0.0000 0.0000 1.0789 0.0000 5.5624
#
#
#
# Elastic Compliance Matrix: (Units=1/GPa)
#
#
# Indices 1 2 3 4 5 6 
#
# 1 0.066076 -0.006374 0.000476 0.000000 0.010431 0.000000
# 2 -0.006374 0.008560 -0.003190 0.000000 -0.002912 0.000000
# 3 0.000476 -0.003190 0.007713 0.000000 0.002006 0.000000
# 4 0.000000 0.000000 0.000000 0.017675 0.000000 -0.003428
# 5 0.010431 -0.002912 0.002006 0.000000 0.034021 0.000000
# 6 0.000000 0.000000 0.000000 -0.003428 0.000000 0.180443
#
#
# Mechanical properties :
#
#
# Convention : Reuss Voigt Hill
#
# Bulk Modulus (GPa) = 15.58285 53.55651 34.56968
# Shear Modulus (GPa) = 14.12211 35.08676 24.60443
#
# Velocity S-wave (km/s) = 2.47874 3.90708 3.27180
# Velocity P-wave (km/s) = 3.86935 6.60716 5.41417
#
# Compressibility (1/GPa) = 0.06417312
#
# Stress axis : x y z
#
# Youngs Moduli (GPa) = 15.13418 116.81847 129.64925
#
# Poissons Ratio (x) = 0.74464 -0.06176
# Poissons Ratio (y) = 0.09647 0.41358
# Poissons Ratio (z) = -0.00721 0.37265
#
# Static dielectric constant tensor:
#      x y z
#    x 3.669360 0.000000 -0.154050 
#    y 0.000000 4.310720 0.000000 
#    z -0.154050 0.000000 4.328860 
# 
# 
# High freq. dielectric constant tensor:
#      x y z
#    x 1.864470 0.000000 -0.007350 
#    y 0.000000 1.929330 0.000000 
#    z -0.007350 0.000000 1.928450 
# 
# From -- ./inp_files/17701.got.cif
#   From: 2010.06.25/outbox.cif.g09.slc.cpg/sg10_9_cif.got.tgz:17701.got - 2010.06.27 22:07:45.
