data_PCOD8063830
_publ_section_title
;
Structure prediction by ZEFSAII (Michael W. Deem and Ramdas Pophale) SiO2 
 PCOD8063830
Probable space group: P 2/M
;
_chemical_formula_sum "Si O2"
_cell_formula_units_Z 32
_cell_length_a 23.320116
_cell_length_b 9.461406
_cell_length_c 21.909961
_cell_angle_alpha 90.000000
_cell_angle_beta 20.024727
_cell_angle_gamma 90.000000
_cell_volume 1655.366956
_symmetry_space_group_name_H-M "P 2/M"
_symmetry_group_IT_number 10
_symmetry_cell_setting 'monoclinic'
loop_
_space_group_symop_operation_xyz
x,y,z
-x,y,-z
-x,-y,-z
x,-y,z
loop_
_atom_site_type_symbol
_atom_site_label
_atom_site_fract_x
_atom_site_fract_y
_atom_site_fract_z
Si Si1 0.691058 0.662073 0.553257
Si Si2 0.812689 0.836223 0.834787
Si Si3 0.187391 0.836231 0.460100
Si Si4 0.806004 0.658696 0.307905
Si Si5 0.308895 0.662073 0.935433
Si Si6 0.806049 0.658703 0.080029
Si Si7 0.500029 0.168011 0.068300
Si Si8 0.303074 0.162420 0.696931
O O1 0.749783 0.500000 0.500294
O O2 0.805051 0.755553 0.483299
O O3 0.710296 0.711977 0.464027
O O4 0.499978 0.681968 0.764634
O O5 0.000050 0.813876 0.619626
O O6 0.778957 0.000000 0.882148
O O7 0.805090 0.755562 0.906545
O O8 0.669785 0.777706 0.931751
O O9 0.330314 0.777688 0.271245
O O10 0.221118 0.000000 0.440011
O O11 0.746851 0.500000 0.348732
O O12 0.770512 0.764948 0.289050
O O13 0.999974 0.658949 0.129847
O O14 0.250169 0.500000 0.999917
O O15 0.289636 0.711977 0.884701
O O16 0.746885 0.500000 0.157510
O O17 0.770511 0.764926 0.169920
O O18 0.500028 0.000000 0.065709
O O19 0.500000 0.231161 0.000000
O O20 0.500000 0.179430 0.500000
O O21 0.246238 0.000000 0.753768
#
# Coordination Sequence:
#
# PCOD8063830 Si02
#       8
#     4   4   4   4   4   4   4   4
#     4  10  20  35  57  83 110 144 184 226 275 329
#     4  10  20  34  55  83 113 147 186 229 279 329
#     4  10  20  34  55  83 113 147 186 229 279 329
#     4  10  21  37  57  80 105 137 179 225 273 328
#     4  10  20  35  57  83 110 144 184 226 275 329
#     4  10  21  37  57  80 105 137 179 225 273 328
#     4   9  18  34  55  81 115 150 185 228 273 323
#     4  11  24  39  54  76 106 141 180 223 274 328
#
# _framework density 19.331060999999998
#
# number of rings (size 3 to 8) (size 9 to 14) (size 15 to 20)
#    0.000    2.000    1.250    2.250    0.000    7.000 
#    0.000    2.500    0.000    1.500    0.000    1.750 
#    0.000    0.000    0.000    0.000    0.000    0.000 
#
# Total GULP energy -396836.744488 kJ/mol
# GULP energy per Si atom -12401.148265 kJ/mol
# Density = 1.928706 g / cm^3
# Si number density = 19.331061 Si / 1000 Ang^3
#
#
#
# Elastic Constant Matrix: (Units=GPa)
#
#
# Indices 1 2 3 4 5 6 
#
# 1 125.7380 48.9376 52.7827 0.0000 5.6154 0.0000
# 2 48.9376 62.4005 35.2145 0.0000 3.9971 0.0000
# 3 52.7827 35.2145 108.5514 0.0000 -0.6476 0.0000
# 4 0.0000 0.0000 0.0000 19.1429 0.0000 -15.9617
# 5 5.6154 3.9971 -0.6476 0.0000 28.6283 0.0000
# 6 0.0000 0.0000 0.0000 -15.9617 0.0000 -35.5332
#
#
#
# Elastic Compliance Matrix: (Units=1/GPa)
#
#
# Indices 1 2 3 4 5 6 
#
# 1 0.012526 -0.007697 -0.003603 0.000000 -0.001464 0.000000
# 2 -0.007697 0.024587 -0.004246 0.000000 -0.002019 0.000000
# 3 -0.003603 -0.004246 0.012351 0.000000 0.001579 0.000000
# 4 0.000000 0.000000 0.000000 0.038004 0.000000 -0.017072
# 5 -0.001464 -0.002019 0.001579 0.000000 0.035535 0.000000
# 6 0.000000 0.000000 0.000000 -0.017072 0.000000 -0.020474
#
#
# Mechanical properties :
#
#
# Convention : Reuss Voigt Hill
#
# Bulk Modulus (GPa) = 54.42554 63.39550 58.91052
# Shear Modulus (GPa) = 35.77950 13.09794 24.43872
#
# Velocity S-wave (km/s) = 4.30685 2.60582 3.55944
# Velocity P-wave (km/s) = 7.27651 6.47453 6.88720
#
# Compressibility (1/GPa) = 0.01837373
#
# Stress axis : x y z
#
# Youngs Moduli (GPa) = 79.83090 40.67170 80.96664
#
# Poissons Ratio (x) = 0.31305 0.29170
# Poissons Ratio (y) = 0.61446 0.34375
# Poissons Ratio (z) = 0.28761 0.17268
#
# Static dielectric constant tensor:
#      x y z
#    x 3.506640 0.000000 -0.061310 
#    y 0.000000 3.374650 0.000000 
#    z -0.061310 0.000000 3.716360 
# 
# 
# High freq. dielectric constant tensor:
#      x y z
#    x 1.748970 0.000000 -0.005330 
#    y 0.000000 1.729350 0.000000 
#    z -0.005330 0.000000 1.767180 
# 
# From -- ./inp_files/90535.got.cif
#   From: 2010.06.25/outbox.cif.g09.slc.cpg/sg10_46_cif.got.tgz:90535.got - 2010.06.27 22:07:45.
