data_PCOD8063100
_publ_section_title
;
Structure prediction by ZEFSAII (Michael W. Deem and Ramdas Pophale) SiO2 
 PCOD8063100
Probable space group: P 2/M
;
_chemical_formula_sum "Si O2"
_cell_formula_units_Z 32
_cell_length_a 21.342756
_cell_length_b 8.653939
_cell_length_c 14.352402
_cell_angle_alpha 90.000000
_cell_angle_beta 45.962328
_cell_angle_gamma 90.000000
_cell_volume 1905.667276
_symmetry_space_group_name_H-M "P 2/M"
_symmetry_group_IT_number 10
_symmetry_cell_setting 'monoclinic'
loop_
_space_group_symop_operation_xyz
x,y,z
-x,y,-z
-x,-y,-z
x,-y,z
loop_
_atom_site_type_symbol
_atom_site_label
_atom_site_fract_x
_atom_site_fract_y
_atom_site_fract_z
Si Si1 0.903014 0.183113 0.701452
Si Si2 0.491946 0.826135 0.618627
Si Si3 0.008540 0.320593 0.882402
Si Si4 0.098167 0.816845 0.499685
Si Si5 0.668048 0.319497 0.454708
Si Si6 0.155775 0.819095 0.042595
Si Si7 0.317187 0.680095 0.773507
Si Si8 0.171128 0.182165 0.616485
O O1 0.865461 0.239590 0.639531
O O2 0.842628 0.234880 0.850416
O O3 0.000645 0.249879 0.614461
O O4 0.909852 0.000000 0.696120
O O5 0.500000 0.816239 0.500000
O O6 0.568678 0.723459 0.584405
O O7 0.396863 0.762636 0.745120
O O8 0.501294 0.000000 0.646149
O O9 0.991976 0.500000 0.876741
O O10 0.105209 0.272198 0.752012
O O11 0.939270 0.215479 0.900087
O O12 0.000000 0.287378 0.000000
O O13 0.157988 0.760093 0.523247
O O14 0.094792 0.000000 0.503023
O O15 0.683539 0.500000 0.453480
O O16 0.688658 0.266812 0.327784
O O17 0.730865 0.224353 0.457420
O O18 0.176280 0.000000 0.009900
O O19 0.227112 0.720111 0.915508
O O20 0.335681 0.500000 0.759443
O O21 0.155010 0.000000 0.643378
#
# Coordination Sequence:
#
# PCOD8063100 Si02
#       8
#     4   4   4   4   4   4   4   4
#     4   8  14  27  47  69  92 118 152 197 245 285
#     4   9  17  31  51  73  94 119 158 205 239 268
#     4  11  23  35  44  59  92 134 165 191 232 283
#     4   8  14  27  47  69  92 118 152 197 245 285
#     4  10  20  33  48  68  98 133 161 189 234 287
#     4  11  20  31  49  72  93 121 162 202 235 274
#     4  10  20  33  48  68  98 133 161 189 234 287
#     4  11  20  31  49  72  93 121 162 202 235 274
#
# _framework density 16.792017999999999
#
# number of rings (size 3 to 8) (size 9 to 14) (size 15 to 20)
#    0.000    2.250    1.250    3.750    0.000    7.000 
#    0.000    0.000    0.000    3.750    0.000    0.875 
#    0.000    7.000    0.000    0.000    0.000    0.000 
#
# Total GULP energy -396706.622975 kJ/mol
# GULP energy per Si atom -12397.081968 kJ/mol
# Density = 1.675380 g / cm^3
# Si number density = 16.792018 Si / 1000 Ang^3
#
#
#
# Elastic Constant Matrix: (Units=GPa)
#
#
# Indices 1 2 3 4 5 6 
#
# 1 104.7591 23.5727 43.2350 0.0000 4.3526 0.0000
# 2 23.5727 37.1475 15.1239 0.0000 7.3506 0.0000
# 3 43.2350 15.1239 36.0701 0.0000 0.9408 0.0000
# 4 0.0000 0.0000 0.0000 18.8152 0.0000 -10.4830
# 5 4.3526 7.3506 0.9408 0.0000 26.7934 0.0000
# 6 0.0000 0.0000 0.0000 -10.4830 0.0000 18.8005
#
#
#
# Elastic Compliance Matrix: (Units=1/GPa)
#
#
# Indices 1 2 3 4 5 6 
#
# 1 0.019299 -0.003066 -0.021807 0.000000 -0.001528 0.000000
# 2 -0.003066 0.034971 -0.010761 0.000000 -0.008718 0.000000
# 3 -0.021807 -0.010761 0.058259 0.000000 0.004449 0.000000
# 4 0.000000 0.000000 0.000000 0.077101 0.000000 0.042991
# 5 -0.001528 -0.008718 0.004449 0.000000 0.039806 0.000000
# 6 0.000000 0.000000 0.000000 0.042991 0.000000 0.077162
#
#
# Mechanical properties :
#
#
# Convention : Reuss Voigt Hill
#
# Bulk Modulus (GPa) = 24.23596 37.98222 31.10909
# Shear Modulus (GPa) = 12.76745 19.28483 16.02614
#
# Velocity S-wave (km/s) = 2.76040 3.39256 3.09267
# Velocity P-wave (km/s) = 4.96227 6.16557 5.59635
#
# Compressibility (1/GPa) = 0.04126100
#
# Stress axis : x y z
#
# Youngs Moduli (GPa) = 51.81573 28.59477 17.16474
#
# Poissons Ratio (x) = 0.08766 0.37432
# Poissons Ratio (y) = 0.15885 0.18471
# Poissons Ratio (z) = 1.12997 0.30771
#
# Static dielectric constant tensor:
#      x y z
#    x 3.281470 0.000000 0.142020 
#    y 0.000000 3.005470 0.000000 
#    z 0.142020 0.000000 3.155530 
# 
# 
# High freq. dielectric constant tensor:
#      x y z
#    x 1.636880 0.000000 -0.002070 
#    y 0.000000 1.639810 0.000000 
#    z -0.002070 0.000000 1.626110 
# 
# From -- ./inp_files/29099.got.cif
#   From: 2010.06.25/outbox.cif.g09.slc.cpg/sg10_15_cif.got.tgz:29099.got - 2010.06.27 22:07:45.
