data_PCOD8063686
_publ_section_title
;
Structure prediction by ZEFSAII (Michael W. Deem and Ramdas Pophale) SiO2 
 PCOD8063686
Probable space group: P 2/M
;
_chemical_formula_sum "Si O2"
_cell_formula_units_Z 32
_cell_length_a 15.193454
_cell_length_b 9.289622
_cell_length_c 24.901769
_cell_angle_alpha 90.000000
_cell_angle_beta 152.463355
_cell_angle_gamma 90.000000
_cell_volume 1624.888338
_symmetry_space_group_name_H-M "P 2/M"
_symmetry_group_IT_number 10
_symmetry_cell_setting 'monoclinic'
loop_
_space_group_symop_operation_xyz
x,y,z
-x,y,-z
-x,-y,-z
x,-y,z
loop_
_atom_site_type_symbol
_atom_site_label
_atom_site_fract_x
_atom_site_fract_y
_atom_site_fract_z
Si Si1 0.895285 0.335418 0.496515
Si Si2 0.846263 0.831692 0.874102
Si Si3 0.656908 0.334159 0.128003
Si Si4 0.027369 0.170053 0.353189
Si Si5 0.708643 0.830748 0.599387
Si Si6 0.008606 0.169876 0.847673
Si Si7 0.622087 0.666005 0.929724
Si Si8 0.541945 0.663579 0.766730
O O1 0.956179 0.500000 0.542263
O O2 0.675469 0.322394 0.365590
O O3 0.000000 0.278453 0.500000
O O4 0.951311 0.237315 0.576771
O O5 0.916482 0.785195 0.854043
O O6 0.648517 0.755034 0.779408
O O7 0.810054 0.000000 0.859038
O O8 0.000000 0.776991 0.000000
O O9 0.713601 0.500000 0.147781
O O10 0.844236 0.236240 0.223931
O O11 0.571383 0.314520 0.141335
O O12 0.500000 0.282903 0.000000
O O13 0.217664 0.204520 0.420973
O O14 0.996716 0.000000 0.341712
O O15 0.500000 0.762635 0.500000
O O16 0.865910 0.769237 0.725461
O O17 0.694419 0.000000 0.601125
O O18 0.041465 0.000000 0.860721
O O19 0.211969 0.245029 0.951530
O O20 0.684330 0.500000 0.962467
O O21 0.581684 0.725060 0.847975
O O22 0.612396 0.500000 0.801887
#
# Coordination Sequence:
#
# PCOD8063686 Si02
#       8
#     4   4   4   4   4   4   4   4
#     4  10  22  42  64  84 116 159 196 236 293 358
#     4  10  20  34  53  82 114 146 185 233 289 342
#     4  10  21  38  61  85 114 154 194 234 290 352
#     4  11  23  38  61  91 119 151 196 249 294 341
#     4   9  20  38  58  81 113 156 197 232 285 349
#     4  10  20  35  57  81 111 151 190 232 284 339
#     4  10  20  35  56  83 112 145 183 228 283 343
#     4  10  21  35  55  81 109 146 189 230 281 342
#
# _framework density 19.693660999999999
#
# number of rings (size 3 to 8) (size 9 to 14) (size 15 to 20)
#    0.000    2.000    1.250    1.875    1.750    4.250 
#    0.000    1.875    0.000    1.875    0.000    0.000 
#    0.000    0.000    0.000    0.000    0.000    0.000 
#
# Total GULP energy -396863.655857 kJ/mol
# GULP energy per Si atom -12401.989246 kJ/mol
# Density = 1.964884 g / cm^3
# Si number density = 19.693661 Si / 1000 Ang^3
#
#
#
# Elastic Constant Matrix: (Units=GPa)
#
#
# Indices 1 2 3 4 5 6 
#
# 1 104.7207 43.8535 40.6520 0.0000 4.3170 0.0000
# 2 43.8535 55.1043 38.4912 0.0000 4.5737 0.0000
# 3 40.6520 38.4912 94.6508 0.0000 -2.8327 0.0000
# 4 0.0000 0.0000 0.0000 33.6018 0.0000 4.3104
# 5 4.3170 4.5737 -2.8327 0.0000 35.7259 0.0000
# 6 0.0000 0.0000 0.0000 4.3104 0.0000 24.4713
#
#
#
# Elastic Compliance Matrix: (Units=1/GPa)
#
#
# Indices 1 2 3 4 5 6 
#
# 1 0.014648 -0.010049 -0.002225 0.000000 -0.000660 0.000000
# 2 -0.010049 0.032846 -0.009153 0.000000 -0.003717 0.000000
# 3 -0.002225 -0.009153 0.015322 0.000000 0.002655 0.000000
# 4 0.000000 0.000000 0.000000 0.030448 0.000000 -0.005363
# 5 -0.000660 -0.003717 0.002655 0.000000 0.028757 0.000000
# 6 0.000000 0.000000 0.000000 -0.005363 0.000000 0.041809
#
#
# Mechanical properties :
#
#
# Convention : Reuss Voigt Hill
#
# Bulk Modulus (GPa) = 50.08910 55.60768 52.84839
# Shear Modulus (GPa) = 23.43707 27.52508 25.48107
#
# Velocity S-wave (km/s) = 3.45350 3.74259 3.60095
# Velocity P-wave (km/s) = 6.43363 6.85373 6.64700
#
# Compressibility (1/GPa) = 0.01996442
#
# Stress axis : x y z
#
# Youngs Moduli (GPa) = 68.26872 30.44495 65.26486
#
# Poissons Ratio (x) = 0.30593 0.14519
# Poissons Ratio (y) = 0.68600 0.59736
# Poissons Ratio (z) = 0.15187 0.27866
#
# Static dielectric constant tensor:
#      x y z
#    x 3.340210 0.000000 0.127370 
#    y 0.000000 3.381240 0.000000 
#    z 0.127370 0.000000 3.578720 
# 
# 
# High freq. dielectric constant tensor:
#      x y z
#    x 1.782320 0.000000 -0.000520 
#    y 0.000000 1.742480 0.000000 
#    z -0.000520 0.000000 1.773830 
# 
# From -- ./inp_files/71496.got.cif
#   From: 2010.06.25/outbox.cif.g09.slc.cpg/sg10_36_cif.got.tgz:71496.got - 2010.06.27 22:07:45.
