data_PCOD8063244
_publ_section_title
;
Structure prediction by ZEFSAII (Michael W. Deem and Ramdas Pophale) SiO2 
 PCOD8063244
Probable space group: P 2/M
;
_chemical_formula_sum "Si O2"
_cell_formula_units_Z 32
_cell_length_a 13.565937
_cell_length_b 13.270990
_cell_length_c 13.923191
_cell_angle_alpha 90.000000
_cell_angle_beta 136.298107
_cell_angle_gamma 90.000000
_cell_volume 1731.853093
_symmetry_space_group_name_H-M "P 2/M"
_symmetry_group_IT_number 10
_symmetry_cell_setting 'monoclinic'
loop_
_space_group_symop_operation_xyz
x,y,z
-x,y,-z
-x,-y,-z
x,-y,z
loop_
_atom_site_type_symbol
_atom_site_label
_atom_site_fract_x
_atom_site_fract_y
_atom_site_fract_z
Si Si1 0.392491 0.293548 0.306351
Si Si2 0.884976 0.386802 0.549061
Si Si3 0.159505 0.287444 0.807336
Si Si4 0.326315 0.612060 0.442553
Si Si5 0.071886 0.116124 0.892022
Si Si6 0.790835 0.114386 0.804472
Si Si7 0.666758 0.618105 0.226406
Si Si8 0.645193 0.613450 0.916147
O O1 0.561729 0.306922 0.436893
O O2 0.309241 0.372524 0.316759
O O3 0.348854 0.181876 0.309411
O O4 0.343653 0.310965 0.164238
O O5 0.938013 0.500000 0.565968
O O6 0.825192 0.373567 0.614321
O O7 0.760868 0.357922 0.387240
O O8 0.023137 0.316287 0.645873
O O9 0.132028 0.181972 0.843962
O O10 0.288388 0.296936 0.820527
O O11 0.209740 0.369167 0.921631
O O12 0.385138 0.500000 0.506883
O O13 0.910026 0.144808 0.808744
O O14 0.080674 0.000000 0.864093
O O15 0.160174 0.131312 0.051515
O O16 0.745504 0.000000 0.755900
O O17 0.689374 0.500000 0.209701
O O18 0.499598 0.636545 0.127162
O O19 0.641291 0.500000 0.875140
#
# Coordination Sequence:
#
# PCOD8063244 Si02
#       8
#     4   4   4   4   4   4   4   4
#     4  11  18  32  54  78 104 144 182 216 262 324
#     4  10  20  35  52  77 111 148 185 219 260 318
#     4  12  21  33  56  84 103 136 185 237 269 302
#     4  10  20  33  51  76 111 155 185 205 258 341
#     4   9  19  36  56  78 106 138 174 219 281 342
#     4   9  18  35  57  79 104 136 177 225 276 330
#     4  10  21  37  54  75 111 154 186 214 260 319
#     4  11  21  34  52  81 115 145 181 221 263 314
#
# _framework density 18.477316999999999
#
# number of rings (size 3 to 8) (size 9 to 14) (size 15 to 20)
#    0.000    1.750    2.500    4.875    0.000    2.000 
#    0.000    1.250    0.000    7.500    0.000    0.000 
#    0.000    0.000    0.000    0.000    0.000    0.000 
#
# Total GULP energy -396419.399828 kJ/mol
# GULP energy per Si atom -12388.106245 kJ/mol
# Density = 1.843526 g / cm^3
# Si number density = 18.477317 Si / 1000 Ang^3
#
#
#
# Elastic Constant Matrix: (Units=GPa)
#
#
# Indices 1 2 3 4 5 6 
#
# 1 78.9548 46.4415 9.5281 0.0000 -5.9294 0.0000
# 2 46.4415 92.3267 29.3286 0.0000 8.6994 0.0000
# 3 9.5281 29.3286 48.1189 0.0000 8.0247 0.0000
# 4 0.0000 0.0000 0.0000 25.0231 0.0000 -0.3274
# 5 -5.9294 8.6994 8.0247 0.0000 27.2350 0.0000
# 6 0.0000 0.0000 0.0000 -0.3274 0.0000 35.3728
#
#
#
# Elastic Compliance Matrix: (Units=1/GPa)
#
#
# Indices 1 2 3 4 5 6 
#
# 1 0.019490 -0.011010 0.001638 0.000000 0.007278 0.000000
# 2 -0.011010 0.019753 -0.008842 0.000000 -0.006101 0.000000
# 3 0.001638 -0.008842 0.026625 0.000000 -0.004664 0.000000
# 4 0.000000 0.000000 0.000000 0.039968 0.000000 0.000370
# 5 0.007278 -0.006101 -0.004664 0.000000 0.041625 0.000000
# 6 0.000000 0.000000 0.000000 0.000370 0.000000 0.028274
#
#
# Mechanical properties :
#
#
# Convention : Reuss Voigt Hill
#
# Bulk Modulus (GPa) = 33.96799 43.33298 38.65048
# Shear Modulus (GPa) = 22.52500 26.46632 24.49566
#
# Velocity S-wave (km/s) = 3.49529 3.78877 3.64499
# Velocity P-wave (km/s) = 5.89177 6.53013 6.21915
#
# Compressibility (1/GPa) = 0.02943948
#
# Stress axis : x y z
#
# Youngs Moduli (GPa) = 51.30734 50.62586 37.55936
#
# Poissons Ratio (x) = 0.55738 -0.06150
# Poissons Ratio (y) = 0.56488 0.33209
# Poissons Ratio (z) = -0.08402 0.44763
#
# Static dielectric constant tensor:
#      x y z
#    x 3.568850 0.000000 -0.101920 
#    y 0.000000 3.220200 0.000000 
#    z -0.101920 0.000000 3.313760 
# 
# 
# High freq. dielectric constant tensor:
#      x y z
#    x 1.723870 0.000000 -0.003450 
#    y 0.000000 1.682650 0.000000 
#    z -0.003450 0.000000 1.713460 
# 
# From -- ./inp_files/67366.got.cif
#   From: 2010.06.25/outbox.cif.g09.slc.cpg/sg10_34_cif.got.tgz:67366.got - 2010.06.27 22:07:45.
