data_PCOD8063135
_publ_section_title
;
Structure prediction by ZEFSAII (Michael W. Deem and Ramdas Pophale) SiO2 
 PCOD8063135
Probable space group: P 2/M
;
_chemical_formula_sum "Si O2"
_cell_formula_units_Z 32
_cell_length_a 13.513256
_cell_length_b 14.317730
_cell_length_c 19.499472
_cell_angle_alpha 90.000000
_cell_angle_beta 152.053754
_cell_angle_gamma 90.000000
_cell_volume 1768.068751
_symmetry_space_group_name_H-M "P 2/M"
_symmetry_group_IT_number 10
_symmetry_cell_setting 'monoclinic'
loop_
_space_group_symop_operation_xyz
x,y,z
-x,y,-z
-x,-y,-z
x,-y,z
loop_
_atom_site_type_symbol
_atom_site_label
_atom_site_fract_x
_atom_site_fract_y
_atom_site_fract_z
Si Si1 0.079679 0.735542 0.875241
Si Si2 0.786801 0.782406 0.902568
Si Si3 0.824492 0.893625 0.675888
Si Si4 0.317623 0.393676 0.338972
Si Si5 0.766315 0.390415 0.355154
Si Si6 0.556683 0.390784 0.956883
Si Si7 0.430555 0.105551 0.342739
Si Si8 0.424149 0.603331 0.252062
O O1 0.004975 0.815603 0.776016
O O2 0.881593 0.675801 0.783770
O O3 0.200874 0.796940 0.008169
O O4 0.231073 0.664693 0.929412
O O5 0.599616 0.831313 0.744304
O O6 0.766469 0.670290 0.886149
O O7 0.000000 0.820557 0.000000
O O8 0.724589 0.870326 0.689350
O O9 0.665176 0.880544 0.515211
O O10 0.911059 0.000000 0.728521
O O11 0.500000 0.354843 0.500000
O O12 0.246715 0.500000 0.314278
O O13 0.445486 0.393258 0.346219
O O14 0.795795 0.500000 0.365054
O O15 0.631910 0.354087 0.207615
O O16 0.643413 0.364958 0.350295
O O17 0.000000 0.343453 0.500000
O O18 0.601289 0.500000 0.971842
O O19 0.500000 0.369270 0.000000
O O20 0.393673 0.000000 0.295853
O O21 0.362865 0.500000 0.187817
#
# Coordination Sequence:
#
# PCOD8063135 Si02
#       8
#     4   4   4   4   4   4   4   4
#     4  12  22  33  56  81 111 141 181 226 272 329
#     4  12  21  31  49  81 111 145 177 214 269 322
#     4   9  19  35  55  77 106 147 184 219 266 323
#     4  10  22  34  47  75 114 152 184 217 265 323
#     4   9  18  34  55  73  97 139 186 226 262 308
#     4  10  22  40  57  78 109 143 185 232 276 321
#     4   9  19  35  52  74 111 150 181 216 264 322
#     4  10  20  33  49  72 109 146 182 217 259 320
#
# _framework density 18.098844
#
# number of rings (size 3 to 8) (size 9 to 14) (size 15 to 20)
#    0.000    1.875    3.750    1.125    3.500    2.500 
#    0.000    3.750    0.000    0.375    0.000    0.000 
#    0.000    3.000    0.000    0.000    0.000    0.000 
#
# Total GULP energy -396528.193761 kJ/mol
# GULP energy per Si atom -12391.506055 kJ/mol
# Density = 1.805765 g / cm^3
# Si number density = 18.098844 Si / 1000 Ang^3
#
#
#
# Elastic Constant Matrix: (Units=GPa)
#
#
# Indices 1 2 3 4 5 6 
#
# 1 88.7447 33.5121 50.2010 0.0000 -0.6310 0.0000
# 2 33.5121 82.1799 53.1229 0.0000 -1.4988 0.0000
# 3 50.2010 53.1229 109.5316 0.0000 -6.8916 0.0000
# 4 0.0000 0.0000 0.0000 28.6151 0.0000 -2.7983
# 5 -0.6310 -1.4988 -6.8916 0.0000 20.8747 0.0000
# 6 0.0000 0.0000 0.0000 -2.7983 0.0000 13.3048
#
#
#
# Elastic Compliance Matrix: (Units=1/GPa)
#
#
# Indices 1 2 3 4 5 6 
#
# 1 0.015624 -0.002482 -0.006064 0.000000 -0.001708 0.000000
# 2 -0.002482 0.018172 -0.007760 0.000000 -0.001332 0.000000
# 3 -0.006064 -0.007760 0.015958 0.000000 0.004528 0.000000
# 4 0.000000 0.000000 0.000000 0.035680 0.000000 0.007504
# 5 -0.001708 -0.001332 0.004528 0.000000 0.049252 0.000000
# 6 0.000000 0.000000 0.000000 0.007504 0.000000 0.076739
#
#
# Mechanical properties :
#
#
# Convention : Reuss Voigt Hill
#
# Bulk Modulus (GPa) = 58.33916 61.56979 59.95447
# Shear Modulus (GPa) = 20.01979 22.13359 21.07669
#
# Velocity S-wave (km/s) = 3.32947 3.50083 3.41623
# Velocity P-wave (km/s) = 6.86179 7.10166 6.98275
#
# Compressibility (1/GPa) = 0.01714115
#
# Stress axis : x y z
#
# Youngs Moduli (GPa) = 64.00396 55.02832 62.66590
#
# Poissons Ratio (x) = 0.13660 0.38003
# Poissons Ratio (y) = 0.15888 0.48627
# Poissons Ratio (z) = 0.38815 0.42701
#
# Static dielectric constant tensor:
#      x y z
#    x 3.145120 0.000000 -0.123040 
#    y 0.000000 3.345840 0.000000 
#    z -0.123040 0.000000 3.474580 
# 
# 
# High freq. dielectric constant tensor:
#      x y z
#    x 1.667860 0.000000 -0.021810 
#    y 0.000000 1.688420 0.000000 
#    z -0.021810 0.000000 1.704330 
# 
# From -- ./inp_files/76969.got.cif
#   From: 2010.06.25/outbox.cif.g09.slc.cpg/sg10_39_cif.got.tgz:76969.got - 2010.06.27 22:07:45.
