data_PCOD8063288
_publ_section_title
;
Structure prediction by ZEFSAII (Michael W. Deem and Ramdas Pophale) SiO2 
 PCOD8063288
Probable space group: P 2/M
;
_chemical_formula_sum "Si O2"
_cell_formula_units_Z 32
_cell_length_a 25.524364
_cell_length_b 9.638733
_cell_length_c 19.604165
_cell_angle_alpha 90.000000
_cell_angle_beta 158.385560
_cell_angle_gamma 90.000000
_cell_volume 1776.619231
_symmetry_space_group_name_H-M "P 2/M"
_symmetry_group_IT_number 10
_symmetry_cell_setting 'monoclinic'
loop_
_space_group_symop_operation_xyz
x,y,z
-x,y,-z
-x,-y,-z
x,-y,z
loop_
_atom_site_type_symbol
_atom_site_label
_atom_site_fract_x
_atom_site_fract_y
_atom_site_fract_z
Si Si1 0.790361 0.839917 0.700258
Si Si2 0.793811 0.662379 0.479109
Si Si3 0.336028 0.160942 0.798128
Si Si4 0.155856 0.839568 0.712235
Si Si5 0.892658 0.340727 0.096956
Si Si6 0.608552 0.338249 0.385532
Si Si7 0.098742 0.840142 0.019833
Si Si8 0.717113 0.659465 0.017217
O O1 0.665600 0.745596 0.519478
O O2 0.799724 0.813400 0.792515
O O3 0.755703 0.000000 0.643221
O O4 0.938284 0.797139 0.844136
O O5 0.782229 0.500000 0.447783
O O6 0.744689 0.747643 0.354571
O O7 0.695368 0.703582 0.423472
O O8 0.954504 0.707438 0.689843
O O9 0.269082 0.192521 0.790444
O O10 0.318603 0.000000 0.756796
O O11 0.500000 0.205310 0.000000
O O12 0.000000 0.793762 0.500000
O O13 0.158156 0.000000 0.736208
O O14 0.191800 0.751553 0.821827
O O15 0.901089 0.500000 0.084012
O O16 0.845579 0.251875 0.974896
O O17 0.773322 0.316099 0.009174
O O18 0.624057 0.500000 0.421300
O O19 0.446356 0.294812 0.177184
O O20 0.104858 0.000000 0.005288
O O21 0.735964 0.500000 0.062083
#
# Coordination Sequence:
#
# PCOD8063288 Si02
#       8
#     4   4   4   4   4   4   4   4
#     4   9  18  33  54  81 109 137 173 216 260 309
#     4  10  20  33  52  77 102 130 171 217 257 306
#     4  10  21  35  51  74 102 131 167 212 261 311
#     4  10  21  37  55  76 102 135 177 220 260 311
#     4  10  20  35  53  78 107 136 174 217 258 306
#     4  10  20  35  53  78 109 140 176 216 260 311
#     4   9  18  33  54  81 109 136 173 218 260 306
#     4  10  22  37  54  77 108 142 175 215 263 314
#
# _framework density 18.011737
#
# number of rings (size 3 to 8) (size 9 to 14) (size 15 to 20)
#    0.000    2.250    1.250    2.250    0.000    3.500 
#    0.000    1.875    0.000    3.750    0.000    0.000 
#    0.000    0.000    0.000    0.000    0.000    0.000 
#
# Total GULP energy -396942.085977 kJ/mol
# GULP energy per Si atom -12404.440187 kJ/mol
# Density = 1.797074 g / cm^3
# Si number density = 18.011737 Si / 1000 Ang^3
#
#
#
# Elastic Constant Matrix: (Units=GPa)
#
#
# Indices 1 2 3 4 5 6 
#
# 1 61.3709 34.0676 22.1378 0.0000 -6.2489 0.0000
# 2 34.0676 60.9169 33.2290 0.0000 -19.1158 0.0000
# 3 22.1378 33.2290 64.1311 0.0000 -2.9715 0.0000
# 4 0.0000 0.0000 0.0000 33.3437 0.0000 -16.6165
# 5 -6.2489 -19.1158 -2.9715 0.0000 35.2254 0.0000
# 6 0.0000 0.0000 0.0000 -16.6165 0.0000 31.6154
#
#
#
# Elastic Compliance Matrix: (Units=1/GPa)
#
#
# Indices 1 2 3 4 5 6 
#
# 1 0.024090 -0.013794 -0.001323 0.000000 -0.003324 0.000000
# 2 -0.013794 0.036555 -0.013426 0.000000 0.016258 0.000000
# 3 -0.001323 -0.013426 0.022747 0.000000 -0.005602 0.000000
# 4 0.000000 0.000000 0.000000 0.040633 0.000000 0.021356
# 5 -0.003324 0.016258 -0.005602 0.000000 0.036149 0.000000
# 6 0.000000 0.000000 0.000000 0.021356 0.000000 0.042854
#
#
# Mechanical properties :
#
#
# Convention : Reuss Voigt Hill
#
# Bulk Modulus (GPa) = 38.01234 40.58751 39.29992
# Shear Modulus (GPa) = 18.59549 26.50256 22.54902
#
# Velocity S-wave (km/s) = 3.21660 3.84005 3.54207
# Velocity P-wave (km/s) = 5.91146 6.49955 6.21247
#
# Compressibility (1/GPa) = 0.02630725
#
# Stress axis : x y z
#
# Youngs Moduli (GPa) = 41.51081 27.35588 43.96262
#
# Poissons Ratio (x) = 0.37734 0.05815
# Poissons Ratio (y) = 0.57259 0.59024
# Poissons Ratio (z) = 0.05491 0.36728
#
# Static dielectric constant tensor:
#      x y z
#    x 3.291500 0.000000 0.098870 
#    y 0.000000 3.261580 0.000000 
#    z 0.098870 0.000000 3.304810 
# 
# 
# High freq. dielectric constant tensor:
#      x y z
#    x 1.699870 0.000000 -0.000260 
#    y 0.000000 1.695090 0.000000 
#    z -0.000260 0.000000 1.696430 
# 
# From -- ./inp_files/86968.got.cif
#   From: 2010.06.25/outbox.cif.g09.slc.cpg/sg10_44_cif.got.tgz:86968.got - 2010.06.27 22:07:45.
