data_PCOD8063926
_publ_section_title
;
Structure prediction by ZEFSAII (Michael W. Deem and Ramdas Pophale) SiO2 
 PCOD8063926
Probable space group: P 2/M
;
_chemical_formula_sum "Si O2"
_cell_formula_units_Z 28
_cell_length_a 9.800770
_cell_length_b 14.096880
_cell_length_c 12.352741
_cell_angle_alpha 90.000000
_cell_angle_beta 58.014873
_cell_angle_gamma 90.000000
_cell_volume 1447.562900
_symmetry_space_group_name_H-M "P 2/M"
_symmetry_group_IT_number 10
_symmetry_cell_setting 'monoclinic'
loop_
_space_group_symop_operation_xyz
x,y,z
-x,y,-z
-x,-y,-z
x,-y,z
loop_
_atom_site_type_symbol
_atom_site_label
_atom_site_fract_x
_atom_site_fract_y
_atom_site_fract_z
Si Si1 0.382695 0.889999 0.688882
Si Si2 0.816919 0.195239 0.043495
Si Si3 0.808736 0.396907 0.098948
Si Si4 0.720907 0.889439 0.638777
Si Si5 0.312224 0.394502 0.603980
Si Si6 0.181758 0.793531 0.601260
Si Si7 0.131422 0.888963 0.198506
O O1 0.250118 0.870356 0.834105
O O2 0.546763 0.853331 0.674501
O O3 0.340433 0.835620 0.595155
O O4 0.389952 0.000000 0.656056
O O5 0.742086 0.302596 0.066164
O O6 0.777948 0.139714 0.949201
O O7 0.000000 0.207240 0.000000
O O8 0.741359 0.500000 0.085200
O O9 0.743836 0.383362 0.248432
O O10 0.000000 0.400364 0.000000
O O11 0.844737 0.835809 0.507570
O O12 0.751928 0.863461 0.750488
O O13 0.745276 0.000000 0.609034
O O14 0.500000 0.373918 0.500000
O O15 0.270030 0.500000 0.580036
O O16 0.203106 0.319713 0.583681
O O17 0.026185 0.823637 0.734390
O O18 0.084402 0.000000 0.218284
#
# Coordination Sequence:
#
# PCOD8063926 Si02
#       7
#     4   4   4   4   4   4   4
#     4  11  21  33  54  83 112 144 186 239 281 327
#     4  11  20  34  55  83 111 144 191 239 288 335
#     4   9  17  32  53  82 117 148 187 240 295 348
#     4  10  23  38  53  79 115 156 192 227 283 347
#     4  10  20  34  56  88 121 150 186 240 301 352
#     4  12  20  35  60  84 111 145 191 238 283 337
#     4  11  23  38  56  80 115 157 194 231 282 349
#
# _framework density 19.342853000000002
#
# number of rings (size 3 to 8) (size 9 to 14) (size 15 to 20)
#    0.000    1.429    2.857    4.286    0.000    3.429 
#    0.000    2.143    0.000    2.571    0.000    1.000 
#    0.000    0.000    0.000    0.000    0.000    0.000 
#
# Total GULP energy -346973.227997 kJ/mol
# GULP energy per Si atom -12391.901000 kJ/mol
# Density = 1.929883 g / cm^3
# Si number density = 19.342853 Si / 1000 Ang^3
#
#
#
# Elastic Constant Matrix: (Units=GPa)
#
#
# Indices 1 2 3 4 5 6 
#
# 1 63.4868 36.6144 20.0176 0.0000 16.6923 0.0000
# 2 36.6144 100.2796 26.3283 0.0000 12.5154 0.0000
# 3 20.0176 26.3283 99.5489 0.0000 10.9986 0.0000
# 4 0.0000 0.0000 0.0000 23.3741 0.0000 -0.6520
# 5 16.6923 12.5154 10.9986 0.0000 31.9811 0.0000
# 6 0.0000 0.0000 0.0000 -0.6520 0.0000 13.3967
#
#
#
# Elastic Compliance Matrix: (Units=1/GPa)
#
#
# Indices 1 2 3 4 5 6 
#
# 1 0.022374 -0.006639 -0.001809 0.000000 -0.008458 0.000000
# 2 -0.006639 0.013042 -0.002010 0.000000 -0.000948 0.000000
# 3 -0.001809 -0.002010 0.011174 0.000000 -0.002112 0.000000
# 4 0.000000 0.000000 0.000000 0.042841 0.000000 0.002085
# 5 -0.008458 -0.000948 -0.002112 0.000000 0.036780 0.000000
# 6 0.000000 0.000000 0.000000 0.002085 0.000000 0.074747
#
#
# Mechanical properties :
#
#
# Convention : Reuss Voigt Hill
#
# Bulk Modulus (GPa) = 38.94753 47.69288 43.32021
# Shear Modulus (GPa) = 21.69847 25.77404 23.73626
#
# Velocity S-wave (km/s) = 3.35294 3.65428 3.50685
# Velocity P-wave (km/s) = 5.93032 6.52036 6.23233
#
# Compressibility (1/GPa) = 0.02567557
#
# Stress axis : x y z
#
# Youngs Moduli (GPa) = 44.69438 76.67531 89.49419
#
# Poissons Ratio (x) = 0.50903 0.16187
# Poissons Ratio (y) = 0.29672 0.17985
# Poissons Ratio (z) = 0.08084 0.15409
#
# Static dielectric constant tensor:
#      x y z
#    x 3.300360 0.000000 -0.115370 
#    y 0.000000 3.939010 0.000000 
#    z -0.115370 0.000000 3.865250 
# 
# 
# High freq. dielectric constant tensor:
#      x y z
#    x 1.706570 0.000000 -0.009570 
#    y 0.000000 1.761780 0.000000 
#    z -0.009570 0.000000 1.773020 
# 
# From -- ./inp_files/42748.got.cif
#   From: 2010.06.25/outbox.cif.g09.slc.cpg/sg10_22_cif.got.tgz:42748.got - 2010.06.27 22:07:45.
