data_PCOD8063797
_publ_section_title
;
Structure prediction by ZEFSAII (Michael W. Deem and Ramdas Pophale) SiO2 
 PCOD8063797
Probable space group: P 2/M
;
_chemical_formula_sum "Si O2"
_cell_formula_units_Z 32
_cell_length_a 12.245002
_cell_length_b 9.531158
_cell_length_c 29.471096
_cell_angle_alpha 90.000000
_cell_angle_beta 149.131205
_cell_angle_gamma 90.000000
_cell_volume 1764.739860
_symmetry_space_group_name_H-M "P 2/M"
_symmetry_group_IT_number 10
_symmetry_cell_setting 'monoclinic'
loop_
_space_group_symop_operation_xyz
x,y,z
-x,y,-z
-x,-y,-z
x,-y,z
loop_
_atom_site_type_symbol
_atom_site_label
_atom_site_fract_x
_atom_site_fract_y
_atom_site_fract_z
Si Si1 0.157249 0.838693 0.810690
Si Si2 0.988345 0.164516 0.141505
Si Si3 0.616737 0.665818 0.474360
Si Si4 0.621236 0.838158 0.942147
Si Si5 0.180065 0.665653 0.360205
Si Si6 0.244876 0.663866 0.091915
Si Si7 0.640462 0.336865 0.765840
Si Si8 0.774629 0.664963 0.435283
O O1 0.100351 0.793090 0.841179
O O2 0.406886 0.812113 0.893634
O O3 0.031939 0.744533 0.730121
O O4 0.097427 0.000000 0.780400
O O5 0.204492 0.248622 0.210780
O O6 0.035819 0.000000 0.155002
O O7 0.815882 0.211971 0.042860
O O8 0.601504 0.500000 0.465072
O O9 0.378213 0.719650 0.400234
O O10 0.776293 0.706482 0.571876
O O11 0.701434 0.731808 0.457389
O O12 0.615134 0.747552 0.894329
O O13 0.646646 0.000000 0.937477
O O14 0.145449 0.500000 0.342548
O O15 0.273746 0.500000 0.092562
O O16 0.331803 0.706832 0.172134
O O17 0.000000 0.709708 0.000000
O O18 0.695392 0.500000 0.778110
O O19 0.399487 0.302272 0.665341
O O20 0.803677 0.500000 0.452700
O O21 0.000000 0.731459 0.500000
#
# Coordination Sequence:
#
# PCOD8063797 Si02
#       8
#     4   4   4   4   4   4   4   4
#     4  10  21  35  50  75 108 135 168 216 262 303
#     4  10  20  35  55  75 100 136 176 214 255 305
#     4   8  15  29  49  72  98 127 167 213 248 293
#     4  10  21  36  54  74 100 139 179 212 251 306
#     4   9  17  31  52  75  98 130 168 208 255 305
#     4  10  20  35  53  77 109 135 164 214 265 304
#     4  10  20  34  55  80 105 135 170 213 261 304
#     4   9  17  29  47  73 102 131 165 205 250 301
#
# _framework density 18.132985000000001
#
# number of rings (size 3 to 8) (size 9 to 14) (size 15 to 20)
#    0.000    2.500    1.250    1.875    0.000    5.250 
#    0.000    3.750    0.000    3.375    0.000    0.000 
#    0.000    0.000    0.000    0.000    0.000    0.000 
#
# Total GULP energy -396839.679749 kJ/mol
# GULP energy per Si atom -12401.239992 kJ/mol
# Density = 1.809171 g / cm^3
# Si number density = 18.132985 Si / 1000 Ang^3
#
#
#
# Elastic Constant Matrix: (Units=GPa)
#
#
# Indices 1 2 3 4 5 6 
#
# 1 114.5717 29.6049 54.2166 0.0000 -8.9657 0.0000
# 2 29.6049 33.9886 29.1919 0.0000 -0.2280 0.0000
# 3 54.2166 29.1919 111.2070 0.0000 -2.5285 0.0000
# 4 0.0000 0.0000 0.0000 21.5067 0.0000 2.7750
# 5 -8.9657 -0.2280 -2.5285 0.0000 28.7637 0.0000
# 6 0.0000 0.0000 0.0000 2.7750 0.0000 24.1929
#
#
#
# Elastic Compliance Matrix: (Units=1/GPa)
#
#
# Indices 1 2 3 4 5 6 
#
# 1 0.012997 -0.007650 -0.004246 0.000000 0.003617 0.000000
# 2 -0.007650 0.042497 -0.007488 0.000000 -0.002706 0.000000
# 3 -0.004246 -0.007488 0.013023 0.000000 -0.000238 0.000000
# 4 0.000000 0.000000 0.000000 0.047196 0.000000 -0.005414
# 5 0.003617 -0.002706 -0.000238 0.000000 0.035851 0.000000
# 6 0.000000 0.000000 0.000000 -0.005414 0.000000 0.041955
#
#
# Mechanical properties :
#
#
# Convention : Reuss Voigt Hill
#
# Bulk Modulus (GPa) = 33.61340 53.97712 43.79526
# Shear Modulus (GPa) = 20.64382 24.67627 22.66004
#
# Velocity S-wave (km/s) = 3.37778 3.69297 3.53889
# Velocity P-wave (km/s) = 5.81291 6.92936 6.39554
#
# Compressibility (1/GPa) = 0.02975004
#
# Stress axis : x y z
#
# Youngs Moduli (GPa) = 76.93937 23.53080 76.79004
#
# Poissons Ratio (x) = 0.18000 0.32607
# Poissons Ratio (y) = 0.58856 0.57498
# Poissons Ratio (z) = 0.32670 0.17619
#
# Static dielectric constant tensor:
#      x y z
#    x 3.592060 0.000000 -0.066180 
#    y 0.000000 3.006010 0.000000 
#    z -0.066180 0.000000 3.383840 
# 
# 
# High freq. dielectric constant tensor:
#      x y z
#    x 1.710170 0.000000 -0.005630 
#    y 0.000000 1.666580 0.000000 
#    z -0.005630 0.000000 1.708790 
# 
# From -- ./inp_files/58185.got.cif
#   From: 2010.06.25/outbox.cif.g09.slc.cpg/sg10_30_cif.got.tgz:58185.got - 2010.06.27 22:07:45.
