data_PCOD8063571
_publ_section_title
;
Structure prediction by ZEFSAII (Michael W. Deem and Ramdas Pophale) SiO2 
 PCOD8063571
Probable space group: P 2/M
;
_chemical_formula_sum "Si O2"
_cell_formula_units_Z 32
_cell_length_a 15.411562
_cell_length_b 8.572900
_cell_length_c 25.829128
_cell_angle_alpha 90.000000
_cell_angle_beta 150.053885
_cell_angle_gamma 90.000000
_cell_volume 1703.514970
_symmetry_space_group_name_H-M "P 2/M"
_symmetry_group_IT_number 10
_symmetry_cell_setting 'monoclinic'
loop_
_space_group_symop_operation_xyz
x,y,z
-x,y,-z
-x,-y,-z
x,-y,z
loop_
_atom_site_type_symbol
_atom_site_label
_atom_site_fract_x
_atom_site_fract_y
_atom_site_fract_z
Si Si1 0.248245 0.817629 0.313610
Si Si2 0.244535 0.183272 0.850060
Si Si3 0.870178 0.317571 0.643206
Si Si4 0.438894 0.683273 0.044419
Si Si5 0.055668 0.682373 0.121033
Si Si6 0.400212 0.317493 0.235747
Si Si7 0.593183 0.182509 0.428718
Si Si8 0.310734 0.182431 0.083766
O O1 0.242066 0.731538 0.365078
O O2 0.096930 0.750023 0.198976
O O3 0.435062 0.782429 0.385838
O O4 0.215411 0.000000 0.305014
O O5 0.373149 0.250003 0.873150
O O6 0.050088 0.226013 0.734368
O O7 0.267391 0.000000 0.863983
O O8 0.289271 0.250002 0.929758
O O9 0.907794 0.500000 0.663290
O O10 0.762717 0.271391 0.536684
O O11 0.442832 0.500000 0.039429
O O12 0.397082 0.726026 0.081358
O O13 0.015820 0.500000 0.105423
O O14 0.212611 0.717566 0.163387
O O15 0.888894 0.768428 0.011906
O O16 0.429482 0.500000 0.242471
O O17 0.550251 0.250005 0.350085
O O18 0.415380 0.228599 0.189350
O O19 0.631533 0.000000 0.444528
O O20 0.325678 0.000000 0.081195
#
# Coordination Sequence:
#
# PCOD8063571 Si02
#       8
#     4   4   4   4   4   4   4   4
#     4  10  20  34  52  77 110 145 182 224 270 320
#     4  11  22  39  60  84 113 142 175 217 268 323
#     4  12  23  35  54  80 109 144 184 223 267 319
#     4  11  22  39  60  84 113 142 175 217 268 323
#     4  10  20  34  52  77 110 145 182 224 270 320
#     4  10  21  37  55  77 107 144 184 227 272 317
#     4  10  21  37  55  77 107 144 184 227 272 317
#     4  12  23  35  54  80 109 144 184 223 267 319
#
# _framework density 18.784690000000001
#
# number of rings (size 3 to 8) (size 9 to 14) (size 15 to 20)
#    0.000    1.250    0.000    8.250    0.000    6.000 
#    0.000    0.000    0.000    0.750    0.000    5.250 
#    0.000    0.000    0.000    0.000    0.000    0.000 
#
# Total GULP energy -397023.072801 kJ/mol
# GULP energy per Si atom -12406.971025 kJ/mol
# Density = 1.874194 g / cm^3
# Si number density = 18.784690 Si / 1000 Ang^3
#
#
#
# Elastic Constant Matrix: (Units=GPa)
#
#
# Indices 1 2 3 4 5 6 
#
# 1 77.8430 34.8057 48.2725 0.0000 -12.6152 0.0000
# 2 34.8057 130.7343 39.5382 0.0000 -3.0429 0.0000
# 3 48.2725 39.5382 118.9675 0.0000 -13.8205 0.0000
# 4 0.0000 0.0000 0.0000 34.2657 0.0000 -2.6795
# 5 -12.6152 -3.0429 -13.8205 0.0000 25.3713 0.0000
# 6 0.0000 0.0000 0.0000 -2.6795 0.0000 30.0990
#
#
#
# Elastic Compliance Matrix: (Units=1/GPa)
#
#
# Indices 1 2 3 4 5 6 
#
# 1 0.018852 -0.003084 -0.005955 0.000000 0.005760 0.000000
# 2 -0.003084 0.009016 -0.001919 0.000000 -0.001497 0.000000
# 3 -0.005955 -0.001919 0.011838 0.000000 0.003257 0.000000
# 4 0.000000 0.000000 0.000000 0.029388 0.000000 0.002616
# 5 0.005760 -0.001497 0.003257 0.000000 0.043873 0.000000
# 6 0.000000 0.000000 0.000000 0.002616 0.000000 0.033457
#
#
# Mechanical properties :
#
#
# Convention : Reuss Voigt Hill
#
# Bulk Modulus (GPa) = 56.21323 63.64196 59.92759
# Shear Modulus (GPa) = 28.69121 31.60910 30.15016
#
# Velocity S-wave (km/s) = 3.91240 4.10653 4.01064
# Velocity P-wave (km/s) = 7.09924 7.51252 7.30880
#
# Compressibility (1/GPa) = 0.01778941
#
# Stress axis : x y z
#
# Youngs Moduli (GPa) = 53.04579 110.91880 84.47192
#
# Poissons Ratio (x) = 0.34205 0.50306
# Poissons Ratio (y) = 0.16358 0.16210
# Poissons Ratio (z) = 0.31590 0.21285
#
# Static dielectric constant tensor:
#      x y z
#    x 3.293010 0.000000 -0.068240 
#    y 0.000000 3.634660 0.000000 
#    z -0.068240 0.000000 3.399490 
# 
# 
# High freq. dielectric constant tensor:
#      x y z
#    x 1.711870 0.000000 -0.010830 
#    y 0.000000 1.751310 0.000000 
#    z -0.010830 0.000000 1.728710 
# 
# From -- ./inp_files/89610.got.cif
#   From: 2010.06.25/outbox.cif.g09.slc.cpg/sg10_45_cif.got.tgz:89610.got - 2010.06.27 22:07:45.
