data_PCOD8063649
_publ_section_title
;
Structure prediction by ZEFSAII (Michael W. Deem and Ramdas Pophale) SiO2 
 PCOD8063649
Probable space group: P 2/M
;
_chemical_formula_sum "Si O2"
_cell_formula_units_Z 32
_cell_length_a 15.093056
_cell_length_b 13.947765
_cell_length_c 10.081296
_cell_angle_alpha 90.000000
_cell_angle_beta 119.302119
_cell_angle_gamma 90.000000
_cell_volume 1850.717544
_symmetry_space_group_name_H-M "P 2/M"
_symmetry_group_IT_number 10
_symmetry_cell_setting 'monoclinic'
loop_
_space_group_symop_operation_xyz
x,y,z
-x,y,-z
-x,-y,-z
x,-y,z
loop_
_atom_site_type_symbol
_atom_site_label
_atom_site_fract_x
_atom_site_fract_y
_atom_site_fract_z
Si Si1 0.940939 0.208863 0.090632
Si Si2 0.942396 0.113139 0.587321
Si Si3 0.039875 0.608177 0.737719
Si Si4 0.726147 0.204434 0.391688
Si Si5 0.386482 0.111250 0.457239
Si Si6 0.614715 0.889309 0.071989
Si Si7 0.732995 0.890786 0.895446
Si Si8 0.164215 0.391402 0.568979
O O1 0.941904 0.321081 0.126766
O O2 0.993123 0.144707 0.240003
O O3 0.824900 0.179849 0.989367
O O4 0.000000 0.189411 0.000000
O O5 0.829997 0.153964 0.509643
O O6 0.000000 0.153025 0.500000
O O7 0.934499 0.000000 0.579394
O O8 0.045583 0.500000 0.796295
O O9 0.126311 0.624871 0.690974
O O10 0.929313 0.629645 0.597045
O O11 0.642892 0.178880 0.441328
O O12 0.689473 0.169684 0.221335
O O13 0.744033 0.319005 0.397378
O O14 0.500000 0.138141 0.500000
O O15 0.313664 0.133903 0.280949
O O16 0.378965 0.000000 0.495227
O O17 0.620565 0.000000 0.120285
O O18 0.500000 0.850553 0.000000
O O19 0.647636 0.874795 0.944408
O O20 0.772641 0.000000 0.928233
O O21 0.204137 0.500000 0.579440
#
# Coordination Sequence:
#
# PCOD8063649 Si02
#       8
#     4   4   4   4   4   4   4   4
#     4  12  23  33  49  76 112 146 172 206 258 318
#     4  11  22  34  50  76 109 144 181 216 254 314
#     4   9  18  35  54  75 105 139 175 218 263 306
#     4  12  20  32  57  80 102 134 181 222 259 311
#     4  10  21  37  55  76 104 141 184 224 257 301
#     4  10  20  34  53  78 104 132 172 223 269 305
#     4  10  21  35  49  70 107 145 172 205 259 315
#     4   9  18  33  57  81 101 131 176 226 268 310
#
# _framework density 17.290592
#
# number of rings (size 3 to 8) (size 9 to 14) (size 15 to 20)
#    0.000    1.625    1.250    6.000    0.000    6.250 
#    0.000    0.000    0.000    0.750    0.000    1.750 
#    0.000    0.000    0.000    0.000    0.000    0.000 
#
# Total GULP energy -396927.044306 kJ/mol
# GULP energy per Si atom -12403.970135 kJ/mol
# Density = 1.725124 g / cm^3
# Si number density = 17.290592 Si / 1000 Ang^3
#
#
#
# Elastic Constant Matrix: (Units=GPa)
#
#
# Indices 1 2 3 4 5 6 
#
# 1 78.1915 29.6669 10.8343 0.0000 -3.8109 0.0000
# 2 29.6669 79.1724 19.2571 0.0000 -0.7281 0.0000
# 3 10.8343 19.2571 55.3245 0.0000 -6.0689 0.0000
# 4 0.0000 0.0000 0.0000 23.7591 0.0000 -7.3297
# 5 -3.8109 -0.7281 -6.0689 0.0000 31.9217 0.0000
# 6 0.0000 0.0000 0.0000 -7.3297 0.0000 25.4402
#
#
#
# Elastic Compliance Matrix: (Units=1/GPa)
#
#
# Indices 1 2 3 4 5 6 
#
# 1 0.015036 -0.005402 -0.000900 0.000000 0.001501 0.000000
# 2 -0.005402 0.015751 -0.004551 0.000000 -0.001151 0.000000
# 3 -0.000900 -0.004551 0.020234 0.000000 0.003636 0.000000
# 4 0.000000 0.000000 0.000000 0.046195 0.000000 0.013310
# 5 0.001501 -0.001151 0.003636 0.000000 0.032171 0.000000
# 6 0.000000 0.000000 0.000000 0.013310 0.000000 0.043143
#
#
# Mechanical properties :
#
#
# Convention : Reuss Voigt Hill
#
# Bulk Modulus (GPa) = 34.11003 36.91167 35.51085
# Shear Modulus (GPa) = 24.50889 26.41953 25.46421
#
# Velocity S-wave (km/s) = 3.76901 3.91317 3.84177
# Velocity P-wave (km/s) = 6.22181 6.46617 6.34517
#
# Compressibility (1/GPa) = 0.02931689
#
# Stress axis : x y z
#
# Youngs Moduli (GPa) = 66.50523 63.48761 49.42106
#
# Poissons Ratio (x) = 0.34294 0.04447
# Poissons Ratio (y) = 0.35924 0.22492
# Poissons Ratio (z) = 0.05984 0.28893
#
# Static dielectric constant tensor:
#      x y z
#    x 3.198700 0.000000 -0.036800 
#    y 0.000000 3.212350 0.000000 
#    z -0.036800 0.000000 3.240280 
# 
# 
# High freq. dielectric constant tensor:
#      x y z
#    x 1.664240 0.000000 -0.005850 
#    y 0.000000 1.655770 0.000000 
#    z -0.005850 0.000000 1.669880 
# 
# From -- ./inp_files/29523.got.cif
#   From: 2010.06.25/outbox.cif.g09.slc.cpg/sg10_15_cif.got.tgz:29523.got - 2010.06.27 22:07:45.
