data_PCOD8063809
_publ_section_title
;
Structure prediction by ZEFSAII (Michael W. Deem and Ramdas Pophale) SiO2 
 PCOD8063809
Probable space group: P 2/M
;
_chemical_formula_sum "Si O2"
_cell_formula_units_Z 32
_cell_length_a 29.933767
_cell_length_b 9.235548
_cell_length_c 12.584779
_cell_angle_alpha 90.000000
_cell_angle_beta 151.783582
_cell_angle_gamma 90.000000
_cell_volume 1644.940218
_symmetry_space_group_name_H-M "P 2/M"
_symmetry_group_IT_number 10
_symmetry_cell_setting 'monoclinic'
loop_
_space_group_symop_operation_xyz
x,y,z
-x,y,-z
-x,-y,-z
x,-y,z
loop_
_atom_site_type_symbol
_atom_site_label
_atom_site_fract_x
_atom_site_fract_y
_atom_site_fract_z
Si Si1 0.664133 0.830265 0.086473
Si Si2 0.744549 0.670110 0.857402
Si Si3 0.110226 0.162636 0.716234
Si Si4 0.243446 0.328380 0.353252
Si Si5 0.031807 0.670937 0.949993
Si Si6 0.392713 0.332554 0.244514
Si Si7 0.400391 0.670552 0.845069
Si Si8 0.875106 0.167912 0.491027
O O1 0.604713 0.752698 0.053882
O O2 0.775696 0.803062 0.341630
O O3 0.640866 0.000000 0.036914
O O4 0.633787 0.765476 0.910366
O O5 0.757425 0.500000 0.885130
O O6 0.720517 0.722486 0.687476
O O7 0.664679 0.720891 0.772243
O O8 0.844393 0.736758 0.099622
O O9 0.138857 0.218528 0.659589
O O10 0.000000 0.171959 0.500000
O O11 0.147862 0.000000 0.811476
O O12 0.242538 0.500000 0.359300
O O13 0.317000 0.268800 0.594455
O O14 0.137777 0.268968 0.153386
O O15 0.027328 0.500000 0.923959
O O16 0.959481 0.740689 0.716592
O O17 0.000000 0.717810 0.000000
O O18 0.500000 0.308730 0.500000
O O19 0.370961 0.500000 0.171469
O O20 0.390305 0.500000 0.845787
O O21 0.500000 0.706914 0.000000
O O22 0.904516 0.000000 0.557166
#
# Coordination Sequence:
#
# PCOD8063809 Si02
#       8
#     4   4   4   4   4   4   4   4
#     4  11  23  40  61  86 122 156 190 241 293 350
#     4  10  20  35  57  84 116 149 187 241 291 341
#     4  10  20  35  54  78 113 154 193 232 278 338
#     4   9  19  36  56  85 119 148 188 242 296 345
#     4  10  20  34  55  81 111 148 190 239 289 342
#     4  10  22  38  61  89 115 150 197 244 290 347
#     4  10  22  40  66  90 114 153 197 243 293 345
#     4  10  21  36  54  80 113 150 191 233 281 339
#
# _framework density 19.453595
#
# number of rings (size 3 to 8) (size 9 to 14) (size 15 to 20)
#    0.000    2.000    1.250    1.875    1.750    3.500 
#    0.000    1.250    0.000    0.000    0.000    0.000 
#    0.000    0.000    0.000    0.000    0.000    0.000 
#
# Total GULP energy -396854.601428 kJ/mol
# GULP energy per Si atom -12401.706295 kJ/mol
# Density = 1.940932 g / cm^3
# Si number density = 19.453595 Si / 1000 Ang^3
#
#
#
# Elastic Constant Matrix: (Units=GPa)
#
#
# Indices 1 2 3 4 5 6 
#
# 1 146.2539 48.4329 50.9822 0.0000 -4.4861 0.0000
# 2 48.4329 44.3079 35.5181 0.0000 -1.9417 0.0000
# 3 50.9822 35.5181 101.4507 0.0000 0.5476 0.0000
# 4 0.0000 0.0000 0.0000 59.1920 0.0000 -36.5305
# 5 -4.4861 -1.9417 0.5476 0.0000 29.0861 0.0000
# 6 0.0000 0.0000 0.0000 -36.5305 0.0000 47.0962
#
#
#
# Elastic Compliance Matrix: (Units=1/GPa)
#
#
# Indices 1 2 3 4 5 6 
#
# 1 0.010985 -0.010472 -0.001860 0.000000 0.001030 0.000000
# 2 -0.010472 0.041512 -0.009278 0.000000 0.001331 0.000000
# 3 -0.001860 -0.009278 0.014046 0.000000 -0.001171 0.000000
# 4 0.000000 0.000000 0.000000 0.032408 0.000000 0.025137
# 5 0.001030 0.001331 -0.001171 0.000000 0.034650 0.000000
# 6 0.000000 0.000000 0.000000 0.025137 0.000000 0.040731
#
#
# Mechanical properties :
#
#
# Convention : Reuss Voigt Hill
#
# Bulk Modulus (GPa) = 42.87467 62.43099 52.65283
# Shear Modulus (GPa) = 22.19001 37.54681 29.86841
#
# Velocity S-wave (km/s) = 3.38104 4.39802 3.92263
# Velocity P-wave (km/s) = 6.10976 7.61263 6.90222
#
# Compressibility (1/GPa) = 0.02332379
#
# Stress axis : x y z
#
# Youngs Moduli (GPa) = 91.03208 24.08941 71.19371
#
# Poissons Ratio (x) = 0.25226 0.13240
# Poissons Ratio (y) = 0.95328 0.66055
# Poissons Ratio (z) = 0.16929 0.22351
#
# Static dielectric constant tensor:
#      x y z
#    x 3.372400 0.000000 -0.054300 
#    y 0.000000 3.346890 0.000000 
#    z -0.054300 0.000000 3.555830 
# 
# 
# High freq. dielectric constant tensor:
#      x y z
#    x 1.774710 0.000000 0.001070 
#    y 0.000000 1.734010 0.000000 
#    z 0.001070 0.000000 1.761980 
# 
# From -- ./inp_files/58324.got.cif
#   From: 2010.06.25/outbox.cif.g09.slc.cpg/sg10_30_cif.got.tgz:58324.got - 2010.06.27 22:07:45.
