data_PCOD8063669
_publ_section_title
;
Structure prediction by ZEFSAII (Michael W. Deem and Ramdas Pophale) SiO2 
 PCOD8063669
Probable space group: P 2/M
;
_chemical_formula_sum "Si O2"
_cell_formula_units_Z 32
_cell_length_a 20.258646
_cell_length_b 13.506631
_cell_length_c 15.611217
_cell_angle_alpha 90.000000
_cell_angle_beta 154.159853
_cell_angle_gamma 90.000000
_cell_volume 1861.843027
_symmetry_space_group_name_H-M "P 2/M"
_symmetry_group_IT_number 10
_symmetry_cell_setting 'monoclinic'
loop_
_space_group_symop_operation_xyz
x,y,z
-x,y,-z
-x,-y,-z
x,-y,z
loop_
_atom_site_type_symbol
_atom_site_label
_atom_site_fract_x
_atom_site_fract_y
_atom_site_fract_z
Si Si1 0.259419 0.111344 0.196691
Si Si2 0.540564 0.298774 0.297007
Si Si3 0.803808 0.385287 0.707070
Si Si4 0.047306 0.617379 0.463439
Si Si5 0.776581 0.615200 0.029458
Si Si6 0.889827 0.691956 0.988772
Si Si7 0.373690 0.615554 0.780932
Si Si8 0.544838 0.888484 0.411052
O O1 0.125651 0.189114 0.022271
O O2 0.318747 0.126355 0.362632
O O3 0.390288 0.132818 0.281011
O O4 0.195941 0.000000 0.111275
O O5 0.639483 0.367785 0.475181
O O6 0.590912 0.314925 0.258383
O O7 0.563508 0.184861 0.352357
O O8 0.366019 0.326636 0.100809
O O9 0.843422 0.500000 0.753875
O O10 0.808387 0.344536 0.807933
O O11 0.932283 0.332146 0.799643
O O12 0.047893 0.500000 0.469280
O O13 0.214276 0.653391 0.632372
O O14 0.000000 0.662508 0.500000
O O15 0.925612 0.654762 0.252151
O O16 0.749342 0.500000 0.015242
O O17 0.798700 0.635330 0.955602
O O18 0.367632 0.500000 0.745484
O O19 0.500000 0.632006 0.000000
O O20 0.546090 0.000000 0.375942
#
# Coordination Sequence:
#
# PCOD8063669 Si02
#       8
#     4   4   4   4   4   4   4   4
#     4   9  17  34  56  76 100 135 181 233 278 311
#     4  12  21  34  53  78 105 137 183 218 267 321
#     4  11  23  35  47  68 110 154 179 212 263 316
#     4   9  18  34  53  73 101 139 179 215 254 301
#     4  11  21  31  49  75 104 138 180 219 253 312
#     4  11  20  35  49  71 103 143 180 218 262 321
#     4  10  20  34  53  79 113 143 172 216 266 316
#     4   9  18  34  55  78 103 134 175 230 282 317
#
# _framework density 17.187270000000002
#
# number of rings (size 3 to 8) (size 9 to 14) (size 15 to 20)
#    0.000    1.750    2.500    4.875    0.000    3.500 
#    0.000    3.125    0.000    0.375    0.000    0.000 
#    0.000    3.500    0.000    0.000    0.000    0.000 
#
# Total GULP energy -396841.167875 kJ/mol
# GULP energy per Si atom -12401.286496 kJ/mol
# Density = 1.714815 g / cm^3
# Si number density = 17.187270 Si / 1000 Ang^3
#
#
#
# Elastic Constant Matrix: (Units=GPa)
#
#
# Indices 1 2 3 4 5 6 
#
# 1 119.5689 29.9492 32.3517 0.0000 3.0914 0.0000
# 2 29.9492 80.5150 14.1903 0.0000 -3.8583 0.0000
# 3 32.3517 14.1903 80.2866 0.0000 8.7080 0.0000
# 4 0.0000 0.0000 0.0000 19.7670 0.0000 2.7104
# 5 3.0914 -3.8583 8.7080 0.0000 24.0754 0.0000
# 6 0.0000 0.0000 0.0000 2.7104 0.0000 25.0618
#
#
#
# Elastic Compliance Matrix: (Units=1/GPa)
#
#
# Indices 1 2 3 4 5 6 
#
# 1 0.010108 -0.003178 -0.003450 0.000000 -0.000559 0.000000
# 2 -0.003178 0.014029 -0.001548 0.000000 0.003216 0.000000
# 3 -0.003450 -0.001548 0.014674 0.000000 -0.005112 0.000000
# 4 0.000000 0.000000 0.000000 0.051351 0.000000 -0.005554
# 5 -0.000559 0.003216 -0.005112 0.000000 0.043973 0.000000
# 6 0.000000 0.000000 0.000000 -0.005554 0.000000 0.040502
#
#
# Mechanical properties :
#
#
# Convention : Reuss Voigt Hill
#
# Bulk Modulus (GPa) = 44.52857 48.15033 46.33945
# Shear Modulus (GPa) = 25.19213 27.37280 26.28247
#
# Velocity S-wave (km/s) = 3.83266 3.99509 3.91472
# Velocity P-wave (km/s) = 6.74906 7.02545 6.88864
#
# Compressibility (1/GPa) = 0.02245749
#
# Stress axis : x y z
#
# Youngs Moduli (GPa) = 98.93618 71.27992 68.14869
#
# Poissons Ratio (x) = 0.22655 0.23514
# Poissons Ratio (y) = 0.31446 0.10547
# Poissons Ratio (z) = 0.34137 0.11032
#
# Static dielectric constant tensor:
#      x y z
#    x 3.234240 0.000000 0.063470 
#    y 0.000000 3.083090 0.000000 
#    z 0.063470 0.000000 3.233350 
# 
# 
# High freq. dielectric constant tensor:
#      x y z
#    x 1.662400 0.000000 0.008130 
#    y 0.000000 1.638390 0.000000 
#    z 0.008130 0.000000 1.662550 
# 
# From -- ./inp_files/69315.got.cif
#   From: 2010.06.25/outbox.cif.g09.slc.cpg/sg10_35_cif.got.tgz:69315.got - 2010.06.27 22:07:45.
