data_PCOD8063031
_publ_section_title
;
Structure prediction by ZEFSAII (Michael W. Deem and Ramdas Pophale) SiO2 
 PCOD8063031
Probable space group: P 2/M
;
_chemical_formula_sum "Si O2"
_cell_formula_units_Z 32
_cell_length_a 23.366189
_cell_length_b 8.961688
_cell_length_c 15.944920
_cell_angle_alpha 90.000000
_cell_angle_beta 150.187038
_cell_angle_gamma 90.000000
_cell_volume 1659.988938
_symmetry_space_group_name_H-M "P 2/M"
_symmetry_group_IT_number 10
_symmetry_cell_setting 'monoclinic'
loop_
_space_group_symop_operation_xyz
x,y,z
-x,y,-z
-x,-y,-z
x,-y,z
loop_
_atom_site_type_symbol
_atom_site_label
_atom_site_fract_x
_atom_site_fract_y
_atom_site_fract_z
Si Si1 0.174407 0.326083 0.172039
Si Si2 0.168716 0.822400 0.682013
Si Si3 0.560064 0.325489 0.492692
Si Si4 0.046351 0.674403 0.671815
Si Si5 0.016241 0.327589 0.820816
Si Si6 0.569267 0.176717 0.007736
Si Si7 0.443160 0.176378 0.681569
Si Si8 0.180259 0.824888 0.347494
O O1 0.154640 0.500000 0.162093
O O2 0.306875 0.286449 0.326390
O O3 0.128409 0.241970 0.195651
O O4 0.106367 0.268616 0.004252
O O5 0.144375 0.762047 0.744885
O O6 0.297132 0.776554 0.817138
O O7 0.079453 0.742454 0.506612
O O8 0.151224 0.000000 0.657538
O O9 0.500000 0.262097 0.500000
O O10 0.536031 0.500000 0.452161
O O11 0.509975 0.247352 0.345379
O O12 0.046867 0.500000 0.648146
O O13 0.074247 0.699487 0.804594
O O14 0.986332 0.500000 0.796340
O O15 0.897006 0.236688 0.674832
O O16 0.556092 0.000000 0.990780
O O17 0.500000 0.242635 0.000000
O O18 0.515535 0.238824 0.852586
O O19 0.311304 0.226285 0.528909
O O20 0.454799 0.000000 0.687891
O O21 0.170377 0.000000 0.331403
#
# Coordination Sequence:
#
# PCOD8063031 Si02
#       8
#     4   4   4   4   4   4   4   4
#     4   9  18  34  51  70 102 139 174 209 254 312
#     4  10  20  36  59  81 105 138 180 221 264 321
#     4   9  18  33  54  77 102 136 176 216 257 309
#     4  10  21  37  56  78 109 143 175 219 274 319
#     4  10  21  34  51  74 100 139 179 209 254 317
#     4   9  19  35  57  82 109 142 180 221 270 325
#     4   9  19  35  53  77 106 138 174 214 268 320
#     4  10  20  32  51  77 106 135 169 216 264 307
#
# _framework density 19.277238000000001
#
# number of rings (size 3 to 8) (size 9 to 14) (size 15 to 20)
#    0.000    2.500    0.000    2.250    1.750    4.750 
#    0.000    2.500    0.000    1.875    0.000    0.000 
#    0.000    0.000    0.000    0.000    0.000    0.000 
#
# Total GULP energy -396797.211032 kJ/mol
# GULP energy per Si atom -12399.912845 kJ/mol
# Density = 1.923336 g / cm^3
# Si number density = 19.277238 Si / 1000 Ang^3
#
#
#
# Elastic Constant Matrix: (Units=GPa)
#
#
# Indices 1 2 3 4 5 6 
#
# 1 125.3772 24.4821 46.3015 0.0000 -2.3954 0.0000
# 2 24.4821 42.1778 21.6148 0.0000 2.2454 0.0000
# 3 46.3015 21.6148 81.0705 0.0000 -6.0944 0.0000
# 4 0.0000 0.0000 0.0000 19.8391 0.0000 -1.0140
# 5 -2.3954 2.2454 -6.0944 0.0000 30.1144 0.0000
# 6 0.0000 0.0000 0.0000 -1.0140 0.0000 25.8603
#
#
#
# Elastic Compliance Matrix: (Units=1/GPa)
#
#
# Indices 1 2 3 4 5 6 
#
# 1 0.010539 -0.003521 -0.005075 0.000000 0.000074 0.000000
# 2 -0.003521 0.029024 -0.006003 0.000000 -0.003659 0.000000
# 3 -0.005075 -0.006003 0.017097 0.000000 0.003504 0.000000
# 4 0.000000 0.000000 0.000000 0.050507 0.000000 0.001980
# 5 0.000074 -0.003659 0.003504 0.000000 0.034194 0.000000
# 6 0.000000 0.000000 0.000000 0.001980 0.000000 0.038747
#
#
# Mechanical properties :
#
#
# Convention : Reuss Voigt Hill
#
# Bulk Modulus (GPa) = 36.41174 48.15803 42.28488
# Shear Modulus (GPa) = 22.88767 25.57791 24.23279
#
# Velocity S-wave (km/s) = 3.44945 3.64654 3.54936
# Velocity P-wave (km/s) = 5.89868 6.53955 6.22736
#
# Compressibility (1/GPa) = 0.02746367
#
# Stress axis : x y z
#
# Youngs Moduli (GPa) = 94.88625 34.45475 58.48932
#
# Poissons Ratio (x) = 0.12130 0.29683
# Poissons Ratio (y) = 0.33405 0.35109
# Poissons Ratio (z) = 0.48154 0.20682
#
# Static dielectric constant tensor:
#      x y z
#    x 3.748020 0.000000 -0.078460 
#    y 0.000000 3.342100 0.000000 
#    z -0.078460 0.000000 3.567230 
# 
# 
# High freq. dielectric constant tensor:
#      x y z
#    x 1.758070 0.000000 -0.004560 
#    y 0.000000 1.732670 0.000000 
#    z -0.004560 0.000000 1.747050 
# 
# From -- ./inp_files/71594.got.cif
#   From: 2010.06.25/outbox.cif.g09.slc.cpg/sg10_36_cif.got.tgz:71594.got - 2010.06.27 22:07:45.
