data_PCOD8063044
_publ_section_title
;
Structure prediction by ZEFSAII (Michael W. Deem and Ramdas Pophale) SiO2 
 PCOD8063044
Probable space group: P 2/M
;
_chemical_formula_sum "Si O2"
_cell_formula_units_Z 26
_cell_length_a 12.875954
_cell_length_b 8.061591
_cell_length_c 15.766606
_cell_angle_alpha 90.000000
_cell_angle_beta 61.458848
_cell_angle_gamma 90.000000
_cell_volume 1437.697077
_symmetry_space_group_name_H-M "P 2/M"
_symmetry_group_IT_number 10
_symmetry_cell_setting 'monoclinic'
loop_
_space_group_symop_operation_xyz
x,y,z
-x,y,-z
-x,-y,-z
x,-y,z
loop_
_atom_site_type_symbol
_atom_site_label
_atom_site_fract_x
_atom_site_fract_y
_atom_site_fract_z
Si Si1 0.641578 0.681142 0.941572
Si Si2 0.034407 0.811477 0.579819
Si Si3 0.623814 0.316456 0.654725
Si Si4 0.269631 0.313946 0.563932
Si Si5 0.607055 0.000000 0.029673
Si Si6 0.474913 0.000000 0.748647
Si Si7 0.802412 0.315311 0.723001
Si Si8 0.379260 0.000000 0.602299
O O1 0.689944 0.500000 0.952362
O O2 0.694242 0.727393 0.828698
O O3 0.500000 0.674175 0.000000
O O4 0.683368 0.832008 0.985486
O O5 0.136374 0.702716 0.582377
O O6 0.000000 0.742455 0.500000
O O7 0.916989 0.802474 0.685207
O O8 0.079566 0.000000 0.556146
O O9 0.570325 0.500000 0.697482
O O10 0.637882 0.296707 0.548998
O O11 0.546232 0.169789 0.720785
O O12 0.752067 0.298713 0.647560
O O13 0.282198 0.500000 0.599321
O O14 0.303474 0.166916 0.614901
O O15 0.584518 0.000000 0.137464
O O16 0.500000 0.000000 0.000000
O O17 0.392764 0.000000 0.698204
O O18 0.848715 0.500000 0.722739
O O19 0.500000 0.000000 0.500000
#
# Coordination Sequence:
#
# PCOD8063044 Si02
#       8
#     4   4   4   4   2   2   4   2
#     4   9  18  33  50  75 113 146 180 225 270 330
#     4  11  22  33  53  84 120 156 193 238 285 343
#     4  10  20  32  52  81 111 149 194 230 275 331
#     4  11  22  38  57  78 113 157 195 239 285 322
#     4  10  20  34  53  80 105 143 178 226 287 339
#     4  12  24  36  59  78 113 153 193 237 286 341
#     4  10  20  32  52  82 117 157 190 225 282 348
#     4  12  24  42  55  79 116 149 203 248 275 335
#
# _framework density 18.084478000000001
#
# number of rings (size 3 to 8) (size 9 to 14) (size 15 to 20)
#    0.000    1.538    3.846    2.308    2.154    3.385 
#    0.000    0.000    0.000    0.000    0.000    2.154 
#    0.000    3.692    0.000    0.000    0.000    0.000 
#
# Total GULP energy -322089.643598 kJ/mol
# GULP energy per Si atom -12388.063215 kJ/mol
# Density = 1.804332 g / cm^3
# Si number density = 18.084478 Si / 1000 Ang^3
#
#
#
# Elastic Constant Matrix: (Units=GPa)
#
#
# Indices 1 2 3 4 5 6 
#
# 1 58.6545 36.0813 27.9502 0.0000 6.9562 0.0000
# 2 36.0813 155.5997 33.4020 0.0000 10.9601 0.0000
# 3 27.9502 33.4020 78.6224 0.0000 7.5398 0.0000
# 4 0.0000 0.0000 0.0000 26.4061 0.0000 -5.7803
# 5 6.9562 10.9601 7.5398 0.0000 23.7560 0.0000
# 6 0.0000 0.0000 0.0000 -5.7803 0.0000 22.8916
#
#
#
# Elastic Compliance Matrix: (Units=1/GPa)
#
#
# Indices 1 2 3 4 5 6 
#
# 1 0.022630 -0.003712 -0.006185 0.000000 -0.002951 0.000000
# 2 -0.003712 0.007814 -0.001814 0.000000 -0.001942 0.000000
# 3 -0.006185 -0.001814 0.015919 0.000000 -0.002405 0.000000
# 4 0.000000 0.000000 0.000000 0.040086 0.000000 0.010122
# 5 -0.002951 -0.001942 -0.002405 0.000000 0.044618 0.000000
# 6 0.000000 0.000000 0.000000 0.010122 0.000000 0.046240
#
#
# Mechanical properties :
#
#
# Convention : Reuss Voigt Hill
#
# Bulk Modulus (GPa) = 43.58984 54.19375 48.89179
# Shear Modulus (GPa) = 23.99536 27.64028 25.81782
#
# Velocity S-wave (km/s) = 3.64654 3.91371 3.78249
# Velocity P-wave (km/s) = 6.47190 7.10316 6.79487
#
# Compressibility (1/GPa) = 0.02294113
#
# Stress axis : x y z
#
# Youngs Moduli (GPa) = 44.18997 127.98121 62.81859
#
# Poissons Ratio (x) = 0.47506 0.38852
# Poissons Ratio (y) = 0.16403 0.11393
# Poissons Ratio (z) = 0.27331 0.23212
#
# Static dielectric constant tensor:
#      x y z
#    x 2.986070 0.000000 0.004500 
#    y 0.000000 4.176330 0.000000 
#    z 0.004500 0.000000 3.227070 
# 
# 
# High freq. dielectric constant tensor:
#      x y z
#    x 1.649760 0.000000 -0.006150 
#    y 0.000000 1.732690 0.000000 
#    z -0.006150 0.000000 1.680090 
# 
# From -- ./inp_files/49049.got.cif
#   From: 2010.06.25/outbox.cif.g09.slc.cpg/sg10_25_cif.got.tgz:49049.got - 2010.06.27 22:07:45.
