data_PCOD8063510
_publ_section_title
;
Structure prediction by ZEFSAII (Michael W. Deem and Ramdas Pophale) SiO2 
 PCOD8063510
Probable space group: P 2/M
;
_chemical_formula_sum "Si O2"
_cell_formula_units_Z 32
_cell_length_a 14.984076
_cell_length_b 8.644478
_cell_length_c 14.888558
_cell_angle_alpha 90.000000
_cell_angle_beta 78.855540
_cell_angle_gamma 90.000000
_cell_volume 1892.141787
_symmetry_space_group_name_H-M "P 2/M"
_symmetry_group_IT_number 10
_symmetry_cell_setting 'monoclinic'
loop_
_space_group_symop_operation_xyz
x,y,z
-x,y,-z
-x,-y,-z
x,-y,z
loop_
_atom_site_type_symbol
_atom_site_label
_atom_site_fract_x
_atom_site_fract_y
_atom_site_fract_z
Si Si1 0.565259 0.820066 0.117765
Si Si2 0.287689 0.679479 0.576339
Si Si3 0.892949 0.180236 0.438389
Si Si4 0.738523 0.321375 0.744554
Si Si5 0.432331 0.679293 0.696876
Si Si6 0.923815 0.320705 0.623122
Si Si7 0.366295 0.179515 0.085562
Si Si8 0.378420 0.179633 0.386801
O O1 0.596511 0.717385 0.195656
O O2 0.461568 0.780369 0.114080
O O3 0.574761 0.000000 0.140174
O O4 0.629097 0.777210 0.020640
O O5 0.262729 0.500000 0.578314
O O6 0.194444 0.775694 0.603671
O O7 0.347413 0.722049 0.651017
O O8 0.342567 0.720229 0.476161
O O9 0.886712 0.272255 0.532924
O O10 0.985595 0.225652 0.368115
O O11 0.893387 0.000000 0.459916
O O12 0.717655 0.500000 0.727505
O O13 0.845325 0.285286 0.710810
O O14 0.712555 0.280017 0.852046
O O15 0.678394 0.216010 0.691168
O O16 0.459244 0.500000 0.682396
O O17 0.516488 0.783565 0.650211
O O18 0.949584 0.500000 0.615847
O O19 0.343402 0.000000 0.101733
O O20 0.367354 0.000000 0.412454
#
# Coordination Sequence:
#
# PCOD8063510 Si02
#       8
#     4   4   4   4   4   4   4   4
#     4   9  18  33  51  73 101 133 169 209 254 299
#     4  11  23  38  52  70 101 138 174 212 254 300
#     4  11  21  33  52  76  99 129 172 214 250 299
#     4  11  21  32  51  77 104 136 170 204 250 305
#     4  11  23  36  52  73 100 136 176 213 251 299
#     4  10  20  34  52  72 103 137 164 206 258 303
#     4   9  18  32  51  74 102 134 166 207 256 300
#     4  12  23  34  50  72 102 137 175 214 247 292
#
# _framework density 16.912051000000002
#
# number of rings (size 3 to 8) (size 9 to 14) (size 15 to 20)
#    0.000    1.500    2.500    5.625    0.000    5.500 
#    0.000    1.250    0.000    0.000    0.000    0.875 
#    0.000    7.000    0.000    0.000    0.000    0.000 
#
# Total GULP energy -396904.331306 kJ/mol
# GULP energy per Si atom -12403.260353 kJ/mol
# Density = 1.687356 g / cm^3
# Si number density = 16.912051 Si / 1000 Ang^3
#
#
#
# Elastic Constant Matrix: (Units=GPa)
#
#
# Indices 1 2 3 4 5 6 
#
# 1 95.7538 31.8307 53.4130 0.0000 -8.1281 0.0000
# 2 31.8307 40.8902 16.5986 0.0000 -5.6307 0.0000
# 3 53.4130 16.5986 81.1291 0.0000 -13.0396 0.0000
# 4 0.0000 0.0000 0.0000 27.7501 0.0000 -4.8492
# 5 -8.1281 -5.6307 -13.0396 0.0000 24.7310 0.0000
# 6 0.0000 0.0000 0.0000 -4.8492 0.0000 17.0672
#
#
#
# Elastic Compliance Matrix: (Units=1/GPa)
#
#
# Indices 1 2 3 4 5 6 
#
# 1 0.020518 -0.011591 -0.011448 0.000000 -0.001931 0.000000
# 2 -0.011591 0.033498 0.001520 0.000000 0.004619 0.000000
# 3 -0.011448 0.001520 0.020762 0.000000 0.007531 0.000000
# 4 0.000000 0.000000 0.000000 0.037919 0.000000 0.010774
# 5 -0.001931 0.004619 0.007531 0.000000 0.044822 0.000000
# 6 0.000000 0.000000 0.000000 0.010774 0.000000 0.061653
#
#
# Mechanical properties :
#
#
# Convention : Reuss Voigt Hill
#
# Bulk Modulus (GPa) = 31.50502 46.82862 39.16682
# Shear Modulus (GPa) = 18.32912 21.63838 19.98375
#
# Velocity S-wave (km/s) = 3.29567 3.58084 3.44121
# Velocity P-wave (km/s) = 5.75770 6.69673 6.24489
#
# Compressibility (1/GPa) = 0.03174097
#
# Stress axis : x y z
#
# Youngs Moduli (GPa) = 48.73685 29.85267 48.16467
#
# Poissons Ratio (x) = 0.34603 0.55137
# Poissons Ratio (y) = 0.56493 -0.07322
# Poissons Ratio (z) = 0.55792 -0.04538
#
# Static dielectric constant tensor:
#      x y z
#    x 3.144480 0.000000 -0.137530 
#    y 0.000000 3.200530 0.000000 
#    z -0.137530 0.000000 3.144200 
# 
# 
# High freq. dielectric constant tensor:
#      x y z
#    x 1.634630 0.000000 -0.015290 
#    y 0.000000 1.664390 0.000000 
#    z -0.015290 0.000000 1.635200 
# 
# From -- ./inp_files/66053.got.cif
#   From: 2010.06.25/outbox.cif.g09.slc.cpg/sg10_34_cif.got.tgz:66053.got - 2010.06.27 22:07:45.
