data_PCOD8063699
_publ_section_title
;
Structure prediction by ZEFSAII (Michael W. Deem and Ramdas Pophale) SiO2 
 PCOD8063699
Probable space group: P 2/M
;
_chemical_formula_sum "Si O2"
_cell_formula_units_Z 22
_cell_length_a 16.058868
_cell_length_b 9.750068
_cell_length_c 13.194653
_cell_angle_alpha 90.000000
_cell_angle_beta 147.905091
_cell_angle_gamma 90.000000
_cell_volume 1097.689255
_symmetry_space_group_name_H-M "P 2/M"
_symmetry_group_IT_number 10
_symmetry_cell_setting 'monoclinic'
loop_
_space_group_symop_operation_xyz
x,y,z
-x,y,-z
-x,-y,-z
x,-y,z
loop_
_atom_site_type_symbol
_atom_site_label
_atom_site_fract_x
_atom_site_fract_y
_atom_site_fract_z
Si Si1 0.896805 0.350945 0.089492
Si Si2 0.117425 0.849792 0.412943
Si Si3 0.576793 0.339548 0.685507
Si Si4 0.000000 0.766022 0.500000
Si Si5 0.287645 0.350665 0.891623
Si Si6 0.525570 0.837568 0.231457
O O1 0.969914 0.500000 0.139835
O O2 0.801567 0.355967 0.094816
O O3 0.040645 0.246661 0.248003
O O4 0.765002 0.310717 0.870060
O O5 0.296519 0.809427 0.618120
O O6 0.021232 0.853638 0.419514
O O7 0.108473 0.000000 0.355452
O O8 0.500000 0.302110 0.500000
O O9 0.548142 0.500000 0.685512
O O10 0.501607 0.238030 0.690089
O O11 0.841701 0.676404 0.328430
O O12 0.364990 0.500000 0.949662
O O13 0.419508 0.231744 0.033677
O O14 0.486209 0.000000 0.198771
#
# Coordination Sequence:
#
# PCOD8063699 Si02
#       6
#     4   4   4   2   4   4
#     4   8  16  31  52  75  99 130 167 207 252 303
#     4  10  21  35  51  73 104 139 174 212 254 301
#     4   9  18  35  58  81 103 130 168 210 253 306
#     4  10  20  34  54  76  98 134 180 218 252 296
#     4   9  18  34  53  74 101 133 171 213 257 303
#     4  10  21  35  51  76 107 136 168 209 257 305
#
# _framework density 20.042103000000001
#
# number of rings (size 3 to 8) (size 9 to 14) (size 15 to 20)
#    0.000    2.727    0.000    2.182    0.000   10.545 
#    0.000    3.636    0.000    5.455    0.000    0.000 
#    0.000    0.000    0.000    0.000    0.000    0.000 
#
# Total GULP energy -272610.012155 kJ/mol
# GULP energy per Si atom -12391.364189 kJ/mol
# Density = 1.999649 g / cm^3
# Si number density = 20.042103 Si / 1000 Ang^3
#
#
#
# Elastic Constant Matrix: (Units=GPa)
#
#
# Indices 1 2 3 4 5 6 
#
# 1 31.5310 29.4258 27.2987 0.0000 4.9654 0.0000
# 2 29.4258 141.8871 85.1657 0.0000 12.5807 0.0000
# 3 27.2987 85.1657 174.4468 0.0000 -0.1274 0.0000
# 4 0.0000 0.0000 0.0000 32.6000 0.0000 11.5174
# 5 4.9654 12.5807 -0.1274 0.0000 27.2696 0.0000
# 6 0.0000 0.0000 0.0000 11.5174 0.0000 7.4362
#
#
#
# Elastic Compliance Matrix: (Units=1/GPa)
#
#
# Indices 1 2 3 4 5 6 
#
# 1 0.041093 -0.005999 -0.003505 0.000000 -0.004731 0.000000
# 2 -0.005999 0.011464 -0.004661 0.000000 -0.004218 0.000000
# 3 -0.003505 -0.004661 0.008559 0.000000 0.002829 0.000000
# 4 0.000000 0.000000 0.000000 0.067744 0.000000 -0.104925
# 5 -0.004731 -0.004218 0.002829 0.000000 0.039492 0.000000
# 6 0.000000 0.000000 0.000000 -0.104925 0.000000 0.296989
#
#
# Mechanical properties :
#
#
# Convention : Reuss Voigt Hill
#
# Bulk Modulus (GPa) = 30.50169 70.18280 50.34225
# Shear Modulus (GPa) = 9.90886 27.19280 18.55083
#
# Velocity S-wave (km/s) = 2.22593 3.68745 3.04566
# Velocity P-wave (km/s) = 4.67527 7.29544 6.12706
#
# Compressibility (1/GPa) = 0.03278507
#
# Stress axis : x y z
#
# Youngs Moduli (GPa) = 24.33508 87.23274 116.84262
#
# Poissons Ratio (x) = 0.52328 0.40958
# Poissons Ratio (y) = 0.14598 0.54460
# Poissons Ratio (z) = 0.08530 0.40659
#
# Static dielectric constant tensor:
#      x y z
#    x 3.123190 0.000000 -0.042600 
#    y 0.000000 3.811010 0.000000 
#    z -0.042600 0.000000 4.195290 
# 
# 
# High freq. dielectric constant tensor:
#      x y z
#    x 1.732420 0.000000 0.002920 
#    y 0.000000 1.783880 0.000000 
#    z 0.002920 0.000000 1.800100 
# 
# From -- ./inp_files/27091.got.cif
#   From: 2010.06.25/outbox.cif.g09.slc.cpg/sg10_14_cif.got.tgz:27091.got - 2010.06.27 22:07:45.
