data_PCOD8063976
_publ_section_title
;
Structure prediction by ZEFSAII (Michael W. Deem and Ramdas Pophale) SiO2 
 PCOD8063976
Probable space group: P 2/M
;
_chemical_formula_sum "Si O2"
_cell_formula_units_Z 32
_cell_length_a 5.366929
_cell_length_b 9.500160
_cell_length_c 29.494951
_cell_angle_alpha 90.000000
_cell_angle_beta 79.034328
_cell_angle_gamma 90.000000
_cell_volume 1476.391453
_symmetry_space_group_name_H-M "P 2/M"
_symmetry_group_IT_number 10
_symmetry_cell_setting 'monoclinic'
loop_
_space_group_symop_operation_xyz
x,y,z
-x,y,-z
-x,-y,-z
x,-y,z
loop_
_atom_site_type_symbol
_atom_site_label
_atom_site_fract_x
_atom_site_fract_y
_atom_site_fract_z
Si Si1 0.051653 0.836587 0.170029
Si Si2 0.606074 0.168241 0.121431
Si Si3 0.850491 0.154145 0.350883
Si Si4 0.280503 0.661627 0.971404
Si Si5 0.498954 0.653095 0.305293
Si Si6 0.280958 0.837282 0.471930
Si Si7 0.223361 0.152725 0.258896
Si Si8 0.133834 0.654810 0.398779
O O1 0.325234 0.776351 0.144515
O O2 0.029779 0.805201 0.225068
O O3 0.810081 0.773057 0.151659
O O4 0.048706 0.000000 0.159588
O O5 0.680955 0.233718 0.071266
O O6 0.613618 0.000000 0.117286
O O7 0.673051 0.238280 0.324258
O O8 0.100656 0.130787 0.312354
O O9 0.897120 0.240557 0.396152
O O10 0.739845 0.000000 0.368446
O O11 0.303095 0.500000 0.954444
O O12 0.500000 0.696088 0.000000
O O13 0.000000 0.691880 0.000000
O O14 0.627629 0.500000 0.291953
O O15 0.426178 0.721992 0.259141
O O16 0.259272 0.628179 0.345957
O O17 0.500000 0.798444 0.500000
O O18 0.321264 0.735450 0.427178
O O19 0.000000 0.802508 0.500000
O O20 0.301016 0.000000 0.456372
O O21 0.350887 0.000000 0.241192
O O22 0.049835 0.500000 0.420712
#
# Coordination Sequence:
#
# PCOD8063976 Si02
#       8
#     4   4   4   4   4   4   4   4
#     4   9  19  34  56  82 114 148 187 234 282 334
#     4  10  20  35  56  84 113 146 185 234 287 337
#     4  10  20  34  58  85 110 147 195 240 286 342
#     4  10  21  37  57  80 109 146 185 231 283 339
#     4  10  21  36  55  82 116 149 187 239 292 338
#     4  10  23  42  63  90 121 154 194 241 290 348
#     4   9  19  35  55  80 107 148 196 235 279 338
#     4  10  22  39  58  83 116 152 190 238 293 347
#
# _framework density 21.674467
#
# number of rings (size 3 to 8) (size 9 to 14) (size 15 to 20)
#    0.000    2.250    0.000    1.875    3.500    3.000 
#    0.000    1.250    0.000    0.000    0.000    0.000 
#    0.000    0.000    0.000    0.000    0.000    0.000 
#
# Total GULP energy -396467.175266 kJ/mol
# GULP energy per Si atom -12389.599227 kJ/mol
# Density = 2.162514 g / cm^3
# Si number density = 21.674467 Si / 1000 Ang^3
#
#
#
# Elastic Constant Matrix: (Units=GPa)
#
#
# Indices 1 2 3 4 5 6 
#
# 1 108.9091 30.0752 25.5831 0.0000 31.9878 0.0000
# 2 30.0752 135.0142 35.3031 0.0000 32.7454 0.0000
# 3 25.5831 35.3031 88.1773 0.0000 31.5360 0.0000
# 4 0.0000 0.0000 0.0000 68.7859 0.0000 20.7168
# 5 31.9878 32.7454 31.5360 0.0000 40.5583 0.0000
# 6 0.0000 0.0000 0.0000 20.7168 0.0000 19.4817
#
#
#
# Elastic Compliance Matrix: (Units=1/GPa)
#
#
# Indices 1 2 3 4 5 6 
#
# 1 0.011974 -0.000463 -0.000062 0.000000 -0.009022 0.000000
# 2 -0.000463 0.009359 -0.001442 0.000000 -0.006070 0.000000
# 3 -0.000062 -0.001442 0.015933 0.000000 -0.011175 0.000000
# 4 0.000000 0.000000 0.000000 0.021388 0.000000 -0.022744
# 5 -0.009022 -0.006070 -0.011175 0.000000 0.045361 0.000000
# 6 0.000000 0.000000 0.000000 -0.022744 0.000000 0.075516
#
#
# Mechanical properties :
#
#
# Convention : Reuss Voigt Hill
#
# Bulk Modulus (GPa) = 30.00119 57.11372 43.55746
# Shear Modulus (GPa) = 25.69695 41.84112 33.76903
#
# Velocity S-wave (km/s) = 3.44697 4.39844 3.95145
# Velocity P-wave (km/s) = 5.45105 7.22516 6.39987
#
# Compressibility (1/GPa) = 0.03333201
#
# Stress axis : x y z
#
# Youngs Moduli (GPa) = 83.51270 106.85022 62.76324
#
# Poissons Ratio (x) = 0.04947 0.00390
# Poissons Ratio (y) = 0.03867 0.09049
# Poissons Ratio (z) = 0.00519 0.15406
#
# Static dielectric constant tensor:
#      x y z
#    x 4.125870 0.000000 0.070650 
#    y 0.000000 4.313290 0.000000 
#    z 0.070650 0.000000 3.921430 
# 
# 
# High freq. dielectric constant tensor:
#      x y z
#    x 1.847550 0.000000 0.018830 
#    y 0.000000 1.843740 0.000000 
#    z 0.018830 0.000000 1.840080 
# 
# From -- ./inp_files/94340.got.cif
#   From: 2010.06.25/outbox.cif.g09.slc.cpg/sg10_48_cif.got.tgz:94340.got - 2010.06.27 22:07:45.
