data_PCOD8063286
_publ_section_title
;
Structure prediction by ZEFSAII (Michael W. Deem and Ramdas Pophale) SiO2 
 PCOD8063286
Probable space group: P 2/M
;
_chemical_formula_sum "Si O2"
_cell_formula_units_Z 32
_cell_length_a 23.272324
_cell_length_b 9.351050
_cell_length_c 10.173143
_cell_angle_alpha 90.000000
_cell_angle_beta 128.049086
_cell_angle_gamma 90.000000
_cell_volume 1743.397749
_symmetry_space_group_name_H-M "P 2/M"
_symmetry_group_IT_number 10
_symmetry_cell_setting 'monoclinic'
loop_
_space_group_symop_operation_xyz
x,y,z
-x,y,-z
-x,-y,-z
x,-y,z
loop_
_atom_site_type_symbol
_atom_site_label
_atom_site_fract_x
_atom_site_fract_y
_atom_site_fract_z
Si Si1 0.729896 0.831119 0.790932
Si Si2 0.850401 0.831918 0.162605
Si Si3 0.746014 0.831281 0.523104
Si Si4 0.867273 0.832048 0.489118
Si Si5 0.392277 0.338551 0.755137
Si Si6 0.575571 0.169478 0.667271
Si Si7 0.991468 0.660891 0.333247
Si Si8 0.450136 0.338578 0.121341
O O1 0.763198 0.781999 0.697317
O O2 0.646300 0.775470 0.685786
O O3 0.728061 0.000000 0.795984
O O4 0.779882 0.776322 0.982268
O O5 0.839679 0.797275 0.302202
O O6 0.918293 0.747094 0.195890
O O7 0.864900 0.000000 0.162377
O O8 0.807577 0.776636 0.509305
O O9 0.668526 0.770598 0.374238
O O10 0.739436 0.000000 0.504131
O O11 0.940067 0.746156 0.629622
O O12 0.883651 0.000000 0.527309
O O13 0.370435 0.500000 0.685088
O O14 0.466900 0.292722 0.789949
O O15 0.401254 0.327489 0.923459
O O16 0.500000 0.229887 0.500000
O O17 0.584901 0.229763 0.826038
O O18 0.573177 0.000000 0.671897
O O19 0.988084 0.500000 0.269650
O O20 0.000000 0.653950 0.500000
O O21 0.448191 0.500000 0.173851
#
# Coordination Sequence:
#
# PCOD8063286 Si02
#       8
#     4   4   4   4   4   4   4   4
#     4   9  19  34  51  74 108 140 168 211 266 310
#     4   9  17  32  53  74 101 136 169 208 254 302
#     4  10  20  34  53  77 104 135 174 212 253 309
#     4   9  18  31  52  79 102 131 173 209 246 307
#     4   9  19  35  52  71 101 136 169 214 267 309
#     4  10  20  33  52  76 104 137 175 218 265 308
#     4   9  17  31  52  78 105 131 164 210 257 301
#     4   9  19  35  52  72  98 133 176 216 259 313
#
# _framework density 18.354963000000001
#
# number of rings (size 3 to 8) (size 9 to 14) (size 15 to 20)
#    0.000    2.750    0.000    1.875    1.750    4.250 
#    0.000    3.750    0.000    3.750    0.000    0.000 
#    0.000    0.000    0.000    0.000    0.000    0.000 
#
# Total GULP energy -396710.203283 kJ/mol
# GULP energy per Si atom -12397.193853 kJ/mol
# Density = 1.831319 g / cm^3
# Si number density = 18.354963 Si / 1000 Ang^3
#
#
#
# Elastic Constant Matrix: (Units=GPa)
#
#
# Indices 1 2 3 4 5 6 
#
# 1 112.2507 29.4714 67.3863 0.0000 -2.8495 0.0000
# 2 29.4714 36.1289 27.1966 0.0000 2.0612 0.0000
# 3 67.3863 27.1966 97.7924 0.0000 13.2203 0.0000
# 4 0.0000 0.0000 0.0000 18.8233 0.0000 1.9687
# 5 -2.8495 2.0612 13.2203 0.0000 25.6663 0.0000
# 6 0.0000 0.0000 0.0000 1.9687 0.0000 20.7406
#
#
#
# Elastic Compliance Matrix: (Units=1/GPa)
#
#
# Indices 1 2 3 4 5 6 
#
# 1 0.017741 -0.006186 -0.011649 0.000000 0.008467 0.000000
# 2 -0.006186 0.037299 -0.006033 0.000000 -0.000575 0.000000
# 3 -0.011649 -0.006033 0.021540 0.000000 -0.011904 0.000000
# 4 0.000000 0.000000 0.000000 0.053658 0.000000 -0.005093
# 5 0.008467 -0.000575 -0.011904 0.000000 0.046079 0.000000
# 6 0.000000 0.000000 0.000000 -0.005093 0.000000 0.048698
#
#
# Mechanical properties :
#
#
# Convention : Reuss Voigt Hill
#
# Bulk Modulus (GPa) = 34.66924 54.92008 44.79466
# Shear Modulus (GPa) = 17.70763 21.18723 19.44743
#
# Velocity S-wave (km/s) = 3.10938 3.40119 3.25856
# Velocity P-wave (km/s) = 5.64094 6.73871 6.21412
#
# Compressibility (1/GPa) = 0.02884401
#
# Stress axis : x y z
#
# Youngs Moduli (GPa) = 56.36756 26.81067 46.42579
#
# Poissons Ratio (x) = 0.16584 0.54081
# Poissons Ratio (y) = 0.34867 0.28008
# Poissons Ratio (z) = 0.65662 0.16175
#
# Static dielectric constant tensor:
#      x y z
#    x 3.514590 0.000000 0.033170 
#    y 0.000000 3.255450 0.000000 
#    z 0.033170 0.000000 3.393960 
# 
# 
# High freq. dielectric constant tensor:
#      x y z
#    x 1.711950 0.000000 0.004960 
#    y 0.000000 1.694010 0.000000 
#    z 0.004960 0.000000 1.703120 
# 
# From -- ./inp_files/56473.got.cif
#   From: 2010.06.25/outbox.cif.g09.slc.cpg/sg10_29_cif.got.tgz:56473.got - 2010.06.27 22:07:45.
