data_PCOD8063007
_publ_section_title
;
Structure prediction by ZEFSAII (Michael W. Deem and Ramdas Pophale) SiO2 
 PCOD8063007
Probable space group: P 2/M
;
_chemical_formula_sum "Si O2"
_cell_formula_units_Z 28
_cell_length_a 9.511455
_cell_length_b 9.174602
_cell_length_c 28.344851
_cell_angle_alpha 90.000000
_cell_angle_beta 39.494615
_cell_angle_gamma 90.000000
_cell_volume 1573.147245
_symmetry_space_group_name_H-M "P 2/M"
_symmetry_group_IT_number 10
_symmetry_cell_setting 'monoclinic'
loop_
_space_group_symop_operation_xyz
x,y,z
-x,y,-z
-x,-y,-z
x,-y,z
loop_
_atom_site_type_symbol
_atom_site_label
_atom_site_fract_x
_atom_site_fract_y
_atom_site_fract_z
Si Si1 0.123904 0.827384 0.894952
Si Si2 0.715760 0.170646 0.416439
Si Si3 0.777100 0.168256 0.804965
Si Si4 0.305509 0.830269 0.947117
Si Si5 0.845785 0.329267 0.691711
Si Si6 0.583542 0.329549 0.255126
Si Si7 0.737812 0.167019 0.301747
O O1 0.254626 0.772427 0.907601
O O2 0.222954 0.747173 0.824337
O O3 0.144581 0.000000 0.880633
O O4 0.867582 0.773397 0.968603
O O5 0.500000 0.224619 0.500000
O O6 0.685534 0.208636 0.369241
O O7 0.926253 0.254102 0.383502
O O8 0.757850 0.000000 0.412786
O O9 0.562002 0.205266 0.893128
O O10 0.765114 0.268651 0.762436
O O11 0.001027 0.195027 0.776245
O O12 0.768873 0.000000 0.789868
O O13 0.257962 0.000000 0.956829
O O14 0.886610 0.500000 0.686068
O O15 0.658935 0.292409 0.701691
O O16 0.630186 0.500000 0.242697
O O17 0.592778 0.270143 0.306092
O O18 0.674599 0.000000 0.307868
#
# Coordination Sequence:
#
# PCOD8063007 Si02
#       7
#     4   4   4   4   4   4   4
#     4   9  16  28  49  73  98 131 170 216 265 304
#     4   9  19  38  62  85 104 124 159 206 251 298
#     4   9  16  31  53  75  98 128 172 221 260 299
#     4   8  14  26  48  76  98 123 168 222 267 302
#     4  10  20  32  50  77 104 135 172 203 242 297
#     4  11  22  34  47  71 107 142 174 207 245 295
#     4   9  19  33  53  77 100 131 166 202 252 304
#
# _framework density 17.798715999999999
#
# number of rings (size 3 to 8) (size 9 to 14) (size 15 to 20)
#    0.000    2.714    1.429    2.571    0.000    4.286 
#    0.000    3.571    0.000    8.571    0.000    0.000 
#    0.000    0.000    0.000    0.000    0.000    0.000 
#
# Total GULP energy -347056.248062 kJ/mol
# GULP energy per Si atom -12394.866002 kJ/mol
# Density = 1.775821 g / cm^3
# Si number density = 17.798716 Si / 1000 Ang^3
#
#
#
# Elastic Constant Matrix: (Units=GPa)
#
#
# Indices 1 2 3 4 5 6 
#
# 1 94.7981 51.2271 50.8672 0.0000 -8.5716 0.0000
# 2 51.2271 65.7968 45.1729 0.0000 -8.3419 0.0000
# 3 50.8672 45.1729 131.4392 0.0000 -17.7632 0.0000
# 4 0.0000 0.0000 0.0000 9.6388 0.0000 -5.0599
# 5 -8.5716 -8.3419 -17.7632 0.0000 21.1657 0.0000
# 6 0.0000 0.0000 0.0000 -5.0599 0.0000 25.0320
#
#
#
# Elastic Compliance Matrix: (Units=1/GPa)
#
#
# Indices 1 2 3 4 5 6 
#
# 1 0.019063 -0.012787 -0.002956 0.000000 0.000200 0.000000
# 2 -0.012787 0.028575 -0.004568 0.000000 0.002250 0.000000
# 3 -0.002956 -0.004568 0.011185 0.000000 0.006390 0.000000
# 4 0.000000 0.000000 0.000000 0.116064 0.000000 0.023461
# 5 0.000200 0.002250 0.006390 0.000000 0.053577 0.000000
# 6 0.000000 0.000000 0.000000 0.023461 0.000000 0.044691
#
#
# Mechanical properties :
#
#
# Convention : Reuss Voigt Hill
#
# Bulk Modulus (GPa) = 54.93916 65.17429 60.05673
# Shear Modulus (GPa) = 15.63265 20.81841 18.22553
#
# Velocity S-wave (km/s) = 2.96683 3.42374 3.20344
# Velocity P-wave (km/s) = 6.53223 7.23369 6.89189
#
# Compressibility (1/GPa) = 0.01820195
#
# Stress axis : x y z
#
# Youngs Moduli (GPa) = 52.45888 34.99534 89.40191
#
# Poissons Ratio (x) = 0.44748 0.26424
# Poissons Ratio (y) = 0.67079 0.40840
# Poissons Ratio (z) = 0.15505 0.15986
#
# Static dielectric constant tensor:
#      x y z
#    x 3.141770 0.000000 -0.210160 
#    y 0.000000 3.098700 0.000000 
#    z -0.210160 0.000000 3.442750 
# 
# 
# High freq. dielectric constant tensor:
#      x y z
#    x 1.669820 0.000000 -0.016430 
#    y 0.000000 1.669330 0.000000 
#    z -0.016430 0.000000 1.688620 
# 
# From -- ./inp_files/38027.got.cif
#   From: 2010.06.25/outbox.cif.g09.slc.cpg/sg10_20_cif.got.tgz:38027.got - 2010.06.27 22:07:45.
