data_PCOD8063150
_publ_section_title
;
Structure prediction by ZEFSAII (Michael W. Deem and Ramdas Pophale) SiO2 
 PCOD8063150
Probable space group: P 2/M
;
_chemical_formula_sum "Si O2"
_cell_formula_units_Z 32
_cell_length_a 23.345758
_cell_length_b 9.032153
_cell_length_c 21.142709
_cell_angle_alpha 90.000000
_cell_angle_beta 156.124551
_cell_angle_gamma 90.000000
_cell_volume 1804.456993
_symmetry_space_group_name_H-M "P 2/M"
_symmetry_group_IT_number 10
_symmetry_cell_setting 'monoclinic'
loop_
_space_group_symop_operation_xyz
x,y,z
-x,y,-z
-x,-y,-z
x,-y,z
loop_
_atom_site_type_symbol
_atom_site_label
_atom_site_fract_x
_atom_site_fract_y
_atom_site_fract_z
Si Si1 0.342677 0.677469 0.330906
Si Si2 0.259116 0.171246 0.793938
Si Si3 0.092307 0.661552 0.155659
Si Si4 0.045776 0.329709 0.661705
Si Si5 0.166455 0.677130 0.034428
Si Si6 0.470243 0.171648 0.121468
Si Si7 0.723337 0.673192 0.318911
Si Si8 0.249279 0.326660 0.980217
O O1 0.500000 0.741442 0.500000
O O2 0.341175 0.500000 0.332737
O O3 0.239520 0.741333 0.283081
O O4 0.285387 0.730337 0.204616
O O5 0.304842 0.258626 0.778114
O O6 0.110809 0.231510 0.671201
O O7 0.241207 0.000000 0.758677
O O8 0.381388 0.198582 0.968238
O O9 0.132583 0.500000 0.223603
O O10 0.000000 0.640926 0.000000
O O11 0.990093 0.742372 0.104071
O O12 0.070856 0.500000 0.668021
O O13 0.881278 0.292099 0.502006
O O14 0.118397 0.291897 0.801744
O O15 0.156179 0.500000 0.024739
O O16 0.207770 0.736113 0.007086
O O17 0.620347 0.252212 0.265982
O O18 0.495486 0.000000 0.160473
O O19 0.389213 0.241671 0.099156
O O20 0.691632 0.500000 0.283564
O O21 0.284405 0.500000 0.017772
#
# Coordination Sequence:
#
# PCOD8063150 Si02
#       8
#     4   4   4   4   4   4   4   4
#     4   8  12  18  30  54  88 118 143 177 220 261
#     4  10  20  33  50  71  92 117 151 188 229 280
#     4   7  10  17  29  47  74 106 138 170 206 249
#     4   9  19  33  47  66  92 120 151 190 232 273
#     4   8  13  22  38  57  79 115 154 181 214 264
#     4  10  21  35  49  67  92 120 152 189 229 277
#     4  11  21  32  48  70  94 119 149 188 236 282
#     4   9  17  32  50  65  87 121 159 193 226 269
#
# _framework density 17.733867
#
# number of rings (size 3 to 8) (size 9 to 14) (size 15 to 20)
#    0.000    3.000    0.000    3.375    0.000    5.500 
#    0.000    1.250    0.000    6.000    0.000    0.000 
#    0.000    5.000    0.000    0.000    0.000    0.125 
#
# Total GULP energy -396598.807712 kJ/mol
# GULP energy per Si atom -12393.712741 kJ/mol
# Density = 1.769350 g / cm^3
# Si number density = 17.733867 Si / 1000 Ang^3
#
#
#
# Elastic Constant Matrix: (Units=GPa)
#
#
# Indices 1 2 3 4 5 6 
#
# 1 134.6457 32.5690 55.7719 0.0000 30.2848 0.0000
# 2 32.5690 51.6973 30.2735 0.0000 14.7624 0.0000
# 3 55.7719 30.2735 101.5056 0.0000 34.5628 0.0000
# 4 0.0000 0.0000 0.0000 12.9940 0.0000 -1.5644
# 5 30.2848 14.7624 34.5628 0.0000 29.3076 0.0000
# 6 0.0000 0.0000 0.0000 -1.5644 0.0000 1.5314
#
#
#
# Elastic Compliance Matrix: (Units=1/GPa)
#
#
# Indices 1 2 3 4 5 6 
#
# 1 0.010797 -0.003397 -0.002846 0.000000 -0.006090 0.000000
# 2 -0.003397 0.025143 -0.004203 0.000000 -0.004198 0.000000
# 3 -0.002846 -0.004203 0.018292 0.000000 -0.016514 0.000000
# 4 0.000000 0.000000 0.000000 0.087751 0.000000 0.089645
# 5 -0.006090 -0.004198 -0.016514 0.000000 0.062004 0.000000
# 6 0.000000 0.000000 0.000000 0.089645 0.000000 0.744586
#
#
# Mechanical properties :
#
#
# Convention : Reuss Voigt Hill
#
# Bulk Modulus (GPa) = 29.99264 58.34194 44.16729
# Shear Modulus (GPa) = 5.09903 20.04888 12.57396
#
# Velocity S-wave (km/s) = 1.69751 3.36600 2.66566
# Velocity P-wave (km/s) = 4.55976 6.93373 5.86805
#
# Compressibility (1/GPa) = 0.03334151
#
# Stress axis : x y z
#
# Youngs Moduli (GPa) = 92.61815 39.77199 54.66921
#
# Poissons Ratio (x) = 0.13509 0.15557
# Poissons Ratio (y) = 0.31459 0.22978
# Poissons Ratio (z) = 0.26356 0.16717
#
# Static dielectric constant tensor:
#      x y z
#    x 3.444720 0.000000 0.291740 
#    y 0.000000 2.924890 0.000000 
#    z 0.291740 0.000000 3.396580 
# 
# 
# High freq. dielectric constant tensor:
#      x y z
#    x 1.679890 0.000000 0.023690 
#    y 0.000000 1.644180 0.000000 
#    z 0.023690 0.000000 1.682270 
# 
# From -- ./inp_files/90638.got.cif
#   From: 2010.06.25/outbox.cif.g09.slc.cpg/sg10_46_cif.got.tgz:90638.got - 2010.06.27 22:07:45.
