data_PCOD8063337
_publ_section_title
;
Structure prediction by ZEFSAII (Michael W. Deem and Ramdas Pophale) SiO2 
 PCOD8063337
Probable space group: P 2/M
;
_chemical_formula_sum "Si O2"
_cell_formula_units_Z 32
_cell_length_a 22.755404
_cell_length_b 9.110959
_cell_length_c 12.373889
_cell_angle_alpha 90.000000
_cell_angle_beta 135.518592
_cell_angle_gamma 90.000000
_cell_volume 1797.517826
_symmetry_space_group_name_H-M "P 2/M"
_symmetry_group_IT_number 10
_symmetry_cell_setting 'monoclinic'
loop_
_space_group_symop_operation_xyz
x,y,z
-x,y,-z
-x,-y,-z
x,-y,z
loop_
_atom_site_type_symbol
_atom_site_label
_atom_site_fract_x
_atom_site_fract_y
_atom_site_fract_z
Si Si1 0.676382 0.328258 0.120950
Si Si2 0.512804 0.335289 0.184957
Si Si3 0.285907 0.172652 0.045184
Si Si4 0.179241 0.170887 0.316499
Si Si5 0.143975 0.828543 0.028022
Si Si6 0.553911 0.667343 0.671423
Si Si7 0.325132 0.171464 0.667144
Si Si8 0.018502 0.664831 0.150384
O O1 0.696629 0.500000 0.144497
O O2 0.711150 0.256462 0.276194
O O3 0.576734 0.298130 0.985450
O O4 0.723138 0.254668 0.080856
O O5 0.540982 0.500000 0.188481
O O6 0.506511 0.321748 0.305130
O O7 0.580227 0.219898 0.232187
O O8 0.367972 0.224776 0.216480
O O9 0.292243 0.000000 0.032777
O O10 0.207279 0.214920 0.016231
O O11 0.267589 0.210258 0.488327
O O12 0.106454 0.254509 0.286704
O O13 0.158711 0.000000 0.299375
O O14 0.182835 0.219306 0.195316
O O15 0.057246 0.746190 0.888047
O O16 0.124438 0.000000 0.003361
O O17 0.500000 0.721553 0.500000
O O18 0.586468 0.500000 0.700236
O O19 0.324559 0.000000 0.692267
O O20 0.024907 0.500000 0.203671
O O21 0.000000 0.668356 0.000000
#
# Coordination Sequence:
#
# PCOD8063337 Si02
#       8
#     4   4   4   4   4   4   4   4
#     4  10  21  38  55  70  99 138 176 215 262 308
#     4   9  19  34  50  70  97 135 177 213 256 304
#     4  10  20  33  53  78 101 131 175 216 251 299
#     4   9  19  34  50  74 108 139 163 198 256 311
#     4   9  18  33  53  76 106 139 166 199 251 311
#     4   9  19  34  49  69 103 143 174 206 255 306
#     4  11  22  33  52  78 103 131 172 219 257 301
#     4   9  17  30  50  77 104 132 169 207 243 294
#
# _framework density 17.802326999999998
#
# number of rings (size 3 to 8) (size 9 to 14) (size 15 to 20)
#    0.000    2.500    0.000    2.625    1.750    7.750 
#    0.000    0.000    0.000    0.750    0.000    5.250 
#    0.000    0.000    0.000    0.000    0.000    0.000 
#
# Total GULP energy -396837.460840 kJ/mol
# GULP energy per Si atom -12401.170651 kJ/mol
# Density = 1.776181 g / cm^3
# Si number density = 17.802327 Si / 1000 Ang^3
#
#
#
# Elastic Constant Matrix: (Units=GPa)
#
#
# Indices 1 2 3 4 5 6 
#
# 1 110.0068 60.4483 34.6399 0.0000 7.8067 0.0000
# 2 60.4483 87.4940 32.4445 0.0000 2.3136 0.0000
# 3 34.6399 32.4445 49.3116 0.0000 -5.5954 0.0000
# 4 0.0000 0.0000 0.0000 24.0165 0.0000 -2.3279
# 5 7.8067 2.3136 -5.5954 0.0000 15.5094 0.0000
# 6 0.0000 0.0000 0.0000 -2.3279 0.0000 24.0089
#
#
#
# Elastic Compliance Matrix: (Units=1/GPa)
#
#
# Indices 1 2 3 4 5 6 
#
# 1 0.016835 -0.008698 -0.007213 0.000000 -0.009779 0.000000
# 2 -0.008698 0.020185 -0.007315 0.000000 -0.001272 0.000000
# 3 -0.007213 -0.007315 0.032005 0.000000 0.016269 0.000000
# 4 0.000000 0.000000 0.000000 0.042033 0.000000 0.004075
# 5 -0.009779 -0.001272 0.016269 0.000000 0.075458 0.000000
# 6 0.000000 0.000000 0.000000 0.004075 0.000000 0.042046
#
#
# Mechanical properties :
#
#
# Convention : Reuss Voigt Hill
#
# Bulk Modulus (GPa) = 44.30019 55.76422 50.03221
# Shear Modulus (GPa) = 17.69674 20.65893 19.17784
#
# Velocity S-wave (km/s) = 3.15631 3.41025 3.28573
# Velocity P-wave (km/s) = 6.18236 6.84825 6.52381
#
# Compressibility (1/GPa) = 0.02257327
#
# Stress axis : x y z
#
# Youngs Moduli (GPa) = 59.40027 49.54267 31.24519
#
# Poissons Ratio (x) = 0.43091 0.22537
# Poissons Ratio (y) = 0.51665 0.22856
# Poissons Ratio (z) = 0.42845 0.36240
#
# Static dielectric constant tensor:
#      x y z
#    x 3.263940 0.000000 -0.083700 
#    y 0.000000 3.344090 0.000000 
#    z -0.083700 0.000000 3.220380 
# 
# 
# High freq. dielectric constant tensor:
#      x y z
#    x 1.682270 0.000000 -0.004880 
#    y 0.000000 1.695090 0.000000 
#    z -0.004880 0.000000 1.670710 
# 
# From -- ./inp_files/55351.got.cif
#   From: 2010.06.25/outbox.cif.g09.slc.cpg/sg10_28_cif.got.tgz:55351.got - 2010.06.27 22:07:45.
