data_PCOD8063283
_publ_section_title
;
Structure prediction by ZEFSAII (Michael W. Deem and Ramdas Pophale) SiO2 
 PCOD8063283
Probable space group: P 2/M
;
_chemical_formula_sum "Si O2"
_cell_formula_units_Z 32
_cell_length_a 16.889826
_cell_length_b 9.114402
_cell_length_c 25.501024
_cell_angle_alpha 90.000000
_cell_angle_beta 153.361153
_cell_angle_gamma 90.000000
_cell_volume 1760.122523
_symmetry_space_group_name_H-M "P 2/M"
_symmetry_group_IT_number 10
_symmetry_cell_setting 'monoclinic'
loop_
_space_group_symop_operation_xyz
x,y,z
-x,y,-z
-x,-y,-z
x,-y,z
loop_
_atom_site_type_symbol
_atom_site_label
_atom_site_fract_x
_atom_site_fract_y
_atom_site_fract_z
Si Si1 0.943052 0.826060 0.549691
Si Si2 0.910688 0.671551 0.641349
Si Si3 0.664729 0.825731 0.925349
Si Si4 0.193713 0.165224 0.241205
Si Si5 0.729302 0.173418 0.323823
Si Si6 0.926162 0.834564 0.171193
Si Si7 0.933460 0.671656 0.016808
Si Si8 0.526536 0.661870 0.454391
O O1 0.917376 0.744061 0.588691
O O2 0.788555 0.777346 0.417458
O O3 0.129728 0.773381 0.635846
O O4 0.939672 0.000000 0.557323
O O5 0.945220 0.500000 0.656220
O O6 0.722450 0.709568 0.555051
O O7 0.061516 0.735937 0.769312
O O8 0.463767 0.766286 0.806535
O O9 0.755836 0.756609 0.927958
O O10 0.676692 0.000000 0.926761
O O11 0.768355 0.776348 0.039610
O O12 0.397053 0.211641 0.357156
O O13 0.115043 0.169984 0.253359
O O14 0.172860 0.000000 0.206102
O O15 0.089398 0.287280 0.147897
O O16 0.726690 0.000000 0.321780
O O17 0.882305 0.000000 0.163004
O O18 0.893935 0.500000 0.995463
O O19 0.000000 0.724679 0.000000
O O20 0.500000 0.651317 0.500000
O O21 0.484726 0.500000 0.405491
#
# Coordination Sequence:
#
# PCOD8063283 Si02
#       8
#     4   4   4   4   4   4   4   4
#     4   9  18  35  59  83 106 137 172 215 269 322
#     4  11  22  34  51  76 108 143 179 219 264 315
#     4   9  18  34  57  82 104 133 177 224 266 312
#     4  10  20  33  52  75  99 133 178 225 263 303
#     4   8  16  35  61  83 105 134 173 217 269 327
#     4   9  18  32  50  74 103 135 172 215 260 311
#     4  10  21  35  50  72 106 144 177 212 258 316
#     4  10  20  34  50  71 103 144 178 211 259 313
#
# _framework density 18.180553
#
# number of rings (size 3 to 8) (size 9 to 14) (size 15 to 20)
#    0.000    2.500    1.250    2.625    0.000    5.250 
#    0.000    5.625    0.000    3.750    0.000    0.000 
#    0.000    0.000    0.000    0.000    0.000    0.000 
#
# Total GULP energy -396634.173936 kJ/mol
# GULP energy per Si atom -12394.817935 kJ/mol
# Density = 1.813917 g / cm^3
# Si number density = 18.180553 Si / 1000 Ang^3
#
#
#
# Elastic Constant Matrix: (Units=GPa)
#
#
# Indices 1 2 3 4 5 6 
#
# 1 119.3541 43.5649 63.6673 0.0000 -8.4249 0.0000
# 2 43.5649 53.7158 40.1423 0.0000 -2.7227 0.0000
# 3 63.6673 40.1423 127.7806 0.0000 8.7147 0.0000
# 4 0.0000 0.0000 0.0000 70.8178 0.0000 215.7640
# 5 -8.4249 -2.7227 8.7147 0.0000 21.8848 0.0000
# 6 0.0000 0.0000 0.0000 215.7640 0.0000 966.7836
#
#
#
# Elastic Compliance Matrix: (Units=1/GPa)
#
#
# Indices 1 2 3 4 5 6 
#
# 1 0.014366 -0.007341 -0.005311 0.000000 0.006732 0.000000
# 2 -0.007341 0.028937 -0.005639 0.000000 0.003019 0.000000
# 3 -0.005311 -0.005639 0.012778 0.000000 -0.007834 0.000000
# 4 0.000000 0.000000 0.000000 0.044123 0.000000 -0.009847
# 5 0.006732 0.003019 -0.007834 0.000000 0.051781 0.000000
# 6 0.000000 0.000000 0.000000 -0.009847 0.000000 0.003232
#
#
# Mechanical properties :
#
#
# Convention : Reuss Voigt Hill
#
# Bulk Modulus (GPa) = 51.28326 66.17770 58.73048
# Shear Modulus (GPa) = 25.21449 222.12896 123.67173
#
# Velocity S-wave (km/s) = 3.72814 11.06547 8.25663
# Velocity P-wave (km/s) = 6.84113 14.13290 11.10270
#
# Compressibility (1/GPa) = 0.01949954
#
# Stress axis : x y z
#
# Youngs Moduli (GPa) = 69.60755 34.55732 78.26046
#
# Poissons Ratio (x) = 0.25369 0.41564
# Poissons Ratio (y) = 0.51101 0.44129
# Poissons Ratio (z) = 0.36968 0.19486
#
# Static dielectric constant tensor:
#      x y z
#    x 3.335910 0.000000 0.189400 
#    y 0.000000 3.237860 0.000000 
#    z 0.189400 0.000000 3.779180 
# 
# 
# High freq. dielectric constant tensor:
#      x y z
#    x 1.690850 0.000000 -0.002340 
#    y 0.000000 1.693560 0.000000 
#    z -0.002340 0.000000 1.703090 
# 
# From -- ./inp_files/89632.got.cif
#   From: 2010.06.25/outbox.cif.g09.slc.cpg/sg10_45_cif.got.tgz:89632.got - 2010.06.27 22:07:45.
