data_PCOD8063665
_publ_section_title
;
Structure prediction by ZEFSAII (Michael W. Deem and Ramdas Pophale) SiO2 
 PCOD8063665
Probable space group: P 2/M
;
_chemical_formula_sum "Si O2"
_cell_formula_units_Z 32
_cell_length_a 15.692545
_cell_length_b 23.342074
_cell_length_c 9.015342
_cell_angle_alpha 90.000000
_cell_angle_beta 28.063196
_cell_angle_gamma 90.000000
_cell_volume 1553.545672
_symmetry_space_group_name_H-M "P 2/M"
_symmetry_group_IT_number 10
_symmetry_cell_setting 'monoclinic'
loop_
_space_group_symop_operation_xyz
x,y,z
-x,y,-z
-x,-y,-z
x,-y,z
loop_
_atom_site_type_symbol
_atom_site_label
_atom_site_fract_x
_atom_site_fract_y
_atom_site_fract_z
Si Si1 0.658819 0.067574 0.363694
Si Si2 0.306344 0.658540 0.229152
Si Si3 0.318881 0.132162 0.365467
Si Si4 0.460783 0.333953 0.387655
Si Si5 0.034960 0.435598 0.607914
Si Si6 0.194659 0.744401 0.634385
Si Si7 0.977240 0.067518 0.364994
Si Si8 0.806880 0.564313 0.223648
O O1 0.500000 0.090000 0.500000
O O2 0.635711 0.094513 0.560724
O O3 0.644595 0.000000 0.407046
O O4 0.848141 0.085402 0.998709
O O5 0.185892 0.603469 0.453375
O O6 0.213461 0.714092 0.444989
O O7 0.500000 0.646669 0.000000
O O8 0.343857 0.667659 0.995604
O O9 0.216611 0.188419 0.577858
O O10 0.195260 0.097543 0.441192
O O11 0.500000 0.149286 0.000000
O O12 0.500000 0.333607 0.500000
O O13 0.345204 0.278222 0.519150
O O14 0.349641 0.390093 0.502559
O O15 0.112943 0.500000 0.479671
O O16 0.000000 0.409901 0.500000
O O17 0.845715 0.434167 0.987332
O O18 0.000000 0.730226 0.000000
O O19 0.000000 0.088020 0.500000
O O20 0.943486 0.000000 0.411243
O O21 0.745886 0.500000 0.366491
O O22 0.000000 0.580228 0.000000
#
# Coordination Sequence:
#
# PCOD8063665 Si02
#       8
#     4   4   4   4   4   4   4   4
#     4  10  21  38  62  94 130 167 206 248 296 352
#     4  10  21  37  57  81 110 143 184 231 284 341
#     4  12  24  40  63  90 123 161 204 253 305 359
#     4  11  22  37  59  86 115 146 187 241 297 349
#     4  10  20  34  53  79 110 143 181 225 276 337
#     4  11  24  44  63  80 110 152 198 242 291 353
#     4  10  21  39  63  94 130 165 205 249 298 358
#     4  10  20  35  56  81 112 151 190 228 282 353
#
# _framework density 20.598043000000001
#
# number of rings (size 3 to 8) (size 9 to 14) (size 15 to 20)
#    0.000    1.500    0.000    6.750    0.000    4.500 
#    0.000    4.375    0.000    0.000    0.000    0.000 
#    0.000    0.000    0.000    0.000    0.000    0.000 
#
# Total GULP energy -396814.940667 kJ/mol
# GULP energy per Si atom -12400.466896 kJ/mol
# Density = 2.055116 g / cm^3
# Si number density = 20.598043 Si / 1000 Ang^3
#
#
#
# Elastic Constant Matrix: (Units=GPa)
#
#
# Indices 1 2 3 4 5 6 
#
# 1 111.2951 37.4758 28.2138 0.0000 13.6595 0.0000
# 2 37.4758 71.6246 31.2370 0.0000 -1.9891 0.0000
# 3 28.2138 31.2370 111.1831 0.0000 10.2186 0.0000
# 4 0.0000 0.0000 0.0000 38.0744 0.0000 14.1335
# 5 13.6595 -1.9891 10.2186 0.0000 31.9476 0.0000
# 6 0.0000 0.0000 0.0000 14.1335 0.0000 3.9264
#
#
#
# Elastic Compliance Matrix: (Units=1/GPa)
#
#
# Indices 1 2 3 4 5 6 
#
# 1 0.011845 -0.005968 -0.000854 0.000000 -0.005163 0.000000
# 2 -0.005968 0.019114 -0.004327 0.000000 0.005126 0.000000
# 3 -0.000854 -0.004327 0.010733 0.000000 -0.003337 0.000000
# 4 0.000000 0.000000 0.000000 -0.078118 0.000000 0.281196
# 5 -0.005163 0.005126 -0.003337 0.000000 0.034895 0.000000
# 6 0.000000 0.000000 0.000000 0.281196 0.000000 -0.757518
#
#
# Mechanical properties :
#
#
# Convention : Reuss Voigt Hill
#
# Bulk Modulus (GPa) = 51.56444 54.21735 52.89090
# Shear Modulus (GPa) = -6.84664 27.93477 10.54406
#
# Velocity S-wave (km/s) = -1.82514 3.68664 2.26497
# Velocity P-wave (km/s) = 4.54384 6.67087 5.70732
#
# Compressibility (1/GPa) = 0.01939321
#
# Stress axis : x y z
#
# Youngs Moduli (GPa) = 84.42338 52.31841 93.16825
#
# Poissons Ratio (x) = 0.31225 0.07961
# Poissons Ratio (y) = 0.50387 0.40310
# Poissons Ratio (z) = 0.07214 0.22636
#
# Static dielectric constant tensor:
#      x y z
#    x 3.886360 0.000000 0.363140 
#    y 0.000000 3.580110 0.000000 
#    z 0.363140 0.000000 4.176350 
# 
# 
# High freq. dielectric constant tensor:
#      x y z
#    x 1.810060 0.000000 0.017940 
#    y 0.000000 1.796280 0.000000 
#    z 0.017940 0.000000 1.817480 
# 
# From -- ./inp_files/30574.got.cif
#   From: 2010.06.25/outbox.cif.g09.slc.cpg/sg10_16_cif.got.tgz:30574.got - 2010.06.27 22:07:45.
