data_PCOD8063311
_publ_section_title
;
Structure prediction by ZEFSAII (Michael W. Deem and Ramdas Pophale) SiO2 
 PCOD8063311
Probable space group: P 2/M
;
_chemical_formula_sum "Si O2"
_cell_formula_units_Z 32
_cell_length_a 29.476092
_cell_length_b 8.932743
_cell_length_c 23.244201
_cell_angle_alpha 90.000000
_cell_angle_beta 164.044045
_cell_angle_gamma 90.000000
_cell_volume 1682.447248
_symmetry_space_group_name_H-M "P 2/M"
_symmetry_group_IT_number 10
_symmetry_cell_setting 'monoclinic'
loop_
_space_group_symop_operation_xyz
x,y,z
-x,y,-z
-x,-y,-z
x,-y,z
loop_
_atom_site_type_symbol
_atom_site_label
_atom_site_fract_x
_atom_site_fract_y
_atom_site_fract_z
Si Si1 0.748920 0.678351 0.666225
Si Si2 0.402243 0.676756 0.199875
Si Si3 0.819748 0.323369 0.292876
Si Si4 0.443768 0.322934 0.120669
Si Si5 0.921433 0.676994 0.989156
Si Si6 0.308280 0.832307 0.754867
Si Si7 0.099965 0.678061 0.908032
Si Si8 0.760086 0.177260 0.457318
O O1 0.739871 0.500000 0.652814
O O2 0.573784 0.746932 0.432706
O O3 0.790206 0.734349 0.781486
O O4 0.894072 0.736824 0.800630
O O5 0.408614 0.500000 0.215156
O O6 0.376808 0.720559 0.102218
O O7 0.249427 0.738965 0.050860
O O8 0.821409 0.500000 0.289103
O O9 0.778723 0.279637 0.307636
O O10 0.000000 0.256040 0.500000
O O11 0.686987 0.258794 0.085316
O O12 0.468054 0.500000 0.144123
O O13 0.620438 0.246570 0.327767
O O14 0.928220 0.500000 0.993665
O O15 0.863933 0.728021 0.982233
O O16 0.274611 0.772269 0.650154
O O17 0.237990 0.000000 0.677638
O O18 0.500000 0.829604 0.000000
O O19 0.077097 0.500000 0.874748
O O20 0.935391 0.758127 0.687651
O O21 0.757050 0.000000 0.460727
#
# Coordination Sequence:
#
# PCOD8063311 Si02
#       8
#     4   4   4   4   4   4   4   4
#     4   8  13  24  43  71 108 141 170 211 254 301
#     4   9  18  30  48  76 110 142 171 211 262 311
#     4  10  22  36  55  83 111 138 170 212 261 315
#     4  10  20  36  55  77 105 138 175 214 260 312
#     4   8  14  25  45  74 105 138 175 210 253 305
#     4  10  21  39  58  77 103 135 176 220 261 310
#     4  10  20  33  52  79 108 140 174 213 263 314
#     4  11  23  38  56  77 102 136 178 222 263 307
#
# _framework density 19.019915000000001
#
# number of rings (size 3 to 8) (size 9 to 14) (size 15 to 20)
#    0.000    2.500    1.250    1.875    1.750    4.000 
#    0.000    3.125    0.000    0.000    0.000    8.750 
#    0.000    0.000    0.000    0.000    0.000    0.000 
#
# Total GULP energy -396731.626201 kJ/mol
# GULP energy per Si atom -12397.863319 kJ/mol
# Density = 1.897662 g / cm^3
# Si number density = 19.019915 Si / 1000 Ang^3
#
#
#
# Elastic Constant Matrix: (Units=GPa)
#
#
# Indices 1 2 3 4 5 6 
#
# 1 158.9333 24.6407 59.6597 0.0000 5.3529 0.0000
# 2 24.6407 19.2211 22.3199 0.0000 0.1934 0.0000
# 3 59.6597 22.3199 106.2994 0.0000 10.8092 0.0000
# 4 0.0000 0.0000 0.0000 12.8108 0.0000 -6.7141
# 5 5.3529 0.1934 10.8092 0.0000 31.8505 0.0000
# 6 0.0000 0.0000 0.0000 -6.7141 0.0000 14.4725
#
#
#
# Elastic Compliance Matrix: (Units=1/GPa)
#
#
# Indices 1 2 3 4 5 6 
#
# 1 0.008672 -0.007269 -0.003311 0.000000 -0.000290 0.000000
# 2 -0.007269 0.075565 -0.012289 0.000000 0.004933 0.000000
# 3 -0.003311 -0.012289 0.014274 0.000000 -0.004213 0.000000
# 4 0.000000 0.000000 0.000000 0.103135 0.000000 0.047847
# 5 -0.000290 0.004933 -0.004213 0.000000 0.032845 0.000000
# 6 0.000000 0.000000 0.000000 0.047847 0.000000 0.091294
#
#
# Mechanical properties :
#
#
# Convention : Reuss Voigt Hill
#
# Bulk Modulus (GPa) = 18.94885 55.29940 37.12412
# Shear Modulus (GPa) = 12.84974 23.68232 18.26603
#
# Velocity S-wave (km/s) = 2.60204 3.53247 3.10233
# Velocity P-wave (km/s) = 4.36025 6.76575 5.69153
#
# Compressibility (1/GPa) = 0.05277366
#
# Stress axis : x y z
#
# Youngs Moduli (GPa) = 115.31944 13.23371 70.05516
#
# Poissons Ratio (x) = 0.09619 0.23197
# Poissons Ratio (y) = 0.83822 0.86088
# Poissons Ratio (z) = 0.38184 0.16262
#
# Static dielectric constant tensor:
#      x y z
#    x 3.443180 0.000000 -0.089320 
#    y 0.000000 3.003800 0.000000 
#    z -0.089320 0.000000 3.749350 
# 
# 
# High freq. dielectric constant tensor:
#      x y z
#    x 1.752170 0.000000 -0.005660 
#    y 0.000000 1.685570 0.000000 
#    z -0.005660 0.000000 1.749100 
# 
# From -- ./inp_files/86989.got.cif
#   From: 2010.06.25/outbox.cif.g09.slc.cpg/sg10_44_cif.got.tgz:86989.got - 2010.06.27 22:07:45.
