data_PCOD8063869
_publ_section_title
;
Structure prediction by ZEFSAII (Michael W. Deem and Ramdas Pophale) SiO2 
 PCOD8063869
Probable space group: P 2/M
;
_chemical_formula_sum "Si O2"
_cell_formula_units_Z 24
_cell_length_a 17.002460
_cell_length_b 13.374174
_cell_length_c 13.148233
_cell_angle_alpha 90.000000
_cell_angle_beta 25.406708
_cell_angle_gamma 90.000000
_cell_volume 1282.758223
_symmetry_space_group_name_H-M "P 2/M"
_symmetry_group_IT_number 10
_symmetry_cell_setting 'monoclinic'
loop_
_space_group_symop_operation_xyz
x,y,z
-x,y,-z
-x,-y,-z
x,-y,z
loop_
_atom_site_type_symbol
_atom_site_label
_atom_site_fract_x
_atom_site_fract_y
_atom_site_fract_z
Si Si1 0.514621 0.613111 0.366305
Si Si2 0.207496 0.390229 0.292498
Si Si3 0.562513 0.117240 0.812506
Si Si4 0.294511 0.254398 0.014558
Si Si5 0.103536 0.254392 0.587396
Si Si6 0.895571 0.386888 0.223494
O O1 0.500000 0.646343 0.500000
O O2 0.594971 0.500000 0.265582
O O3 0.320200 0.618539 0.539389
O O4 0.648028 0.691723 0.156706
O O5 0.294357 0.500000 0.205660
O O6 0.323762 0.333041 0.071563
O O7 0.219048 0.333041 0.385623
O O8 0.000000 0.399469 0.500000
O O9 0.765287 0.159238 0.550994
O O10 0.571893 0.000000 0.784257
O O11 0.500000 0.143921 0.000000
O O12 0.418465 0.159239 0.897825
O O13 0.083055 0.219144 0.250875
O O14 0.047224 0.308292 0.757500
O O15 0.955537 0.500000 0.183906
O O16 0.000000 0.353623 0.000000
#
# Coordination Sequence:
#
# PCOD8063869 Si02
#       6
#     4   4   4   4   4   4
#     4  10  20  34  55  87 124 161 197 232 277 342
#     4   9  18  31  51  82 119 153 184 224 276 344
#     4  11  24  42  62  86 114 146 198 255 302 353
#     4  11  21  37  59  85 116 153 194 237 294 348
#     4  11  21  37  59  85 116 153 194 237 294 348
#     4  10  20  34  55  87 124 161 197 232 277 342
#
# _framework density 18.709682999999998
#
# number of rings (size 3 to 8) (size 9 to 14) (size 15 to 20)
#    0.000    1.667    3.333    2.000    0.000    4.000 
#    0.000    2.500    0.000    1.000    0.000    0.000 
#    0.000    0.000    0.000    0.000    0.000    0.000 
#
# Total GULP energy -297654.285841 kJ/mol
# GULP energy per Si atom -12402.261910 kJ/mol
# Density = 1.866710 g / cm^3
# Si number density = 18.709683 Si / 1000 Ang^3
#
#
#
# Elastic Constant Matrix: (Units=GPa)
#
#
# Indices 1 2 3 4 5 6 
#
# 1 89.2577 51.4796 41.1252 0.0000 5.2589 0.0000
# 2 51.4796 112.4052 50.8419 0.0000 3.9549 0.0000
# 3 41.1252 50.8419 88.0113 0.0000 2.3061 0.0000
# 4 0.0000 0.0000 0.0000 20.5803 0.0000 -0.4548
# 5 5.2589 3.9549 2.3061 0.0000 41.9327 0.0000
# 6 0.0000 0.0000 0.0000 -0.4548 0.0000 20.5062
#
#
#
# Elastic Compliance Matrix: (Units=1/GPa)
#
#
# Indices 1 2 3 4 5 6 
#
# 1 0.016522 -0.005475 -0.004523 0.000000 -0.001307 0.000000
# 2 -0.005475 0.013881 -0.005452 0.000000 -0.000323 0.000000
# 3 -0.004523 -0.005452 0.016621 0.000000 0.000167 0.000000
# 4 0.000000 0.000000 0.000000 0.048614 0.000000 0.001078
# 5 -0.001307 -0.000323 0.000167 0.000000 0.024033 0.000000
# 6 0.000000 0.000000 0.000000 0.001078 0.000000 0.048790
#
#
# Mechanical properties :
#
#
# Convention : Reuss Voigt Hill
#
# Bulk Modulus (GPa) = 62.02084 64.06305 63.04195
# Shear Modulus (GPa) = 24.42165 26.35237 25.38701
#
# Velocity S-wave (km/s) = 3.61681 3.75705 3.68760
# Velocity P-wave (km/s) = 7.11778 7.28941 7.20411
#
# Compressibility (1/GPa) = 0.01612361
#
# Stress axis : x y z
#
# Youngs Moduli (GPa) = 60.52395 72.03991 60.16493
#
# Poissons Ratio (x) = 0.39442 0.27215
# Poissons Ratio (y) = 0.33137 0.32802
# Poissons Ratio (z) = 0.27378 0.39277
#
# Static dielectric constant tensor:
#      x y z
#    x 3.401290 0.000000 0.019890 
#    y 0.000000 3.240520 0.000000 
#    z 0.019890 0.000000 3.397440 
# 
# 
# High freq. dielectric constant tensor:
#      x y z
#    x 1.730870 0.000000 -0.004500 
#    y 0.000000 1.695730 0.000000 
#    z -0.004500 0.000000 1.731530 
# 
# From -- ./inp_files/37471.got.cif
#   From: 2010.06.25/outbox.cif.g09.slc.cpg/sg10_19_cif.got.tgz:37471.got - 2010.06.27 22:07:45.
