data_PCOD8063597
_publ_section_title
;
Structure prediction by ZEFSAII (Michael W. Deem and Ramdas Pophale) SiO2 
 PCOD8063597
Probable space group: P 2/M
;
_chemical_formula_sum "Si O2"
_cell_formula_units_Z 32
_cell_length_a 20.940725
_cell_length_b 9.184302
_cell_length_c 22.970744
_cell_angle_alpha 90.000000
_cell_angle_beta 156.230904
_cell_angle_gamma 90.000000
_cell_volume 1780.630142
_symmetry_space_group_name_H-M "P 2/M"
_symmetry_group_IT_number 10
_symmetry_cell_setting 'monoclinic'
loop_
_space_group_symop_operation_xyz
x,y,z
-x,y,-z
-x,-y,-z
x,-y,z
loop_
_atom_site_type_symbol
_atom_site_label
_atom_site_fract_x
_atom_site_fract_y
_atom_site_fract_z
Si Si1 0.841936 0.335280 0.905732
Si Si2 0.321200 0.666508 0.950520
Si Si3 0.953878 0.831198 0.221106
Si Si4 0.668222 0.170715 0.665750
Si Si5 0.779534 0.167294 0.243185
Si Si6 0.023843 0.831178 0.148906
Si Si7 0.877744 0.164263 0.523337
Si Si8 0.318972 0.665954 0.725663
O O1 0.787712 0.500000 0.872886
O O2 0.701331 0.253449 0.754067
O O3 0.881005 0.256660 0.999231
O O4 0.000000 0.328761 0.000000
O O5 0.271970 0.500000 0.897816
O O6 0.493181 0.678712 0.121997
O O7 0.201860 0.736806 0.897156
O O8 0.324385 0.749378 0.891599
O O9 0.025172 0.791673 0.217995
O O10 0.088031 0.795617 0.380878
O O11 0.903840 0.000000 0.184339
O O12 0.500000 0.223358 0.500000
O O13 0.803702 0.211319 0.731990
O O14 0.665820 0.000000 0.677574
O O15 0.752960 0.236243 0.283601
O O16 0.963327 0.181933 0.381463
O O17 0.724844 0.000000 0.198518
O O18 0.988704 0.000000 0.108360
O O19 0.747361 0.275825 0.391000
O O20 0.812483 0.000000 0.463615
O O21 0.265299 0.500000 0.690900
#
# Coordination Sequence:
#
# PCOD8063597 Si02
#       8
#     4   4   4   4   4   4   4   4
#     4   9  17  29  47  73 103 133 165 199 237 282
#     4  10  21  35  50  71 100 129 160 203 249 295
#     4   9  19  36  55  73  93 125 170 210 245 289
#     4   9  17  30  50  77 108 137 164 199 245 291
#     4  10  20  34  53  75  97 125 163 203 246 297
#     4   9  17  32  54  75  97 129 169 208 242 285
#     4   9  19  34  50  70  97 127 162 204 246 291
#     4  11  22  33  48  73 101 128 160 199 248 301
#
# _framework density 17.971166
#
# number of rings (size 3 to 8) (size 9 to 14) (size 15 to 20)
#    0.000    2.500    0.000    3.000    0.000    9.750 
#    0.000    1.250    0.000    3.000    0.000    0.000 
#    0.000    0.000    0.000    0.000    0.000    0.000 
#
# Total GULP energy -396866.771871 kJ/mol
# GULP energy per Si atom -12402.086621 kJ/mol
# Density = 1.793026 g / cm^3
# Si number density = 17.971166 Si / 1000 Ang^3
#
#
#
# Elastic Constant Matrix: (Units=GPa)
#
#
# Indices 1 2 3 4 5 6 
#
# 1 88.8011 47.4478 49.9746 0.0000 -23.8686 0.0000
# 2 47.4478 113.6047 70.4409 0.0000 -13.4030 0.0000
# 3 49.9746 70.4409 130.2523 0.0000 -20.0041 0.0000
# 4 0.0000 0.0000 0.0000 29.7378 0.0000 0.9631
# 5 -23.8686 -13.4030 -20.0041 0.0000 18.4172 0.0000
# 6 0.0000 0.0000 0.0000 0.9631 0.0000 11.2932
#
#
#
# Elastic Compliance Matrix: (Units=1/GPa)
#
#
# Indices 1 2 3 4 5 6 
#
# 1 0.020675 -0.004873 -0.002072 0.000000 0.020997 0.000000
# 2 -0.004873 0.014468 -0.006371 0.000000 -0.002705 0.000000
# 3 -0.002072 -0.006371 0.012954 0.000000 0.006748 0.000000
# 4 0.000000 0.000000 0.000000 0.033720 0.000000 -0.002876
# 5 0.020997 -0.002705 0.006748 0.000000 0.086871 0.000000
# 6 0.000000 0.000000 0.000000 -0.002876 0.000000 0.088794
#
#
# Mechanical properties :
#
#
# Convention : Reuss Voigt Hill
#
# Bulk Modulus (GPa) = 46.58512 74.26495 60.42503
# Shear Modulus (GPa) = 17.16625 22.87597 20.02111
#
# Velocity S-wave (km/s) = 3.09400 3.57168 3.34139
# Velocity P-wave (km/s) = 6.22432 7.64352 6.97014
#
# Compressibility (1/GPa) = 0.02146608
#
# Stress axis : x y z
#
# Youngs Moduli (GPa) = 48.36805 69.11572 77.19514
#
# Poissons Ratio (x) = 0.33678 0.15999
# Poissons Ratio (y) = 0.23568 0.49177
# Poissons Ratio (z) = 0.10024 0.44030
#
# Static dielectric constant tensor:
#      x y z
#    x 3.138030 0.000000 -0.163520 
#    y 0.000000 3.449660 0.000000 
#    z -0.163520 0.000000 3.335330 
# 
# 
# High freq. dielectric constant tensor:
#      x y z
#    x 1.671540 0.000000 -0.015170 
#    y 0.000000 1.702250 0.000000 
#    z -0.015170 0.000000 1.695450 
# 
# From -- ./inp_files/90665.got.cif
#   From: 2010.06.25/outbox.cif.g09.slc.cpg/sg10_46_cif.got.tgz:90665.got - 2010.06.27 22:07:45.
