data_PCOD8063664
_publ_section_title
;
Structure prediction by ZEFSAII (Michael W. Deem and Ramdas Pophale) SiO2 
 PCOD8063664
Probable space group: P 2/M
;
_chemical_formula_sum "Si O2"
_cell_formula_units_Z 32
_cell_length_a 15.779323
_cell_length_b 23.597849
_cell_length_c 9.065066
_cell_angle_alpha 90.000000
_cell_angle_beta 28.170020
_cell_angle_gamma 90.000000
_cell_volume 1593.514976
_symmetry_space_group_name_H-M "P 2/M"
_symmetry_group_IT_number 10
_symmetry_cell_setting 'monoclinic'
loop_
_space_group_symop_operation_xyz
x,y,z
-x,y,-z
-x,-y,-z
x,-y,z
loop_
_atom_site_type_symbol
_atom_site_label
_atom_site_fract_x
_atom_site_fract_y
_atom_site_fract_z
Si Si1 0.522989 0.063913 0.629500
Si Si2 0.308650 0.656195 0.224435
Si Si3 0.314925 0.135778 0.371159
Si Si4 0.458709 0.336009 0.391555
Si Si5 0.037356 0.436248 0.602530
Si Si6 0.193832 0.740857 0.634199
Si Si7 0.845046 0.064043 0.632894
Si Si8 0.810688 0.563876 0.215635
O O1 0.500000 0.089426 0.500000
O O2 0.658720 0.101049 0.518128
O O3 0.600261 0.000000 0.500757
O O4 0.333917 0.064042 0.998828
O O5 0.190596 0.601283 0.442633
O O6 0.211813 0.709901 0.447998
O O7 0.500000 0.644856 0.000000
O O8 0.348582 0.665771 0.988676
O O9 0.222586 0.193521 0.560376
O O10 0.176126 0.101930 0.480457
O O11 0.500000 0.146942 0.000000
O O12 0.500000 0.334400 0.500000
O O13 0.341926 0.281520 0.523376
O O14 0.348424 0.392102 0.509077
O O15 0.112873 0.500000 0.475569
O O16 0.000000 0.410198 0.500000
O O17 0.851343 0.434606 0.978159
O O18 0.000000 0.729161 0.000000
O O19 0.000000 0.089534 0.500000
O O20 0.894085 0.000000 0.507920
O O21 0.753558 0.500000 0.352592
O O22 0.000000 0.581016 0.000000
#
# Coordination Sequence:
#
# PCOD8063664 Si02
#       8
#     4   4   4   4   4   4   4   4
#     4   9  18  33  56  86 118 152 187 226 274 329
#     4  10  21  37  57  79 106 140 180 224 273 326
#     4  10  20  37  59  81 112 151 191 233 280 333
#     4  11  22  37  59  84 110 141 183 234 284 331
#     4  10  20  34  53  79 110 141 174 215 267 326
#     4  11  24  42  59  77 107 146 190 233 279 336
#     4   9  18  34  57  86 119 152 187 228 276 332
#     4  10  20  35  56  81 112 148 181 218 273 338
#
# _framework density 20.081392999999998
#
# number of rings (size 3 to 8) (size 9 to 14) (size 15 to 20)
#    0.000    2.000    0.000    4.875    0.000    4.000 
#    0.000    3.125    0.000    3.750    0.000    0.000 
#    0.000    0.000    0.000    0.000    0.000    0.000 
#
# Total GULP energy -396741.062372 kJ/mol
# GULP energy per Si atom -12398.158199 kJ/mol
# Density = 2.003569 g / cm^3
# Si number density = 20.081393 Si / 1000 Ang^3
#
#
#
# Elastic Constant Matrix: (Units=GPa)
#
#
# Indices 1 2 3 4 5 6 
#
# 1 124.1823 61.9951 31.1164 0.0000 13.0639 0.0000
# 2 61.9951 123.8908 44.5784 0.0000 -3.0015 0.0000
# 3 31.1164 44.5784 82.6626 0.0000 9.0194 0.0000
# 4 0.0000 0.0000 0.0000 21.0817 0.0000 11.2024
# 5 13.0639 -3.0015 9.0194 0.0000 29.9464 0.0000
# 6 0.0000 0.0000 0.0000 11.2024 0.0000 14.1990
#
#
#
# Elastic Compliance Matrix: (Units=1/GPa)
#
#
# Indices 1 2 3 4 5 6 
#
# 1 0.011652 -0.005705 -0.000716 0.000000 -0.005439 0.000000
# 2 -0.005705 0.013027 -0.005472 0.000000 0.005442 0.000000
# 3 -0.000716 -0.005472 0.015865 0.000000 -0.005014 0.000000
# 4 0.000000 0.000000 0.000000 0.081676 0.000000 -0.064439
# 5 -0.005439 0.005442 -0.005014 0.000000 0.037822 0.000000
# 6 0.000000 0.000000 0.000000 -0.064439 0.000000 0.121267
#
#
# Mechanical properties :
#
#
# Convention : Reuss Voigt Hill
#
# Bulk Modulus (GPa) = 59.67020 67.34616 63.50818
# Shear Modulus (GPa) = 16.09369 25.91514 21.00441
#
# Velocity S-wave (km/s) = 2.83401 3.59626 3.23765
# Velocity P-wave (km/s) = 6.36298 7.13116 6.75800
#
# Compressibility (1/GPa) = 0.01675878
#
# Stress axis : x y z
#
# Youngs Moduli (GPa) = 85.81904 76.76359 63.03269
#
# Poissons Ratio (x) = 0.43793 0.04515
# Poissons Ratio (y) = 0.48959 0.34489
# Poissons Ratio (z) = 0.06147 0.42002
#
# Static dielectric constant tensor:
#      x y z
#    x 3.911520 0.000000 0.330060 
#    y 0.000000 3.594490 0.000000 
#    z 0.330060 0.000000 3.863960 
# 
# 
# High freq. dielectric constant tensor:
#      x y z
#    x 1.787880 0.000000 0.016950 
#    y 0.000000 1.774940 0.000000 
#    z 0.016950 0.000000 1.780020 
# 
# From -- ./inp_files/30575.got.cif
#   From: 2010.06.25/outbox.cif.g09.slc.cpg/sg10_16_cif.got.tgz:30575.got - 2010.06.27 22:07:45.
