data_PCOD8063938
_publ_section_title
;
Structure prediction by ZEFSAII (Michael W. Deem and Ramdas Pophale) SiO2 
 PCOD8063938
Probable space group: P 2/M
;
_chemical_formula_sum "Si O2"
_cell_formula_units_Z 32
_cell_length_a 23.509937
_cell_length_b 8.970905
_cell_length_c 14.470420
_cell_angle_alpha 90.000000
_cell_angle_beta 31.796886
_cell_angle_gamma 90.000000
_cell_volume 1608.070088
_symmetry_space_group_name_H-M "P 2/M"
_symmetry_group_IT_number 10
_symmetry_cell_setting 'monoclinic'
loop_
_space_group_symop_operation_xyz
x,y,z
-x,y,-z
-x,-y,-z
x,-y,z
loop_
_atom_site_type_symbol
_atom_site_label
_atom_site_fract_x
_atom_site_fract_y
_atom_site_fract_z
Si Si1 0.504572 0.676782 0.388884
Si Si2 0.324003 0.322932 0.994501
Si Si3 0.764044 0.826684 0.542309
Si Si4 0.689458 0.171940 0.444162
Si Si5 0.015717 0.669470 0.744178
Si Si6 0.081972 0.322337 0.310036
Si Si7 0.893354 0.668135 0.093541
Si Si8 0.389910 0.323366 0.105202
O O1 0.500000 0.741979 0.500000
O O2 0.504997 0.500000 0.392765
O O3 0.609470 0.734986 0.187127
O O4 0.400844 0.725846 0.475534
O O5 0.319795 0.500000 0.998541
O O6 0.202513 0.257266 0.158815
O O7 0.382679 0.270588 0.008338
O O8 0.694080 0.795743 0.547135
O O9 0.884244 0.766870 0.359458
O O10 0.711839 0.743234 0.700781
O O11 0.769923 0.000000 0.557000
O O12 0.802156 0.213195 0.241677
O O13 0.664285 0.000000 0.458522
O O14 0.056703 0.500000 0.673839
O O15 0.965818 0.736479 0.719949
O O16 0.917721 0.675160 0.951508
O O17 0.087315 0.500000 0.304623
O O18 0.000000 0.260368 0.500000
O O19 0.858024 0.500000 0.171563
O O20 0.000000 0.716550 0.000000
O O21 0.382934 0.500000 0.122778
O O22 0.500000 0.262962 0.000000
#
# Coordination Sequence:
#
# PCOD8063938 Si02
#       8
#     4   4   4   4   4   4   4   4
#     4  10  22  39  63  89 114 149 195 248 292 335
#     4   9  18  34  56  86 118 146 186 239 294 346
#     4  11  23  37  55  82 116 152 188 233 285 346
#     4  11  24  39  57  81 117 158 193 234 289 354
#     4  10  20  34  57  84 110 145 189 236 287 342
#     4   9  17  30  53  84 115 145 180 229 285 341
#     4  10  20  35  57  86 114 145 190 245 291 337
#     4  10  20  35  59  85 110 144 188 237 287 341
#
# _framework density 19.899629999999998
#
# number of rings (size 3 to 8) (size 9 to 14) (size 15 to 20)
#    0.000    2.000    1.250    2.250    1.750    5.750 
#    0.000    0.625    0.000    3.375    0.000    0.000 
#    0.000    0.000    0.000    0.000    0.000    0.000 
#
# Total GULP energy -396832.161009 kJ/mol
# GULP energy per Si atom -12401.005032 kJ/mol
# Density = 1.985434 g / cm^3
# Si number density = 19.899630 Si / 1000 Ang^3
#
#
#
# Elastic Constant Matrix: (Units=GPa)
#
#
# Indices 1 2 3 4 5 6 
#
# 1 126.1559 18.8587 50.8614 0.0000 9.5499 0.0000
# 2 18.8587 17.6219 15.6262 0.0000 4.6300 0.0000
# 3 50.8614 15.6262 126.1672 0.0000 10.9006 0.0000
# 4 0.0000 0.0000 0.0000 11.8818 0.0000 1.7546
# 5 9.5499 4.6300 10.9006 0.0000 35.6950 0.0000
# 6 0.0000 0.0000 0.0000 1.7546 0.0000 15.9546
#
#
#
# Elastic Compliance Matrix: (Units=1/GPa)
#
#
# Indices 1 2 3 4 5 6 
#
# 1 0.010481 -0.008229 -0.003139 0.000000 -0.000778 0.000000
# 2 -0.008229 0.071493 -0.005060 0.000000 -0.005527 0.000000
# 3 -0.003139 -0.005060 0.009951 0.000000 -0.001543 0.000000
# 4 0.000000 0.000000 0.000000 0.085552 0.000000 -0.009409
# 5 -0.000778 -0.005527 -0.001543 0.000000 0.029411 0.000000
# 6 0.000000 0.000000 0.000000 -0.009409 0.000000 0.063713
#
#
# Mechanical properties :
#
#
# Convention : Reuss Voigt Hill
#
# Bulk Modulus (GPa) = 16.92905 48.95974 32.94439
# Shear Modulus (GPa) = 15.47286 25.01285 20.24286
#
# Velocity S-wave (km/s) = 2.79147 3.54920 3.19289
# Velocity P-wave (km/s) = 4.34919 6.43836 5.49399
#
# Compressibility (1/GPa) = 0.05907005
#
# Stress axis : x y z
#
# Youngs Moduli (GPa) = 95.40901 13.98744 100.48927
#
# Poissons Ratio (x) = 0.11510 0.31542
# Poissons Ratio (y) = 0.78512 0.50846
# Poissons Ratio (z) = 0.29947 0.07077
#
# Static dielectric constant tensor:
#      x y z
#    x 3.803030 0.000000 0.096280 
#    y 0.000000 3.202210 0.000000 
#    z 0.096280 0.000000 3.845160 
# 
# 
# High freq. dielectric constant tensor:
#      x y z
#    x 1.788300 0.000000 0.006160 
#    y 0.000000 1.733020 0.000000 
#    z 0.006160 0.000000 1.786150 
# 
# From -- ./inp_files/71401.got.cif
#   From: 2010.06.25/outbox.cif.g09.slc.cpg/sg10_36_cif.got.tgz:71401.got - 2010.06.27 22:07:45.
