data_PCOD8063905
_publ_section_title
;
Structure prediction by ZEFSAII (Michael W. Deem and Ramdas Pophale) SiO2 
 PCOD8063905
Probable space group: P 2/M
;
_chemical_formula_sum "Si O2"
_cell_formula_units_Z 32
_cell_length_a 24.764127
_cell_length_b 14.121229
_cell_length_c 9.021333
_cell_angle_alpha 90.000000
_cell_angle_beta 30.838870
_cell_angle_gamma 90.000000
_cell_volume 1617.209992
_symmetry_space_group_name_H-M "P 2/M"
_symmetry_group_IT_number 10
_symmetry_cell_setting 'monoclinic'
loop_
_space_group_symop_operation_xyz
x,y,z
-x,y,-z
-x,-y,-z
x,-y,z
loop_
_atom_site_type_symbol
_atom_site_label
_atom_site_fract_x
_atom_site_fract_y
_atom_site_fract_z
Si Si1 0.243258 0.728996 0.481053
Si Si2 0.951861 0.160217 0.963370
Si Si3 0.622404 0.109379 0.728058
Si Si4 0.906603 0.242049 0.610376
Si Si5 0.584014 0.604336 0.404418
Si Si6 0.389877 0.389015 0.335578
Si Si7 0.205519 0.896314 0.908808
Si Si8 0.213165 0.604809 0.265175
O O1 0.316836 0.823771 0.295787
O O2 0.291785 0.661936 0.491641
O O3 0.243578 0.672688 0.328005
O O4 0.122545 0.751954 0.810514
O O5 0.054870 0.189688 0.628394
O O6 0.880168 0.096764 0.023784
O O7 0.000000 0.110966 0.000000
O O8 0.680467 0.125331 0.432350
O O9 0.631996 0.000000 0.757475
O O10 0.500000 0.139015 0.000000
O O11 0.869001 0.344877 0.649229
O O12 0.000000 0.263039 0.500000
O O13 0.819355 0.179742 0.904066
O O14 0.500000 0.661089 0.500000
O O15 0.535653 0.500000 0.557360
O O16 0.604175 0.655076 0.513211
O O17 0.687189 0.590015 0.069403
O O18 0.364763 0.500000 0.391871
O O19 0.500000 0.364124 0.000000
O O20 0.205679 0.000000 0.983855
O O21 0.172734 0.500000 0.412195
#
# Coordination Sequence:
#
# PCOD8063905 Si02
#       8
#     4   4   4   4   4   4   4   4
#     4  11  21  36  59  85 117 156 198 245 298 355
#     4  10  20  37  57  83 119 151 195 252 293 344
#     4   9  19  37  63  94 124 152 189 236 288 356
#     4  10  22  39  60  81 117 156 199 253 296 357
#     4   9  19  34  52  77 111 147 187 240 294 343
#     4  10  20  34  56  85 115 150 199 251 296 354
#     4   9  20  38  63  92 119 152 192 239 300 359
#     4  11  23  39  57  81 118 159 199 251 304 350
#
# _framework density 19.787165000000002
#
# number of rings (size 3 to 8) (size 9 to 14) (size 15 to 20)
#    0.000    2.125    1.250    1.500    5.250    4.750 
#    0.000    2.500    0.000    0.000    0.000    2.625 
#    0.000    0.000    0.000    0.000    0.000    0.000 
#
# Total GULP energy -396480.829068 kJ/mol
# GULP energy per Si atom -12390.025908 kJ/mol
# Density = 1.974213 g / cm^3
# Si number density = 19.787165 Si / 1000 Ang^3
#
#
#
# Elastic Constant Matrix: (Units=GPa)
#
#
# Indices 1 2 3 4 5 6 
#
# 1 99.4518 43.1861 31.5654 0.0000 15.7361 0.0000
# 2 43.1861 111.4187 35.8591 0.0000 6.6431 0.0000
# 3 31.5654 35.8591 108.3862 0.0000 5.3381 0.0000
# 4 0.0000 0.0000 0.0000 17.4535 0.0000 -0.4034
# 5 15.7361 6.6431 5.3381 0.0000 27.3896 0.0000
# 6 0.0000 0.0000 0.0000 -0.4034 0.0000 28.8884
#
#
#
# Elastic Compliance Matrix: (Units=1/GPa)
#
#
# Indices 1 2 3 4 5 6 
#
# 1 0.013586 -0.004157 -0.002268 0.000000 -0.006355 0.000000
# 2 -0.004157 0.011406 -0.002569 0.000000 0.000123 0.000000
# 3 -0.002268 -0.002569 0.010745 0.000000 -0.000168 0.000000
# 4 0.000000 0.000000 0.000000 0.057313 0.000000 0.000800
# 5 -0.006355 0.000123 -0.000168 0.000000 0.040164 0.000000
# 6 0.000000 0.000000 0.000000 0.000800 0.000000 0.034627
#
#
# Mechanical properties :
#
#
# Convention : Reuss Voigt Hill
#
# Bulk Modulus (GPa) = 56.34355 60.05310 58.19833
# Shear Modulus (GPa) = 26.07614 28.65605 27.36610
#
# Velocity S-wave (km/s) = 3.63413 3.80967 3.72294
# Velocity P-wave (km/s) = 6.79307 7.05456 6.92505
#
# Compressibility (1/GPa) = 0.01774826
#
# Stress axis : x y z
#
# Youngs Moduli (GPa) = 73.60667 87.67406 93.06594
#
# Poissons Ratio (x) = 0.36445 0.21110
# Poissons Ratio (y) = 0.30598 0.23909
# Poissons Ratio (z) = 0.16696 0.22523
#
# Static dielectric constant tensor:
#      x y z
#    x 3.672830 0.000000 0.074370 
#    y 0.000000 3.758720 0.000000 
#    z 0.074370 0.000000 3.662680 
# 
# 
# High freq. dielectric constant tensor:
#      x y z
#    x 1.767880 0.000000 0.000520 
#    y 0.000000 1.759140 0.000000 
#    z 0.000520 0.000000 1.774390 
# 
# From -- ./inp_files/36359.got.cif
#   From: 2010.06.25/outbox.cif.g09.slc.cpg/sg10_19_cif.got.tgz:36359.got - 2010.06.27 22:07:45.
