data_PCOD8063906
_publ_section_title
;
Structure prediction by ZEFSAII (Michael W. Deem and Ramdas Pophale) SiO2 
 PCOD8063906
Probable space group: P 2/M
;
_chemical_formula_sum "Si O2"
_cell_formula_units_Z 20
_cell_length_a 23.289637
_cell_length_b 7.743975
_cell_length_c 9.148479
_cell_angle_alpha 90.000000
_cell_angle_beta 141.778726
_cell_angle_gamma 90.000000
_cell_volume 1020.835521
_symmetry_space_group_name_H-M "P 2/M"
_symmetry_group_IT_number 10
_symmetry_cell_setting 'monoclinic'
loop_
_space_group_symop_operation_xyz
x,y,z
-x,y,-z
-x,-y,-z
x,-y,z
loop_
_atom_site_type_symbol
_atom_site_label
_atom_site_fract_x
_atom_site_fract_y
_atom_site_fract_z
Si Si1 0.092198 0.701871 0.264833
Si Si2 0.270741 0.807075 0.458302
Si Si3 0.402502 0.500000 0.726827
Si Si4 0.270741 0.807075 0.124662
Si Si5 0.402502 0.500000 0.383183
Si Si6 0.907802 0.701871 0.396040
O O1 0.107013 0.500000 0.266017
O O2 0.179693 0.801106 0.375042
O O3 0.082527 0.746944 0.415054
O O4 0.000000 0.768704 0.000000
O O5 0.346731 0.670348 0.666197
O O6 0.242728 0.762641 0.235456
O O7 0.313119 0.000000 0.555053
O O8 0.420241 0.500000 0.590482
O O9 0.500000 0.500000 0.000000
O O10 0.346730 0.670348 0.220725
O O11 0.313119 0.000000 0.197424
O O12 0.179693 0.801106 0.843731
O O13 0.500000 0.500000 0.500000
O O14 0.892987 0.500000 0.337964
O O15 0.000000 0.768705 0.500000
#
# Coordination Sequence:
#
# PCOD8063906 Si02
#       6
#     4   4   2   4   2   4
#     4  10  20  34  56  85 117 154 193 232 278 332
#     4  10  21  38  60  85 114 150 190 232 281 335
#     4  10  22  40  61  84 113 146 185 234 286 340
#     4  10  21  38  60  85 114 150 190 232 281 335
#     4  10  22  40  61  84 113 146 185 234 286 340
#     4  10  20  34  56  85 117 154 193 232 278 332
#
# _framework density 19.591792999999999
#
# number of rings (size 3 to 8) (size 9 to 14) (size 15 to 20)
#    0.000    2.000    2.000    1.200    0.000    5.600 
#    0.000    0.000    0.000    0.000    0.000    0.000 
#    0.000    0.000    0.000    0.000    0.000    0.000 
#
# Total GULP energy -248080.212083 kJ/mol
# GULP energy per Si atom -12404.010604 kJ/mol
# Density = 1.954720 g / cm^3
# Si number density = 19.591793 Si / 1000 Ang^3
#
#
#
# Elastic Constant Matrix: (Units=GPa)
#
#
# Indices 1 2 3 4 5 6 
#
# 1 118.3867 51.0282 47.3803 0.0000 20.2042 0.0000
# 2 51.0282 122.5578 59.5920 0.0000 13.2494 0.0000
# 3 47.3803 59.5920 139.9380 0.0000 13.1409 0.0000
# 4 0.0000 0.0000 0.0000 12.5385 0.0000 -4.6892
# 5 20.2042 13.2494 13.1409 0.0000 31.1039 0.0000
# 6 0.0000 0.0000 0.0000 -4.6892 0.0000 15.5693
#
#
#
# Elastic Compliance Matrix: (Units=1/GPa)
#
#
# Indices 1 2 3 4 5 6 
#
# 1 0.011563 -0.003256 -0.002034 0.000000 -0.005265 0.000000
# 2 -0.003256 0.011419 -0.003647 0.000000 -0.001208 0.000000
# 3 -0.002034 -0.003647 0.009494 0.000000 -0.001137 0.000000
# 4 0.000000 0.000000 0.000000 0.089878 0.000000 0.027070
# 5 -0.005265 -0.001208 -0.001137 0.000000 0.036565 0.000000
# 6 0.000000 0.000000 0.000000 0.027070 0.000000 0.072382
#
#
# Mechanical properties :
#
#
# Convention : Reuss Voigt Hill
#
# Bulk Modulus (GPa) = 68.48190 77.43148 72.95669
# Shear Modulus (GPa) = 19.68171 26.70113 23.19142
#
# Velocity S-wave (km/s) = 3.17296 3.69572 3.44427
# Velocity P-wave (km/s) = 6.96088 7.60390 7.28948
#
# Compressibility (1/GPa) = 0.01460240
#
# Stress axis : x y z
#
# Youngs Moduli (GPa) = 86.48339 87.57339 105.32546
#
# Poissons Ratio (x) = 0.28516 0.21423
# Poissons Ratio (y) = 0.28161 0.38410
# Poissons Ratio (z) = 0.17590 0.31936
#
# Static dielectric constant tensor:
#      x y z
#    x 3.466660 0.000000 -0.052220 
#    y 0.000000 3.691070 0.000000 
#    z -0.052220 0.000000 3.432910 
# 
# 
# High freq. dielectric constant tensor:
#      x y z
#    x 1.757890 0.000000 -0.004580 
#    y 0.000000 1.770960 0.000000 
#    z -0.004580 0.000000 1.754930 
# 
# From -- ./inp_files/33666.got.cif
#   From: 2010.06.25/outbox.cif.g09.slc.cpg/sg10_17_cif.got.tgz:33666.got - 2010.06.27 22:07:45.
