data_PCOD8063700
_publ_section_title
;
Structure prediction by ZEFSAII (Michael W. Deem and Ramdas Pophale) SiO2 
 PCOD8063700
Probable space group: P 2/M
;
_chemical_formula_sum "Si O2"
_cell_formula_units_Z 28
_cell_length_a 11.926769
_cell_length_b 22.445782
_cell_length_c 5.022164
_cell_angle_alpha 90.000000
_cell_angle_beta 99.681919
_cell_angle_gamma 90.000000
_cell_volume 1325.311994
_symmetry_space_group_name_H-M "P 2/M"
_symmetry_group_IT_number 10
_symmetry_cell_setting 'monoclinic'
loop_
_space_group_symop_operation_xyz
x,y,z
-x,y,-z
-x,-y,-z
x,-y,z
loop_
_atom_site_type_symbol
_atom_site_label
_atom_site_fract_x
_atom_site_fract_y
_atom_site_fract_z
Si Si1 0.871607 0.185828 0.032317
Si Si2 0.124915 0.568535 0.041480
Si Si3 0.377776 0.103856 0.577634
Si Si4 0.748849 0.066240 0.974876
Si Si5 0.743415 0.776496 0.470712
Si Si6 0.268978 0.568630 0.584079
Si Si7 0.422722 0.674248 0.716001
O O1 0.847083 0.115235 0.053426
O O2 0.151078 0.213192 0.686579
O O3 0.790015 0.220068 0.790341
O O4 0.000000 0.196417 0.000000
O O5 0.110315 0.500000 0.121250
O O6 0.173114 0.576397 0.768032
O O7 0.213428 0.595518 0.291451
O O8 0.000000 0.599389 0.000000
O O9 0.500000 0.091615 0.500000
O O10 0.357339 0.076154 0.863115
O O11 0.355541 0.174253 0.597915
O O12 0.290359 0.072231 0.344543
O O13 0.799458 0.000000 0.036681
O O14 0.689815 0.714002 0.361302
O O15 0.307940 0.500000 0.571140
O O16 0.381476 0.605649 0.704387
O O17 0.500000 0.688445 0.500000
O O18 0.500000 0.689323 0.000000
#
# Coordination Sequence:
#
# PCOD8063700 Si02
#       7
#     4   4   4   4   4   4   4
#     4  10  21  40  63  84 114 150 184 234 288 334
#     4   9  17  33  57  82 113 152 188 226 275 330
#     4  10  20  34  54  77 109 151 189 234 283 323
#     4  10  21  34  52  83 116 148 189 228 271 337
#     4  10  22  40  59  84 111 142 194 238 280 341
#     4  10  21  37  57  86 120 152 192 236 282 344
#     4  12  25  41  62  85 114 151 191 238 288 341
#
# _framework density 21.127099999999999
#
# number of rings (size 3 to 8) (size 9 to 14) (size 15 to 20)
#    0.000    1.857    0.000    3.857    0.000    6.571 
#    0.000    4.286    0.000    5.143    0.000    0.000 
#    0.000    0.000    0.000    0.000    0.000    0.000 
#
# Total GULP energy -347170.533268 kJ/mol
# GULP energy per Si atom -12398.947617 kJ/mol
# Density = 2.107901 g / cm^3
# Si number density = 21.127100 Si / 1000 Ang^3
#
#
#
# Elastic Constant Matrix: (Units=GPa)
#
#
# Indices 1 2 3 4 5 6 
#
# 1 79.2512 23.6792 10.6244 0.0000 -2.8699 0.0000
# 2 23.6792 85.5416 24.1662 0.0000 7.7369 0.0000
# 3 10.6244 24.1662 96.5435 0.0000 -10.8249 0.0000
# 4 0.0000 0.0000 0.0000 19.8518 0.0000 1.7750
# 5 -2.8699 7.7369 -10.8249 0.0000 30.2574 0.0000
# 6 0.0000 0.0000 0.0000 1.7750 0.0000 15.2222
#
#
#
# Elastic Compliance Matrix: (Units=1/GPa)
#
#
# Indices 1 2 3 4 5 6 
#
# 1 0.013925 -0.003976 -0.000287 0.000000 0.002235 0.000000
# 2 -0.003976 0.014339 -0.003756 0.000000 -0.005387 0.000000
# 3 -0.000287 -0.003756 0.011912 0.000000 0.005195 0.000000
# 4 0.000000 0.000000 0.000000 0.050904 0.000000 -0.005936
# 5 0.002235 -0.005387 0.005195 0.000000 0.036498 0.000000
# 6 0.000000 0.000000 0.000000 -0.005936 0.000000 0.066385
#
#
# Mechanical properties :
#
#
# Convention : Reuss Voigt Hill
#
# Bulk Modulus (GPa) = 41.42503 42.03064 41.72783
# Shear Modulus (GPa) = 22.93080 26.59072 24.76076
#
# Velocity S-wave (km/s) = 3.29808 3.55153 3.42715
# Velocity P-wave (km/s) = 5.84407 6.06261 5.95434
#
# Compressibility (1/GPa) = 0.02413999
#
# Stress axis : x y z
#
# Youngs Moduli (GPa) = 71.81110 69.73929 83.94776
#
# Poissons Ratio (x) = 0.27728 0.02406
# Poissons Ratio (y) = 0.28552 0.31529
# Poissons Ratio (z) = 0.02058 0.26193
#
# Static dielectric constant tensor:
#      x y z
#    x 3.578430 0.000000 -0.142940 
#    y 0.000000 3.744880 0.000000 
#    z -0.142940 0.000000 3.944370 
# 
# 
# High freq. dielectric constant tensor:
#      x y z
#    x 1.816360 0.000000 -0.016630 
#    y 0.000000 1.812670 0.000000 
#    z -0.016630 0.000000 1.841680 
# 
# From -- ./inp_files/7758.got.cif
#   From: 2010.06.25/outbox.cif.g09.slc.cpg/sg10_4_cif.got.tgz:7758.got - 2010.06.27 22:07:45.
