data_PCOD8063341
_publ_section_title
;
Structure prediction by ZEFSAII (Michael W. Deem and Ramdas Pophale) SiO2 
 PCOD8063341
Probable space group: P 2/M
;
_chemical_formula_sum "Si O2"
_cell_formula_units_Z 20
_cell_length_a 9.642367
_cell_length_b 8.555562
_cell_length_c 27.313665
_cell_angle_alpha 90.000000
_cell_angle_beta 151.657231
_cell_angle_gamma 90.000000
_cell_volume 1069.726782
_symmetry_space_group_name_H-M "P 2/M"
_symmetry_group_IT_number 10
_symmetry_cell_setting 'monoclinic'
loop_
_space_group_symop_operation_xyz
x,y,z
-x,y,-z
-x,-y,-z
x,-y,z
loop_
_atom_site_type_symbol
_atom_site_label
_atom_site_fract_x
_atom_site_fract_y
_atom_site_fract_z
Si Si1 0.712466 0.184600 0.886014
Si Si2 0.085551 0.317089 0.430222
Si Si3 0.340653 0.317899 0.333177
Si Si4 0.914594 0.816702 0.276058
Si Si5 0.494422 0.816963 0.714919
O O1 0.422145 0.238845 0.824657
O O2 0.689021 0.236008 0.821985
O O3 0.736350 0.000000 0.896772
O O4 0.000000 0.262146 0.000000
O O5 0.089358 0.500000 0.419300
O O6 0.376464 0.264297 0.548579
O O7 0.079095 0.222785 0.377603
O O8 0.811811 0.275499 0.379705
O O9 0.350320 0.500000 0.324170
O O10 0.327556 0.224115 0.278340
O O11 0.051536 0.277051 0.273592
O O12 0.942648 0.000000 0.274782
O O13 0.423580 0.000000 0.695890
#
# Coordination Sequence:
#
# PCOD8063341 Si02
#       5
#     4   4   4   4   4
#     4   8  16  34  57  77  97 124 163 210 258 306
#     4  10  20  34  51  72 103 143 175 199 243 304
#     4  11  22  34  49  72 107 144 169 200 251 303
#     4  10  20  33  53  79 102 130 171 214 250 290
#     4  10  20  33  53  79 102 130 171 214 250 290
#
# _framework density 18.696363000000002
#
# number of rings (size 3 to 8) (size 9 to 14) (size 15 to 20)
#    0.000    2.200    0.000    4.800    0.000    8.000 
#    0.000    1.000    0.000   27.600    0.000    0.000 
#    0.000    0.000    0.000    0.000    0.000    0.000 
#
# Total GULP energy -248046.590499 kJ/mol
# GULP energy per Si atom -12402.329525 kJ/mol
# Density = 1.865381 g / cm^3
# Si number density = 18.696363 Si / 1000 Ang^3
#
#
#
# Elastic Constant Matrix: (Units=GPa)
#
#
# Indices 1 2 3 4 5 6 
#
# 1 131.5906 7.6880 61.4862 0.0000 6.6761 0.0000
# 2 7.6880 35.1969 26.2228 0.0000 -1.1713 0.0000
# 3 61.4862 26.2228 137.7972 0.0000 3.0790 0.0000
# 4 0.0000 0.0000 0.0000 4.5598 0.0000 5.8953
# 5 6.6761 -1.1713 3.0790 0.0000 12.4121 0.0000
# 6 0.0000 0.0000 0.0000 5.8953 0.0000 31.7012
#
#
#
# Elastic Compliance Matrix: (Units=1/GPa)
#
#
# Indices 1 2 3 4 5 6 
#
# 1 0.009850 0.001071 -0.004508 0.000000 -0.004079 0.000000
# 2 0.001071 0.033498 -0.006949 0.000000 0.004309 0.000000
# 3 -0.004508 -0.006949 0.010610 0.000000 -0.000863 0.000000
# 4 0.000000 0.000000 0.000000 0.288724 0.000000 -0.053692
# 5 -0.004079 0.004309 -0.000863 0.000000 0.083381 0.000000
# 6 0.000000 0.000000 0.000000 -0.053692 0.000000 0.041529
#
#
# Mechanical properties :
#
#
# Convention : Reuss Voigt Hill
#
# Bulk Modulus (GPa) = 30.13211 55.04207 42.58709
# Shear Modulus (GPa) = 10.01148 23.68050 16.84599
#
# Velocity S-wave (km/s) = 2.31655 3.56277 3.00497
# Velocity P-wave (km/s) = 4.82771 6.81383 5.90487
#
# Compressibility (1/GPa) = 0.03318719
#
# Stress axis : x y z
#
# Youngs Moduli (GPa) = 101.52306 29.85231 94.24930
#
# Poissons Ratio (x) = -0.03198 0.42486
# Poissons Ratio (y) = -0.10876 0.65494
# Poissons Ratio (z) = 0.45765 0.20744
#
# Static dielectric constant tensor:
#      x y z
#    x 3.442530 0.000000 0.026880 
#    y 0.000000 3.275860 0.000000 
#    z 0.026880 0.000000 3.619840 
# 
# 
# High freq. dielectric constant tensor:
#      x y z
#    x 1.731430 0.000000 0.001520 
#    y 0.000000 1.718490 0.000000 
#    z 0.001520 0.000000 1.709740 
# 
# From -- ./inp_files/22170.got.cif
#   From: 2010.06.25/outbox.cif.g09.slc.cpg/sg10_12_cif.got.tgz:22170.got - 2010.06.27 22:07:45.
