data_PCOD8063637
_publ_section_title
;
Structure prediction by ZEFSAII (Michael W. Deem and Ramdas Pophale) SiO2 
 PCOD8063637
Probable space group: P 2/M
;
_chemical_formula_sum "Si O2"
_cell_formula_units_Z 32
_cell_length_a 6.938713
_cell_length_b 9.068867
_cell_length_c 28.250079
_cell_angle_alpha 90.000000
_cell_angle_beta 88.095086
_cell_angle_gamma 90.000000
_cell_volume 1776.689570
_symmetry_space_group_name_H-M "P 2/M"
_symmetry_group_IT_number 10
_symmetry_cell_setting 'monoclinic'
loop_
_space_group_symop_operation_xyz
x,y,z
-x,y,-z
-x,-y,-z
x,-y,z
loop_
_atom_site_type_symbol
_atom_site_label
_atom_site_fract_x
_atom_site_fract_y
_atom_site_fract_z
Si Si1 0.508279 0.170880 0.304754
Si Si2 0.772373 0.674270 0.125197
Si Si3 0.512080 0.829201 0.053668
Si Si4 0.461039 0.670726 0.447188
Si Si5 0.814524 0.172036 0.617930
Si Si6 0.493922 0.828998 0.196461
Si Si7 0.785540 0.329058 0.368951
Si Si8 0.829397 0.168243 0.874017
O O1 0.315513 0.207909 0.335325
O O2 0.469654 0.216021 0.251103
O O3 0.686316 0.265387 0.322689
O O4 0.564034 0.000000 0.309408
O O5 0.757010 0.500000 0.124869
O O6 0.676688 0.736583 0.078368
O O7 0.665972 0.735018 0.172573
O O8 0.994528 0.720224 0.125026
O O9 0.304826 0.804148 0.079325
O O10 0.573150 0.000000 0.056114
O O11 0.500000 0.773715 0.000000
O O12 0.500000 0.724635 0.500000
O O13 0.400499 0.500000 0.446212
O O14 0.283891 0.764339 0.428410
O O15 0.652656 0.700358 0.415494
O O16 0.016749 0.247732 0.623899
O O17 0.846672 0.000000 0.610408
O O18 0.292000 0.795924 0.172292
O O19 0.549387 0.000000 0.189588
O O20 0.826110 0.500000 0.360391
O O21 0.904984 0.000000 0.872524
#
# Coordination Sequence:
#
# PCOD8063637 Si02
#       8
#     4   4   4   4   4   4   4   4
#     4   9  19  36  56  77 101 132 172 215 257 302
#     4  11  22  34  51  78 111 140 167 208 261 310
#     4   9  19  37  59  79 100 133 178 220 254 296
#     4   9  19  36  55  74 100 137 178 216 255 303
#     4  10  20  34  53  78 107 136 169 212 260 308
#     4   9  19  37  58  76  98 134 178 217 251 296
#     4  10  20  34  53  77 105 136 170 210 257 308
#     4   9  18  34  55  77 102 135 175 214 252 300
#
# _framework density 18.011026000000001
#
# number of rings (size 3 to 8) (size 9 to 14) (size 15 to 20)
#    0.000    2.500    0.000    2.625    0.000    6.000 
#    0.000    7.500    0.000    0.000    0.000    0.000 
#    0.000    0.000    0.000    0.000    0.000    0.000 
#
# Total GULP energy -396912.184370 kJ/mol
# GULP energy per Si atom -12403.505762 kJ/mol
# Density = 1.797003 g / cm^3
# Si number density = 18.011026 Si / 1000 Ang^3
#
#
#
# Elastic Constant Matrix: (Units=GPa)
#
#
# Indices 1 2 3 4 5 6 
#
# 1 127.2033 71.4298 58.8361 0.0000 15.3580 0.0000
# 2 71.4298 99.3281 55.1042 0.0000 10.8227 0.0000
# 3 58.8361 55.1042 153.4539 0.0000 14.8242 0.0000
# 4 0.0000 0.0000 0.0000 14.8688 0.0000 -3.0695
# 5 15.3580 10.8227 14.8242 0.0000 14.6509 0.0000
# 6 0.0000 0.0000 0.0000 -3.0695 0.0000 24.5309
#
#
#
# Elastic Compliance Matrix: (Units=1/GPa)
#
#
# Indices 1 2 3 4 5 6 
#
# 1 0.014318 -0.008577 -0.001742 0.000000 -0.006910 0.000000
# 2 -0.008577 0.018082 -0.003084 0.000000 -0.001246 0.000000
# 3 -0.001742 -0.003084 0.008751 0.000000 -0.004750 0.000000
# 4 0.000000 0.000000 0.000000 0.069038 0.000000 0.008639
# 5 -0.006910 -0.001246 -0.004750 0.000000 0.081225 0.000000
# 6 0.000000 0.000000 0.000000 0.008639 0.000000 0.041846
#
#
# Mechanical properties :
#
#
# Convention : Reuss Voigt Hill
#
# Bulk Modulus (GPa) = 69.71429 83.41394 76.56411
# Shear Modulus (GPa) = 18.87865 23.78446 21.33155
#
# Velocity S-wave (km/s) = 3.24106 3.63788 3.44519
# Velocity P-wave (km/s) = 7.26612 8.00367 7.64380
#
# Compressibility (1/GPa) = 0.01434426
#
# Stress axis : x y z
#
# Youngs Moduli (GPa) = 69.84269 55.30215 114.27228
#
# Poissons Ratio (x) = 0.47433 0.19908
# Poissons Ratio (y) = 0.59904 0.35246
# Poissons Ratio (z) = 0.12168 0.17058
#
# Static dielectric constant tensor:
#      x y z
#    x 3.240390 0.000000 0.049920 
#    y 0.000000 3.305940 0.000000 
#    z 0.049920 0.000000 3.545020 
# 
# 
# High freq. dielectric constant tensor:
#      x y z
#    x 1.696920 0.000000 0.004020 
#    y 0.000000 1.695720 0.000000 
#    z 0.004020 0.000000 1.701950 
# 
# From -- ./inp_files/94343.got.cif
#   From: 2010.06.25/outbox.cif.g09.slc.cpg/sg10_48_cif.got.tgz:94343.got - 2010.06.27 22:07:45.
