data_PCOD8063761
_publ_section_title
;
Structure prediction by ZEFSAII (Michael W. Deem and Ramdas Pophale) SiO2 
 PCOD8063761
Probable space group: P 2/M
;
_chemical_formula_sum "Si O2"
_cell_formula_units_Z 30
_cell_length_a 9.032673
_cell_length_b 13.788200
_cell_length_c 19.294823
_cell_angle_alpha 90.000000
_cell_angle_beta 40.047574
_cell_angle_gamma 90.000000
_cell_volume 1546.185329
_symmetry_space_group_name_H-M "P 2/M"
_symmetry_group_IT_number 10
_symmetry_cell_setting 'monoclinic'
loop_
_space_group_symop_operation_xyz
x,y,z
-x,y,-z
-x,-y,-z
x,-y,z
loop_
_atom_site_type_symbol
_atom_site_label
_atom_site_fract_x
_atom_site_fract_y
_atom_site_fract_z
Si Si1 0.550890 0.888080 0.822429
Si Si2 0.972856 0.764463 0.647799
Si Si3 0.498839 0.395468 0.679796
Si Si4 0.732620 0.390134 0.381337
Si Si5 0.360958 0.805338 0.754558
Si Si6 0.917254 0.106819 0.951524
Si Si7 0.000000 0.340317 0.500000
Si Si8 0.607764 0.890328 0.536339
O O1 0.466555 0.877938 0.773158
O O2 0.761218 0.816104 0.762442
O O3 0.622915 0.000000 0.807652
O O4 0.349038 0.858588 0.949412
O O5 0.069013 0.684659 0.667048
O O6 0.139814 0.849024 0.562779
O O7 0.896879 0.717302 0.602354
O O8 0.459295 0.500000 0.731348
O O9 0.318145 0.387386 0.681682
O O10 0.426924 0.304868 0.753799
O O11 0.769005 0.396745 0.557713
O O12 0.500000 0.353342 0.500000
O O13 0.798814 0.500000 0.381023
O O14 0.465066 0.824988 0.641332
O O15 0.083286 0.819878 0.849947
O O16 0.932821 0.000000 0.911071
O O17 0.000000 0.099405 0.000000
O O18 0.500000 0.884700 0.500000
O O19 0.618645 0.000000 0.560553
#
# Coordination Sequence:
#
# PCOD8063761 Si02
#       8
#     4   4   4   4   4   4   2   4
#     4  10  20  34  54  82 112 143 180 225 273 322
#     4  12  20  34  51  79 112 145 174 220 274 328
#     4  11  22  35  52  79 108 141 183 227 270 320
#     4  10  20  35  54  72 102 146 186 218 260 324
#     4  11  18  34  55  79 107 145 181 226 273 327
#     4   8  16  31  54  79 104 139 183 224 267 324
#     4  12  21  32  51  80 110 140 175 218 273 320
#     4  11  22  33  49  75 108 147 182 216 264 326
#
# _framework density 19.40259
#
# number of rings (size 3 to 8) (size 9 to 14) (size 15 to 20)
#    0.000    1.467    4.000    3.800    0.000    0.533 
#    0.000    2.000    0.000    7.600    0.000   11.200 
#    0.000    0.000    0.000    0.000    0.000    0.000 
#
# Total GULP energy -371749.712680 kJ/mol
# GULP energy per Si atom -12391.657089 kJ/mol
# Density = 1.935843 g / cm^3
# Si number density = 19.402590 Si / 1000 Ang^3
#
#
#
# Elastic Constant Matrix: (Units=GPa)
#
#
# Indices 1 2 3 4 5 6 
#
# 1 62.7747 30.3797 23.9722 0.0000 -16.6150 0.0000
# 2 30.3797 129.8695 57.8668 0.0000 -26.6125 0.0000
# 3 23.9722 57.8668 113.7430 0.0000 -37.6466 0.0000
# 4 0.0000 0.0000 0.0000 11.6107 0.0000 0.7078
# 5 -16.6150 -26.6125 -37.6466 0.0000 22.2945 0.0000
# 6 0.0000 0.0000 0.0000 0.7078 0.0000 17.3626
#
#
#
# Elastic Compliance Matrix: (Units=1/GPa)
#
#
# Indices 1 2 3 4 5 6 
#
# 1 0.020559 -0.002516 0.002322 0.000000 0.016239 0.000000
# 2 -0.002516 0.010860 -0.003003 0.000000 0.006017 0.000000
# 3 0.002322 -0.003003 0.020894 0.000000 0.033427 0.000000
# 4 0.000000 0.000000 0.000000 0.086342 0.000000 -0.003520
# 5 0.016239 0.006017 0.033427 0.000000 0.120584 0.000000
# 6 0.000000 0.000000 0.000000 -0.003520 0.000000 0.057739
#
#
# Mechanical properties :
#
#
# Convention : Reuss Voigt Hill
#
# Bulk Modulus (GPa) = 21.77802 58.98049 40.37925
# Shear Modulus (GPa) = 14.76326 23.19813 18.98070
#
# Velocity S-wave (km/s) = 2.76142 3.46153 3.13110
# Velocity P-wave (km/s) = 4.62773 6.81472 5.82479
#
# Compressibility (1/GPa) = 0.04591786
#
# Stress axis : x y z
#
# Youngs Moduli (GPa) = 48.64025 92.08363 47.86050
#
# Poissons Ratio (x) = 0.23170 -0.11113
# Poissons Ratio (y) = 0.12239 0.14373
# Poissons Ratio (z) = -0.11294 0.27654
#
# Static dielectric constant tensor:
#      x y z
#    x 3.347660 0.000000 -0.288780 
#    y 0.000000 3.818690 0.000000 
#    z -0.288780 0.000000 3.532660 
# 
# 
# High freq. dielectric constant tensor:
#      x y z
#    x 1.740640 0.000000 -0.018760 
#    y 0.000000 1.761090 0.000000 
#    z -0.018760 0.000000 1.726400 
# 
# From -- ./inp_files/82754.got.cif
#   From: 2010.06.25/outbox.cif.g09.slc.cpg/sg10_42_cif.got.tgz:82754.got - 2010.06.27 22:07:45.
