data_PCOD8063355
_publ_section_title
;
Structure prediction by ZEFSAII (Michael W. Deem and Ramdas Pophale) SiO2 
 PCOD8063355
Probable space group: P 2/M
;
_chemical_formula_sum "Si O2"
_cell_formula_units_Z 28
_cell_length_a 20.234589
_cell_length_b 9.259877
_cell_length_c 13.609016
_cell_angle_alpha 90.000000
_cell_angle_beta 34.800701
_cell_angle_gamma 90.000000
_cell_volume 1455.298804
_symmetry_space_group_name_H-M "P 2/M"
_symmetry_group_IT_number 10
_symmetry_cell_setting 'monoclinic'
loop_
_space_group_symop_operation_xyz
x,y,z
-x,y,-z
-x,-y,-z
x,-y,z
loop_
_atom_site_type_symbol
_atom_site_label
_atom_site_fract_x
_atom_site_fract_y
_atom_site_fract_z
Si Si1 0.876633 0.671742 0.614462
Si Si2 0.429734 0.668560 0.318724
Si Si3 0.400726 0.163899 0.550640
Si Si4 0.795554 0.330533 0.506174
Si Si5 0.791802 0.165288 0.059851
Si Si6 0.691491 0.669284 0.000951
Si Si7 0.003812 0.330385 0.882488
O O1 0.883502 0.500000 0.601430
O O2 0.846061 0.739084 0.544839
O O3 0.777153 0.721407 0.810971
O O4 0.000000 0.734684 0.500000
O O5 0.413307 0.500000 0.356886
O O6 0.394554 0.741436 0.462407
O O7 0.336742 0.722328 0.350611
O O8 0.560436 0.704386 0.125654
O O9 0.500000 0.227416 0.500000
O O10 0.277349 0.173267 0.754036
O O11 0.432559 0.000000 0.482619
O O12 0.796851 0.500000 0.521846
O O13 0.872721 0.291107 0.316626
O O14 0.816080 0.000000 0.999920
O O15 0.716352 0.240797 0.068028
O O16 0.911291 0.248329 0.928607
O O17 0.707057 0.500000 0.005383
O O18 0.976333 0.500000 0.910240
O O19 0.000000 0.276536 0.000000
#
# Coordination Sequence:
#
# PCOD8063355 Si02
#       7
#     4   4   4   4   4   4   4
#     4   9  17  31  53  78 105 140 179 219 266 320
#     4  10  20  33  53  82 110 137 176 225 269 312
#     4  10  20  35  52  73 106 146 179 208 258 323
#     4   9  18  33  53  79 111 143 174 216 272 323
#     4  11  22  35  54  78 107 142 179 221 267 316
#     4  10  20  33  53  81 106 135 180 225 264 311
#     4  10  20  35  56  80 108 141 178 219 265 318
#
# _framework density 19.240034999999999
#
# number of rings (size 3 to 8) (size 9 to 14) (size 15 to 20)
#    0.000    2.143    1.429    2.143    0.000    5.714 
#    0.000    3.571    0.000    4.714    0.000    2.000 
#    0.000    0.000    0.000    0.000    0.000    0.000 
#
# Total GULP energy -347184.477810 kJ/mol
# GULP energy per Si atom -12399.445636 kJ/mol
# Density = 1.919624 g / cm^3
# Si number density = 19.240035 Si / 1000 Ang^3
#
#
#
# Elastic Constant Matrix: (Units=GPa)
#
#
# Indices 1 2 3 4 5 6 
#
# 1 151.6832 29.7071 73.6678 0.0000 -13.2481 0.0000
# 2 29.7071 37.0398 30.0044 0.0000 -5.2151 0.0000
# 3 73.6678 30.0044 131.0831 0.0000 -10.7853 0.0000
# 4 0.0000 0.0000 0.0000 10.2811 0.0000 -5.7185
# 5 -13.2481 -5.2151 -10.7853 0.0000 38.6604 0.0000
# 6 0.0000 0.0000 0.0000 -5.7185 0.0000 0.5215
#
#
#
# Elastic Compliance Matrix: (Units=1/GPa)
#
#
# Indices 1 2 3 4 5 6 
#
# 1 0.009629 -0.003959 -0.004378 0.000000 0.001544 0.000000
# 2 -0.003959 0.034992 -0.005637 0.000000 0.001791 0.000000
# 3 -0.004378 -0.005637 0.011457 0.000000 0.000935 0.000000
# 4 0.000000 0.000000 0.000000 -0.019076 0.000000 -0.209166
# 5 0.001544 0.001791 0.000935 0.000000 0.026898 0.000000
# 6 0.000000 0.000000 0.000000 -0.209166 0.000000 -0.376050
#
#
# Mechanical properties :
#
#
# Convention : Reuss Voigt Hill
#
# Bulk Modulus (GPa) = 35.55078 65.17386 50.36232
# Shear Modulus (GPa) = -18.19339 22.32107 2.06384
#
# Velocity S-wave (km/s) = -3.07840 3.40977 1.03683
# Velocity P-wave (km/s) = 2.42533 7.03205 5.25984
#
# Compressibility (1/GPa) = 0.02812878
#
# Stress axis : x y z
#
# Youngs Moduli (GPa) = 103.84902 28.57811 87.28522
#
# Poissons Ratio (x) = 0.11314 0.38217
# Poissons Ratio (y) = 0.41112 0.49205
# Poissons Ratio (z) = 0.45469 0.16110
#
# Static dielectric constant tensor:
#      x y z
#    x 3.692780 0.000000 -0.151150 
#    y 0.000000 3.166270 0.000000 
#    z -0.151150 0.000000 3.650130 
# 
# 
# High freq. dielectric constant tensor:
#      x y z
#    x 1.754300 0.000000 -0.010600 
#    y 0.000000 1.706680 0.000000 
#    z -0.010600 0.000000 1.758310 
# 
# From -- ./inp_files/49380.got.cif
#   From: 2010.06.25/outbox.cif.g09.slc.cpg/sg10_25_cif.got.tgz:49380.got - 2010.06.27 22:07:45.
