data_PCOD8063820
_publ_section_title
;
Structure prediction by ZEFSAII (Michael W. Deem and Ramdas Pophale) SiO2 
 PCOD8063820
Probable space group: P 2/M
;
_chemical_formula_sum "Si O2"
_cell_formula_units_Z 24
_cell_length_a 24.108788
_cell_length_b 8.782678
_cell_length_c 12.259745
_cell_angle_alpha 90.000000
_cell_angle_beta 27.360336
_cell_angle_gamma 90.000000
_cell_volume 1193.025390
_symmetry_space_group_name_H-M "P 2/M"
_symmetry_group_IT_number 10
_symmetry_cell_setting 'monoclinic'
loop_
_space_group_symop_operation_xyz
x,y,z
-x,y,-z
-x,-y,-z
x,-y,z
loop_
_atom_site_type_symbol
_atom_site_label
_atom_site_fract_x
_atom_site_fract_y
_atom_site_fract_z
Si Si1 0.492261 0.326547 0.180426
Si Si2 0.575209 0.673085 0.463732
Si Si3 0.241688 0.820971 0.568991
Si Si4 0.971609 0.320163 0.429138
Si Si5 0.830651 0.318247 0.087040
Si Si6 0.756989 0.679765 0.655841
O O1 0.466903 0.500000 0.186800
O O2 0.504780 0.318197 0.288366
O O3 0.382559 0.224951 0.329782
O O4 0.619183 0.265778 0.912828
O O5 0.500000 0.758705 0.500000
O O6 0.598775 0.500000 0.385462
O O7 0.706059 0.747393 0.253817
O O8 0.159429 0.749150 0.808378
O O9 0.189952 0.761342 0.544083
O O10 0.229323 0.000000 0.596997
O O11 0.987273 0.500000 0.409723
O O12 0.837894 0.274889 0.620314
O O13 0.000000 0.249854 0.500000
O O14 0.064445 0.258297 0.175538
O O15 0.828457 0.500000 0.102645
O O16 0.764490 0.500000 0.624801
#
# Coordination Sequence:
#
# PCOD8063820 Si02
#       6
#     4   4   4   4   4   4
#     4   9  18  32  52  81 112 141 173 217 274 328
#     4   8  14  24  45  76 104 135 172 209 253 308
#     4  11  22  36  55  78 107 142 186 231 269 315
#     4   9  19  34  56  87 114 138 175 224 270 317
#     4   9  18  34  55  79 111 143 175 220 271 320
#     4  10  20  34  55  82 113 144 176 218 271 326
#
# _framework density 20.116923
#
# number of rings (size 3 to 8) (size 9 to 14) (size 15 to 20)
#    0.000    2.667    0.000    3.000    2.333    3.333 
#    0.000    4.167    0.000   10.000    0.000    0.000 
#    0.000    0.000    0.000    0.000    0.000    0.000 
#
# Total GULP energy -297476.182208 kJ/mol
# GULP energy per Si atom -12394.840925 kJ/mol
# Density = 2.007114 g / cm^3
# Si number density = 20.116923 Si / 1000 Ang^3
#
#
#
# Elastic Constant Matrix: (Units=GPa)
#
#
# Indices 1 2 3 4 5 6 
#
# 1 121.8300 27.3468 35.0829 0.0000 20.2870 0.0000
# 2 27.3468 46.5975 21.4377 0.0000 3.8945 0.0000
# 3 35.0829 21.4377 110.5706 0.0000 17.0729 0.0000
# 4 0.0000 0.0000 0.0000 8.4262 0.0000 1.3040
# 5 20.2870 3.8945 17.0729 0.0000 22.2292 0.0000
# 6 0.0000 0.0000 0.0000 1.3040 0.0000 -2.1206
#
#
#
# Elastic Compliance Matrix: (Units=1/GPa)
#
#
# Indices 1 2 3 4 5 6 
#
# 1 0.011125 -0.005271 -0.001228 0.000000 -0.008286 0.000000
# 2 -0.005271 0.026069 -0.003880 0.000000 0.003223 0.000000
# 3 -0.001228 -0.003880 0.011241 0.000000 -0.006833 0.000000
# 4 0.000000 0.000000 0.000000 0.108366 0.000000 0.066637
# 5 -0.008286 0.003223 -0.006833 0.000000 0.057231 0.000000
# 6 0.000000 0.000000 0.000000 0.066637 0.000000 -0.430596
#
#
# Mechanical properties :
#
#
# Convention : Reuss Voigt Hill
#
# Bulk Modulus (GPa) = 36.13130 49.63699 42.88415
# Shear Modulus (GPa) = -26.79805 18.71568 -4.04118
#
# Velocity S-wave (km/s) = -3.65377 3.05347 -1.41888
# Velocity P-wave (km/s) = 0.44671 6.09585 4.32197
#
# Compressibility (1/GPa) = 0.02767683
#
# Stress axis : x y z
#
# Youngs Moduli (GPa) = 89.88868 38.35918 88.96041
#
# Poissons Ratio (x) = 0.20220 0.10928
# Poissons Ratio (y) = 0.47382 0.34513
# Poissons Ratio (z) = 0.11042 0.14882
#
# Static dielectric constant tensor:
#      x y z
#    x 3.941190 0.000000 0.066480 
#    y 0.000000 3.060650 0.000000 
#    z 0.066480 0.000000 3.758130 
# 
# 
# High freq. dielectric constant tensor:
#      x y z
#    x 1.799010 0.000000 0.007370 
#    y 0.000000 1.721470 0.000000 
#    z 0.007370 0.000000 1.786370 
# 
# From -- ./inp_files/56537.got.cif
#   From: 2010.06.25/outbox.cif.g09.slc.cpg/sg10_29_cif.got.tgz:56537.got - 2010.06.27 22:07:45.
