data_PCOD8063783
_publ_section_title
;
Structure prediction by ZEFSAII (Michael W. Deem and Ramdas Pophale) SiO2 
 PCOD8063783
Probable space group: P 2/M
;
_chemical_formula_sum "Si O2"
_cell_formula_units_Z 32
_cell_length_a 12.468804
_cell_length_b 13.990167
_cell_length_c 19.290153
_cell_angle_alpha 90.000000
_cell_angle_beta 28.920369
_cell_angle_gamma 90.000000
_cell_volume 1627.286048
_symmetry_space_group_name_H-M "P 2/M"
_symmetry_group_IT_number 10
_symmetry_cell_setting 'monoclinic'
loop_
_space_group_symop_operation_xyz
x,y,z
-x,y,-z
-x,-y,-z
x,-y,z
loop_
_atom_site_type_symbol
_atom_site_label
_atom_site_fract_x
_atom_site_fract_y
_atom_site_fract_z
Si Si1 0.339286 0.788953 0.653268
Si Si2 0.778680 0.608344 0.581641
Si Si3 0.105986 0.112794 0.127514
Si Si4 0.852843 0.388304 0.187018
Si Si5 0.326762 0.199956 0.416312
Si Si6 0.893799 0.111690 0.718163
Si Si7 0.546857 0.886471 0.801649
Si Si8 0.703246 0.391458 0.121617
O O1 0.500000 0.815496 0.500000
O O2 0.264618 0.677458 0.688683
O O3 0.461201 0.811966 0.655715
O O4 0.125535 0.855774 0.773799
O O5 0.776452 0.500000 0.551100
O O6 0.767594 0.690303 0.529279
O O7 0.553803 0.621839 0.756093
O O8 0.000000 0.624220 0.500000
O O9 0.138399 0.156955 0.186802
O O10 0.105274 0.000000 0.134906
O O11 0.302754 0.144268 0.964785
O O12 0.819338 0.500000 0.224865
O O13 0.735568 0.354243 0.181687
O O14 0.112253 0.352533 0.036757
O O15 0.398602 0.171001 0.298592
O O16 0.137564 0.131005 0.551398
O O17 0.714159 0.152254 0.765890
O O18 0.854762 0.000000 0.745461
O O19 0.569888 0.000000 0.775442
O O20 0.777601 0.500000 0.084987
#
# Coordination Sequence:
#
# PCOD8063783 Si02
#       8
#     4   4   4   4   4   4   4   4
#     4  12  25  39  56  81 117 159 201 236 294 362
#     4  10  20  34  54  85 123 156 188 234 293 351
#     4  10  23  41  61  86 120 159 194 233 294 365
#     4   9  18  34  57  79 108 146 191 245 287 334
#     4  12  23  37  59  89 122 152 199 251 290 340
#     4  10  20  40  65  86 118 157 192 237 297 359
#     4  10  22  39  63  94 116 144 197 253 296 341
#     4   8  15  30  53  81 106 140 187 232 288 345
#
# _framework density 19.664643000000002
#
# number of rings (size 3 to 8) (size 9 to 14) (size 15 to 20)
#    0.000    1.875    2.500    2.625    1.750    4.500 
#    0.000    1.250    0.000    0.000    0.000    0.000 
#    0.000    9.000    0.000    0.000    0.000    0.000 
#
# Total GULP energy -396538.823169 kJ/mol
# GULP energy per Si atom -12391.838224 kJ/mol
# Density = 1.961989 g / cm^3
# Si number density = 19.664643 Si / 1000 Ang^3
#
#
#
# Elastic Constant Matrix: (Units=GPa)
#
#
# Indices 1 2 3 4 5 6 
#
# 1 95.3504 24.4676 29.9157 0.0000 -17.7450 0.0000
# 2 24.4676 34.3856 19.5384 0.0000 1.1581 0.0000
# 3 29.9157 19.5384 98.9782 0.0000 -18.1583 0.0000
# 4 0.0000 0.0000 0.0000 23.2637 0.0000 -3.4104
# 5 -17.7450 1.1581 -18.1583 0.0000 37.1809 0.0000
# 6 0.0000 0.0000 0.0000 -3.4104 0.0000 21.8453
#
#
#
# Elastic Compliance Matrix: (Units=1/GPa)
#
#
# Indices 1 2 3 4 5 6 
#
# 1 0.014684 -0.009971 -0.001238 0.000000 0.006714 0.000000
# 2 -0.009971 0.040256 -0.006630 0.000000 -0.009251 0.000000
# 3 -0.001238 -0.006630 0.012869 0.000000 0.005900 0.000000
# 4 0.000000 0.000000 0.000000 0.043992 0.000000 0.006868
# 5 0.006714 -0.009251 0.005900 0.000000 0.033270 0.000000
# 6 0.000000 0.000000 0.000000 0.006868 0.000000 0.046849
#
#
# Mechanical properties :
#
#
# Convention : Reuss Voigt Hill
#
# Bulk Modulus (GPa) = 31.12348 41.83975 36.48161
# Shear Modulus (GPa) = 20.98121 26.77748 23.87935
#
# Velocity S-wave (km/s) = 3.26997 3.69413 3.48850
# Velocity P-wave (km/s) = 5.48802 6.28636 5.90071
#
# Compressibility (1/GPa) = 0.03213009
#
# Stress axis : x y z
#
# Youngs Moduli (GPa) = 68.09962 24.84101 77.70817
#
# Poissons Ratio (x) = 0.24770 0.09621
# Poissons Ratio (y) = 0.67905 0.51519
# Poissons Ratio (z) = 0.08432 0.16469
#
# Static dielectric constant tensor:
#      x y z
#    x 3.537950 0.000000 -0.160130 
#    y 0.000000 3.612780 0.000000 
#    z -0.160130 0.000000 3.747020 
# 
# 
# High freq. dielectric constant tensor:
#      x y z
#    x 1.749190 0.000000 -0.024760 
#    y 0.000000 1.761570 0.000000 
#    z -0.024760 0.000000 1.774590 
# 
# From -- ./inp_files/54010.got.cif
#   From: 2010.06.25/outbox.cif.g09.slc.cpg/sg10_28_cif.got.tgz:54010.got - 2010.06.27 22:07:45.
