data_PCOD8063877
_publ_section_title
;
Structure prediction by ZEFSAII (Michael W. Deem and Ramdas Pophale) SiO2 
 PCOD8063877
Probable space group: P 2/M
;
_chemical_formula_sum "Si O2"
_cell_formula_units_Z 20
_cell_length_a 9.577921
_cell_length_b 9.494769
_cell_length_c 24.679762
_cell_angle_alpha 90.000000
_cell_angle_beta 151.487806
_cell_angle_gamma 90.000000
_cell_volume 1071.345901
_symmetry_space_group_name_H-M "P 2/M"
_symmetry_group_IT_number 10
_symmetry_cell_setting 'monoclinic'
loop_
_space_group_symop_operation_xyz
x,y,z
-x,y,-z
-x,-y,-z
x,-y,z
loop_
_atom_site_type_symbol
_atom_site_label
_atom_site_fract_x
_atom_site_fract_y
_atom_site_fract_z
Si Si1 0.322372 0.164281 0.271990
Si Si2 0.242157 0.660209 0.948668
Si Si3 0.677809 0.659584 0.901179
Si Si4 0.388274 0.167208 0.519780
Si Si5 0.732415 0.835887 0.313494
O O1 0.399929 0.216959 0.359136
O O2 0.600868 0.193426 0.328180
O O3 0.048137 0.248404 0.155618
O O4 0.241346 0.000000 0.244098
O O5 0.163984 0.500000 0.905435
O O6 0.500000 0.723628 0.000000
O O7 0.378924 0.666131 0.054681
O O8 0.652925 0.500000 0.870041
O O9 0.444165 0.756438 0.792762
O O10 0.000000 0.720087 0.000000
O O11 0.500000 0.228737 0.500000
O O12 0.063379 0.221515 0.423029
O O13 0.387424 0.000000 0.517337
O O14 0.718960 0.000000 0.294701
#
# Coordination Sequence:
#
# PCOD8063877 Si02
#       5
#     4   4   4   4   4
#     4  10  20  35  56  81 108 139 178 220 262 313
#     4  10  22  38  55  77 109 145 176 215 268 318
#     4  10  20  36  56  78 107 142 177 214 263 319
#     4   9  19  35  54  78 108 141 175 217 269 315
#     4  10  20  34  56  82 108 139 177 220 262 311
#
# _framework density 18.668106999999999
#
# number of rings (size 3 to 8) (size 9 to 14) (size 15 to 20)
#    0.000    2.200    2.000    0.600    2.800    4.000 
#    0.000    1.000    0.000    3.600    0.000    0.000 
#    0.000    0.000    0.000    0.000    0.000    0.000 
#
# Total GULP energy -248002.091235 kJ/mol
# GULP energy per Si atom -12400.104562 kJ/mol
# Density = 1.862562 g / cm^3
# Si number density = 18.668107 Si / 1000 Ang^3
#
#
#
# Elastic Constant Matrix: (Units=GPa)
#
#
# Indices 1 2 3 4 5 6 
#
# 1 114.0093 23.7848 31.4917 0.0000 -0.3862 0.0000
# 2 23.7848 41.8328 35.7431 0.0000 -0.5710 0.0000
# 3 31.4917 35.7431 87.6106 0.0000 -7.1058 0.0000
# 4 0.0000 0.0000 0.0000 -316.7608 0.0000 -53.1575
# 5 -0.3862 -0.5710 -7.1058 0.0000 34.5523 0.0000
# 6 0.0000 0.0000 0.0000 -53.1575 0.0000 12.4235
#
#
#
# Elastic Compliance Matrix: (Units=1/GPa)
#
#
# Indices 1 2 3 4 5 6 
#
# 1 0.010178 -0.004053 -0.002035 0.000000 -0.000372 0.000000
# 2 -0.004053 0.038527 -0.014454 0.000000 -0.002381 0.000000
# 3 -0.002035 -0.014454 0.018327 0.000000 0.003507 0.000000
# 4 0.000000 0.000000 0.000000 -0.001838 0.000000 -0.007862
# 5 -0.000372 -0.002381 0.003507 0.000000 0.029619 0.000000
# 6 0.000000 0.000000 0.000000 -0.007862 0.000000 0.046851
#
#
# Mechanical properties :
#
#
# Convention : Reuss Voigt Hill
#
# Bulk Modulus (GPa) = 38.54019 47.27687 42.90853
# Shear Modulus (GPa) = 26.12358 -43.79479 -8.83560
#
# Velocity S-wave (km/s) = 3.74487 -4.84877 -2.17790
# Velocity P-wave (km/s) = 6.27603 2.44286 4.08785
#
# Compressibility (1/GPa) = 0.02594694
#
# Stress axis : x y z
#
# Youngs Moduli (GPa) = 98.25506 25.95601 54.56405
#
# Poissons Ratio (x) = 0.10520 0.11104
# Poissons Ratio (y) = 0.39823 0.78868
# Poissons Ratio (z) = 0.19995 0.37518
#
# Static dielectric constant tensor:
#      x y z
#    x 3.744400 0.000000 0.007160 
#    y 0.000000 3.180230 0.000000 
#    z 0.007160 0.000000 3.385030 
# 
# 
# High freq. dielectric constant tensor:
#      x y z
#    x 1.742940 0.000000 -0.001540 
#    y 0.000000 1.692870 0.000000 
#    z -0.001540 0.000000 1.725240 
# 
# From -- ./inp_files/17953.got.cif
#   From: 2010.06.25/outbox.cif.g09.slc.cpg/sg10_9_cif.got.tgz:17953.got - 2010.06.27 22:07:45.
