data_PCOD8063883
_publ_section_title
;
Structure prediction by ZEFSAII (Michael W. Deem and Ramdas Pophale) SiO2 
 PCOD8063883
Probable space group: P 2/M
;
_chemical_formula_sum "Si O2"
_cell_formula_units_Z 28
_cell_length_a 9.111064
_cell_length_b 8.571399
_cell_length_c 25.561903
_cell_angle_alpha 90.000000
_cell_angle_beta 44.437502
_cell_angle_gamma 90.000000
_cell_volume 1397.633167
_symmetry_space_group_name_H-M "P 2/M"
_symmetry_group_IT_number 10
_symmetry_cell_setting 'monoclinic'
loop_
_space_group_symop_operation_xyz
x,y,z
-x,y,-z
-x,-y,-z
x,-y,z
loop_
_atom_site_type_symbol
_atom_site_label
_atom_site_fract_x
_atom_site_fract_y
_atom_site_fract_z
Si Si1 0.077851 0.682573 0.793254
Si Si2 0.111608 0.183398 0.363754
Si Si3 0.004485 0.181862 0.077253
Si Si4 0.476630 0.814529 0.346475
Si Si5 0.654136 0.814370 0.505347
Si Si6 0.781567 0.317633 0.774099
Si Si7 0.313318 0.682401 0.919918
O O1 0.058520 0.500000 0.808963
O O2 0.973078 0.772710 0.868133
O O3 0.317547 0.730109 0.726248
O O4 0.951863 0.731773 0.773664
O O5 0.287550 0.247538 0.358421
O O6 0.168057 0.222657 0.290390
O O7 0.886059 0.255652 0.436664
O O8 0.099299 0.000000 0.373575
O O9 0.809900 0.274976 0.101676
O O10 0.958717 0.000000 0.082838
O O11 0.219579 0.224428 0.992996
O O12 0.430282 0.759081 0.417129
O O13 0.506849 0.000000 0.334858
O O14 0.500000 0.747237 0.500000
O O15 0.660949 0.000000 0.501013
O O16 0.789962 0.500000 0.758855
O O17 0.553914 0.268297 0.852863
O O18 0.288577 0.500000 0.937379
#
# Coordination Sequence:
#
# PCOD8063883 Si02
#       7
#     4   4   4   4   4   4   4
#     4  11  23  39  56  78 110 147 185 226 276 328
#     4  10  20  34  56  83 111 144 182 227 275 325
#     4  11  22  37  58  86 114 142 181 227 273 324
#     4  10  20  35  56  83 112 143 184 229 273 325
#     4   9  17  31  53  81 113 147 181 221 273 328
#     4  10  23  39  56  79 109 145 185 228 273 326
#     4  10  20  38  61  83 110 147 185 223 272 326
#
# _framework density 20.03387
#
# number of rings (size 3 to 8) (size 9 to 14) (size 15 to 20)
#    0.000    1.857    0.000    5.143    0.000    8.571 
#    0.000    3.571    0.000    4.286    0.000    0.000 
#    0.000    0.000    0.000    0.000    0.000    0.000 
#
# Total GULP energy -347321.477849 kJ/mol
# GULP energy per Si atom -12404.338495 kJ/mol
# Density = 1.998827 g / cm^3
# Si number density = 20.033870 Si / 1000 Ang^3
#
#
#
# Elastic Constant Matrix: (Units=GPa)
#
#
# Indices 1 2 3 4 5 6 
#
# 1 105.3550 6.6837 46.3637 0.0000 15.9892 0.0000
# 2 6.6837 28.4781 17.2171 0.0000 3.1726 0.0000
# 3 46.3637 17.2171 102.2088 0.0000 8.6171 0.0000
# 4 0.0000 0.0000 0.0000 -34.3986 0.0000 -26.4722
# 5 15.9892 3.1726 8.6171 0.0000 36.9035 0.0000
# 6 0.0000 0.0000 0.0000 -26.4722 0.0000 12.5401
#
#
#
# Elastic Compliance Matrix: (Units=1/GPa)
#
#
# Indices 1 2 3 4 5 6 
#
# 1 0.012473 0.000832 -0.005443 0.000000 -0.004204 0.000000
# 2 0.000832 0.039277 -0.006813 0.000000 -0.002146 0.000000
# 3 -0.005443 -0.006813 0.013417 0.000000 -0.000189 0.000000
# 4 0.000000 0.000000 0.000000 -0.011076 0.000000 -0.023382
# 5 -0.004204 -0.002146 -0.000189 0.000000 0.029148 0.000000
# 6 0.000000 0.000000 0.000000 -0.023382 0.000000 0.030384
#
#
# Mechanical properties :
#
#
# Convention : Reuss Voigt Hill
#
# Bulk Modulus (GPa) = 23.63046 41.84122 32.73584
# Shear Modulus (GPa) = 33.20580 14.06082 23.63331
#
# Velocity S-wave (km/s) = 4.07564 2.65212 3.43836
# Velocity P-wave (km/s) = 5.82826 5.50535 5.66911
#
# Compressibility (1/GPa) = 0.04231827
#
# Stress axis : x y z
#
# Youngs Moduli (GPa) = 80.17616 25.45997 74.53424
#
# Poissons Ratio (x) = -0.02118 0.40572
# Poissons Ratio (y) = -0.06671 0.50778
# Poissons Ratio (z) = 0.43644 0.17345
#
# Static dielectric constant tensor:
#      x y z
#    x 3.837440 0.000000 -0.075550 
#    y 0.000000 3.401280 0.000000 
#    z -0.075550 0.000000 3.764070 
# 
# 
# High freq. dielectric constant tensor:
#      x y z
#    x 1.791080 0.000000 0.000230 
#    y 0.000000 1.761220 0.000000 
#    z 0.000230 0.000000 1.796880 
# 
# From -- ./inp_files/91987.got.cif
#   From: 2010.06.25/outbox.cif.g09.slc.cpg/sg10_46_cif.got.tgz:91987.got - 2010.06.27 22:07:45.
