data_PCOD8063603
_publ_section_title
;
Structure prediction by ZEFSAII (Michael W. Deem and Ramdas Pophale) SiO2 
 PCOD8063603
Probable space group: P 2/M
;
_chemical_formula_sum "Si O2"
_cell_formula_units_Z 20
_cell_length_a 19.943313
_cell_length_b 9.137547
_cell_length_c 7.302311
_cell_angle_alpha 90.000000
_cell_angle_beta 56.978879
_cell_angle_gamma 90.000000
_cell_volume 1115.769918
_symmetry_space_group_name_H-M "P 2/M"
_symmetry_group_IT_number 10
_symmetry_cell_setting 'monoclinic'
loop_
_space_group_symop_operation_xyz
x,y,z
-x,y,-z
-x,-y,-z
x,-y,z
loop_
_atom_site_type_symbol
_atom_site_label
_atom_site_fract_x
_atom_site_fract_y
_atom_site_fract_z
Si Si1 0.588389 0.673030 0.422987
Si Si2 0.304178 0.831056 0.027331
Si Si3 0.000453 0.174181 0.793883
Si Si4 0.415509 0.832210 0.203663
Si Si5 0.124279 0.826341 0.315294
O O1 0.500000 0.727600 0.500000
O O2 0.594140 0.500000 0.415613
O O3 0.610567 0.733238 0.588595
O O4 0.651725 0.734707 0.187164
O O5 0.346440 0.813188 0.158631
O O6 0.214620 0.767388 0.179332
O O7 0.304838 0.000000 0.962553
O O8 0.078185 0.230988 0.565776
O O9 0.921357 0.226106 0.801172
O O10 0.002054 0.000000 0.803019
O O11 0.000000 0.241478 0.000000
O O12 0.424385 0.000000 0.254902
O O13 0.500000 0.775021 0.000000
O O14 0.124517 0.000000 0.321928
#
# Coordination Sequence:
#
# PCOD8063603 Si02
#       5
#     4   4   4   4   4
#     4  11  23  36  52  73  99 135 175 215 258 304
#     4  10  20  34  53  76 104 135 171 214 254 299
#     4   8  13  23  41  65  98 132 157 190 242 300
#     4  10  20  34  53  75  99 131 170 213 257 300
#     4   8  15  26  41  68 100 129 161 197 243 297
#
# _framework density 17.924842000000002
#
# number of rings (size 3 to 8) (size 9 to 14) (size 15 to 20)
#    0.000    2.600    2.000    1.800    0.000    3.600 
#    0.000    6.000    0.000    0.000    0.000    2.800 
#    0.000    8.000    0.000    0.000    0.000    0.000 
#
# Total GULP energy -247971.111406 kJ/mol
# GULP energy per Si atom -12398.555570 kJ/mol
# Density = 1.788404 g / cm^3
# Si number density = 17.924842 Si / 1000 Ang^3
#
#
#
# Elastic Constant Matrix: (Units=GPa)
#
#
# Indices 1 2 3 4 5 6 
#
# 1 127.1057 27.3122 86.2776 0.0000 -12.1469 0.0000
# 2 27.3122 36.8656 37.7851 0.0000 1.9278 0.0000
# 3 86.2776 37.7851 146.0550 0.0000 0.0365 0.0000
# 4 0.0000 0.0000 0.0000 17.5981 0.0000 3.0334
# 5 -12.1469 1.9278 0.0365 0.0000 39.5492 0.0000
# 6 0.0000 0.0000 0.0000 3.0334 0.0000 10.8936
#
#
#
# Elastic Compliance Matrix: (Units=1/GPa)
#
#
# Indices 1 2 3 4 5 6 
#
# 1 0.014037 -0.002902 -0.007542 0.000000 0.004460 0.000000
# 2 -0.002902 0.037641 -0.008023 0.000000 -0.002719 0.000000
# 3 -0.007542 -0.008023 0.013378 0.000000 -0.001938 0.000000
# 4 0.000000 0.000000 0.000000 0.059689 0.000000 -0.016621
# 5 0.004460 -0.002719 -0.001938 0.000000 0.026789 0.000000
# 6 0.000000 0.000000 0.000000 -0.016621 0.000000 0.096425
#
#
# Mechanical properties :
#
#
# Convention : Reuss Voigt Hill
#
# Bulk Modulus (GPa) = 35.56022 68.08626 51.82324
# Shear Modulus (GPa) = 16.99137 24.18492 20.58815
#
# Velocity S-wave (km/s) = 3.08218 3.67719 3.39275
# Velocity P-wave (km/s) = 5.70509 7.48971 6.65747
#
# Compressibility (1/GPa) = 0.02812131
#
# Stress axis : x y z
#
# Youngs Moduli (GPa) = 71.24160 26.56700 74.74970
#
# Poissons Ratio (x) = 0.07710 0.56377
# Poissons Ratio (y) = 0.20676 0.59970
# Poissons Ratio (z) = 0.53731 0.21314
#
# Static dielectric constant tensor:
#      x y z
#    x 3.385300 0.000000 -0.076470 
#    y 0.000000 2.849600 0.000000 
#    z -0.076470 0.000000 3.504730 
# 
# 
# High freq. dielectric constant tensor:
#      x y z
#    x 1.700730 0.000000 0.001970 
#    y 0.000000 1.642920 0.000000 
#    z 0.001970 0.000000 1.701990 
# 
# From -- ./inp_files/31149.got.cif
#   From: 2010.06.25/outbox.cif.g09.slc.cpg/sg10_16_cif.got.tgz:31149.got - 2010.06.27 22:07:45.
