data_PCOD8063038
_publ_section_title
;
Structure prediction by ZEFSAII (Michael W. Deem and Ramdas Pophale) SiO2 
 PCOD8063038
Probable space group: P 2/M
;
_chemical_formula_sum "Si O2"
_cell_formula_units_Z 28
_cell_length_a 22.125443
_cell_length_b 7.900938
_cell_length_c 27.579802
_cell_angle_alpha 90.000000
_cell_angle_beta 18.281009
_cell_angle_gamma 90.000000
_cell_volume 1512.326221
_symmetry_space_group_name_H-M "P 2/M"
_symmetry_group_IT_number 10
_symmetry_cell_setting 'monoclinic'
loop_
_space_group_symop_operation_xyz
x,y,z
-x,y,-z
-x,-y,-z
x,-y,z
loop_
_atom_site_type_symbol
_atom_site_label
_atom_site_fract_x
_atom_site_fract_y
_atom_site_fract_z
Si Si1 0.728497 0.684547 0.428178
Si Si2 0.014564 0.810181 0.281218
Si Si3 0.288740 0.202051 0.151367
Si Si4 0.552847 0.000000 0.515495
Si Si5 0.278213 0.693659 0.421062
Si Si6 0.972094 0.200361 0.467708
Si Si7 0.397579 0.687775 0.760004
Si Si8 0.218487 0.000000 0.849764
O O1 0.722469 0.500000 0.406766
O O2 0.940150 0.704119 0.291554
O O3 0.572068 0.693209 0.589431
O O4 0.683245 0.833480 0.424824
O O5 0.853825 0.816154 0.445948
O O6 0.209307 0.738270 0.158693
O O7 0.047156 0.000000 0.237641
O O8 0.148189 0.268714 0.300723
O O9 0.293599 0.000000 0.148442
O O10 0.500000 0.279123 0.000000
O O11 0.500000 0.000000 0.500000
O O12 0.361925 0.000000 0.694456
O O13 0.226970 0.500000 0.473005
O O14 0.230788 0.734451 0.400883
O O15 0.504591 0.725265 0.261816
O O16 0.000000 0.277792 0.500000
O O17 0.967807 0.000000 0.473702
O O18 0.299415 0.500000 0.834052
O O19 0.245174 0.832561 0.862509
O O20 0.000000 0.000000 0.000000
#
# Coordination Sequence:
#
# PCOD8063038 Si02
#       8
#     4   4   4   2   4   4   4   2
#     4   9  16  28  47  72  98 123 157 197 236 273
#     4   9  14  23  42  66  90 118 152 196 236 266
#     4   8  14  24  40  62  88 117 149 185 229 277
#     4  10  20  34  52  74 101 126 154 190 231 282
#     4   9  16  25  41  65  88 116 152 193 234 267
#     4   9  17  27  41  62  87 115 149 190 232 272
#     4   8  16  28  45  71  97 121 153 195 234 271
#     4  10  20  32  52  76  97 124 154 188 231 280
#
# _framework density 18.514524000000002
#
# number of rings (size 3 to 8) (size 9 to 14) (size 15 to 20)
#    0.000    3.143    0.714    2.571    4.000    0.857 
#    0.000    0.000    0.000   12.429    0.000    2.000 
#    0.000    0.000    0.000    0.000    0.000    0.000 
#
# Total GULP energy -346869.892951 kJ/mol
# GULP energy per Si atom -12388.210463 kJ/mol
# Density = 1.847238 g / cm^3
# Si number density = 18.514524 Si / 1000 Ang^3
#
#
#
# Elastic Constant Matrix: (Units=GPa)
#
#
# Indices 1 2 3 4 5 6 
#
# 1 146.2505 57.4472 42.7801 0.0000 -35.5685 0.0000
# 2 57.4472 100.9226 30.1565 0.0000 -23.8846 0.0000
# 3 42.7801 30.1565 55.8839 0.0000 -29.9185 0.0000
# 4 0.0000 0.0000 0.0000 6.2764 0.0000 -4.7516
# 5 -35.5685 -23.8846 -29.9185 0.0000 33.1457 0.0000
# 6 0.0000 0.0000 0.0000 -4.7516 0.0000 17.3346
#
#
#
# Elastic Compliance Matrix: (Units=1/GPa)
#
#
# Indices 1 2 3 4 5 6 
#
# 1 0.010635 -0.003753 -0.002814 0.000000 0.006168 0.000000
# 2 -0.003753 0.013647 -0.002676 0.000000 0.003392 0.000000
# 3 -0.002814 -0.002676 0.036465 0.000000 0.027967 0.000000
# 4 0.000000 0.000000 0.000000 0.201048 0.000000 0.055109
# 5 0.006168 0.003392 0.027967 0.000000 0.064477 0.000000
# 6 0.000000 0.000000 0.000000 0.055109 0.000000 0.072794
#
#
# Mechanical properties :
#
#
# Convention : Reuss Voigt Hill
#
# Bulk Modulus (GPa) = 23.66207 62.64719 43.15463
# Shear Modulus (GPa) = 11.58379 22.86287 17.22333
#
# Velocity S-wave (km/s) = 2.50403 3.51787 3.05333
# Velocity P-wave (km/s) = 4.60090 7.10006 5.98243
#
# Compressibility (1/GPa) = 0.04226173
#
# Stress axis : x y z
#
# Youngs Moduli (GPa) = 94.02954 73.27590 27.42386
#
# Poissons Ratio (x) = 0.27501 0.07716
# Poissons Ratio (y) = 0.35290 0.07337
# Poissons Ratio (z) = 0.26458 0.19605
#
# Static dielectric constant tensor:
#      x y z
#    x 3.581740 0.000000 -0.384960 
#    y 0.000000 3.506730 0.000000 
#    z -0.384960 0.000000 3.032050 
# 
# 
# High freq. dielectric constant tensor:
#      x y z
#    x 1.713270 0.000000 -0.043590 
#    y 0.000000 1.720120 0.000000 
#    z -0.043590 0.000000 1.650550 
# 
# From -- ./inp_files/85669.got.cif
#   From: 2010.06.25/outbox.cif.g09.slc.cpg/sg10_43_cif.got.tgz:85669.got - 2010.06.27 22:07:45.
