data_PCOD8063894
_publ_section_title
;
Structure prediction by ZEFSAII (Michael W. Deem and Ramdas Pophale) SiO2 
 PCOD8063894
Probable space group: P 2/M
;
_chemical_formula_sum "Si O2"
_cell_formula_units_Z 28
_cell_length_a 13.763185
_cell_length_b 9.258964
_cell_length_c 19.023550
_cell_angle_alpha 90.000000
_cell_angle_beta 144.164680
_cell_angle_gamma 90.000000
_cell_volume 1419.280755
_symmetry_space_group_name_H-M "P 2/M"
_symmetry_group_IT_number 10
_symmetry_cell_setting 'monoclinic'
loop_
_space_group_symop_operation_xyz
x,y,z
-x,y,-z
-x,-y,-z
x,-y,z
loop_
_atom_site_type_symbol
_atom_site_label
_atom_site_fract_x
_atom_site_fract_y
_atom_site_fract_z
Si Si1 0.159417 0.834165 0.053764
Si Si2 0.866858 0.338424 0.094775
Si Si3 0.951763 0.671518 0.393197
Si Si4 0.246923 0.336563 0.336972
Si Si5 0.786489 0.836347 0.543929
Si Si6 0.315188 0.670689 0.873197
Si Si7 0.419845 0.838987 0.323199
O O1 0.315725 0.807626 0.193538
O O2 0.121591 0.000000 0.013961
O O3 0.209974 0.758465 0.011010
O O4 0.000000 0.766172 0.000000
O O5 0.796739 0.500000 0.045048
O O6 0.810113 0.279740 0.138051
O O7 0.063072 0.335115 0.197840
O O8 0.962712 0.500000 0.398611
O O9 0.772018 0.720208 0.252971
O O10 0.000000 0.729469 0.500000
O O11 0.092328 0.730973 0.425196
O O12 0.295075 0.500000 0.388396
O O13 0.247082 0.221355 0.398446
O O14 0.380684 0.281350 0.358813
O O15 0.606056 0.830647 0.402668
O O16 0.857379 0.000000 0.587299
O O17 0.330874 0.500000 0.879207
O O18 0.500000 0.735313 0.000000
O O19 0.381381 0.000000 0.331062
#
# Coordination Sequence:
#
# PCOD8063894 Si02
#       7
#     4   4   4   4   4   4   4
#     4  10  20  35  55  77 108 151 191 228 274 333
#     4  10  20  34  56  84 112 143 183 231 279 336
#     4  10  21  39  63  89 115 148 194 244 293 349
#     4  11  21  35  57  85 115 147 190 240 282 331
#     4  11  23  38  58  82 115 155 193 235 285 344
#     4   9  18  36  60  85 114 146 182 232 294 350
#     4  10  22  38  54  81 117 155 195 233 281 341
#
# _framework density 19.728303
#
# number of rings (size 3 to 8) (size 9 to 14) (size 15 to 20)
#    0.000    1.857    2.857    1.286    0.000    5.714 
#    0.000    1.429    0.000    1.714    0.000    0.000 
#    0.000    0.000    0.000    0.000    0.000    0.000 
#
# Total GULP energy -346975.543428 kJ/mol
# GULP energy per Si atom -12391.983694 kJ/mol
# Density = 1.968340 g / cm^3
# Si number density = 19.728303 Si / 1000 Ang^3
#
#
#
# Elastic Constant Matrix: (Units=GPa)
#
#
# Indices 1 2 3 4 5 6 
#
# 1 67.7694 8.2839 43.0755 0.0000 -8.8876 0.0000
# 2 8.2839 25.4454 21.7879 0.0000 -10.2431 0.0000
# 3 43.0755 21.7879 123.9327 0.0000 -11.0815 0.0000
# 4 0.0000 0.0000 0.0000 23.4372 0.0000 -6.5603
# 5 -8.8876 -10.2431 -11.0815 0.0000 29.9044 0.0000
# 6 0.0000 0.0000 0.0000 -6.5603 0.0000 21.2577
#
#
#
# Elastic Compliance Matrix: (Units=1/GPa)
#
#
# Indices 1 2 3 4 5 6 
#
# 1 0.019271 0.000735 -0.006508 0.000000 0.003567 0.000000
# 2 0.000735 0.052016 -0.008054 0.000000 0.015051 0.000000
# 3 -0.006508 -0.008054 0.011715 0.000000 -0.000352 0.000000
# 4 0.000000 0.000000 0.000000 0.046701 0.000000 0.014412
# 5 0.003567 0.015051 -0.000352 0.000000 0.039525 0.000000
# 6 0.000000 0.000000 0.000000 0.014412 0.000000 0.051490
#
#
# Mechanical properties :
#
#
# Convention : Reuss Voigt Hill
#
# Bulk Modulus (GPa) = 18.06780 40.38246 29.22513
# Shear Modulus (GPa) = 18.73909 24.51988 21.62948
#
# Velocity S-wave (km/s) = 3.08532 3.52927 3.31474
# Velocity P-wave (km/s) = 4.67659 6.09274 5.43102
#
# Compressibility (1/GPa) = 0.05534708
#
# Stress axis : x y z
#
# Youngs Moduli (GPa) = 51.89247 19.22489 85.35708
#
# Poissons Ratio (x) = -0.01413 0.55552
# Poissons Ratio (y) = -0.03814 0.68750
# Poissons Ratio (z) = 0.33773 0.15484
#
# Static dielectric constant tensor:
#      x y z
#    x 3.607320 0.000000 0.013600 
#    y 0.000000 3.479240 0.000000 
#    z 0.013600 0.000000 4.028240 
# 
# 
# High freq. dielectric constant tensor:
#      x y z
#    x 1.752660 0.000000 -0.001110 
#    y 0.000000 1.749400 0.000000 
#    z -0.001110 0.000000 1.784180 
# 
# From -- ./inp_files/84957.got.cif
#   From: 2010.06.25/outbox.cif.g09.slc.cpg/sg10_43_cif.got.tgz:84957.got - 2010.06.27 22:07:45.
