data_PCOD8063840
_publ_section_title
;
Structure prediction by ZEFSAII (Michael W. Deem and Ramdas Pophale) SiO2 
 PCOD8063840
Probable space group: P 2/M
;
_chemical_formula_sum "Si O2"
_cell_formula_units_Z 24
_cell_length_a 15.397724
_cell_length_b 19.367879
_cell_length_c 13.158275
_cell_angle_alpha 90.000000
_cell_angle_beta 17.803591
_cell_angle_gamma 90.000000
_cell_volume 1199.806168
_symmetry_space_group_name_H-M "P 2/M"
_symmetry_group_IT_number 10
_symmetry_cell_setting 'monoclinic'
loop_
_space_group_symop_operation_xyz
x,y,z
-x,y,-z
-x,-y,-z
x,-y,z
loop_
_atom_site_type_symbol
_atom_site_label
_atom_site_fract_x
_atom_site_fract_y
_atom_site_fract_z
Si Si1 0.872981 0.339661 0.753183
Si Si2 0.680739 0.142804 0.390387
Si Si3 0.520239 0.796961 0.187949
Si Si4 0.924620 0.145705 0.471319
Si Si5 0.621049 0.576360 0.752523
Si Si6 0.504091 0.000000 0.677355
Si Si7 0.880386 0.000000 0.454701
O O1 0.000000 0.327004 0.500000
O O2 0.132469 0.365589 0.535078
O O3 0.711094 0.271861 0.971739
O O4 0.646200 0.401262 0.016806
O O5 0.500000 0.175832 0.500000
O O6 0.668782 0.194874 0.500536
O O7 0.559869 0.067141 0.547660
O O8 0.000000 0.135849 0.000000
O O9 0.313646 0.806170 0.319046
O O10 0.765250 0.855558 0.927499
O O11 0.807454 0.067487 0.603667
O O12 0.000000 0.174468 0.500000
O O13 0.727991 0.500000 0.600688
O O14 0.500000 0.574045 0.000000
O O15 0.707231 0.000000 0.546120
O O16 0.196087 0.000000 0.065662
#
# Coordination Sequence:
#
# PCOD8063840 Si02
#       7
#     4   4   4   4   4   2   2
#     4  10  20  34  55  83 118 159 191 224 276 331
#     4  12  24  41  62  84 108 144 189 249 311 358
#     4  12  24  41  57  83 118 148 195 239 284 356
#     4  12  24  39  59  80 112 153 190 235 287 341
#     4   9  17  31  53  83 119 156 193 228 262 314
#     4  12  22  41  63  81 108 137 189 251 312 358
#     4  12  21  41  58  81 108 145 188 241 287 350
#
# _framework density 20.003231
#
# number of rings (size 3 to 8) (size 9 to 14) (size 15 to 20)
#    0.000    0.833    3.333    5.250    0.000    4.667 
#    0.000    2.500    0.000    0.000    0.000    0.000 
#    0.000   13.333    0.000    0.000    0.000    0.000 
#
# Total GULP energy -297399.489712 kJ/mol
# GULP energy per Si atom -12391.645405 kJ/mol
# Density = 1.995770 g / cm^3
# Si number density = 20.003231 Si / 1000 Ang^3
#
#
#
# Elastic Constant Matrix: (Units=GPa)
#
#
# Indices 1 2 3 4 5 6 
#
# 1 99.7392 33.5249 30.0725 0.0000 -16.2877 0.0000
# 2 33.5249 99.4742 36.8480 0.0000 7.2977 0.0000
# 3 30.0725 36.8480 94.0386 0.0000 -14.5056 0.0000
# 4 0.0000 0.0000 0.0000 53.9179 0.0000 -12.2756
# 5 -16.2877 7.2977 -14.5056 0.0000 33.6978 0.0000
# 6 0.0000 0.0000 0.0000 -12.2756 0.0000 10.1334
#
#
#
# Elastic Compliance Matrix: (Units=1/GPa)
#
#
# Indices 1 2 3 4 5 6 
#
# 1 0.012993 -0.004329 -0.001441 0.000000 0.006597 0.000000
# 2 -0.004329 0.013993 -0.005236 0.000000 -0.007377 0.000000
# 3 -0.001441 -0.005236 0.014154 0.000000 0.006530 0.000000
# 4 0.000000 0.000000 0.000000 0.025610 0.000000 0.031024
# 5 0.006597 -0.007377 0.006530 0.000000 0.037273 0.000000
# 6 0.000000 0.000000 0.000000 0.031024 0.000000 0.136265
#
#
# Mechanical properties :
#
#
# Convention : Reuss Voigt Hill
#
# Bulk Modulus (GPa) = 52.28331 54.90476 53.59404
# Shear Modulus (GPa) = 18.60972 32.40362 25.50667
#
# Velocity S-wave (km/s) = 3.05345 4.02919 3.57477
# Velocity P-wave (km/s) = 6.21495 7.01094 6.62491
#
# Compressibility (1/GPa) = 0.01912656
#
# Stress axis : x y z
#
# Youngs Moduli (GPa) = 76.96349 71.46557 70.65211
#
# Poissons Ratio (x) = 0.30939 0.10182
# Poissons Ratio (y) = 0.33319 0.36996
# Poissons Ratio (z) = 0.11091 0.37422
#
# Static dielectric constant tensor:
#      x y z
#    x 20.050030 0.000000 1.556650 
#    y 0.000000 3.691790 0.000000 
#    z 1.556650 0.000000 4.027410 
# 
# 
# High freq. dielectric constant tensor:
#      x y z
#    x 1.760680 0.000000 -0.040330 
#    y 0.000000 1.770320 0.000000 
#    z -0.040330 0.000000 1.784240 
# 
# From -- ./inp_files/52064.got.cif
#   From: 2010.06.25/outbox.cif.g09.slc.cpg/sg10_27_cif.got.tgz:52064.got - 2010.06.27 22:07:45.
