data_PCOD8063937
_publ_section_title
;
Structure prediction by ZEFSAII (Michael W. Deem and Ramdas Pophale) SiO2 
 PCOD8063937
Probable space group: P 2/M
;
_chemical_formula_sum "Si O2"
_cell_formula_units_Z 32
_cell_length_a 15.112944
_cell_length_b 9.348219
_cell_length_c 24.780982
_cell_angle_alpha 90.000000
_cell_angle_beta 28.009152
_cell_angle_gamma 90.000000
_cell_volume 1644.130163
_symmetry_space_group_name_H-M "P 2/M"
_symmetry_group_IT_number 10
_symmetry_cell_setting 'monoclinic'
loop_
_space_group_symop_operation_xyz
x,y,z
-x,y,-z
-x,-y,-z
x,-y,z
loop_
_atom_site_type_symbol
_atom_site_label
_atom_site_fract_x
_atom_site_fract_y
_atom_site_fract_z
Si Si1 0.470947 0.838543 0.270493
Si Si2 0.869536 0.829695 0.022042
Si Si3 0.284145 0.164983 0.109270
Si Si4 0.870579 0.161184 0.618552
Si Si5 0.017782 0.165920 0.156000
Si Si6 0.644711 0.667996 0.376160
Si Si7 0.376935 0.336008 0.424419
Si Si8 0.958661 0.333928 0.675239
O O1 0.665179 0.767082 0.146677
O O2 0.343083 0.836369 0.286378
O O3 0.377233 0.755844 0.370278
O O4 0.503440 0.000000 0.273638
O O5 0.862970 0.000000 0.022285
O O6 0.000000 0.773706 0.000000
O O7 0.939454 0.770943 0.926608
O O8 0.147209 0.256514 0.219786
O O9 0.207389 0.185581 0.089630
O O10 0.271457 0.000000 0.134282
O O11 0.500000 0.218406 0.000000
O O12 0.887351 0.271738 0.657457
O O13 0.000000 0.214191 0.500000
O O14 0.929321 0.000000 0.605029
O O15 0.842117 0.250506 0.276040
O O16 0.959811 0.000000 0.184544
O O17 0.500000 0.720092 0.500000
O O18 0.684869 0.500000 0.360906
O O19 0.551370 0.705400 0.368760
O O20 0.389664 0.500000 0.399729
O O21 0.182384 0.308277 0.561304
O O22 0.906784 0.500000 0.704962
#
# Coordination Sequence:
#
# PCOD8063937 Si02
#       8
#     4   4   4   4   4   4   4   4
#     4  10  20  34  57  83 110 149 190 232 283 343
#     4   9  18  33  55  84 115 145 182 231 283 335
#     4  10  23  41  62  85 113 152 196 245 293 342
#     4  10  20  35  56  85 117 151 191 237 289 344
#     4  10  21  38  60  87 115 147 191 240 287 339
#     4  10  21  38  59  81 111 150 188 229 287 347
#     4  10  21  36  55  82 115 150 186 234 288 343
#     4  11  23  38  59  84 116 154 194 241 290 344
#
# _framework density 19.463177999999999
#
# number of rings (size 3 to 8) (size 9 to 14) (size 15 to 20)
#    0.000    2.000    1.250    1.875    1.750    4.750 
#    0.000    0.625    0.000    2.250    0.000    0.000 
#    0.000    0.000    0.000    0.000    0.000    0.000 
#
# Total GULP energy -396845.893399 kJ/mol
# GULP energy per Si atom -12401.434169 kJ/mol
# Density = 1.941888 g / cm^3
# Si number density = 19.463178 Si / 1000 Ang^3
#
#
#
# Elastic Constant Matrix: (Units=GPa)
#
#
# Indices 1 2 3 4 5 6 
#
# 1 100.5560 32.2700 44.7983 0.0000 -4.0670 0.0000
# 2 32.2700 58.9846 39.9826 0.0000 2.6625 0.0000
# 3 44.7983 39.9826 120.1256 0.0000 -3.6208 0.0000
# 4 0.0000 0.0000 0.0000 0.4725 0.0000 10.0761
# 5 -4.0670 2.6625 -3.6208 0.0000 37.0582 0.0000
# 6 0.0000 0.0000 0.0000 10.0761 0.0000 15.1322
#
#
#
# Elastic Compliance Matrix: (Units=1/GPa)
#
#
# Indices 1 2 3 4 5 6 
#
# 1 0.013025 -0.005076 -0.003123 0.000000 0.001489 0.000000
# 2 -0.005076 0.024067 -0.006205 0.000000 -0.002892 0.000000
# 3 -0.003123 -0.006205 0.011592 0.000000 0.001236 0.000000
# 4 0.000000 0.000000 0.000000 -0.160337 0.000000 0.106764
# 5 0.001489 -0.002892 0.001236 0.000000 0.027477 0.000000
# 6 0.000000 0.000000 0.000000 0.106764 0.000000 -0.005006
#
#
# Mechanical properties :
#
#
# Convention : Reuss Voigt Hill
#
# Bulk Modulus (GPa) = 50.31131 57.08533 53.69832
# Shear Modulus (GPa) = -93.02386 21.37359 -35.82514
#
# Velocity S-wave (km/s) = -6.92088 3.31744 -4.29495
# Velocity P-wave (km/s) = 6.16110 6.63833 1.74761
#
# Compressibility (1/GPa) = 0.01987625
#
# Stress axis : x y z
#
# Youngs Moduli (GPa) = 76.77344 41.55040 86.26887
#
# Poissons Ratio (x) = 0.21092 0.26942
# Poissons Ratio (y) = 0.38973 0.53526
# Poissons Ratio (z) = 0.23977 0.25780
#
# Static dielectric constant tensor:
#      x y z
#    x 3.711030 0.000000 -0.067250 
#    y 0.000000 3.338830 0.000000 
#    z -0.067250 0.000000 3.632630 
# 
# 
# High freq. dielectric constant tensor:
#      x y z
#    x 1.768970 0.000000 -0.005770 
#    y 0.000000 1.733600 0.000000 
#    z -0.005770 0.000000 1.764190 
# 
# From -- ./inp_files/71688.got.cif
#   From: 2010.06.25/outbox.cif.g09.slc.cpg/sg10_36_cif.got.tgz:71688.got - 2010.06.27 22:07:45.
