data_PCOD8063845
_publ_section_title
;
Structure prediction by ZEFSAII (Michael W. Deem and Ramdas Pophale) SiO2 
 PCOD8063845
Probable space group: P 2/M
;
_chemical_formula_sum "Si O2"
_cell_formula_units_Z 28
_cell_length_a 14.930726
_cell_length_b 8.845446
_cell_length_c 19.104514
_cell_angle_alpha 90.000000
_cell_angle_beta 37.754639
_cell_angle_gamma 90.000000
_cell_volume 1544.854736
_symmetry_space_group_name_H-M "P 2/M"
_symmetry_group_IT_number 10
_symmetry_cell_setting 'monoclinic'
loop_
_space_group_symop_operation_xyz
x,y,z
-x,y,-z
-x,-y,-z
x,-y,z
loop_
_atom_site_type_symbol
_atom_site_label
_atom_site_fract_x
_atom_site_fract_y
_atom_site_fract_z
Si Si1 0.877526 0.175288 0.519484
Si Si2 0.006774 0.821829 0.161296
Si Si3 0.589121 0.665696 0.714579
Si Si4 0.247158 0.319822 0.772821
Si Si5 0.876698 0.680930 0.372107
Si Si6 0.438583 0.665123 0.433182
Si Si7 0.733573 0.322393 0.077804
O O1 0.720028 0.218558 0.650181
O O2 0.914806 0.269596 0.427085
O O3 0.000000 0.215906 0.500000
O O4 0.876423 0.000000 0.500549
O O5 0.881545 0.760261 0.188246
O O6 0.992718 0.750972 0.247240
O O7 0.995086 0.000000 0.173724
O O8 0.164115 0.774875 0.035501
O O9 0.630459 0.500000 0.719539
O O10 0.563812 0.648519 0.648295
O O11 0.432878 0.720171 0.841935
O O12 0.237165 0.500000 0.769022
O O13 0.404797 0.258186 0.644397
O O14 0.232224 0.276614 0.863368
O O15 0.879127 0.500000 0.367518
O O16 0.713885 0.745522 0.450352
O O17 0.438198 0.500000 0.468338
O O18 0.763239 0.500000 0.048647
#
# Coordination Sequence:
#
# PCOD8063845 Si02
#       7
#     4   4   4   4   4   4   4
#     4  10  20  34  55  84 113 133 151 187 246 309
#     4  12  24  33  44  69 105 139 171 211 260 304
#     4   8  15  30  53  78 100 127 168 209 242 285
#     4   9  17  32  52  71  94 129 175 219 254 292
#     4  10  20  36  55  73  97 132 174 211 247 296
#     4   7  13  28  50  72  92 121 164 212 253 288
#     4   9  18  34  54  73  96 133 180 219 248 286
#
# _framework density 18.124680999999999
#
# number of rings (size 3 to 8) (size 9 to 14) (size 15 to 20)
#    0.000    2.714    0.000    5.143    0.000    4.571 
#    0.000    9.286    0.000    0.857    0.000    6.000 
#    0.000    0.000    0.000    0.000    0.000    0.000 
#
# Total GULP energy -346940.175146 kJ/mol
# GULP energy per Si atom -12390.720541 kJ/mol
# Density = 1.808343 g / cm^3
# Si number density = 18.124681 Si / 1000 Ang^3
#
#
#
# Elastic Constant Matrix: (Units=GPa)
#
#
# Indices 1 2 3 4 5 6 
#
# 1 83.4636 40.3304 52.3073 0.0000 -14.9124 0.0000
# 2 40.3304 74.9170 50.7237 0.0000 -2.8636 0.0000
# 3 52.3073 50.7237 95.1843 0.0000 -2.3946 0.0000
# 4 0.0000 0.0000 0.0000 34.1185 0.0000 -7.6400
# 5 -14.9124 -2.8636 -2.3946 0.0000 18.3433 0.0000
# 6 0.0000 0.0000 0.0000 -7.6400 0.0000 28.1002
#
#
#
# Elastic Compliance Matrix: (Units=1/GPa)
#
#
# Indices 1 2 3 4 5 6 
#
# 1 0.023841 -0.005630 -0.009668 0.000000 0.017241 0.000000
# 2 -0.005630 0.022272 -0.008832 0.000000 -0.002253 0.000000
# 3 -0.009668 -0.008832 0.020360 0.000000 -0.006580 0.000000
# 4 0.000000 0.000000 0.000000 0.031210 0.000000 0.008485
# 5 0.017241 -0.002253 -0.006580 0.000000 0.067321 0.000000
# 6 0.000000 0.000000 0.000000 0.008485 0.000000 0.037894
#
#
# Mechanical properties :
#
#
# Convention : Reuss Voigt Hill
#
# Bulk Modulus (GPa) = 54.90163 60.03197 57.46680
# Shear Modulus (GPa) = 19.43807 23.45931 21.44869
#
# Velocity S-wave (km/s) = 3.27840 3.60158 3.44379
# Velocity P-wave (km/s) = 6.68486 7.10554 6.89841
#
# Compressibility (1/GPa) = 0.01821440
#
# Stress axis : x y z
#
# Youngs Moduli (GPa) = 41.94517 44.89849 49.11685
#
# Poissons Ratio (x) = 0.25276 0.47484
# Poissons Ratio (y) = 0.23614 0.43380
# Poissons Ratio (z) = 0.40551 0.39654
#
# Static dielectric constant tensor:
#      x y z
#    x 3.173030 0.000000 -0.297870 
#    y 0.000000 3.148480 0.000000 
#    z -0.297870 0.000000 3.690330 
# 
# 
# High freq. dielectric constant tensor:
#      x y z
#    x 1.675700 0.000000 -0.017900 
#    y 0.000000 1.680690 0.000000 
#    z -0.017900 0.000000 1.708250 
# 
# From -- ./inp_files/77729.got.cif
#   From: 2010.06.25/outbox.cif.g09.slc.cpg/sg10_39_cif.got.tgz:77729.got - 2010.06.27 22:07:45.
