data_PCOD8063800
_publ_section_title
;
Structure prediction by ZEFSAII (Michael W. Deem and Ramdas Pophale) SiO2 
 PCOD8063800
Probable space group: P 2/M
;
_chemical_formula_sum "Si O2"
_cell_formula_units_Z 28
_cell_length_a 18.097088
_cell_length_b 9.243225
_cell_length_c 15.224744
_cell_angle_alpha 90.000000
_cell_angle_beta 143.829794
_cell_angle_gamma 90.000000
_cell_volume 1503.041943
_symmetry_space_group_name_H-M "P 2/M"
_symmetry_group_IT_number 10
_symmetry_cell_setting 'monoclinic'
loop_
_space_group_symop_operation_xyz
x,y,z
-x,y,-z
-x,-y,-z
x,-y,z
loop_
_atom_site_type_symbol
_atom_site_label
_atom_site_fract_x
_atom_site_fract_y
_atom_site_fract_z
Si Si1 0.669092 0.170619 0.724733
Si Si2 0.407235 0.829410 0.538311
Si Si3 0.969408 0.166632 0.695474
Si Si4 0.362509 0.334161 0.842688
Si Si5 0.064594 0.172566 0.973594
Si Si6 0.725331 0.334627 0.434304
Si Si7 0.881006 0.166318 0.329448
O O1 0.672668 0.209683 0.624985
O O2 0.547569 0.231448 0.657841
O O3 0.660278 0.000000 0.723782
O O4 0.793290 0.231625 0.890009
O O5 0.351707 0.744482 0.565366
O O6 0.403187 0.000000 0.554375
O O7 0.858331 0.259055 0.547478
O O8 0.000462 0.228069 0.822567
O O9 0.088033 0.181682 0.744496
O O10 0.926288 0.000000 0.660585
O O11 0.351655 0.500000 0.863576
O O12 0.353617 0.320496 0.729830
O O13 0.248142 0.250009 0.778437
O O14 0.500000 0.271225 0.000000
O O15 0.062907 0.000000 0.973573
O O16 0.000000 0.233636 0.000000
O O17 0.747841 0.500000 0.482634
O O18 0.000000 0.226518 0.500000
O O19 0.858503 0.000000 0.334817
#
# Coordination Sequence:
#
# PCOD8063800 Si02
#       7
#     4   4   4   4   4   4   4
#     4   8  15  29  49  77 106 135 174 215 259 311
#     4   9  17  31  54  77 102 137 175 216 260 315
#     4  10  20  34  55  80 106 140 179 219 267 322
#     4  10  23  41  58  78 108 147 187 226 273 332
#     4   9  16  27  48  78 108 135 169 214 257 304
#     4  11  22  35  53  77 104 135 177 222 267 321
#     4  10  20  36  58  85 114 140 176 229 282 331
#
# _framework density 18.628886999999999
#
# number of rings (size 3 to 8) (size 9 to 14) (size 15 to 20)
#    0.000    2.429    1.429    2.143    0.000    5.143 
#    0.000    2.857    0.000    4.714    0.000    0.000 
#    0.000    0.000    0.000    0.000    0.000    0.000 
#
# Total GULP energy -347104.996854 kJ/mol
# GULP energy per Si atom -12396.607030 kJ/mol
# Density = 1.858649 g / cm^3
# Si number density = 18.628887 Si / 1000 Ang^3
#
#
#
# Elastic Constant Matrix: (Units=GPa)
#
#
# Indices 1 2 3 4 5 6 
#
# 1 116.0944 45.8174 45.0678 0.0000 4.1456 0.0000
# 2 45.8174 60.7849 37.3372 0.0000 5.7729 0.0000
# 3 45.0678 37.3372 121.6161 0.0000 14.3005 0.0000
# 4 0.0000 0.0000 0.0000 18.3853 0.0000 1.3446
# 5 4.1456 5.7729 14.3005 0.0000 31.4465 0.0000
# 6 0.0000 0.0000 0.0000 1.3446 0.0000 9.4668
#
#
#
# Elastic Compliance Matrix: (Units=1/GPa)
#
#
# Indices 1 2 3 4 5 6 
#
# 1 0.012736 -0.008283 -0.002280 0.000000 0.000878 0.000000
# 2 -0.008283 0.025688 -0.004639 0.000000 -0.001514 0.000000
# 3 -0.002280 -0.004639 0.010941 0.000000 -0.003823 0.000000
# 4 0.000000 0.000000 0.000000 0.054962 0.000000 -0.007807
# 5 0.000878 -0.001514 -0.003823 0.000000 0.033701 0.000000
# 6 0.000000 0.000000 0.000000 -0.007807 0.000000 0.106741
#
#
# Mechanical properties :
#
#
# Convention : Reuss Voigt Hill
#
# Bulk Modulus (GPa) = 52.73796 61.66003 57.19899
# Shear Modulus (GPa) = 17.76228 23.21125 20.48677
#
# Velocity S-wave (km/s) = 3.09120 3.53368 3.31982
# Velocity P-wave (km/s) = 6.41186 7.05834 6.74285
#
# Compressibility (1/GPa) = 0.01896167
#
# Stress axis : x y z
#
# Youngs Moduli (GPa) = 78.51490 38.92827 91.39658
#
# Poissons Ratio (x) = 0.32245 0.20839
# Poissons Ratio (y) = 0.65035 0.42398
# Poissons Ratio (z) = 0.17902 0.18059
#
# Static dielectric constant tensor:
#      x y z
#    x 3.534420 0.000000 0.132870 
#    y 0.000000 3.095650 0.000000 
#    z 0.132870 0.000000 3.791840 
# 
# 
# High freq. dielectric constant tensor:
#      x y z
#    x 1.735200 0.000000 0.001100 
#    y 0.000000 1.680460 0.000000 
#    z 0.001100 0.000000 1.727330 
# 
# From -- ./inp_files/68719.got.cif
#   From: 2010.06.25/outbox.cif.g09.slc.cpg/sg10_35_cif.got.tgz:68719.got - 2010.06.27 22:07:45.
