data_PCOD8063997
_publ_section_title
;
Structure prediction by ZEFSAII (Michael W. Deem and Ramdas Pophale) SiO2 
 PCOD8063997
Probable space group: P 2/M
;
_chemical_formula_sum "Si O2"
_cell_formula_units_Z 32
_cell_length_a 24.382776
_cell_length_b 8.797347
_cell_length_c 24.304792
_cell_angle_alpha 90.000000
_cell_angle_beta 18.372795
_cell_angle_gamma 90.000000
_cell_volume 1643.277337
_symmetry_space_group_name_H-M "P 2/M"
_symmetry_group_IT_number 10
_symmetry_cell_setting 'monoclinic'
loop_
_space_group_symop_operation_xyz
x,y,z
-x,y,-z
-x,-y,-z
x,-y,z
loop_
_atom_site_type_symbol
_atom_site_label
_atom_site_fract_x
_atom_site_fract_y
_atom_site_fract_z
Si Si1 0.133046 0.819119 0.117442
Si Si2 0.054804 0.677856 0.075672
Si Si3 0.715242 0.175730 0.353160
Si Si4 0.522083 0.180062 0.152825
Si Si5 0.576677 0.172106 0.981660
Si Si6 0.321254 0.824163 0.739959
Si Si7 0.857816 0.819937 0.467088
Si Si8 0.978086 0.172092 0.580318
O O1 0.109100 0.759326 0.079489
O O2 0.978257 0.754908 0.303663
O O3 0.131712 0.000000 0.116787
O O4 0.316386 0.755091 0.966153
O O5 0.060278 0.500000 0.079730
O O6 0.859056 0.723492 0.246093
O O7 0.193946 0.721206 0.896749
O O8 0.723402 0.208085 0.280702
O O9 0.523428 0.217557 0.558935
O O10 0.756150 0.000000 0.326296
O O11 0.342632 0.222928 0.354602
O O12 0.546104 0.000000 0.124398
O O13 0.515891 0.249907 0.096720
O O14 0.782244 0.177199 0.786523
O O15 0.504333 0.000000 0.049671
O O16 0.500000 0.255877 0.000000
O O17 0.287581 0.000000 0.786524
O O18 0.910708 0.750164 0.476490
O O19 0.886446 0.000000 0.442813
O O20 0.000000 0.255690 0.500000
O O21 0.046503 0.000000 0.507613
#
# Coordination Sequence:
#
# PCOD8063997 Si02
#       8
#     4   4   4   4   4   4   4   4
#     4  10  20  35  51  68  96 137 186 232 268 318
#     4  12  25  37  54  83 118 154 192 234 286 336
#     4   9  19  38  64  91 118 150 189 231 275 328
#     4   9  16  27  43  63  88 123 167 214 265 320
#     4   9  14  20  32  55  89 125 156 193 252 328
#     4   9  19  38  64  91 118 150 189 231 275 328
#     4   9  16  27  43  63  88 123 167 214 265 320
#     4   9  14  20  32  55  89 125 156 193 252 328
#
# _framework density 19.473282000000001
#
# number of rings (size 3 to 8) (size 9 to 14) (size 15 to 20)
#    0.000    2.500    1.250    3.000    0.000    6.500 
#    0.000    3.750    0.000    0.000    0.000    0.000 
#    0.000    1.000    0.000    0.000    0.000    0.000 
#
# Total GULP energy -396633.597452 kJ/mol
# GULP energy per Si atom -12394.799920 kJ/mol
# Density = 1.942896 g / cm^3
# Si number density = 19.473282 Si / 1000 Ang^3
#
#
#
# Elastic Constant Matrix: (Units=GPa)
#
#
# Indices 1 2 3 4 5 6 
#
# 1 99.2155 13.2562 41.6783 0.0000 -20.7802 0.0000
# 2 13.2562 20.1541 18.1078 0.0000 -2.6706 0.0000
# 3 41.6783 18.1078 103.8893 0.0000 -24.9556 0.0000
# 4 0.0000 0.0000 0.0000 9.1750 0.0000 -0.5029
# 5 -20.7802 -2.6706 -24.9556 0.0000 22.7125 0.0000
# 6 0.0000 0.0000 0.0000 -0.5029 0.0000 -4.8653
#
#
#
# Elastic Compliance Matrix: (Units=1/GPa)
#
#
# Indices 1 2 3 4 5 6 
#
# 1 0.013777 -0.005790 -0.002246 0.000000 0.009456 0.000000
# 2 -0.005790 0.061854 -0.010846 0.000000 -0.009942 0.000000
# 3 -0.002246 -0.010846 0.015783 0.000000 0.014011 0.000000
# 4 0.000000 0.000000 0.000000 0.108378 0.000000 -0.011202
# 5 0.009456 -0.009942 0.014011 0.000000 0.066906 0.000000
# 6 0.000000 0.000000 0.000000 -0.011202 0.000000 -0.204381
#
#
# Mechanical properties :
#
#
# Convention : Reuss Voigt Hill
#
# Bulk Modulus (GPa) = 18.64016 41.03816 29.83916
# Shear Modulus (GPa) = 42.38564 15.41890 28.90227
#
# Velocity S-wave (km/s) = 4.67047 2.81694 3.85671
# Velocity P-wave (km/s) = 6.21911 5.63028 5.93201
#
# Compressibility (1/GPa) = 0.05364760
#
# Stress axis : x y z
#
# Youngs Moduli (GPa) = 72.58588 16.16714 63.35935
#
# Poissons Ratio (x) = 0.09361 0.14233
# Poissons Ratio (y) = 0.42029 0.68722
# Poissons Ratio (z) = 0.16305 0.17535
#
# Static dielectric constant tensor:
#      x y z
#    x 3.688290 0.000000 -0.025220 
#    y 0.000000 2.863560 0.000000 
#    z -0.025220 0.000000 3.714810 
# 
# 
# High freq. dielectric constant tensor:
#      x y z
#    x 1.768710 0.000000 -0.002870 
#    y 0.000000 1.677020 0.000000 
#    z -0.002870 0.000000 1.776000 
# 
# From -- ./inp_files/90585.got.cif
#   From: 2010.06.25/outbox.cif.g09.slc.cpg/sg10_46_cif.got.tgz:90585.got - 2010.06.27 22:07:45.
