data_PCOD8063407
_publ_section_title
;
Structure prediction by ZEFSAII (Michael W. Deem and Ramdas Pophale) SiO2 
 PCOD8063407
Probable space group: P 2/M
;
_chemical_formula_sum "Si O2"
_cell_formula_units_Z 32
_cell_length_a 22.798187
_cell_length_b 8.752402
_cell_length_c 9.309994
_cell_angle_alpha 90.000000
_cell_angle_beta 60.517939
_cell_angle_gamma 90.000000
_cell_volume 1617.151278
_symmetry_space_group_name_H-M "P 2/M"
_symmetry_group_IT_number 10
_symmetry_cell_setting 'monoclinic'
loop_
_space_group_symop_operation_xyz
x,y,z
-x,y,-z
-x,-y,-z
x,-y,z
loop_
_atom_site_type_symbol
_atom_site_label
_atom_site_fract_x
_atom_site_fract_y
_atom_site_fract_z
Si Si1 0.311055 0.181699 0.041283
Si Si2 0.065537 0.819452 0.333597
Si Si3 0.537328 0.818427 0.096500
Si Si4 0.191589 0.678081 0.682805
Si Si5 0.938584 0.321318 0.975066
Si Si6 0.553707 0.166789 0.555892
Si Si7 0.810472 0.319797 0.645512
Si Si8 0.691678 0.180765 0.278538
O O1 0.261370 0.260182 0.213924
O O2 0.304919 0.000000 0.065576
O O3 0.386226 0.242136 0.987097
O O4 0.292015 0.237400 0.902798
O O5 0.131127 0.751131 0.328667
O O6 0.000000 0.762723 0.500000
O O7 0.072026 0.000000 0.329569
O O8 0.060513 0.767876 0.175238
O O9 0.487549 0.740956 0.273452
O O10 0.540348 0.000000 0.116038
O O11 0.500000 0.766903 0.000000
O O12 0.208959 0.500000 0.670321
O O13 0.127316 0.719940 0.855273
O O14 0.179530 0.728668 0.532751
O O15 0.252678 0.772061 0.674808
O O16 0.943958 0.500000 0.933292
O O17 0.000000 0.266266 0.000000
O O18 0.500000 0.138162 0.500000
O O19 0.620494 0.253029 0.417950
O O20 0.576951 0.000000 0.588103
O O21 0.813869 0.500000 0.659275
O O22 0.684668 0.000000 0.279252
#
# Coordination Sequence:
#
# PCOD8063407 Si02
#       8
#     4   4   4   4   4   4   4   4
#     4  10  20  35  55  84 117 147 187 240 292 343
#     4  11  24  41  63  93 125 153 185 232 286 335
#     4   9  17  28  47  77 111 145 184 232 286 344
#     4  10  23  40  57  82 114 148 191 240 281 329
#     4  10  21  40  66  91 117 155 199 235 273 329
#     4   9  15  28  48  74 107 141 182 231 281 338
#     4  11  24  41  60  82 114 156 197 234 280 341
#     4  10  20  33  55  83 111 146 187 234 288 344
#
# _framework density 19.787884999999999
#
# number of rings (size 3 to 8) (size 9 to 14) (size 15 to 20)
#    0.000    2.000    1.250    2.250    1.750    6.250 
#    0.000    0.000    0.000    1.500    0.000    0.000 
#    0.000    0.000    0.000    0.000    0.000    0.000 
#
# Total GULP energy -396672.591685 kJ/mol
# GULP energy per Si atom -12396.018490 kJ/mol
# Density = 1.974285 g / cm^3
# Si number density = 19.787885 Si / 1000 Ang^3
#
#
#
# Elastic Constant Matrix: (Units=GPa)
#
#
# Indices 1 2 3 4 5 6 
#
# 1 135.2354 29.0407 65.7753 0.0000 3.1913 0.0000
# 2 29.0407 34.3247 37.1764 0.0000 0.9855 0.0000
# 3 65.7753 37.1764 173.7088 0.0000 -1.7249 0.0000
# 4 0.0000 0.0000 0.0000 22.1432 0.0000 7.1564
# 5 3.1913 0.9855 -1.7249 0.0000 40.1439 0.0000
# 6 0.0000 0.0000 0.0000 7.1564 0.0000 12.9634
#
#
#
# Elastic Compliance Matrix: (Units=1/GPa)
#
#
# Indices 1 2 3 4 5 6 
#
# 1 0.009842 -0.005547 -0.002547 0.000000 -0.000756 0.000000
# 2 -0.005547 0.041116 -0.006708 0.000000 -0.000857 0.000000
# 3 -0.002547 -0.006708 0.008164 0.000000 0.000718 0.000000
# 4 0.000000 0.000000 0.000000 0.054968 0.000000 -0.030345
# 5 -0.000756 -0.000857 0.000718 0.000000 0.025022 0.000000
# 6 0.000000 0.000000 0.000000 -0.030345 0.000000 0.093892
#
#
# Mechanical properties :
#
#
# Convention : Reuss Voigt Hill
#
# Bulk Modulus (GPa) = 33.87650 67.47263 50.67456
# Shear Modulus (GPa) = 18.35221 29.13522 23.74371
#
# Velocity S-wave (km/s) = 3.04870 3.84132 3.46773
# Velocity P-wave (km/s) = 5.43597 7.33800 6.45740
#
# Compressibility (1/GPa) = 0.02951899
#
# Stress axis : x y z
#
# Youngs Moduli (GPa) = 101.60151 24.32156 122.48942
#
# Poissons Ratio (x) = 0.13490 0.31202
# Poissons Ratio (y) = 0.56354 0.82162
# Poissons Ratio (z) = 0.25881 0.16314
#
# Static dielectric constant tensor:
#      x y z
#    x 3.687580 0.000000 -0.139900 
#    y 0.000000 3.213890 0.000000 
#    z -0.139900 0.000000 3.933200 
# 
# 
# High freq. dielectric constant tensor:
#      x y z
#    x 1.784720 0.000000 -0.004200 
#    y 0.000000 1.729490 0.000000 
#    z -0.004200 0.000000 1.795440 
# 
# From -- ./inp_files/35799.got.cif
#   From: 2010.06.25/outbox.cif.g09.slc.cpg/sg10_18_cif.got.tgz:35799.got - 2010.06.27 22:07:45.
