data_PCOD8063197
_publ_section_title
;
Structure prediction by ZEFSAII (Michael W. Deem and Ramdas Pophale) SiO2 
 PCOD8063197
Probable space group: P 2/M
;
_chemical_formula_sum "Si O2"
_cell_formula_units_Z 28
_cell_length_a 20.676102
_cell_length_b 9.416236
_cell_length_c 23.585073
_cell_angle_alpha 90.000000
_cell_angle_beta 19.183537
_cell_angle_gamma 90.000000
_cell_volume 1508.844726
_symmetry_space_group_name_H-M "P 2/M"
_symmetry_group_IT_number 10
_symmetry_cell_setting 'monoclinic'
loop_
_space_group_symop_operation_xyz
x,y,z
-x,y,-z
-x,-y,-z
x,-y,z
loop_
_atom_site_type_symbol
_atom_site_label
_atom_site_fract_x
_atom_site_fract_y
_atom_site_fract_z
Si Si1 0.287005 0.847692 0.648247
Si Si2 0.115671 0.165072 0.259879
Si Si3 0.200716 0.332314 0.300941
Si Si4 0.328636 0.166990 0.388206
Si Si5 0.505722 0.164159 0.122187
Si Si6 0.213585 0.347774 0.803625
Si Si7 0.496700 0.834544 0.365674
O O1 0.500000 0.859170 0.500000
O O2 0.178022 0.723599 0.771563
O O3 0.310683 0.813141 0.561997
O O4 0.177348 0.000000 0.746239
O O5 0.200914 0.258969 0.239866
O O6 0.896433 0.223371 0.427962
O O7 0.108398 0.000000 0.284782
O O8 0.262038 0.183574 0.084568
O O9 0.233344 0.500000 0.266781
O O10 0.381819 0.266412 0.184780
O O11 0.000000 0.297367 0.500000
O O12 0.458385 0.210001 0.226063
O O13 0.435957 0.229833 0.354962
O O14 0.317926 0.000000 0.404719
O O15 0.442104 0.000000 0.165208
O O16 0.326059 0.500000 0.703908
O O17 0.317998 0.249706 0.763519
O O18 0.000000 0.383197 0.000000
O O19 0.556340 0.000000 0.312763
#
# Coordination Sequence:
#
# PCOD8063197 Si02
#       7
#     4   4   4   4   4   4   4
#     4   8  15  29  50  74  97 124 162 206 250 298
#     4  10  20  35  57  81 105 137 178 220 266 318
#     4  11  22  35  54  79 107 142 181 222 271 314
#     4   9  18  35  55  78 111 140 170 219 263 313
#     4  10  20  35  57  82 105 138 180 217 266 319
#     4  10  20  33  50  75 106 136 171 213 254 301
#     4   9  18  34  54  77 103 133 169 209 260 310
#
# _framework density 18.557245000000002
#
# number of rings (size 3 to 8) (size 9 to 14) (size 15 to 20)
#    0.000    2.429    1.429    2.143    0.000    6.571 
#    2.571    1.429    0.000    0.000    0.000    0.000 
#    0.000    0.000    0.000    0.000    0.000    0.000 
#
# Total GULP energy -346987.364420 kJ/mol
# GULP energy per Si atom -12392.405872 kJ/mol
# Density = 1.851501 g / cm^3
# Si number density = 18.557245 Si / 1000 Ang^3
#
#
#
# Elastic Constant Matrix: (Units=GPa)
#
#
# Indices 1 2 3 4 5 6 
#
# 1 132.7775 46.3325 43.9734 0.0000 18.3078 0.0000
# 2 46.3325 86.7664 37.3280 0.0000 7.1139 0.0000
# 3 43.9734 37.3280 97.6418 0.0000 19.6046 0.0000
# 4 0.0000 0.0000 0.0000 20.1664 0.0000 -2.4220
# 5 18.3078 7.1139 19.6046 0.0000 22.7674 0.0000
# 6 0.0000 0.0000 0.0000 -2.4220 0.0000 -54.2073
#
#
#
# Elastic Compliance Matrix: (Units=1/GPa)
#
#
# Indices 1 2 3 4 5 6 
#
# 1 0.010414 -0.004269 -0.001988 0.000000 -0.005328 0.000000
# 2 -0.004269 0.015545 -0.004515 0.000000 0.002463 0.000000
# 3 -0.001988 -0.004515 0.014821 0.000000 -0.009753 0.000000
# 4 0.000000 0.000000 0.000000 0.049323 0.000000 -0.002204
# 5 -0.005328 0.002463 -0.009753 0.000000 0.055835 0.000000
# 6 0.000000 0.000000 0.000000 -0.002204 0.000000 -0.018349
#
#
# Mechanical properties :
#
#
# Convention : Reuss Voigt Hill
#
# Bulk Modulus (GPa) = 51.98478 63.60595 57.79536
# Shear Modulus (GPa) = 32.14498 10.38210 21.26354
#
# Velocity S-wave (km/s) = 4.16649 2.36786 3.38869
# Velocity P-wave (km/s) = 7.15683 6.46728 6.82077
#
# Compressibility (1/GPa) = 0.01923640
#
# Stress axis : x y z
#
# Youngs Moduli (GPa) = 96.02298 64.32888 67.47139
#
# Poissons Ratio (x) = 0.27461 0.13415
# Poissons Ratio (y) = 0.40991 0.30463
# Poissons Ratio (z) = 0.19092 0.29044
#
# Static dielectric constant tensor:
#      x y z
#    x 3.695570 0.000000 0.316660 
#    y 0.000000 3.412230 0.000000 
#    z 0.316660 0.000000 3.458060 
# 
# 
# High freq. dielectric constant tensor:
#      x y z
#    x 1.710150 0.000000 0.018930 
#    y 0.000000 1.707090 0.000000 
#    z 0.018930 0.000000 1.713850 
# 
# From -- ./inp_files/90352.got.cif
#   From: 2010.06.25/outbox.cif.g09.slc.cpg/sg10_46_cif.got.tgz:90352.got - 2010.06.27 22:07:45.
