data_PCOD8063967
_publ_section_title
;
Structure prediction by ZEFSAII (Michael W. Deem and Ramdas Pophale) SiO2 
 PCOD8063967
Probable space group: P 2/M
;
_chemical_formula_sum "Si O2"
_cell_formula_units_Z 28
_cell_length_a 8.174792
_cell_length_b 13.980321
_cell_length_c 14.675596
_cell_angle_alpha 90.000000
_cell_angle_beta 55.323759
_cell_angle_gamma 90.000000
_cell_volume 1379.310876
_symmetry_space_group_name_H-M "P 2/M"
_symmetry_group_IT_number 10
_symmetry_cell_setting 'monoclinic'
loop_
_space_group_symop_operation_xyz
x,y,z
-x,y,-z
-x,-y,-z
x,-y,z
loop_
_atom_site_type_symbol
_atom_site_label
_atom_site_fract_x
_atom_site_fract_y
_atom_site_fract_z
Si Si1 0.914713 0.388711 0.127860
Si Si2 0.724687 0.604164 0.455573
Si Si3 0.362303 0.892582 0.958776
Si Si4 0.380288 0.781779 0.774735
Si Si5 0.206546 0.716502 0.396668
Si Si6 0.978248 0.107195 0.190220
Si Si7 0.048043 0.706756 0.257089
O O1 0.863139 0.500000 0.163191
O O2 0.716138 0.324303 0.199110
O O3 0.078158 0.350356 0.151277
O O4 0.000000 0.375023 0.000000
O O5 0.500000 0.606870 0.500000
O O6 0.817604 0.500000 0.406227
O O7 0.757550 0.624449 0.551868
O O8 0.824799 0.682367 0.359192
O O9 0.128585 0.888561 0.057350
O O10 0.415407 0.000000 0.907880
O O11 0.500000 0.864973 0.000000
O O12 0.410795 0.813415 0.868880
O O13 0.597789 0.783518 0.657691
O O14 0.239868 0.859814 0.771504
O O15 0.000000 0.766479 0.500000
O O16 0.192260 0.679679 0.295720
O O17 0.062446 0.178771 0.240335
O O18 0.967368 0.000000 0.234048
#
# Coordination Sequence:
#
# PCOD8063967 Si02
#       7
#     4   4   4   4   4   4   4
#     4  10  21  36  55  83 118 155 193 231 283 357
#     4  10  20  36  60  86 110 142 192 248 294 341
#     4  10  20  34  57  89 119 149 189 236 287 344
#     4  11  20  35  58  80 113 152 192 240 292 342
#     4  10  23  38  57  84 114 147 192 247 300 343
#     4  10  20  35  58  87 115 148 192 234 279 344
#     4  10  20  36  57  80 113 152 187 234 293 341
#
# _framework density 20.299990999999999
#
# number of rings (size 3 to 8) (size 9 to 14) (size 15 to 20)
#    0.000    1.857    0.000    5.571    0.000    6.000 
#    0.000    0.714    0.000   21.857    0.000    0.000 
#    0.000    0.000    0.000    0.000    0.000    0.000 
#
# Total GULP energy -346950.758463 kJ/mol
# GULP energy per Si atom -12391.098517 kJ/mol
# Density = 2.025379 g / cm^3
# Si number density = 20.299991 Si / 1000 Ang^3
#
#
#
# Elastic Constant Matrix: (Units=GPa)
#
#
# Indices 1 2 3 4 5 6 
#
# 1 93.2993 25.4589 36.3395 0.0000 5.8612 0.0000
# 2 25.4589 130.3718 34.7632 0.0000 5.2314 0.0000
# 3 36.3395 34.7632 81.4812 0.0000 2.0461 0.0000
# 4 0.0000 0.0000 0.0000 -8.9555 0.0000 59.1535
# 5 5.8612 5.2314 2.0461 0.0000 48.5618 0.0000
# 6 0.0000 0.0000 0.0000 59.1535 0.0000 -94.8180
#
#
#
# Elastic Compliance Matrix: (Units=1/GPa)
#
#
# Indices 1 2 3 4 5 6 
#
# 1 0.013192 -0.001090 -0.005387 0.000000 -0.001248 0.000000
# 2 -0.001090 0.008774 -0.003241 0.000000 -0.000677 0.000000
# 3 -0.005387 -0.003241 0.016050 0.000000 0.000323 0.000000
# 4 0.000000 0.000000 0.000000 0.035780 0.000000 0.022322
# 5 -0.001248 -0.000677 0.000323 0.000000 0.020802 0.000000
# 6 0.000000 0.000000 0.000000 0.022322 0.000000 0.003379
#
#
# Mechanical properties :
#
#
# Convention : Reuss Voigt Hill
#
# Bulk Modulus (GPa) = 53.81690 55.36394 54.59042
# Shear Modulus (GPa) = 40.45059 2.86371 21.65715
#
# Velocity S-wave (km/s) = 4.46874 1.18901 3.26982
# Velocity P-wave (km/s) = 7.29346 5.40528 6.41918
#
# Compressibility (1/GPa) = 0.01858153
#
# Stress axis : x y z
#
# Youngs Moduli (GPa) = 75.80208 113.96786 62.30563
#
# Poissons Ratio (x) = 0.12418 0.33566
# Poissons Ratio (y) = 0.08259 0.20191
# Poissons Ratio (z) = 0.40837 0.36932
#
# Static dielectric constant tensor:
#      x y z
#    x 3.869680 0.000000 0.090750 
#    y 0.000000 3.841120 0.000000 
#    z 0.090750 0.000000 3.724070 
# 
# 
# High freq. dielectric constant tensor:
#      x y z
#    x 1.803710 0.000000 0.009980 
#    y 0.000000 1.778930 0.000000 
#    z 0.009980 0.000000 1.781740 
# 
# From -- ./inp_files/61781.got.cif
#   From: 2010.06.25/outbox.cif.g09.slc.cpg/sg10_31_cif.got.tgz:61781.got - 2010.06.27 22:07:45.
