data_PCOD8063004
_publ_section_title
;
Structure prediction by ZEFSAII (Michael W. Deem and Ramdas Pophale) SiO2 
 PCOD8063004
Probable space group: P 2/M
;
_chemical_formula_sum "Si O2"
_cell_formula_units_Z 32
_cell_length_a 12.472258
_cell_length_b 9.302117
_cell_length_c 22.969456
_cell_angle_alpha 90.000000
_cell_angle_beta 136.739062
_cell_angle_gamma 90.000000
_cell_volume 1826.300693
_symmetry_space_group_name_H-M "P 2/M"
_symmetry_group_IT_number 10
_symmetry_cell_setting 'monoclinic'
loop_
_space_group_symop_operation_xyz
x,y,z
-x,y,-z
-x,-y,-z
x,-y,z
loop_
_atom_site_type_symbol
_atom_site_label
_atom_site_fract_x
_atom_site_fract_y
_atom_site_fract_z
Si Si1 0.342756 0.667903 0.466239
Si Si2 0.886103 0.167464 0.319094
Si Si3 0.970448 0.332070 0.857582
Si Si4 0.197391 0.164374 0.505221
Si Si5 0.361580 0.834769 0.687149
Si Si6 0.848909 0.162020 0.980200
Si Si7 0.327452 0.669072 0.182719
Si Si8 0.969859 0.667491 0.723621
O O1 0.500000 0.728331 0.500000
O O2 0.354978 0.500000 0.483113
O O3 0.325049 0.743350 0.521204
O O4 0.201085 0.707719 0.367441
O O5 0.720475 0.204596 0.283890
O O6 0.023380 0.214732 0.418229
O O7 0.899514 0.251252 0.263189
O O8 0.897421 0.000000 0.309382
O O9 0.008385 0.500000 0.880116
O O10 0.800321 0.297916 0.817784
O O11 0.974108 0.282855 0.792139
O O12 0.107302 0.242104 0.942768
O O13 0.227603 0.187725 0.585431
O O14 0.221949 0.000000 0.497015
O O15 0.506400 0.730762 0.730980
O O16 0.420175 0.000000 0.710275
O O17 0.715154 0.251915 0.894508
O O18 0.789330 0.000000 0.969752
O O19 0.000000 0.157587 0.000000
O O20 0.340663 0.500000 0.175998
O O21 0.005247 0.500000 0.731859
#
# Coordination Sequence:
#
# PCOD8063004 Si02
#       8
#     4   4   4   4   4   4   4   4
#     4   9  18  30  46  66  97 134 164 199 244 289
#     4   9  18  34  52  69  94 130 171 210 250 292
#     4   9  18  32  51  74 102 132 163 197 239 296
#     4   9  18  32  49  69  93 127 170 209 248 291
#     4  10  20  33  50  72  99 130 165 210 254 291
#     4   9  17  31  51  74 102 131 160 196 241 291
#     4  10  20  32  50  76 104 132 162 196 243 298
#     4   9  18  32  49  71  97 129 166 204 243 287
#
# _framework density 17.521758999999999
#
# number of rings (size 3 to 8) (size 9 to 14) (size 15 to 20)
#    0.000    2.750    0.000    1.125    1.750    5.250 
#    0.000    0.000    0.000    4.500    0.000    5.250 
#    0.000    0.000    0.000    0.000    0.000    0.000 
#
# Total GULP energy -396773.227919 kJ/mol
# GULP energy per Si atom -12399.163372 kJ/mol
# Density = 1.748188 g / cm^3
# Si number density = 17.521759 Si / 1000 Ang^3
#
#
#
# Elastic Constant Matrix: (Units=GPa)
#
#
# Indices 1 2 3 4 5 6 
#
# 1 83.2520 37.6364 34.7662 0.0000 -18.3364 0.0000
# 2 37.6364 66.8473 38.3322 0.0000 -9.6132 0.0000
# 3 34.7662 38.3322 77.1161 0.0000 -17.9801 0.0000
# 4 0.0000 0.0000 0.0000 29.7505 0.0000 -1.6243
# 5 -18.3364 -9.6132 -17.9801 0.0000 24.6113 0.0000
# 6 0.0000 0.0000 0.0000 -1.6243 0.0000 28.2321
#
#
#
# Elastic Compliance Matrix: (Units=1/GPa)
#
#
# Indices 1 2 3 4 5 6 
#
# 1 0.018496 -0.007750 -0.002385 0.000000 0.009010 0.000000
# 2 -0.007750 0.024181 -0.009244 0.000000 -0.003083 0.000000
# 3 -0.002385 -0.009244 0.020950 0.000000 0.009918 0.000000
# 4 0.000000 0.000000 0.000000 0.033719 0.000000 0.001940
# 5 0.009010 -0.003083 0.009918 0.000000 0.053386 0.000000
# 6 0.000000 0.000000 0.000000 0.001940 0.000000 0.035532
#
#
# Mechanical properties :
#
#
# Convention : Reuss Voigt Hill
#
# Bulk Modulus (GPa) = 40.21321 49.85392 45.03356
# Shear Modulus (GPa) = 21.43045 24.28412 22.85729
#
# Velocity S-wave (km/s) = 3.50105 3.72686 3.61572
# Velocity P-wave (km/s) = 6.27243 6.85811 6.57180
#
# Compressibility (1/GPa) = 0.02486745
#
# Stress axis : x y z
#
# Youngs Moduli (GPa) = 54.06549 41.35563 47.73214
#
# Poissons Ratio (x) = 0.32051 0.11386
# Poissons Ratio (y) = 0.41901 0.44125
# Poissons Ratio (z) = 0.12897 0.38230
#
# Static dielectric constant tensor:
#      x y z
#    x 3.198920 0.000000 -0.098660 
#    y 0.000000 3.261540 0.000000 
#    z -0.098660 0.000000 3.197880 
# 
# 
# High freq. dielectric constant tensor:
#      x y z
#    x 1.661320 0.000000 -0.007470 
#    y 0.000000 1.676630 0.000000 
#    z -0.007470 0.000000 1.665970 
# 
# From -- ./inp_files/54817.got.cif
#   From: 2010.06.25/outbox.cif.g09.slc.cpg/sg10_28_cif.got.tgz:54817.got - 2010.06.27 22:07:45.
