data_PCOD8063767
_publ_section_title
;
Structure prediction by ZEFSAII (Michael W. Deem and Ramdas Pophale) SiO2 
 PCOD8063767
Probable space group: P 2/M
;
_chemical_formula_sum "Si O2"
_cell_formula_units_Z 32
_cell_length_a 33.000502
_cell_length_b 9.000317
_cell_length_c 11.468793
_cell_angle_alpha 90.000000
_cell_angle_beta 150.282760
_cell_angle_gamma 90.000000
_cell_volume 1688.622294
_symmetry_space_group_name_H-M "P 2/M"
_symmetry_group_IT_number 10
_symmetry_cell_setting 'monoclinic'
loop_
_space_group_symop_operation_xyz
x,y,z
-x,y,-z
-x,-y,-z
x,-y,z
loop_
_atom_site_type_symbol
_atom_site_label
_atom_site_fract_x
_atom_site_fract_y
_atom_site_fract_z
Si Si1 0.682076 0.674269 0.524891
Si Si2 0.029888 0.668821 0.762071
Si Si3 0.084617 0.330972 0.156102
Si Si4 0.772584 0.827115 0.359756
Si Si5 0.138380 0.169357 0.650834
Si Si6 0.367145 0.325803 0.859832
Si Si7 0.167281 0.171223 0.983986
Si Si8 0.474861 0.167349 0.803404
O O1 0.676756 0.500000 0.533169
O O2 0.671798 0.713309 0.363051
O O3 0.769101 0.733040 0.783681
O O4 0.611838 0.750963 0.427146
O O5 0.026162 0.500000 0.707385
O O6 0.938516 0.723737 0.555703
O O7 0.081184 0.678984 0.008854
O O8 0.075816 0.769476 0.781351
O O9 0.103270 0.500000 0.243283
O O10 0.155408 0.222855 0.374705
O O11 0.000000 0.275053 0.000000
O O12 0.796042 0.791415 0.284937
O O13 0.690390 0.738003 0.182967
O O14 0.756151 0.000000 0.339643
O O15 0.107378 0.000000 0.559941
O O16 0.183136 0.192403 0.886183
O O17 0.377293 0.500000 0.901809
O O18 0.456216 0.252663 0.097957
O O19 0.174310 0.000000 0.039076
O O20 0.466401 0.000000 0.734663
O O21 0.500000 0.169388 0.000000
#
# Coordination Sequence:
#
# PCOD8063767 Si02
#       8
#     4   4   4   4   4   4   4   4
#     4  10  20  35  55  82 113 142 174 213 261 315
#     4  11  22  36  56  79 103 134 177 224 269 319
#     4  10  20  35  52  74 105 138 169 211 268 319
#     4  11  22  35  54  78 105 139 182 222 261 315
#     4  10  23  40  54  72 102 141 181 224 270 313
#     4  10  20  34  54  82 115 144 171 210 263 316
#     4  11  23  38  55  75 104 140 179 223 269 313
#     4   9  17  31  54  83 113 143 174 209 255 312
#
# _framework density 18.950358000000001
#
# number of rings (size 3 to 8) (size 9 to 14) (size 15 to 20)
#    0.000    1.750    1.250    3.375    0.000   10.250 
#    0.000    0.000    0.000    0.750    0.000    5.250 
#    0.000    0.000    0.000    0.000    0.000    0.000 
#
# Total GULP energy -396956.201239 kJ/mol
# GULP energy per Si atom -12404.881289 kJ/mol
# Density = 1.890723 g / cm^3
# Si number density = 18.950358 Si / 1000 Ang^3
#
#
#
# Elastic Constant Matrix: (Units=GPa)
#
#
# Indices 1 2 3 4 5 6 
#
# 1 103.0618 51.5234 34.0508 0.0000 22.1585 0.0000
# 2 51.5234 107.3122 37.4077 0.0000 13.6933 0.0000
# 3 34.0508 37.4077 50.4517 0.0000 21.1889 0.0000
# 4 0.0000 0.0000 0.0000 31.5091 0.0000 10.8685
# 5 22.1585 13.6933 21.1889 0.0000 32.2618 0.0000
# 6 0.0000 0.0000 0.0000 10.8685 0.0000 27.9661
#
#
#
# Elastic Compliance Matrix: (Units=1/GPa)
#
#
# Indices 1 2 3 4 5 6 
#
# 1 0.014644 -0.004971 -0.003949 0.000000 -0.005355 0.000000
# 2 -0.004971 0.014282 -0.008454 0.000000 0.002905 0.000000
# 3 -0.003949 -0.008454 0.036053 0.000000 -0.017379 0.000000
# 4 0.000000 0.000000 0.000000 0.036650 0.000000 -0.014243
# 5 -0.005355 0.002905 -0.017379 0.000000 0.044855 0.000000
# 6 0.000000 0.000000 0.000000 -0.014243 0.000000 0.041293
#
#
# Mechanical properties :
#
#
# Convention : Reuss Voigt Hill
#
# Bulk Modulus (GPa) = 33.07916 56.30995 44.69456
# Shear Modulus (GPa) = 21.49594 27.53698 24.51646
#
# Velocity S-wave (km/s) = 3.37163 3.81610 3.60073
# Velocity P-wave (km/s) = 5.71409 7.01397 6.39713
#
# Compressibility (1/GPa) = 0.03023051
#
# Stress axis : x y z
#
# Youngs Moduli (GPa) = 68.28702 70.01935 27.73677
#
# Poissons Ratio (x) = 0.34808 0.10953
# Poissons Ratio (y) = 0.33947 0.23449
# Poissons Ratio (z) = 0.26965 0.59196
#
# Static dielectric constant tensor:
#      x y z
#    x 3.533600 0.000000 0.180510 
#    y 0.000000 3.584880 0.000000 
#    z 0.180510 0.000000 3.272960 
# 
# 
# High freq. dielectric constant tensor:
#      x y z
#    x 1.730340 0.000000 0.018740 
#    y 0.000000 1.749490 0.000000 
#    z 0.018740 0.000000 1.716990 
# 
# From -- ./inp_files/55352.got.cif
#   From: 2010.06.25/outbox.cif.g09.slc.cpg/sg10_28_cif.got.tgz:55352.got - 2010.06.27 22:07:45.
