data_PCOD8063683
_publ_section_title
;
Structure prediction by ZEFSAII (Michael W. Deem and Ramdas Pophale) SiO2 
 PCOD8063683
Probable space group: P 2/M
;
_chemical_formula_sum "Si O2"
_cell_formula_units_Z 24
_cell_length_a 24.790463
_cell_length_b 8.533849
_cell_length_c 12.224545
_cell_angle_alpha 90.000000
_cell_angle_beta 152.106409
_cell_angle_gamma 90.000000
_cell_volume 1209.904940
_symmetry_space_group_name_H-M "P 2/M"
_symmetry_group_IT_number 10
_symmetry_cell_setting 'monoclinic'
loop_
_space_group_symop_operation_xyz
x,y,z
-x,y,-z
-x,-y,-z
x,-y,z
loop_
_atom_site_type_symbol
_atom_site_label
_atom_site_fract_x
_atom_site_fract_y
_atom_site_fract_z
Si Si1 0.500444 0.185513 0.178063
Si Si2 0.320162 0.185060 0.676081
Si Si3 0.062299 0.815058 0.223532
Si Si4 0.826784 0.182287 0.195867
Si Si5 0.006208 0.317126 0.675518
Si Si6 0.424174 0.682189 0.260970
O O1 0.612097 0.244135 0.310319
O O2 0.499516 0.278936 0.289354
O O3 0.503674 0.000000 0.205876
O O4 0.386623 0.233254 0.905513
O O5 0.191748 0.254414 0.449165
O O6 0.315694 0.000000 0.659861
O O7 0.994533 0.730966 0.199454
O O8 0.062156 0.000000 0.244964
O O9 0.000000 0.770499 0.000000
O O10 0.885015 0.274015 0.401165
O O11 0.888198 0.227304 0.192524
O O12 0.843695 0.000000 0.249594
O O13 0.692480 0.219031 0.948627
O O14 0.029231 0.500000 0.704609
O O15 0.500000 0.734173 0.500000
O O16 0.392826 0.500000 0.209564
#
# Coordination Sequence:
#
# PCOD8063683 Si02
#       6
#     4   4   4   4   4   4
#     4   9  17  33  57  79 101 138 187 231 270 321
#     4   8  16  32  54  79 105 135 178 231 275 313
#     4  10  20  34  53  80 114 151 189 228 272 328
#     4  11  22  39  63  86 109 144 194 241 281 335
#     4  11  22  38  60  86 117 149 185 234 292 344
#     4  11  24  39  54  80 119 154 183 226 285 340
#
# _framework density 19.836269000000001
#
# number of rings (size 3 to 8) (size 9 to 14) (size 15 to 20)
#    0.000    2.000    0.000    6.500    0.000    4.333 
#    0.000    4.167    0.000    0.000    0.000    0.000 
#    0.000    0.000    0.000    0.000    0.000    0.000 
#
# Total GULP energy -297668.905297 kJ/mol
# GULP energy per Si atom -12402.871054 kJ/mol
# Density = 1.979112 g / cm^3
# Si number density = 19.836269 Si / 1000 Ang^3
#
#
#
# Elastic Constant Matrix: (Units=GPa)
#
#
# Indices 1 2 3 4 5 6 
#
# 1 121.8554 16.2796 38.1898 0.0000 -20.0707 0.0000
# 2 16.2796 49.8674 10.3206 0.0000 -6.2152 0.0000
# 3 38.1898 10.3206 49.6052 0.0000 -12.7717 0.0000
# 4 0.0000 0.0000 0.0000 20.0630 0.0000 -1.7457
# 5 -20.0707 -6.2152 -12.7717 0.0000 28.4667 0.0000
# 6 0.0000 0.0000 0.0000 -1.7457 0.0000 0.6378
#
#
#
# Elastic Compliance Matrix: (Units=1/GPa)
#
#
# Indices 1 2 3 4 5 6 
#
# 1 0.011457 -0.001671 -0.007334 0.000000 0.004422 0.000000
# 2 -0.001671 0.021422 -0.002566 0.000000 0.002348 0.000000
# 3 -0.007334 -0.002566 0.028111 0.000000 0.006881 0.000000
# 4 0.000000 0.000000 0.000000 0.065424 0.000000 0.179064
# 5 0.004422 0.002348 0.006881 0.000000 0.041847 0.000000
# 6 0.000000 0.000000 0.000000 0.179064 0.000000 2.057889
#
#
# Mechanical properties :
#
#
# Convention : Reuss Voigt Hill
#
# Bulk Modulus (GPa) = 26.42157 38.98978 32.70567
# Shear Modulus (GPa) = 2.21052 20.26937 11.23995
#
# Velocity S-wave (km/s) = 1.05679 3.20008 2.38299
# Velocity P-wave (km/s) = 3.85199 5.77516 4.90868
#
# Compressibility (1/GPa) = 0.03784786
#
# Stress axis : x y z
#
# Youngs Moduli (GPa) = 87.28644 46.68009 35.57351
#
# Poissons Ratio (x) = 0.07801 0.26089
# Poissons Ratio (y) = 0.14586 0.09128
# Poissons Ratio (z) = 0.64014 0.11978
#
# Static dielectric constant tensor:
#      x y z
#    x 3.807130 0.000000 0.157130 
#    y 0.000000 3.377870 0.000000 
#    z 0.157130 0.000000 3.724830 
# 
# 
# High freq. dielectric constant tensor:
#      x y z
#    x 1.788550 0.000000 0.003190 
#    y 0.000000 1.756090 0.000000 
#    z 0.003190 0.000000 1.766230 
# 
# From -- ./inp_files/56691.got.cif
#   From: 2010.06.25/outbox.cif.g09.slc.cpg/sg10_29_cif.got.tgz:56691.got - 2010.06.27 22:07:45.
