data_PCOD8063134
_publ_section_title
;
Structure prediction by ZEFSAII (Michael W. Deem and Ramdas Pophale) SiO2 
 PCOD8063134
Probable space group: P 2/M
;
_chemical_formula_sum "Si O2"
_cell_formula_units_Z 28
_cell_length_a 18.715344
_cell_length_b 8.776865
_cell_length_c 14.308642
_cell_angle_alpha 90.000000
_cell_angle_beta 139.414595
_cell_angle_gamma 90.000000
_cell_volume 1529.103504
_symmetry_space_group_name_H-M "P 2/M"
_symmetry_group_IT_number 10
_symmetry_cell_setting 'monoclinic'
loop_
_space_group_symop_operation_xyz
x,y,z
-x,y,-z
-x,-y,-z
x,-y,z
loop_
_atom_site_type_symbol
_atom_site_label
_atom_site_fract_x
_atom_site_fract_y
_atom_site_fract_z
Si Si1 0.494604 0.322563 0.385766
Si Si2 0.124636 0.320732 0.810821
Si Si3 0.128859 0.831994 0.625124
Si Si4 0.125217 0.678038 0.432559
Si Si5 0.500672 0.820755 0.895840
Si Si6 0.327476 0.820052 0.086126
Si Si7 0.333749 0.821223 0.573342
O O1 0.500000 0.287001 0.500000
O O2 0.476670 0.500000 0.347050
O O3 0.392897 0.227997 0.243397
O O4 0.608027 0.267634 0.452676
O O5 0.128331 0.500000 0.799936
O O6 0.169177 0.241179 0.761179
O O7 0.000251 0.271109 0.713279
O O8 0.209109 0.263751 0.973551
O O9 0.160422 0.719970 0.572793
O O10 0.000000 0.852438 0.500000
O O11 0.184002 0.000000 0.666626
O O12 0.141685 0.500000 0.432911
O O13 0.206533 0.770293 0.445521
O O14 0.604981 0.764051 0.938653
O O15 0.390231 0.777219 0.728963
O O16 0.509558 0.000000 0.915136
O O17 0.500000 0.747030 0.000000
O O18 0.309519 0.000000 0.068642
O O19 0.344077 0.000000 0.564396
#
# Coordination Sequence:
#
# PCOD8063134 Si02
#       7
#     4   4   4   4   4   4   4
#     4  10  21  39  62  83 106 137 172 216 271 330
#     4  10  20  33  49  72 107 147 184 224 267 315
#     4   9  17  29  45  66  95 138 189 229 260 299
#     4  10  20  33  49  72 107 147 184 224 267 315
#     4   8  16  30  46  69 102 137 172 212 259 307
#     4  10  20  33  54  81 107 139 178 224 269 314
#     4  10  20  33  54  81 107 139 178 224 269 314
#
# _framework density 18.311382999999999
#
# number of rings (size 3 to 8) (size 9 to 14) (size 15 to 20)
#    0.000    2.429    0.000    3.429    2.000    4.571 
#    0.000    0.000    0.000    3.429    0.000    6.000 
#    0.000    0.000    0.000    0.000    0.000    0.000 
#
# Total GULP energy -347127.204999 kJ/mol
# GULP energy per Si atom -12397.400179 kJ/mol
# Density = 1.826971 g / cm^3
# Si number density = 18.311383 Si / 1000 Ang^3
#
#
#
# Elastic Constant Matrix: (Units=GPa)
#
#
# Indices 1 2 3 4 5 6 
#
# 1 77.1972 19.5367 52.0986 0.0000 -1.3836 0.0000
# 2 19.5367 48.2976 28.3489 0.0000 0.7675 0.0000
# 3 52.0986 28.3489 92.3009 0.0000 12.2370 0.0000
# 4 0.0000 0.0000 0.0000 28.5643 0.0000 2.0436
# 5 -1.3836 0.7675 12.2370 0.0000 28.6219 0.0000
# 6 0.0000 0.0000 0.0000 2.0436 0.0000 26.5618
#
#
#
# Elastic Compliance Matrix: (Units=1/GPa)
#
#
# Indices 1 2 3 4 5 6 
#
# 1 0.022188 -0.001479 -0.012951 0.000000 0.006649 0.000000
# 2 -0.001479 0.025570 -0.007334 0.000000 0.002378 0.000000
# 3 -0.012951 -0.007334 0.021683 0.000000 -0.009700 0.000000
# 4 0.000000 0.000000 0.000000 0.035203 0.000000 -0.002708
# 5 0.006649 0.002378 -0.009700 0.000000 0.039343 0.000000
# 6 0.000000 0.000000 0.000000 -0.002708 0.000000 0.037856
#
#
# Mechanical properties :
#
#
# Convention : Reuss Voigt Hill
#
# Bulk Modulus (GPa) = 38.59127 46.41823 42.50475
# Shear Modulus (GPa) = 21.36681 24.60371 22.98526
#
# Velocity S-wave (km/s) = 3.41964 3.66953 3.54679
# Velocity P-wave (km/s) = 6.05910 6.58471 6.32736
#
# Compressibility (1/GPa) = 0.02591260
#
# Stress axis : x y z
#
# Youngs Moduli (GPa) = 45.07030 39.10795 46.11975
#
# Poissons Ratio (x) = 0.05784 0.59729
# Poissons Ratio (y) = 0.06666 0.33825
# Poissons Ratio (z) = 0.58370 0.28682
#
# Static dielectric constant tensor:
#      x y z
#    x 3.311800 0.000000 0.128780 
#    y 0.000000 3.327590 0.000000 
#    z 0.128780 0.000000 3.356350 
# 
# 
# High freq. dielectric constant tensor:
#      x y z
#    x 1.686520 0.000000 0.019060 
#    y 0.000000 1.710400 0.000000 
#    z 0.019060 0.000000 1.699830 
# 
# From -- ./inp_files/68604.got.cif
#   From: 2010.06.25/outbox.cif.g09.slc.cpg/sg10_35_cif.got.tgz:68604.got - 2010.06.27 22:07:45.
