data_PCOD8063848
_publ_section_title
;
Structure prediction by ZEFSAII (Michael W. Deem and Ramdas Pophale) SiO2 
 PCOD8063848
Probable space group: P 2/M
;
_chemical_formula_sum "Si O2"
_cell_formula_units_Z 24
_cell_length_a 15.145275
_cell_length_b 19.269233
_cell_length_c 13.019986
_cell_angle_alpha 90.000000
_cell_angle_beta 160.938402
_cell_angle_gamma 90.000000
_cell_volume 1240.931056
_symmetry_space_group_name_H-M "P 2/M"
_symmetry_group_IT_number 10
_symmetry_cell_setting 'monoclinic'
loop_
_space_group_symop_operation_xyz
x,y,z
-x,y,-z
-x,-y,-z
x,-y,z
loop_
_atom_site_type_symbol
_atom_site_label
_atom_site_fract_x
_atom_site_fract_y
_atom_site_fract_z
Si Si1 0.244102 0.500000 0.872233
Si Si2 0.128310 0.349244 0.251677
Si Si3 0.688453 0.706061 0.921764
Si Si4 0.170800 0.500000 0.393386
Si Si5 0.416928 0.923581 0.792012
Si Si6 0.087518 0.160656 0.713996
Si Si7 0.723418 0.357004 0.167349
O O1 0.216106 0.438212 0.759236
O O2 0.041125 0.500000 0.745974
O O3 0.538521 0.500000 0.240823
O O4 0.404119 0.302664 0.549341
O O5 0.149348 0.431144 0.299256
O O6 0.000000 0.341026 0.000000
O O7 0.937635 0.314269 0.125841
O O8 0.769724 0.777092 0.067561
O O9 0.633948 0.651767 0.952516
O O10 0.171697 0.868690 0.509404
O O11 0.333601 0.000000 0.658215
O O12 0.500000 0.930406 0.000000
O O13 0.684358 0.898325 0.028192
O O14 0.000000 0.179764 0.500000
O O15 0.000000 0.315991 0.500000
O O16 0.500000 0.329123 0.000000
#
# Coordination Sequence:
#
# PCOD8063848 Si02
#       7
#     2   4   4   2   4   4   4
#     4  12  22  39  57  79 110 143 189 233 282 346
#     4  12  25  43  64  82 106 143 192 254 315 354
#     4  12  24  41  58  84 118 147 193 236 284 358
#     4  12  21  43  62  81 104 139 188 255 313 348
#     4   9  17  31  53  83 120 160 197 226 255 307
#     4  10  20  34  55  84 122 162 189 219 272 329
#     4  12  23  37  56  79 112 152 185 225 274 335
#
# _framework density 19.340318
#
# number of rings (size 3 to 8) (size 9 to 14) (size 15 to 20)
#    0.000    0.833    3.333    5.250    0.000    4.000 
#    0.000    2.500    0.000    0.000    0.000    0.000 
#    0.000   46.667    0.000    0.000    0.000    0.000 
#
# Total GULP energy -297331.620288 kJ/mol
# GULP energy per Si atom -12388.817512 kJ/mol
# Density = 1.929630 g / cm^3
# Si number density = 19.340318 Si / 1000 Ang^3
#
#
#
# Elastic Constant Matrix: (Units=GPa)
#
#
# Indices 1 2 3 4 5 6 
#
# 1 38.4918 36.7785 23.3574 0.0000 3.8562 0.0000
# 2 36.7785 90.7613 50.0512 0.0000 8.9585 0.0000
# 3 23.3574 50.0512 132.0603 0.0000 10.6409 0.0000
# 4 0.0000 0.0000 0.0000 29.4188 0.0000 3.4446
# 5 3.8562 8.9585 10.6409 0.0000 36.5061 0.0000
# 6 0.0000 0.0000 0.0000 3.4446 0.0000 -24.6396
#
#
#
# Elastic Compliance Matrix: (Units=1/GPa)
#
#
# Indices 1 2 3 4 5 6 
#
# 1 0.042557 -0.016549 -0.001249 0.000000 -0.000070 0.000000
# 2 -0.016549 0.020498 -0.004687 0.000000 -0.001916 0.000000
# 3 -0.001249 -0.004687 0.009694 0.000000 -0.001543 0.000000
# 4 0.000000 0.000000 0.000000 0.033444 0.000000 0.004676
# 5 -0.000070 -0.001916 -0.001543 0.000000 0.028320 0.000000
# 6 0.000000 0.000000 0.000000 0.004676 0.000000 -0.039931
#
#
# Mechanical properties :
#
#
# Convention : Reuss Voigt Hill
#
# Bulk Modulus (GPa) = 36.00019 53.52087 44.76053
# Shear Modulus (GPa) = 33.59904 18.33214 25.96559
#
# Velocity S-wave (km/s) = 4.17256 3.08209 3.66808
# Velocity P-wave (km/s) = 6.47056 6.35602 6.41355
#
# Compressibility (1/GPa) = 0.02777763
#
# Stress axis : x y z
#
# Youngs Moduli (GPa) = 23.49772 48.78504 103.15517
#
# Poissons Ratio (x) = 0.80736 0.12886
# Poissons Ratio (y) = 0.38887 0.48353
# Poissons Ratio (z) = 0.02935 0.22867
#
# Static dielectric constant tensor:
#      x y z
#    x 3.613660 0.000000 0.366730 
#    y 0.000000 3.835080 0.000000 
#    z 0.366730 0.000000 3.744330 
# 
# 
# High freq. dielectric constant tensor:
#      x y z
#    x 1.733330 0.000000 0.029740 
#    y 0.000000 1.748740 0.000000 
#    z 0.029740 0.000000 1.764680 
# 
# From -- ./inp_files/52088.got.cif
#   From: 2010.06.25/outbox.cif.g09.slc.cpg/sg10_27_cif.got.tgz:52088.got - 2010.06.27 22:07:45.
