data_PCOD8063320
_publ_section_title
;
Structure prediction by ZEFSAII (Michael W. Deem and Ramdas Pophale) SiO2 
 PCOD8063320
Probable space group: P 2/M
;
_chemical_formula_sum "Si O2"
_cell_formula_units_Z 28
_cell_length_a 8.341697
_cell_length_b 9.111088
_cell_length_c 25.738104
_cell_angle_alpha 90.000000
_cell_angle_beta 42.643203
_cell_angle_gamma 90.000000
_cell_volume 1325.153398
_symmetry_space_group_name_H-M "P 2/M"
_symmetry_group_IT_number 10
_symmetry_cell_setting 'monoclinic'
loop_
_space_group_symop_operation_xyz
x,y,z
-x,y,-z
-x,-y,-z
x,-y,z
loop_
_atom_site_type_symbol
_atom_site_label
_atom_site_fract_x
_atom_site_fract_y
_atom_site_fract_z
Si Si1 0.608014 0.664937 0.055118
Si Si2 0.806924 0.330023 0.665530
Si Si3 0.125296 0.664832 0.106698
Si Si4 0.622953 0.833049 0.804219
Si Si5 0.260890 0.829403 0.525535
Si Si6 0.561354 0.669866 0.614242
Si Si7 0.105306 0.166760 0.752672
O O1 0.659618 0.500000 0.062612
O O2 0.365418 0.667018 0.081636
O O3 0.589600 0.772707 0.108777
O O4 0.818695 0.716389 0.965844
O O5 0.857510 0.500000 0.665203
O O6 0.631627 0.265036 0.750613
O O7 0.682796 0.306537 0.640319
O O8 0.051831 0.241211 0.609138
O O9 0.020015 0.500000 0.131714
O O10 0.935976 0.771613 0.179114
O O11 0.869946 0.820282 0.775213
O O12 0.565335 0.000000 0.803009
O O13 0.500000 0.804724 0.500000
O O14 0.274288 0.748954 0.467095
O O15 0.206799 0.000000 0.529393
O O16 0.538952 0.500000 0.604593
O O17 0.302003 0.740265 0.675881
O O18 0.192950 0.000000 0.736669
#
# Coordination Sequence:
#
# PCOD8063320 Si02
#       7
#     4   4   4   4   4   4   4
#     4   8  14  26  46  73 105 141 180 222 269 319
#     4  11  24  40  58  81 109 143 183 222 263 315
#     4   8  14  26  46  73 105 141 180 222 269 319
#     4  10  20  33  52  80 111 143 181 224 271 322
#     4  11  24  41  62  88 114 139 172 215 264 318
#     4  11  24  40  58  81 109 143 183 222 263 315
#     4  10  20  33  52  80 111 143 181 224 271 322
#
# _framework density 21.129629999999999
#
# number of rings (size 3 to 8) (size 9 to 14) (size 15 to 20)
#    0.000    2.143    0.000    4.286    0.000   10.857 
#    0.000    2.857    0.000    0.857    0.000    6.000 
#    0.000    0.000    0.000    0.000    0.000    0.000 
#
# Total GULP energy -347250.502572 kJ/mol
# GULP energy per Si atom -12401.803663 kJ/mol
# Density = 2.108154 g / cm^3
# Si number density = 21.129630 Si / 1000 Ang^3
#
#
#
# Elastic Constant Matrix: (Units=GPa)
#
#
# Indices 1 2 3 4 5 6 
#
# 1 30.1610 37.5891 13.3856 0.0000 15.8796 0.0000
# 2 37.5891 141.1191 43.0436 0.0000 26.8144 0.0000
# 3 13.3856 43.0436 91.1881 0.0000 37.4166 0.0000
# 4 0.0000 0.0000 0.0000 38.4079 0.0000 1.9927
# 5 15.8796 26.8144 37.4166 0.0000 30.1775 0.0000
# 6 0.0000 0.0000 0.0000 1.9927 0.0000 15.3517
#
#
#
# Elastic Compliance Matrix: (Units=1/GPa)
#
#
# Indices 1 2 3 4 5 6 
#
# 1 0.064300 -0.013881 0.012083 0.000000 -0.036484 0.000000
# 2 -0.013881 0.011681 -0.004508 0.000000 0.002514 0.000000
# 3 0.012083 -0.004508 0.025010 0.000000 -0.033362 0.000000
# 4 0.000000 0.000000 0.000000 0.026213 0.000000 -0.003403
# 5 -0.036484 0.002514 -0.033362 0.000000 0.091467 0.000000
# 6 0.000000 0.000000 0.000000 -0.003403 0.000000 0.065581
#
#
# Mechanical properties :
#
#
# Convention : Reuss Voigt Hill
#
# Bulk Modulus (GPa) = 11.31467 50.05609 30.68538
# Shear Modulus (GPa) = 15.32235 28.01742 21.66989
#
# Velocity S-wave (km/s) = 2.69580 3.64535 3.20592
# Velocity P-wave (km/s) = 3.88024 6.43891 5.31582
#
# Compressibility (1/GPa) = 0.08838082
#
# Stress axis : x y z
#
# Youngs Moduli (GPa) = 15.55208 85.61136 39.98461
#
# Poissons Ratio (x) = 1.18833 -0.48315
# Poissons Ratio (y) = 0.21587 0.18024
# Poissons Ratio (z) = -0.18792 0.38591
#
# Static dielectric constant tensor:
#      x y z
#    x 3.397390 0.000000 0.215840 
#    y 0.000000 3.955690 0.000000 
#    z 0.215840 0.000000 4.200530 
# 
# 
# High freq. dielectric constant tensor:
#      x y z
#    x 1.798470 0.000000 0.015260 
#    y 0.000000 1.831270 0.000000 
#    z 0.015260 0.000000 1.842230 
# 
# From -- ./inp_files/91959.got.cif
#   From: 2010.06.25/outbox.cif.g09.slc.cpg/sg10_46_cif.got.tgz:91959.got - 2010.06.27 22:07:45.
