data_PCOD8063276
_publ_section_title
;
Structure prediction by ZEFSAII (Michael W. Deem and Ramdas Pophale) SiO2 
 PCOD8063276
Probable space group: P 2/M
;
_chemical_formula_sum "Si O2"
_cell_formula_units_Z 32
_cell_length_a 16.766674
_cell_length_b 9.028138
_cell_length_c 23.070909
_cell_angle_alpha 90.000000
_cell_angle_beta 31.778475
_cell_angle_gamma 90.000000
_cell_volume 1839.165220
_symmetry_space_group_name_H-M "P 2/M"
_symmetry_group_IT_number 10
_symmetry_cell_setting 'monoclinic'
loop_
_space_group_symop_operation_xyz
x,y,z
-x,y,-z
-x,-y,-z
x,-y,z
loop_
_atom_site_type_symbol
_atom_site_label
_atom_site_fract_x
_atom_site_fract_y
_atom_site_fract_z
Si Si1 0.465796 0.824146 0.388008
Si Si2 0.546374 0.830530 0.732966
Si Si3 0.314119 0.325282 0.180324
Si Si4 0.844143 0.829593 0.826176
Si Si5 0.586677 0.171298 0.068195
Si Si6 0.815789 0.826043 0.359800
Si Si7 0.839694 0.169947 0.622061
Si Si8 0.354079 0.666390 0.630316
O O1 0.473439 0.756196 0.318056
O O2 0.304519 0.778994 0.516352
O O3 0.606871 0.753755 0.335041
O O4 0.483129 0.000000 0.378889
O O5 0.437705 0.764063 0.851194
O O6 0.720398 0.811153 0.643914
O O7 0.502327 0.000000 0.751400
O O8 0.332626 0.500000 0.168066
O O9 0.246140 0.273026 0.161827
O O10 0.478973 0.254805 0.089105
O O11 0.198868 0.276149 0.301247
O O12 0.017083 0.775591 0.723872
O O13 0.837123 0.000000 0.809601
O O14 0.760429 0.812566 0.940449
O O15 0.533065 0.000000 0.101757
O O16 0.781398 0.746376 0.320128
O O17 0.809716 0.000000 0.351629
O O18 0.000000 0.224022 0.500000
O O19 0.845605 0.000000 0.640229
O O20 0.500000 0.667776 0.500000
O O21 0.303999 0.500000 0.676918
#
# Coordination Sequence:
#
# PCOD8063276 Si02
#       8
#     4   4   4   4   4   4   4   4
#     4   9  16  28  49  73  97 121 153 194 234 290
#     4   8  15  28  48  73  93 119 158 199 241 282
#     4  11  22  33  47  70 100 132 167 205 247 294
#     4  10  20  33  52  73  95 125 165 212 249 289
#     4   9  18  35  53  69  93 127 170 211 246 285
#     4   9  18  30  48  74  98 120 153 197 247 291
#     4   9  18  32  52  71  96 132 167 203 244 289
#     4   9  17  30  47  68  98 129 154 183 231 291
#
# _framework density 17.399197999999998
#
# number of rings (size 3 to 8) (size 9 to 14) (size 15 to 20)
#    0.000    2.750    0.000    2.625    1.750    4.250 
#    0.000    2.500    0.000    0.750    0.000    5.250 
#    0.000    0.000    0.000    0.000    0.000    0.000 
#
# Total GULP energy -396677.471795 kJ/mol
# GULP energy per Si atom -12396.170994 kJ/mol
# Density = 1.735960 g / cm^3
# Si number density = 17.399198 Si / 1000 Ang^3
#
#
#
# Elastic Constant Matrix: (Units=GPa)
#
#
# Indices 1 2 3 4 5 6 
#
# 1 119.8383 36.8697 50.5789 0.0000 17.8421 0.0000
# 2 36.8697 59.3758 26.1660 0.0000 2.0062 0.0000
# 3 50.5789 26.1660 72.5505 0.0000 3.5348 0.0000
# 4 0.0000 0.0000 0.0000 10.8911 0.0000 0.6342
# 5 17.8421 2.0062 3.5348 0.0000 16.1818 0.0000
# 6 0.0000 0.0000 0.0000 0.6342 0.0000 9.4240
#
#
#
# Elastic Compliance Matrix: (Units=1/GPa)
#
#
# Indices 1 2 3 4 5 6 
#
# 1 0.015781 -0.005668 -0.008232 0.000000 -0.014899 0.000000
# 2 -0.005668 0.022074 -0.004226 0.000000 0.004436 0.000000
# 3 -0.008232 -0.004226 0.020800 0.000000 0.005056 0.000000
# 4 0.000000 0.000000 0.000000 0.092179 0.000000 -0.006203
# 5 -0.014899 0.004436 0.005056 0.000000 0.076571 0.000000
# 6 0.000000 0.000000 0.000000 -0.006203 0.000000 0.106529
#
#
# Mechanical properties :
#
#
# Convention : Reuss Voigt Hill
#
# Bulk Modulus (GPa) = 44.63537 53.22156 48.92847
# Shear Modulus (GPa) = 13.23965 16.50939 14.87452
#
# Velocity S-wave (km/s) = 2.76150 3.08370 2.92703
# Velocity P-wave (km/s) = 5.98976 6.58284 6.29329
#
# Compressibility (1/GPa) = 0.02240376
#
# Stress axis : x y z
#
# Youngs Moduli (GPa) = 63.36747 45.30235 48.07745
#
# Poissons Ratio (x) = 0.25679 0.39575
# Poissons Ratio (y) = 0.35919 0.20316
# Poissons Ratio (z) = 0.52161 0.19143
#
# Static dielectric constant tensor:
#      x y z
#    x 3.289780 0.000000 0.128980 
#    y 0.000000 3.061230 0.000000 
#    z 0.128980 0.000000 3.302040 
# 
# 
# High freq. dielectric constant tensor:
#      x y z
#    x 1.665540 0.000000 0.007760 
#    y 0.000000 1.650560 0.000000 
#    z 0.007760 0.000000 1.660320 
# 
# From -- ./inp_files/89942.got.cif
#   From: 2010.06.25/outbox.cif.g09.slc.cpg/sg10_45_cif.got.tgz:89942.got - 2010.06.27 22:07:45.
