data_PCOD8063847
_publ_section_title
;
Structure prediction by ZEFSAII (Michael W. Deem and Ramdas Pophale) SiO2 
 PCOD8063847
Probable space group: P 2/M
;
_chemical_formula_sum "Si O2"
_cell_formula_units_Z 28
_cell_length_a 8.871680
_cell_length_b 19.760414
_cell_length_c 14.870446
_cell_angle_alpha 90.000000
_cell_angle_beta 149.649765
_cell_angle_gamma 90.000000
_cell_volume 1317.230610
_symmetry_space_group_name_H-M "P 2/M"
_symmetry_group_IT_number 10
_symmetry_cell_setting 'monoclinic'
loop_
_space_group_symop_operation_xyz
x,y,z
-x,y,-z
-x,-y,-z
x,-y,z
loop_
_atom_site_type_symbol
_atom_site_label
_atom_site_fract_x
_atom_site_fract_y
_atom_site_fract_z
Si Si1 0.717450 0.664933 0.195766
Si Si2 0.643995 0.348339 0.810255
Si Si3 0.200909 0.926717 0.192816
Si Si4 0.347875 0.199192 0.189921
Si Si5 0.692731 0.420536 0.515102
Si Si6 0.841842 0.808102 0.321862
Si Si7 0.155325 0.923750 0.808904
O O1 0.510578 0.644180 0.172841
O O2 0.881417 0.737460 0.290452
O O3 0.979313 0.611275 0.316619
O O4 0.500000 0.666491 0.000000
O O5 0.558944 0.273545 0.726462
O O6 0.496574 0.403909 0.671110
O O7 0.000000 0.359868 0.000000
O O8 0.430766 0.863166 0.300865
O O9 0.006329 0.913129 0.180144
O O10 0.366459 0.000000 0.287112
O O11 0.000000 0.928953 0.000000
O O12 0.491332 0.183682 0.166064
O O13 0.000000 0.200766 0.000000
O O14 0.500000 0.393744 0.500000
O O15 0.742487 0.500000 0.546152
O O16 0.965841 0.869995 0.326321
O O17 0.000000 0.805753 0.500000
O O18 0.103923 0.000000 0.745783
O O19 0.500000 0.908609 0.000000
#
# Coordination Sequence:
#
# PCOD8063847 Si02
#       7
#     4   4   4   4   4   4   4
#     4  11  23  41  66  94 125 163 209 259 312 371
#     4  10  21  39  63  94 128 166 210 253 306 370
#     4   9  17  30  51  80 112 150 200 254 302 351
#     4   9  18  34  57  83 112 150 199 246 292 352
#     4  11  25  44  66  95 129 164 205 252 304 366
#     4  11  23  39  59  88 123 157 200 253 311 369
#     4  10  20  34  55  84 117 158 207 253 303 364
#
# _framework density 21.256719
#
# number of rings (size 3 to 8) (size 9 to 14) (size 15 to 20)
#    0.000    1.857    0.000    5.143    0.000    8.286 
#    0.000    0.714    0.000    1.714    0.000    0.000 
#    0.000    0.000    0.000    0.000    0.000    0.000 
#
# Total GULP energy -346949.686301 kJ/mol
# GULP energy per Si atom -12391.060225 kJ/mol
# Density = 2.120834 g / cm^3
# Si number density = 21.256719 Si / 1000 Ang^3
#
#
#
# Elastic Constant Matrix: (Units=GPa)
#
#
# Indices 1 2 3 4 5 6 
#
# 1 137.4154 65.2848 48.5464 0.0000 -5.6902 0.0000
# 2 65.2848 122.6499 44.6763 0.0000 -2.0194 0.0000
# 3 48.5464 44.6763 103.6722 0.0000 -15.5935 0.0000
# 4 0.0000 0.0000 0.0000 -191.6564 0.0000 -38.4535
# 5 -5.6902 -2.0194 -15.5935 0.0000 31.6335 0.0000
# 6 0.0000 0.0000 0.0000 -38.4535 0.0000 31.9634
#
#
#
# Elastic Compliance Matrix: (Units=1/GPa)
#
#
# Indices 1 2 3 4 5 6 
#
# 1 0.010456 -0.004493 -0.002938 0.000000 0.000146 0.000000
# 2 -0.004493 0.011673 -0.003171 0.000000 -0.001626 0.000000
# 3 -0.002938 -0.003171 0.013261 0.000000 0.005806 0.000000
# 4 0.000000 0.000000 0.000000 -0.004203 0.000000 -0.005057
# 5 0.000146 -0.001626 0.005806 0.000000 0.034397 0.000000
# 6 0.000000 0.000000 0.000000 -0.005057 0.000000 0.025202
#
#
# Mechanical properties :
#
#
# Convention : Reuss Voigt Hill
#
# Bulk Modulus (GPa) = 70.49066 75.63917 73.06492
# Shear Modulus (GPa) = 42.83798 -11.92990 15.45404
#
# Velocity S-wave (km/s) = 4.49404 -2.37160 2.69925
# Velocity P-wave (km/s) = 7.75643 5.30675 6.64544
#
# Compressibility (1/GPa) = 0.01418628
#
# Stress axis : x y z
#
# Youngs Moduli (GPa) = 95.64178 85.66713 75.40654
#
# Poissons Ratio (x) = 0.38489 0.22155
# Poissons Ratio (y) = 0.42970 0.23912
# Poissons Ratio (z) = 0.28100 0.27166
#
# Static dielectric constant tensor:
#      x y z
#    x 3.984930 0.000000 0.314970 
#    y 0.000000 5.097230 0.000000 
#    z 0.314970 0.000000 3.618540 
# 
# 
# High freq. dielectric constant tensor:
#      x y z
#    x 1.846080 0.000000 0.011760 
#    y 0.000000 1.846620 0.000000 
#    z 0.011760 0.000000 1.814200 
# 
# From -- ./inp_files/62604.got.cif
#   From: 2010.06.25/outbox.cif.g09.slc.cpg/sg10_32_cif.got.tgz:62604.got - 2010.06.27 22:07:45.
