data_PCOD8063727
_publ_section_title
;
Structure prediction by ZEFSAII (Michael W. Deem and Ramdas Pophale) SiO2 
 PCOD8063727
Probable space group: P 2/M
;
_chemical_formula_sum "Si O2"
_cell_formula_units_Z 24
_cell_length_a 15.544034
_cell_length_b 21.097886
_cell_length_c 13.058115
_cell_angle_alpha 90.000000
_cell_angle_beta 162.806065
_cell_angle_gamma 90.000000
_cell_volume 1265.895268
_symmetry_space_group_name_H-M "P 2/M"
_symmetry_group_IT_number 10
_symmetry_cell_setting 'monoclinic'
loop_
_space_group_symop_operation_xyz
x,y,z
-x,y,-z
-x,-y,-z
x,-y,z
loop_
_atom_site_type_symbol
_atom_site_label
_atom_site_fract_x
_atom_site_fract_y
_atom_site_fract_z
Si Si1 0.884876 0.685599 0.174429
Si Si2 0.137792 0.146559 0.335058
Si Si3 0.574048 0.927197 0.702143
Si Si4 0.177425 0.733688 0.108768
Si Si5 0.184014 0.569515 0.609745
Si Si6 0.452673 0.763400 0.826439
O O1 0.989332 0.614479 0.317079
O O2 0.159304 0.728147 0.476553
O O3 0.757653 0.686754 0.914403
O O4 0.692616 0.718901 0.044215
O O5 0.284552 0.094829 0.430047
O O6 0.389363 0.168162 0.702595
O O7 0.852073 0.113323 0.058081
O O8 0.032224 0.207307 0.151784
O O9 0.500000 0.916578 0.500000
O O10 0.636420 0.000000 0.799147
O O11 0.500000 0.759108 0.500000
O O12 0.000000 0.698366 0.000000
O O13 0.231680 0.500000 0.611116
O O14 0.000000 0.558706 0.500000
O O15 0.500000 0.599314 0.000000
O O16 0.500000 0.773866 0.000000
#
# Coordination Sequence:
#
# PCOD8063727 Si02
#       6
#     4   4   4   4   4   4
#     4  11  21  34  54  80 109 141 176 218 267 315
#     4  11  21  35  54  76 105 136 170 214 264 316
#     4  11  22  35  54  78 104 135 171 215 264 314
#     4  11  21  34  53  78 108 140 175 217 266 318
#     4  10  20  34  54  79 108 142 178 219 265 313
#     4  11  22  35  55  81 108 139 174 218 268 316
#
# _framework density 18.958915000000001
#
# number of rings (size 3 to 8) (size 9 to 14) (size 15 to 20)
#    0.000    1.167    0.000   10.500    0.000    1.333 
#    0.000    0.000    0.000    4.000    0.000    0.000 
#    0.000    0.000    0.000    0.000    0.000    0.000 
#
# Total GULP energy -297320.663092 kJ/mol
# GULP energy per Si atom -12388.360962 kJ/mol
# Density = 1.891576 g / cm^3
# Si number density = 18.958915 Si / 1000 Ang^3
#
#
#
# Elastic Constant Matrix: (Units=GPa)
#
#
# Indices 1 2 3 4 5 6 
#
# 1 115.1497 30.1263 40.1170 0.0000 -0.2821 0.0000
# 2 30.1263 94.9682 29.5445 0.0000 -9.3093 0.0000
# 3 40.1170 29.5445 81.3304 0.0000 7.9383 0.0000
# 4 0.0000 0.0000 0.0000 47.7368 0.0000 36.3904
# 5 -0.2821 -9.3093 7.9383 0.0000 39.6863 0.0000
# 6 0.0000 0.0000 0.0000 36.3904 0.0000 79.2829
#
#
#
# Elastic Compliance Matrix: (Units=1/GPa)
#
#
# Indices 1 2 3 4 5 6 
#
# 1 0.010824 -0.001916 -0.004698 0.000000 0.000567 0.000000
# 2 -0.001916 0.012775 -0.004066 0.000000 0.003796 0.000000
# 3 -0.004698 -0.004066 0.016509 0.000000 -0.004289 0.000000
# 4 0.000000 0.000000 0.000000 0.032223 0.000000 -0.014790
# 5 0.000567 0.003796 -0.004289 0.000000 0.026950 0.000000
# 6 0.000000 0.000000 0.000000 -0.014790 0.000000 0.019402
#
#
# Mechanical properties :
#
#
# Convention : Reuss Voigt Hill
#
# Bulk Modulus (GPa) = 53.34377 54.55822 53.95099
# Shear Modulus (GPa) = 34.17826 46.11857 40.14842
#
# Velocity S-wave (km/s) = 4.25049 4.93744 4.60679
# Velocity P-wave (km/s) = 7.23094 7.83224 7.53759
#
# Compressibility (1/GPa) = 0.01874633
#
# Stress axis : x y z
#
# Youngs Moduli (GPa) = 92.38796 78.27903 60.57444
#
# Poissons Ratio (x) = 0.15002 0.28459
# Poissons Ratio (y) = 0.17705 0.24629
# Poissons Ratio (z) = 0.43406 0.31827
#
# Static dielectric constant tensor:
#      x y z
#    x 5.531370 0.000000 -1.681660 
#    y 0.000000 3.723780 0.000000 
#    z -1.681660 0.000000 5.178350 
# 
# 
# High freq. dielectric constant tensor:
#      x y z
#    x 1.738940 0.000000 0.022610 
#    y 0.000000 1.716550 0.000000 
#    z 0.022610 0.000000 1.744500 
# 
# From -- ./inp_files/52057.got.cif
#   From: 2010.06.25/outbox.cif.g09.slc.cpg/sg10_27_cif.got.tgz:52057.got - 2010.06.27 22:07:45.
