data_PCOD8063496
_publ_section_title
;
Structure prediction by ZEFSAII (Michael W. Deem and Ramdas Pophale) SiO2 
 PCOD8063496
Probable space group: P 2/M
;
_chemical_formula_sum "Si O2"
_cell_formula_units_Z 22
_cell_length_a 15.614562
_cell_length_b 14.810553
_cell_length_c 5.015930
_cell_angle_alpha 90.000000
_cell_angle_beta 85.464074
_cell_angle_gamma 90.000000
_cell_volume 1156.352325
_symmetry_space_group_name_H-M "P 2/M"
_symmetry_group_IT_number 10
_symmetry_cell_setting 'monoclinic'
loop_
_space_group_symop_operation_xyz
x,y,z
-x,y,-z
-x,-y,-z
x,-y,z
loop_
_atom_site_type_symbol
_atom_site_label
_atom_site_fract_x
_atom_site_fract_y
_atom_site_fract_z
Si Si1 0.228691 0.789031 0.151969
Si Si2 0.332307 0.170480 0.631882
Si Si3 0.058762 0.102458 0.230596
Si Si4 0.438795 0.000000 0.758507
Si Si5 0.697926 0.401423 0.844988
Si Si6 0.593178 0.641923 0.376191
O O1 0.295710 0.837282 0.340002
O O2 0.134709 0.825486 0.239657
O O3 0.232274 0.679398 0.164539
O O4 0.251248 0.812251 0.842869
O O5 0.402368 0.249733 0.617931
O O6 0.377603 0.085088 0.748708
O O7 0.000000 0.109448 0.500000
O O8 0.095127 0.000000 0.187224
O O9 0.000000 0.130861 0.000000
O O10 0.500000 0.000000 0.500000
O O11 0.500000 0.000000 0.000000
O O12 0.741265 0.500000 0.885200
O O13 0.661245 0.402807 0.556547
O O14 0.618303 0.388251 0.070856
O O15 0.500000 0.610043 0.500000
#
# Coordination Sequence:
#
# PCOD8063496 Si02
#       6
#     4   4   4   2   4   4
#     4  10  21  38  57  79 110 143 178 219 271 327
#     4  10  22  35  53  77 104 149 186 223 266 321
#     4  10  21  36  58  87 112 138 170 216 270 325
#     4  12  24  36  52  76 108 146 192 232 264 306
#     4  10  21  35  53  78 104 140 185 225 274 321
#     4  10  20  34  51  74 106 140 182 233 279 316
#
# _framework density 19.025342999999999
#
# number of rings (size 3 to 8) (size 9 to 14) (size 15 to 20)
#    0.000    1.818    0.000    3.818    2.545    5.091 
#    0.000    0.000    0.000    1.091    0.000    0.000 
#    0.000    0.000    0.000    0.000    0.000    0.000 
#
# Total GULP energy -272686.749854 kJ/mol
# GULP energy per Si atom -12394.852266 kJ/mol
# Density = 1.898204 g / cm^3
# Si number density = 19.025343 Si / 1000 Ang^3
#
#
#
# Elastic Constant Matrix: (Units=GPa)
#
#
# Indices 1 2 3 4 5 6 
#
# 1 76.7703 62.9583 15.0353 0.0000 -0.9997 0.0000
# 2 62.9583 145.0796 19.0148 0.0000 6.1004 0.0000
# 3 15.0353 19.0148 90.0822 0.0000 12.7038 0.0000
# 4 0.0000 0.0000 0.0000 11.9805 0.0000 -3.1354
# 5 -0.9997 6.1004 12.7038 0.0000 23.0639 0.0000
# 6 0.0000 0.0000 0.0000 -3.1354 0.0000 8.4385
#
#
#
# Elastic Compliance Matrix: (Units=1/GPa)
#
#
# Indices 1 2 3 4 5 6 
#
# 1 0.020860 -0.008950 -0.002227 0.000000 0.004498 0.000000
# 2 -0.008950 0.010956 -0.000386 0.000000 -0.003073 0.000000
# 3 -0.002227 -0.000386 0.012526 0.000000 -0.006894 0.000000
# 4 0.000000 0.000000 0.000000 0.092460 0.000000 0.034354
# 5 0.004498 -0.003073 -0.006894 0.000000 0.048163 0.000000
# 6 0.000000 0.000000 0.000000 0.034354 0.000000 0.131269
#
#
# Mechanical properties :
#
#
# Convention : Reuss Voigt Hill
#
# Bulk Modulus (GPa) = 47.12847 56.21655 51.67251
# Shear Modulus (GPa) = 14.43286 23.02482 18.72884
#
# Velocity S-wave (km/s) = 2.75728 3.48259 3.14094
# Velocity P-wave (km/s) = 5.91287 6.76636 6.35396
#
# Compressibility (1/GPa) = 0.02121860
#
# Stress axis : x y z
#
# Youngs Moduli (GPa) = 47.93862 91.27191 79.83225
#
# Poissons Ratio (x) = 0.81685 0.17778
# Poissons Ratio (y) = 0.42903 0.03078
# Poissons Ratio (z) = 0.10675 0.03519
#
# Static dielectric constant tensor:
#      x y z
#    x 3.074350 0.000000 0.049200 
#    y 0.000000 3.752150 0.000000 
#    z 0.049200 0.000000 3.719280 
# 
# 
# High freq. dielectric constant tensor:
#      x y z
#    x 1.698910 0.000000 0.004790 
#    y 0.000000 1.744410 0.000000 
#    z 0.004790 0.000000 1.766370 
# 
# From -- ./inp_files/9060.got.cif
#   From: 2010.06.25/outbox.cif.g09.slc.cpg/sg10_5_cif.got.tgz:9060.got - 2010.06.27 22:07:45.
