data_PCOD8063734
_publ_section_title
;
Structure prediction by ZEFSAII (Michael W. Deem and Ramdas Pophale) SiO2 
 PCOD8063734
Probable space group: P 2/M
;
_chemical_formula_sum "Si O2"
_cell_formula_units_Z 28
_cell_length_a 20.787138
_cell_length_b 8.992452
_cell_length_c 15.927320
_cell_angle_alpha 90.000000
_cell_angle_beta 151.815928
_cell_angle_gamma 90.000000
_cell_volume 1406.173030
_symmetry_space_group_name_H-M "P 2/M"
_symmetry_group_IT_number 10
_symmetry_cell_setting 'monoclinic'
loop_
_space_group_symop_operation_xyz
x,y,z
-x,y,-z
-x,-y,-z
x,-y,z
loop_
_atom_site_type_symbol
_atom_site_label
_atom_site_fract_x
_atom_site_fract_y
_atom_site_fract_z
Si Si1 0.163445 0.824589 0.277140
Si Si2 0.583979 0.673161 0.348382
Si Si3 0.142224 0.824908 0.062644
Si Si4 0.143802 0.171689 0.588419
Si Si5 0.575702 0.829532 0.169291
Si Si6 0.865404 0.323173 0.251343
Si Si7 0.695558 0.327711 0.894988
O O1 0.276045 0.747904 0.463432
O O2 0.013257 0.776212 0.136728
O O3 0.181823 0.000000 0.306663
O O4 0.181194 0.773119 0.201257
O O5 0.610079 0.500000 0.368311
O O6 0.532915 0.734433 0.200359
O O7 0.465087 0.705815 0.279247
O O8 0.153544 0.000000 0.068970
O O9 0.250276 0.756095 0.123828
O O10 0.262489 0.184663 0.656944
O O11 0.193059 0.241142 0.733575
O O12 0.017680 0.266014 0.408077
O O13 0.102071 0.000000 0.554169
O O14 0.531480 0.000000 0.133382
O O15 0.500000 0.765942 0.000000
O O16 0.865257 0.500000 0.265416
O O17 0.773181 0.273567 0.067443
O O18 0.723653 0.500000 0.912555
#
# Coordination Sequence:
#
# PCOD8063734 Si02
#       7
#     4   4   4   4   4   4   4
#     4   9  20  41  63  89 119 147 191 242 289 347
#     4  11  24  39  58  86 120 158 196 237 289 346
#     4   9  20  39  65  89 114 151 191 239 293 344
#     4  10  20  34  54  80 107 142 190 242 287 335
#     4  10  22  39  58  81 113 153 196 243 291 339
#     4  10  20  35  54  77 111 149 187 233 284 339
#     4  10  23  39  55  83 120 154 191 236 284 345
#
# _framework density 19.912201
#
# number of rings (size 3 to 8) (size 9 to 14) (size 15 to 20)
#    0.000    2.143    0.000    3.857    2.000    5.429 
#    0.000    4.286    0.000    0.000    0.000    0.000 
#    0.000    0.000    0.000    0.000    0.000    0.000 
#
# Total GULP energy -347234.217972 kJ/mol
# GULP energy per Si atom -12401.222070 kJ/mol
# Density = 1.986688 g / cm^3
# Si number density = 19.912201 Si / 1000 Ang^3
#
#
#
# Elastic Constant Matrix: (Units=GPa)
#
#
# Indices 1 2 3 4 5 6 
#
# 1 96.5236 35.8869 26.1824 0.0000 0.9625 0.0000
# 2 35.8869 63.0605 27.0837 0.0000 -4.7124 0.0000
# 3 26.1824 27.0837 90.0559 0.0000 -7.4565 0.0000
# 4 0.0000 0.0000 0.0000 0.9473 0.0000 19.5084
# 5 0.9625 -4.7124 -7.4565 0.0000 21.8243 0.0000
# 6 0.0000 0.0000 0.0000 19.5084 0.0000 16.3335
#
#
#
# Elastic Compliance Matrix: (Units=1/GPa)
#
#
# Indices 1 2 3 4 5 6 
#
# 1 0.013567 -0.007048 -0.002059 0.000000 -0.002823 0.000000
# 2 -0.007048 0.021967 -0.004259 0.000000 0.003599 0.000000
# 3 -0.002059 -0.004259 0.013291 0.000000 0.003712 0.000000
# 4 0.000000 0.000000 0.000000 -0.044737 0.000000 0.053432
# 5 -0.002823 0.003599 0.003712 0.000000 0.047990 0.000000
# 6 0.000000 0.000000 0.000000 0.053432 0.000000 -0.002595
#
#
# Mechanical properties :
#
#
# Convention : Reuss Voigt Hill
#
# Bulk Modulus (GPa) = 45.26221 47.54957 46.40589
# Shear Modulus (GPa) = 59.82315 18.52016 39.17166
#
# Velocity S-wave (km/s) = 5.48714 3.05305 4.44015
# Velocity P-wave (km/s) = 7.93254 6.02989 7.04573
#
# Compressibility (1/GPa) = 0.02209349
#
# Stress axis : x y z
#
# Youngs Moduli (GPa) = 73.70823 45.52323 75.23843
#
# Poissons Ratio (x) = 0.32083 0.15489
# Poissons Ratio (y) = 0.51947 0.32047
# Poissons Ratio (z) = 0.15174 0.19390
#
# Static dielectric constant tensor:
#      x y z
#    x 3.669750 0.000000 0.043080 
#    y 0.000000 3.512060 0.000000 
#    z 0.043080 0.000000 3.662430 
# 
# 
# High freq. dielectric constant tensor:
#      x y z
#    x 1.780350 0.000000 0.005940 
#    y 0.000000 1.772170 0.000000 
#    z 0.005940 0.000000 1.779970 
# 
# From -- ./inp_files/70297.got.cif
#   From: 2010.06.25/outbox.cif.g09.slc.cpg/sg10_36_cif.got.tgz:70297.got - 2010.06.27 22:07:45.
