data_PCOD8063238
_publ_section_title
;
Structure prediction by ZEFSAII (Michael W. Deem and Ramdas Pophale) SiO2 
 PCOD8063238
Probable space group: P 2/M
;
_chemical_formula_sum "Si O2"
_cell_formula_units_Z 32
_cell_length_a 11.896581
_cell_length_b 9.173431
_cell_length_c 30.501159
_cell_angle_alpha 90.000000
_cell_angle_beta 150.528363
_cell_angle_gamma 90.000000
_cell_volume 1637.679532
_symmetry_space_group_name_H-M "P 2/M"
_symmetry_group_IT_number 10
_symmetry_cell_setting 'monoclinic'
loop_
_space_group_symop_operation_xyz
x,y,z
-x,y,-z
-x,-y,-z
x,-y,z
loop_
_atom_site_type_symbol
_atom_site_label
_atom_site_fract_x
_atom_site_fract_y
_atom_site_fract_z
Si Si1 0.354434 0.836759 0.513387
Si Si2 0.072445 0.335322 0.354949
Si Si3 0.219258 0.666563 0.309506
Si Si4 0.638136 0.328274 0.263140
Si Si5 0.589010 0.827713 0.962082
Si Si6 0.148896 0.172433 0.864283
Si Si7 0.734772 0.171672 0.916546
Si Si8 0.083695 0.164371 0.574729
O O1 0.282521 0.764714 0.442719
O O2 0.539829 0.743272 0.601907
O O3 0.129626 0.836949 0.465891
O O4 0.446104 0.000000 0.536102
O O5 0.128364 0.500000 0.388937
O O6 0.062238 0.320315 0.299365
O O7 0.828164 0.287483 0.291166
O O8 0.264664 0.500000 0.311880
O O9 0.087278 0.745954 0.225437
O O10 0.600645 0.500000 0.255259
O O11 0.403161 0.253459 0.168486
O O12 0.715801 0.263771 0.336577
O O13 0.338480 0.777438 0.892903
O O14 0.653927 0.764942 0.936385
O O15 0.595454 0.000000 0.962232
O O16 0.774079 0.777243 0.061105
O O17 0.109464 0.000000 0.848376
O O18 0.686070 0.000000 0.896086
O O19 0.000000 0.207285 0.000000
O O20 0.000000 0.230613 0.500000
O O21 0.179000 0.000000 0.600374
#
# Coordination Sequence:
#
# PCOD8063238 Si02
#       8
#     4   4   4   4   4   4   4   4
#     4  10  20  33  51  76 102 131 171 216 257 301
#     4   9  19  34  51  72 103 141 172 206 255 308
#     4  11  21  32  47  73 109 141 169 202 253 314
#     4  10  20  35  56  81 107 137 176 218 263 314
#     4   8  16  33  55  76  98 130 173 221 266 306
#     4   9  17  32  54  75  98 131 175 220 259 305
#     4  10  20  35  55  79 107 139 176 220 270 319
#     4   9  19  38  60  79 101 135 179 222 261 307
#
# _framework density 19.539843000000001
#
# number of rings (size 3 to 8) (size 9 to 14) (size 15 to 20)
#    0.000    2.500    0.000    3.000    0.000    4.000 
#    2.250    1.875    0.000    0.000    0.000    0.000 
#    0.000    0.000    0.000    0.000    0.000    0.000 
#
# Total GULP energy -396795.206413 kJ/mol
# GULP energy per Si atom -12399.850200 kJ/mol
# Density = 1.949537 g / cm^3
# Si number density = 19.539843 Si / 1000 Ang^3
#
#
#
# Elastic Constant Matrix: (Units=GPa)
#
#
# Indices 1 2 3 4 5 6 
#
# 1 44.2513 15.5955 24.0225 0.0000 -13.7143 0.0000
# 2 15.5955 95.7948 71.0705 0.0000 -2.1054 0.0000
# 3 24.0225 71.0705 155.2646 0.0000 -10.9974 0.0000
# 4 0.0000 0.0000 0.0000 14.1347 0.0000 2.4743
# 5 -13.7143 -2.1054 -10.9974 0.0000 26.3486 0.0000
# 6 0.0000 0.0000 0.0000 2.4743 0.0000 17.1189
#
#
#
# Elastic Compliance Matrix: (Units=1/GPa)
#
#
# Indices 1 2 3 4 5 6 
#
# 1 0.029135 -0.002766 -0.002249 0.000000 0.014004 0.000000
# 2 -0.002766 0.016154 -0.007189 0.000000 -0.003150 0.000000
# 3 -0.002249 -0.007189 0.010259 0.000000 0.002537 0.000000
# 4 0.000000 0.000000 0.000000 0.072584 0.000000 -0.010491
# 5 0.014004 -0.003150 0.002537 0.000000 0.046049 0.000000
# 6 0.000000 0.000000 0.000000 -0.010491 0.000000 0.059931
#
#
# Mechanical properties :
#
#
# Convention : Reuss Voigt Hill
#
# Bulk Modulus (GPa) = 32.11598 57.40975 44.76287
# Shear Modulus (GPa) = 18.59412 23.82858 21.21135
#
# Velocity S-wave (km/s) = 3.08815 3.49590 3.29833
# Velocity P-wave (km/s) = 5.40253 6.76312 6.12075
#
# Compressibility (1/GPa) = 0.03113715
#
# Stress axis : x y z
#
# Youngs Moduli (GPa) = 34.32346 61.90447 97.47395
#
# Poissons Ratio (x) = 0.17126 0.21926
# Poissons Ratio (y) = 0.09496 0.70077
# Poissons Ratio (z) = 0.07721 0.44505
#
# Static dielectric constant tensor:
#      x y z
#    x 3.551940 0.000000 -0.157340 
#    y 0.000000 3.504080 0.000000 
#    z -0.157340 0.000000 3.548170 
# 
# 
# High freq. dielectric constant tensor:
#      x y z
#    x 1.743980 0.000000 -0.006890 
#    y 0.000000 1.746370 0.000000 
#    z -0.006890 0.000000 1.767050 
# 
# From -- ./inp_files/95086.got.cif
#   From: 2010.06.25/outbox.cif.g09.slc.cpg/sg10_48_cif.got.tgz:95086.got - 2010.06.27 22:07:45.
