data_PCOD8063712
_publ_section_title
;
Structure prediction by ZEFSAII (Michael W. Deem and Ramdas Pophale) SiO2 
 PCOD8063712
Probable space group: P 2/M
;
_chemical_formula_sum "Si O2"
_cell_formula_units_Z 32
_cell_length_a 12.458368
_cell_length_b 8.968208
_cell_length_c 33.318239
_cell_angle_alpha 90.000000
_cell_angle_beta 27.930638
_cell_angle_gamma 90.000000
_cell_volume 1743.684513
_symmetry_space_group_name_H-M "P 2/M"
_symmetry_group_IT_number 10
_symmetry_cell_setting 'monoclinic'
loop_
_space_group_symop_operation_xyz
x,y,z
-x,y,-z
-x,-y,-z
x,-y,z
loop_
_atom_site_type_symbol
_atom_site_label
_atom_site_fract_x
_atom_site_fract_y
_atom_site_fract_z
Si Si1 0.298780 0.827688 0.009738
Si Si2 0.497616 0.327236 0.312241
Si Si3 0.996577 0.326380 0.828585
Si Si4 0.198082 0.671520 0.964595
Si Si5 0.190107 0.836754 0.470941
Si Si6 0.800926 0.176779 0.655880
Si Si7 0.291647 0.326664 0.229896
Si Si8 0.816315 0.173476 0.814599
O O1 0.212929 0.734924 0.075983
O O2 0.244771 0.000000 0.035459
O O3 0.166873 0.774421 0.013622
O O4 0.566989 0.797347 0.915829
O O5 0.444120 0.500000 0.323185
O O6 0.767296 0.295098 0.226103
O O7 0.383710 0.277766 0.392222
O O8 0.399914 0.238901 0.306413
O O9 0.958816 0.500000 0.832986
O O10 0.000217 0.243055 0.784491
O O11 0.173299 0.500000 0.986385
O O12 0.437725 0.699971 0.863483
O O13 0.000000 0.720144 0.000000
O O14 0.000000 0.853143 0.500000
O O15 0.054344 0.780612 0.555337
O O16 0.302328 0.000000 0.441341
O O17 0.790184 0.246993 0.703034
O O18 0.768453 0.000000 0.668830
O O19 0.229401 0.500000 0.252556
O O20 0.158849 0.254672 0.236285
O O21 0.866357 0.000000 0.791687
#
# Coordination Sequence:
#
# PCOD8063712 Si02
#       8
#     4   4   4   4   4   4   4   4
#     4  10  21  35  52  76 101 133 178 221 261 307
#     4  10  21  34  51  79 110 138 171 213 261 311
#     4  11  23  36  53  77 106 138 175 219 265 312
#     4   9  19  34  50  70 103 141 172 211 258 305
#     4   8  16  32  52  75 105 139 170 205 255 312
#     4  10  20  34  54  80 110 140 172 211 255 310
#     4  10  20  34  54  78 104 138 177 214 257 308
#     4  10  21  38  56  75 102 136 179 224 264 306
#
# _framework density 18.351942999999999
#
# number of rings (size 3 to 8) (size 9 to 14) (size 15 to 20)
#    0.000    2.250    0.000    3.375    1.750    8.500 
#    0.000    0.000    0.000    0.750    0.000    5.250 
#    0.000    0.000    0.000    0.000    0.000    0.000 
#
# Total GULP energy -396834.108017 kJ/mol
# GULP energy per Si atom -12401.065876 kJ/mol
# Density = 1.831017 g / cm^3
# Si number density = 18.351943 Si / 1000 Ang^3
#
#
#
# Elastic Constant Matrix: (Units=GPa)
#
#
# Indices 1 2 3 4 5 6 
#
# 1 82.5185 47.7666 33.6999 0.0000 24.2385 0.0000
# 2 47.7666 105.6634 44.7990 0.0000 14.8129 0.0000
# 3 33.6999 44.7990 66.7381 0.0000 26.9817 0.0000
# 4 0.0000 0.0000 0.0000 24.4420 0.0000 11.6863
# 5 24.2385 14.8129 26.9817 0.0000 24.6154 0.0000
# 6 0.0000 0.0000 0.0000 11.6863 0.0000 28.2651
#
#
#
# Elastic Compliance Matrix: (Units=1/GPa)
#
#
# Indices 1 2 3 4 5 6 
#
# 1 0.021265 -0.007875 0.001972 0.000000 -0.018362 0.000000
# 2 -0.007875 0.016286 -0.011006 0.000000 0.010018 0.000000
# 3 0.001972 -0.011006 0.034989 0.000000 -0.033671 0.000000
# 4 0.000000 0.000000 0.000000 0.050994 0.000000 -0.021083
# 5 -0.018362 0.010018 -0.033671 0.000000 0.089586 0.000000
# 6 0.000000 0.000000 0.000000 -0.021083 0.000000 0.044096
#
#
# Mechanical properties :
#
#
# Convention : Reuss Voigt Hill
#
# Bulk Modulus (GPa) = 25.82488 56.38346 41.10417
# Shear Modulus (GPa) = 16.45055 24.04146 20.24601
#
# Velocity S-wave (km/s) = 2.99723 3.62335 3.32506
# Velocity P-wave (km/s) = 5.10690 6.94946 6.09817
#
# Compressibility (1/GPa) = 0.03872235
#
# Stress axis : x y z
#
# Youngs Moduli (GPa) = 47.02478 61.40290 28.58040
#
# Poissons Ratio (x) = 0.48356 -0.05636
# Poissons Ratio (y) = 0.37033 0.31455
# Poissons Ratio (z) = -0.09273 0.67578
#
# Static dielectric constant tensor:
#      x y z
#    x 3.294350 0.000000 0.150060 
#    y 0.000000 3.479630 0.000000 
#    z 0.150060 0.000000 3.488800 
# 
# 
# High freq. dielectric constant tensor:
#      x y z
#    x 1.700410 0.000000 0.013610 
#    y 0.000000 1.723840 0.000000 
#    z 0.013610 0.000000 1.697890 
# 
# From -- ./inp_files/94949.got.cif
#   From: 2010.06.25/outbox.cif.g09.slc.cpg/sg10_48_cif.got.tgz:94949.got - 2010.06.27 22:07:45.
