data_PCOD8063014
_publ_section_title
;
Structure prediction by ZEFSAII (Michael W. Deem and Ramdas Pophale) SiO2 
 PCOD8063014
Probable space group: P 2/M
;
_chemical_formula_sum "Si O2"
_cell_formula_units_Z 28
_cell_length_a 19.827134
_cell_length_b 9.167994
_cell_length_c 18.096837
_cell_angle_alpha 90.000000
_cell_angle_beta 151.058749
_cell_angle_gamma 90.000000
_cell_volume 1591.856201
_symmetry_space_group_name_H-M "P 2/M"
_symmetry_group_IT_number 10
_symmetry_cell_setting 'monoclinic'
loop_
_space_group_symop_operation_xyz
x,y,z
-x,y,-z
-x,-y,-z
x,-y,z
loop_
_atom_site_type_symbol
_atom_site_label
_atom_site_fract_x
_atom_site_fract_y
_atom_site_fract_z
Si Si1 0.338183 0.827688 0.351763
Si Si2 0.028543 0.827914 0.610614
Si Si3 0.299109 0.672314 0.860890
Si Si4 0.179825 0.667883 0.484806
Si Si5 0.092968 0.160430 0.016755
Si Si6 0.143513 0.329023 0.280311
Si Si7 0.590549 0.331845 0.186728
O O1 0.500000 0.777294 0.500000
O O2 0.265500 0.746377 0.350335
O O3 0.329245 0.000000 0.358541
O O4 0.249486 0.789124 0.191845
O O5 0.172340 0.758209 0.775764
O O6 0.000000 0.772219 0.500000
O O7 0.914953 0.774434 0.559256
O O8 0.036499 0.000000 0.621919
O O9 0.269864 0.500000 0.838990
O O10 0.318310 0.729024 0.794535
O O11 0.433157 0.727901 0.036366
O O12 0.134964 0.500000 0.455037
O O13 0.176964 0.708979 0.396686
O O14 0.336963 0.695687 0.665027
O O15 0.014276 0.272393 0.886977
O O16 0.100979 0.000000 0.986907
O O17 0.000000 0.149812 0.000000
O O18 0.146508 0.500000 0.266347
O O19 0.574733 0.500000 0.151652
#
# Coordination Sequence:
#
# PCOD8063014 Si02
#       7
#     4   4   4   4   4   4   4
#     4   9  18  34  56  79 102 134 172 203 238 295
#     4  11  22  33  47  73 102 128 165 213 257 297
#     4   9  16  30  53  73  90 122 166 210 254 299
#     4  10  20  35  53  72  99 135 171 207 253 306
#     4   8  15  30  52  74  99 134 168 198 236 289
#     4  10  20  32  50  78 106 133 166 207 253 296
#     4   8  15  29  51  74  92 121 167 208 245 299
#
# _framework density 17.589528999999999
#
# number of rings (size 3 to 8) (size 9 to 14) (size 15 to 20)
#    0.000    2.714    1.429    2.571    0.000    4.571 
#    0.000    3.571    0.000    5.143    0.000    0.000 
#    0.000    0.000    0.000    0.000    0.000    0.000 
#
# Total GULP energy -346977.822372 kJ/mol
# GULP energy per Si atom -12392.065085 kJ/mol
# Density = 1.754949 g / cm^3
# Si number density = 17.589529 Si / 1000 Ang^3
#
#
#
# Elastic Constant Matrix: (Units=GPa)
#
#
# Indices 1 2 3 4 5 6 
#
# 1 68.5029 41.9359 59.2795 0.0000 -0.7193 0.0000
# 2 41.9359 64.2242 48.5056 0.0000 -0.9273 0.0000
# 3 59.2795 48.5056 153.8530 0.0000 1.7401 0.0000
# 4 0.0000 0.0000 0.0000 -14.9618 0.0000 -12.9028
# 5 -0.7193 -0.9273 1.7401 0.0000 30.2780 0.0000
# 6 0.0000 0.0000 0.0000 -12.9028 0.0000 15.4648
#
#
#
# Elastic Compliance Matrix: (Units=1/GPa)
#
#
# Indices 1 2 3 4 5 6 
#
# 1 0.028900 -0.013710 -0.006820 0.000000 0.000659 0.000000
# 2 -0.013710 0.026971 -0.003228 0.000000 0.000686 0.000000
# 3 -0.006820 -0.003228 0.010155 0.000000 -0.000844 0.000000
# 4 0.000000 0.000000 0.000000 -0.038870 0.000000 -0.032430
# 5 0.000659 0.000686 -0.000844 0.000000 0.033112 0.000000
# 6 0.000000 0.000000 0.000000 -0.032430 0.000000 0.037605
#
#
# Mechanical properties :
#
#
# Convention : Reuss Voigt Hill
#
# Bulk Modulus (GPa) = 54.02994 65.11359 59.57176
# Shear Modulus (GPa) = 32.99034 15.28014 24.13524
#
# Velocity S-wave (km/s) = 4.33548 2.95058 3.70826
# Velocity P-wave (km/s) = 7.47299 6.97901 7.23022
#
# Compressibility (1/GPa) = 0.01850826
#
# Stress axis : x y z
#
# Youngs Moduli (GPa) = 34.60263 37.07730 98.47475
#
# Poissons Ratio (x) = 0.50833 0.67161
# Poissons Ratio (y) = 0.47440 0.31792
# Poissons Ratio (z) = 0.23599 0.11970
#
# Static dielectric constant tensor:
#      x y z
#    x 2.923680 0.000000 0.101700 
#    y 0.000000 3.114840 0.000000 
#    z 0.101700 0.000000 3.843110 
# 
# 
# High freq. dielectric constant tensor:
#      x y z
#    x 1.643220 0.000000 0.007080 
#    y 0.000000 1.665130 0.000000 
#    z 0.007080 0.000000 1.697520 
# 
# From -- ./inp_files/79311.got.cif
#   From: 2010.06.25/outbox.cif.g09.slc.cpg/sg10_40_cif.got.tgz:79311.got - 2010.06.27 22:07:45.
