data_PCOD8063913
_publ_section_title
;
Structure prediction by ZEFSAII (Michael W. Deem and Ramdas Pophale) SiO2 
 PCOD8063913
Probable space group: P 2/M
;
_chemical_formula_sum "Si O2"
_cell_formula_units_Z 24
_cell_length_a 14.565361
_cell_length_b 10.272417
_cell_length_c 20.522274
_cell_angle_alpha 90.000000
_cell_angle_beta 158.740284
_cell_angle_gamma 90.000000
_cell_volume 1113.377600
_symmetry_space_group_name_H-M "P 2/M"
_symmetry_group_IT_number 10
_symmetry_cell_setting 'monoclinic'
loop_
_space_group_symop_operation_xyz
x,y,z
-x,y,-z
-x,-y,-z
x,-y,z
loop_
_atom_site_type_symbol
_atom_site_label
_atom_site_fract_x
_atom_site_fract_y
_atom_site_fract_z
Si Si1 0.874296 0.852477 0.627631
Si Si2 0.246198 0.357781 0.084581
Si Si3 0.218767 0.280943 0.300653
Si Si4 0.296719 0.648150 0.708540
Si Si5 0.290046 0.856618 0.808502
Si Si6 0.309931 0.855522 0.230931
O O1 0.892846 0.772575 0.706209
O O2 0.605736 0.844496 0.415735
O O3 0.052696 0.793799 0.689657
O O4 0.955137 0.000000 0.697802
O O5 0.268085 0.500000 0.133407
O O6 0.515550 0.328716 0.228235
O O7 0.183977 0.247355 0.097284
O O8 0.005835 0.371339 0.876126
O O9 0.500000 0.346598 0.500000
O O10 0.257409 0.167858 0.272721
O O11 0.328945 0.500000 0.755480
O O12 0.389148 0.753473 0.821796
O O13 0.000000 0.676891 0.500000
O O14 0.226349 0.000000 0.735114
O O15 0.500000 0.879947 0.000000
O O16 0.212462 0.000000 0.148333
#
# Coordination Sequence:
#
# PCOD8063913 Si02
#       6
#     4   4   4   4   4   4
#     4   9  18  35  57  84 117 148 184 233 284 334
#     4  11  24  40  58  83 116 152 189 233 284 334
#     4  10  21  37  58  84 115 150 188 232 280 332
#     4  10  22  40  60  83 113 150 191 233 280 336
#     4  10  20  34  56  86 116 147 185 232 285 336
#     4  10  21  37  60  87 113 148 192 233 278 334
#
# _framework density 21.55603
#
# number of rings (size 3 to 8) (size 9 to 14) (size 15 to 20)
#    0.000    2.000    0.000    3.000    0.000    7.000 
#    0.000    3.333    0.000    0.000    0.000    0.000 
#    0.000    0.000    0.000    0.000    0.000    0.000 
#
# Total GULP energy -297332.402942 kJ/mol
# GULP energy per Si atom -12388.850123 kJ/mol
# Density = 2.150697 g / cm^3
# Si number density = 21.556030 Si / 1000 Ang^3
#
#
#
# Elastic Constant Matrix: (Units=GPa)
#
#
# Indices 1 2 3 4 5 6 
#
# 1 89.8196 58.2063 19.5309 0.0000 6.4060 0.0000
# 2 58.2063 128.3818 13.6028 0.0000 -12.2019 0.0000
# 3 19.5309 13.6028 103.0834 0.0000 9.1958 0.0000
# 4 0.0000 0.0000 0.0000 24.2232 0.0000 0.0960
# 5 6.4060 -12.2019 9.1958 0.0000 37.8768 0.0000
# 6 0.0000 0.0000 0.0000 0.0960 0.0000 64.3783
#
#
#
# Elastic Compliance Matrix: (Units=1/GPa)
#
#
# Indices 1 2 3 4 5 6 
#
# 1 0.017081 -0.008043 -0.001723 0.000000 -0.005061 0.000000
# 2 -0.008043 0.012002 -0.000538 0.000000 0.005357 0.000000
# 3 -0.001723 -0.000538 0.010311 0.000000 -0.002385 0.000000
# 4 0.000000 0.000000 0.000000 0.041283 0.000000 -0.000062
# 5 -0.005061 0.005357 -0.002385 0.000000 0.029562 0.000000
# 6 0.000000 0.000000 0.000000 -0.000062 0.000000 0.015533
#
#
# Mechanical properties :
#
#
# Convention : Reuss Voigt Hill
#
# Bulk Modulus (GPa) = 53.23093 55.99609 54.61351
# Shear Modulus (GPa) = 32.75616 40.62531 36.69073
#
# Velocity S-wave (km/s) = 3.90241 4.34595 4.13014
# Velocity P-wave (km/s) = 6.71215 7.15657 6.93792
#
# Compressibility (1/GPa) = 0.01878607
#
# Stress axis : x y z
#
# Youngs Moduli (GPa) = 58.54394 83.32017 96.98225
#
# Poissons Ratio (x) = 0.67013 0.16715
# Poissons Ratio (y) = 0.47086 0.05216
# Poissons Ratio (z) = 0.10090 0.04481
#
# Static dielectric constant tensor:
#      x y z
#    x 3.381150 0.000000 -0.201600 
#    y 0.000000 3.799990 0.000000 
#    z -0.201600 0.000000 3.443790 
# 
# 
# High freq. dielectric constant tensor:
#      x y z
#    x 1.844520 0.000000 0.024200 
#    y 0.000000 1.829960 0.000000 
#    z 0.024200 0.000000 1.864840 
# 
# From -- ./inp_files/85217.got.cif
#   From: 2010.06.25/outbox.cif.g09.slc.cpg/sg10_43_cif.got.tgz:85217.got - 2010.06.27 22:07:45.
