data_PCOD8063230
_publ_section_title
;
Structure prediction by ZEFSAII (Michael W. Deem and Ramdas Pophale) SiO2 
 PCOD8063230
Probable space group: P 2/M
;
_chemical_formula_sum "Si O2"
_cell_formula_units_Z 32
_cell_length_a 20.072545
_cell_length_b 9.023514
_cell_length_c 14.140671
_cell_angle_alpha 90.000000
_cell_angle_beta 43.711863
_cell_angle_gamma 90.000000
_cell_volume 1769.890374
_symmetry_space_group_name_H-M "P 2/M"
_symmetry_group_IT_number 10
_symmetry_cell_setting 'monoclinic'
loop_
_space_group_symop_operation_xyz
x,y,z
-x,y,-z
-x,-y,-z
x,-y,z
loop_
_atom_site_type_symbol
_atom_site_label
_atom_site_fract_x
_atom_site_fract_y
_atom_site_fract_z
Si Si1 0.650957 0.826680 0.591677
Si Si2 0.514669 0.827532 0.090498
Si Si3 0.008186 0.828336 0.599457
Si Si4 0.515778 0.327030 0.591264
Si Si5 0.989154 0.827835 0.118512
Si Si6 0.352972 0.671912 0.905594
Si Si7 0.853965 0.324239 0.399953
Si Si8 0.843493 0.168031 0.911368
O O1 0.580444 0.793233 0.751514
O O2 0.604201 0.766526 0.542806
O O3 0.747292 0.739045 0.515055
O O4 0.672595 0.000000 0.557830
O O5 0.607501 0.750586 0.041118
O O6 0.538597 0.000000 0.062701
O O7 0.500000 0.764346 0.000000
O O8 0.904648 0.802469 0.753820
O O9 0.000000 0.777276 0.500000
O O10 0.089220 0.729780 0.565828
O O11 0.039213 0.000000 0.577133
O O12 0.500000 0.276411 0.500000
O O13 0.542319 0.500000 0.570859
O O14 0.418515 0.289294 0.747904
O O15 0.090464 0.798366 0.065691
O O16 0.904784 0.732905 0.252505
O O17 0.959861 0.000000 0.156598
O O18 0.000000 0.775407 0.000000
O O19 0.352492 0.500000 0.927985
O O20 0.245519 0.722147 0.993013
O O21 0.850557 0.500000 0.402057
O O22 0.805038 0.000000 0.953042
#
# Coordination Sequence:
#
# PCOD8063230 Si02
#       8
#     4   4   4   4   4   4   4   4
#     4  10  20  35  55  77 103 136 176 218 257 305
#     4   9  19  36  56  76  99 131 172 215 257 303
#     4   9  19  37  58  77 100 135 179 222 261 304
#     4   9  19  36  54  74 103 136 170 211 259 307
#     4   9  19  37  58  79 104 136 177 222 262 303
#     4  10  20  33  51  75 104 135 166 205 252 305
#     4  11  22  35  53  78 110 142 172 212 263 319
#     4   9  18  33  53  76 103 133 166 209 257 304
#
# _framework density 18.080216
#
# number of rings (size 3 to 8) (size 9 to 14) (size 15 to 20)
#    0.000    2.500    0.000    2.625    0.000    6.000 
#    0.000    7.500    0.000    0.000    0.000    0.000 
#    0.000    0.000    0.000    0.000    0.000    0.000 
#
# Total GULP energy -396908.234314 kJ/mol
# GULP energy per Si atom -12403.382322 kJ/mol
# Density = 1.803906 g / cm^3
# Si number density = 18.080216 Si / 1000 Ang^3
#
#
#
# Elastic Constant Matrix: (Units=GPa)
#
#
# Indices 1 2 3 4 5 6 
#
# 1 115.4811 52.4211 74.6677 0.0000 14.0278 0.0000
# 2 52.4211 83.5429 45.4889 0.0000 -4.5516 0.0000
# 3 74.6677 45.4889 84.6822 0.0000 6.9810 0.0000
# 4 0.0000 0.0000 0.0000 26.4806 0.0000 -4.6804
# 5 14.0278 -4.5516 6.9810 0.0000 40.5816 0.0000
# 6 0.0000 0.0000 0.0000 -4.6804 0.0000 20.8059
#
#
#
# Elastic Compliance Matrix: (Units=1/GPa)
#
#
# Indices 1 2 3 4 5 6 
#
# 1 0.022369 -0.005436 -0.016347 0.000000 -0.005530 0.000000
# 2 -0.005436 0.018747 -0.005686 0.000000 0.004960 0.000000
# 3 -0.016347 -0.005686 0.029279 0.000000 -0.000024 0.000000
# 4 0.000000 0.000000 0.000000 0.039327 0.000000 0.008847
# 5 -0.005530 0.004960 -0.000024 0.000000 0.027114 0.000000
# 6 0.000000 0.000000 0.000000 0.008847 0.000000 0.050053
#
#
# Mechanical properties :
#
#
# Convention : Reuss Voigt Hill
#
# Bulk Modulus (GPa) = 64.69949 69.87349 67.28649
# Shear Modulus (GPa) = 20.24451 24.98219 22.61335
#
# Velocity S-wave (km/s) = 3.34983 3.72121 3.54039
# Velocity P-wave (km/s) = 7.12911 7.56264 7.34907
#
# Compressibility (1/GPa) = 0.01545607
#
# Stress axis : x y z
#
# Youngs Moduli (GPa) = 44.70559 53.34135 34.15361
#
# Poissons Ratio (x) = 0.28996 0.55832
# Poissons Ratio (y) = 0.24301 0.19421
# Poissons Ratio (z) = 0.73082 0.30331
#
# Static dielectric constant tensor:
#      x y z
#    x 3.412070 0.000000 0.123490 
#    y 0.000000 3.292810 0.000000 
#    z 0.123490 0.000000 3.356030 
# 
# 
# High freq. dielectric constant tensor:
#      x y z
#    x 1.705440 0.000000 0.002210 
#    y 0.000000 1.698800 0.000000 
#    z 0.002210 0.000000 1.698730 
# 
# From -- ./inp_files/70000.got.cif
#   From: 2010.06.25/outbox.cif.g09.slc.cpg/sg10_35_cif.got.tgz:70000.got - 2010.06.27 22:07:45.
