data_PCOD8063484
_publ_section_title
;
Structure prediction by ZEFSAII (Michael W. Deem and Ramdas Pophale) SiO2 
 PCOD8063484
Probable space group: P 2/M
;
_chemical_formula_sum "Si O2"
_cell_formula_units_Z 24
_cell_length_a 21.256130
_cell_length_b 8.829889
_cell_length_c 10.232026
_cell_angle_alpha 90.000000
_cell_angle_beta 43.775761
_cell_angle_gamma 90.000000
_cell_volume 1328.633949
_symmetry_space_group_name_H-M "P 2/M"
_symmetry_group_IT_number 10
_symmetry_cell_setting 'monoclinic'
loop_
_space_group_symop_operation_xyz
x,y,z
-x,y,-z
-x,-y,-z
x,-y,z
loop_
_atom_site_type_symbol
_atom_site_label
_atom_site_fract_x
_atom_site_fract_y
_atom_site_fract_z
Si Si1 0.730077 0.822023 0.020905
Si Si2 0.269922 0.677976 0.711138
Si Si3 0.936571 0.678922 0.979414
Si Si4 0.403237 0.319488 0.281985
Si Si5 0.936571 0.178922 0.710874
Si Si6 0.403234 0.819487 0.008310
O O1 0.833207 0.768809 0.837956
O O2 0.668320 0.767311 0.993669
O O3 0.724411 0.000000 0.046561
O O4 0.693075 0.750002 0.210390
O O5 0.275588 0.500000 0.719801
O O6 0.166793 0.731190 0.837577
O O7 0.331678 0.732684 0.498628
O O8 0.944187 0.500000 0.956251
O O9 0.972728 0.750000 0.790909
O O10 0.000000 0.741525 0.000000
O O11 0.410969 0.500000 0.258208
O O12 0.369420 0.250012 0.195868
O O13 0.499998 0.249986 0.176404
O O14 0.000000 0.241524 0.500000
O O15 0.944187 0.000000 0.711188
O O16 0.410951 0.000000 0.008932
#
# Coordination Sequence:
#
# PCOD8063484 Si02
#       6
#     4   4   4   4   4   4
#     4   9  19  34  51  72  98 128 161 198 239 284
#     4   9  19  34  51  72  98 128 161 198 239 284
#     4   9  18  33  51  72  99 128 160 198 238 283
#     4  10  20  34  51  72  98 127 161 199 240 285
#     4   9  18  33  51  72  99 128 160 198 238 283
#     4  10  20  34  51  72  98 127 161 199 240 285
#
# _framework density 18.063666000000001
#
# number of rings (size 3 to 8) (size 9 to 14) (size 15 to 20)
#    0.000    2.667    0.000    2.000    0.000    5.333 
#    0.000    3.333    0.000    0.000    0.000    0.000 
#    0.000    0.000    0.000    0.000    0.000    0.000 
#
# Total GULP energy -297625.556544 kJ/mol
# GULP energy per Si atom -12401.064856 kJ/mol
# Density = 1.802255 g / cm^3
# Si number density = 18.063666 Si / 1000 Ang^3
#
#
#
# Elastic Constant Matrix: (Units=GPa)
#
#
# Indices 1 2 3 4 5 6 
#
# 1 163.0486 37.4003 84.2837 0.0000 26.7498 0.0000
# 2 37.4003 40.8477 39.8047 0.0000 6.8303 0.0000
# 3 84.2837 39.8047 178.8307 0.0000 18.0538 0.0000
# 4 0.0000 0.0000 0.0000 27.0727 0.0000 8.6143
# 5 26.7498 6.8303 18.0538 0.0000 19.4230 0.0000
# 6 0.0000 0.0000 0.0000 8.6143 0.0000 24.0366
#
#
#
# Elastic Compliance Matrix: (Units=1/GPa)
#
#
# Indices 1 2 3 4 5 6 
#
# 1 0.010354 -0.005163 -0.002731 0.000000 -0.009906 0.000000
# 2 -0.005163 0.034282 -0.005184 0.000000 -0.000126 0.000000
# 3 -0.002731 -0.005184 0.008243 0.000000 -0.002078 0.000000
# 4 0.000000 0.000000 0.000000 0.041692 0.000000 -0.014942
# 5 -0.009906 -0.000126 -0.002078 0.000000 0.067104 0.000000
# 6 0.000000 0.000000 0.000000 -0.014942 0.000000 0.046958
#
#
# Mechanical properties :
#
#
# Convention : Reuss Voigt Hill
#
# Bulk Modulus (GPa) = 37.42213 78.41161 57.91687
# Shear Modulus (GPa) = 20.51739 28.85568 24.68653
#
# Velocity S-wave (km/s) = 3.37387 4.00114 3.70082
# Velocity P-wave (km/s) = 5.99493 8.05284 7.09885
#
# Compressibility (1/GPa) = 0.02672216
#
# Stress axis : x y z
#
# Youngs Moduli (GPa) = 96.57908 29.17021 121.32089
#
# Poissons Ratio (x) = 0.15060 0.33129
# Poissons Ratio (y) = 0.49863 0.62899
# Poissons Ratio (z) = 0.26373 0.15123
#
# Static dielectric constant tensor:
#      x y z
#    x 3.482910 0.000000 0.002940 
#    y 0.000000 3.241880 0.000000 
#    z 0.002940 0.000000 3.483920 
# 
# 
# High freq. dielectric constant tensor:
#      x y z
#    x 1.701250 0.000000 0.005500 
#    y 0.000000 1.696630 0.000000 
#    z 0.005500 0.000000 1.703190 
# 
# From -- ./inp_files/33771.got.cif
#   From: 2010.06.25/outbox.cif.g09.slc.cpg/sg10_17_cif.got.tgz:33771.got - 2010.06.27 22:07:45.
