data_PCOD8063232
_publ_section_title
;
Structure prediction by ZEFSAII (Michael W. Deem and Ramdas Pophale) SiO2 
 PCOD8063232
Probable space group: P 2/M
;
_chemical_formula_sum "Si O2"
_cell_formula_units_Z 32
_cell_length_a 25.593347
_cell_length_b 8.976997
_cell_length_c 15.513925
_cell_angle_alpha 90.000000
_cell_angle_beta 29.693233
_cell_angle_gamma 90.000000
_cell_volume 1765.620429
_symmetry_space_group_name_H-M "P 2/M"
_symmetry_group_IT_number 10
_symmetry_cell_setting 'monoclinic'
loop_
_space_group_symop_operation_xyz
x,y,z
-x,y,-z
-x,-y,-z
x,-y,z
loop_
_atom_site_type_symbol
_atom_site_label
_atom_site_fract_x
_atom_site_fract_y
_atom_site_fract_z
Si Si1 0.544070 0.671312 0.572671
Si Si2 0.392867 0.331385 0.044471
Si Si3 0.850301 0.170453 0.874838
Si Si4 0.823216 0.328355 0.734762
Si Si5 0.911837 0.829241 0.445949
Si Si6 0.665674 0.328705 0.226207
Si Si7 0.733700 0.673609 0.603389
Si Si8 0.586802 0.174733 0.688228
O O1 0.544496 0.500000 0.602742
O O2 0.428569 0.714662 0.703563
O O3 0.629857 0.697277 0.375401
O O4 0.573248 0.776580 0.609474
O O5 0.437136 0.500000 0.976816
O O6 0.300371 0.309095 0.107772
O O7 0.350263 0.295477 0.200507
O O8 0.485666 0.218755 0.889683
O O9 0.843955 0.272550 0.800312
O O10 0.965105 0.186539 0.753470
O O11 0.827713 0.000000 0.881102
O O12 0.765418 0.223994 0.066390
O O13 0.856993 0.500000 0.677888
O O14 0.893644 0.236095 0.567192
O O15 0.846434 0.742027 0.467130
O O16 0.874825 0.000000 0.499445
O O17 0.697696 0.500000 0.165557
O O18 0.750839 0.500000 0.563113
O O19 0.691335 0.748687 0.577126
O O20 0.602377 0.000000 0.670131
#
# Coordination Sequence:
#
# PCOD8063232 Si02
#       8
#     4   4   4   4   4   4   4   4
#     4   9  19  37  57  78 105 135 168 209 255 301
#     4   9  19  34  50  72 103 137 173 213 254 296
#     4  11  22  33  50  77 108 139 169 209 261 309
#     4  10  20  33  51  75 104 140 180 216 249 295
#     4  10  21  36  51  72 105 139 172 214 261 304
#     4   9  19  36  58  80 103 134 171 210 252 302
#     4  10  21  37  55  73  98 137 179 217 255 297
#     4  12  23  32  50  79 106 136 171 208 255 309
#
# _framework density 18.123940999999999
#
# number of rings (size 3 to 8) (size 9 to 14) (size 15 to 20)
#    0.000    2.000    0.000    5.625    0.000   12.000 
#    0.000    1.250    0.000    0.750    0.000    5.250 
#    0.000    0.000    0.000    0.000    0.000    0.000 
#
# Total GULP energy -396928.919891 kJ/mol
# GULP energy per Si atom -12404.028747 kJ/mol
# Density = 1.808269 g / cm^3
# Si number density = 18.123941 Si / 1000 Ang^3
#
#
#
# Elastic Constant Matrix: (Units=GPa)
#
#
# Indices 1 2 3 4 5 6 
#
# 1 95.3076 56.5991 33.8561 0.0000 -4.8227 0.0000
# 2 56.5991 127.3695 46.7364 0.0000 -10.4684 0.0000
# 3 33.8561 46.7364 83.3114 0.0000 -11.6238 0.0000
# 4 0.0000 0.0000 0.0000 29.8907 0.0000 -4.9272
# 5 -4.8227 -10.4684 -11.6238 0.0000 14.0399 0.0000
# 6 0.0000 0.0000 0.0000 -4.9272 0.0000 17.0312
#
#
#
# Elastic Compliance Matrix: (Units=1/GPa)
#
#
# Indices 1 2 3 4 5 6 
#
# 1 0.014833 -0.005579 -0.003129 0.000000 -0.001655 0.000000
# 2 -0.005579 0.012109 -0.003995 0.000000 0.003805 0.000000
# 3 -0.003129 -0.003995 0.016903 0.000000 0.009941 0.000000
# 4 0.000000 0.000000 0.000000 0.035131 0.000000 0.010163
# 5 -0.001655 0.003805 0.009941 0.000000 0.081724 0.000000
# 6 0.000000 0.000000 0.000000 0.010163 0.000000 0.061656
#
#
# Mechanical properties :
#
#
# Convention : Reuss Voigt Hill
#
# Bulk Modulus (GPa) = 54.23356 64.48575 59.35966
# Shear Modulus (GPa) = 19.69217 23.44549 21.56883
#
# Velocity S-wave (km/s) = 3.29983 3.60059 3.45349
# Velocity P-wave (km/s) = 6.67137 7.27622 6.98035
#
# Compressibility (1/GPa) = 0.01843877
#
# Stress axis : x y z
#
# Youngs Moduli (GPa) = 67.41501 82.58280 59.16233
#
# Poissons Ratio (x) = 0.46077 0.18512
# Poissons Ratio (y) = 0.37614 0.23634
# Poissons Ratio (z) = 0.21094 0.32990
#
# Static dielectric constant tensor:
#      x y z
#    x 3.330120 0.000000 -0.123120 
#    y 0.000000 3.396600 0.000000 
#    z -0.123120 0.000000 3.228290 
# 
# 
# High freq. dielectric constant tensor:
#      x y z
#    x 1.698590 0.000000 -0.010870 
#    y 0.000000 1.709680 0.000000 
#    z -0.010870 0.000000 1.684740 
# 
# From -- ./inp_files/66477.got.cif
#   From: 2010.06.25/outbox.cif.g09.slc.cpg/sg10_34_cif.got.tgz:66477.got - 2010.06.27 22:07:45.
