data_PCOD8063771
_publ_section_title
;
Structure prediction by ZEFSAII (Michael W. Deem and Ramdas Pophale) SiO2 
 PCOD8063771
Probable space group: P 2/M
;
_chemical_formula_sum "Si O2"
_cell_formula_units_Z 28
_cell_length_a 15.167814
_cell_length_b 8.874862
_cell_length_c 19.356327
_cell_angle_alpha 90.000000
_cell_angle_beta 143.519478
_cell_angle_gamma 90.000000
_cell_volume 1549.157432
_symmetry_space_group_name_H-M "P 2/M"
_symmetry_group_IT_number 10
_symmetry_cell_setting 'monoclinic'
loop_
_space_group_symop_operation_xyz
x,y,z
-x,y,-z
-x,-y,-z
x,-y,z
loop_
_atom_site_type_symbol
_atom_site_label
_atom_site_fract_x
_atom_site_fract_y
_atom_site_fract_z
Si Si1 0.402917 0.671402 0.248481
Si Si2 0.947843 0.177175 0.770367
Si Si3 0.700745 0.822719 0.395328
Si Si4 0.654680 0.325260 0.631012
Si Si5 0.142231 0.834361 0.637522
Si Si6 0.910121 0.326306 0.010321
Si Si7 0.027350 0.677305 0.356511
O O1 0.461944 0.500000 0.283893
O O2 0.533693 0.781518 0.308883
O O3 0.346917 0.712690 0.289325
O O4 0.265320 0.693792 0.110504
O O5 0.777680 0.224421 0.672223
O O6 0.012602 0.254871 0.742871
O O7 0.046207 0.226896 0.897035
O O8 0.958327 0.000000 0.767892
O O9 0.726821 0.776655 0.331068
O O10 0.815207 0.739456 0.517883
O O11 0.726756 0.000000 0.421461
O O12 0.500000 0.278852 0.500000
O O13 0.691943 0.500000 0.640912
O O14 0.000000 0.848001 0.500000
O O15 0.109467 0.719491 0.679005
O O16 0.179901 0.000000 0.692040
O O17 0.953276 0.500000 0.051809
O O18 0.000000 0.268785 0.000000
O O19 0.039783 0.500000 0.358847
#
# Coordination Sequence:
#
# PCOD8063771 Si02
#       7
#     4   4   4   4   4   4   4
#     4  10  20  34  55  80 107 143 183 224 263 313
#     4  12  24  36  54  79 108 140 179 227 274 322
#     4  10  20  34  54  82 117 147 174 217 271 324
#     4  10  20  35  54  77 107 143 178 216 266 321
#     4   8  16  32  52  77 111 146 175 212 267 323
#     4  10  20  39  60  76 102 142 187 227 269 316
#     4  11  21  34  55  81 110 144 183 223 266 321
#
# _framework density 18.074342000000001
#
# number of rings (size 3 to 8) (size 9 to 14) (size 15 to 20)
#    0.000    1.857    1.429    4.714    0.000    6.000 
#    0.000    0.000    0.000    0.857    0.000    6.000 
#    0.000    0.000    0.000    0.000    0.000    0.000 
#
# Total GULP energy -347244.627723 kJ/mol
# GULP energy per Si atom -12401.593847 kJ/mol
# Density = 1.803320 g / cm^3
# Si number density = 18.074342 Si / 1000 Ang^3
#
#
#
# Elastic Constant Matrix: (Units=GPa)
#
#
# Indices 1 2 3 4 5 6 
#
# 1 69.7390 47.7402 22.2928 0.0000 -29.4973 0.0000
# 2 47.7402 112.0322 35.3975 0.0000 -18.2428 0.0000
# 3 22.2928 35.3975 71.1700 0.0000 -18.9807 0.0000
# 4 0.0000 0.0000 0.0000 20.0953 0.0000 -2.9604
# 5 -29.4973 -18.2428 -18.9807 0.0000 20.7566 0.0000
# 6 0.0000 0.0000 0.0000 -2.9604 0.0000 30.7414
#
#
#
# Elastic Compliance Matrix: (Units=1/GPa)
#
#
# Indices 1 2 3 4 5 6 
#
# 1 0.047011 -0.012315 0.008372 0.000000 0.063639 0.000000
# 2 -0.012315 0.014401 -0.006080 0.000000 -0.010404 0.000000
# 3 0.008372 -0.006080 0.021425 0.000000 0.026147 0.000000
# 4 0.000000 0.000000 0.000000 0.050479 0.000000 0.004861
# 5 0.063639 -0.010404 0.026147 0.000000 0.153381 0.000000
# 6 0.000000 0.000000 0.000000 0.004861 0.000000 0.032998
#
#
# Mechanical properties :
#
#
# Convention : Reuss Voigt Hill
#
# Bulk Modulus (GPa) = 15.92576 51.53358 33.72967
# Shear Modulus (GPa) = 13.86311 24.15271 19.00791
#
# Velocity S-wave (km/s) = 2.77249 3.65951 3.24644
# Velocity P-wave (km/s) = 4.36799 6.81395 5.72316
#
# Compressibility (1/GPa) = 0.06279135
#
# Stress axis : x y z
#
# Youngs Moduli (GPa) = 21.27182 69.44160 46.67362
#
# Poissons Ratio (x) = 0.85518 -0.39075
# Poissons Ratio (y) = 0.26197 0.28375
# Poissons Ratio (z) = -0.17809 0.42217
#
# Static dielectric constant tensor:
#      x y z
#    x 3.641970 0.000000 -0.105040 
#    y 0.000000 3.281060 0.000000 
#    z -0.105040 0.000000 3.161750 
# 
# 
# High freq. dielectric constant tensor:
#      x y z
#    x 1.706370 0.000000 -0.008490 
#    y 0.000000 1.698760 0.000000 
#    z -0.008490 0.000000 1.677520 
# 
# From -- ./inp_files/54955.got.cif
#   From: 2010.06.25/outbox.cif.g09.slc.cpg/sg10_28_cif.got.tgz:54955.got - 2010.06.27 22:07:45.
