data_PCOD8063575
_publ_section_title
;
Structure prediction by ZEFSAII (Michael W. Deem and Ramdas Pophale) SiO2 
 PCOD8063575
Probable space group: P 2/M
;
_chemical_formula_sum "Si O2"
_cell_formula_units_Z 28
_cell_length_a 14.471071
_cell_length_b 9.831783
_cell_length_c 20.855471
_cell_angle_alpha 90.000000
_cell_angle_beta 150.478311
_cell_angle_gamma 90.000000
_cell_volume 1462.117356
_symmetry_space_group_name_H-M "P 2/M"
_symmetry_group_IT_number 10
_symmetry_cell_setting 'monoclinic'
loop_
_space_group_symop_operation_xyz
x,y,z
-x,y,-z
-x,-y,-z
x,-y,z
loop_
_atom_site_type_symbol
_atom_site_label
_atom_site_fract_x
_atom_site_fract_y
_atom_site_fract_z
Si Si1 0.762038 0.656106 0.997839
Si Si2 0.814128 0.157562 0.559970
Si Si3 0.969130 0.339677 0.406008
Si Si4 0.435499 0.661277 0.891540
Si Si5 0.399951 0.155643 0.340346
Si Si6 0.920977 0.154108 0.762468
Si Si7 0.779074 0.647131 0.864478
O O1 0.808228 0.500000 0.043910
O O2 0.591685 0.714833 0.936787
O O3 0.695798 0.670090 0.884949
O O4 0.948812 0.741856 0.121554
O O5 0.875448 0.254781 0.539046
O O6 0.612941 0.206619 0.465447
O O7 0.946863 0.177031 0.702046
O O8 0.815320 0.000000 0.537814
O O9 0.998068 0.500000 0.410593
O O10 0.000000 0.307751 0.500000
O O11 0.767177 0.288744 0.256956
O O12 0.430449 0.500000 0.890508
O O13 0.500000 0.719132 0.000000
O O14 0.296945 0.177297 0.346962
O O15 0.281869 0.231618 0.216105
O O16 0.395764 0.000000 0.317677
O O17 0.979806 0.000000 0.815780
O O18 0.707549 0.500000 0.795406
O O19 0.000000 0.645022 0.000000
#
# Coordination Sequence:
#
# PCOD8063575 Si02
#       7
#     4   4   4   4   4   4   4
#     4  10  20  34  56  81 110 145 181 225 280 334
#     4  10  22  39  58  81 111 148 186 229 282 330
#     4  10  22  39  60  85 111 145 192 239 281 335
#     4   9  18  34  56  81 108 141 182 228 280 335
#     4  10  21  36  56  80 110 149 190 225 269 333
#     4  10  20  36  57  82 113 146 184 229 274 329
#     4  10  20  34  52  79 113 145 180 228 280 326
#
# _framework density 19.150309
#
# number of rings (size 3 to 8) (size 9 to 14) (size 15 to 20)
#    0.000    2.143    1.429    1.286    2.000    5.143 
#    0.000    0.714    0.000    5.143    0.000    0.000 
#    0.000    0.000    0.000    0.000    0.000    0.000 
#
# Total GULP energy -347057.640742 kJ/mol
# GULP energy per Si atom -12394.915741 kJ/mol
# Density = 1.910672 g / cm^3
# Si number density = 19.150309 Si / 1000 Ang^3
#
#
#
# Elastic Constant Matrix: (Units=GPa)
#
#
# Indices 1 2 3 4 5 6 
#
# 1 130.1315 43.1904 34.6581 0.0000 -0.1036 0.0000
# 2 43.1904 53.1942 24.5132 0.0000 2.6154 0.0000
# 3 34.6581 24.5132 70.4260 0.0000 -3.9985 0.0000
# 4 0.0000 0.0000 0.0000 17.8343 0.0000 4.8245
# 5 -0.1036 2.6154 -3.9985 0.0000 28.3743 0.0000
# 6 0.0000 0.0000 0.0000 4.8245 0.0000 29.9464
#
#
#
# Elastic Compliance Matrix: (Units=1/GPa)
#
#
# Indices 1 2 3 4 5 6 
#
# 1 0.010947 -0.007662 -0.002699 0.000000 0.000366 0.000000
# 2 -0.007662 0.028043 -0.006188 0.000000 -0.003485 0.000000
# 3 -0.002699 -0.006188 0.017856 0.000000 0.003077 0.000000
# 4 0.000000 0.000000 0.000000 0.058627 0.000000 -0.009445
# 5 0.000366 -0.003485 0.003077 0.000000 0.035999 0.000000
# 6 0.000000 0.000000 0.000000 -0.009445 0.000000 0.034915
#
#
# Mechanical properties :
#
#
# Convention : Reuss Voigt Hill
#
# Bulk Modulus (GPa) = 42.11072 50.94169 46.52620
# Shear Modulus (GPa) = 21.98746 25.32366 23.65556
#
# Velocity S-wave (km/s) = 3.39211 3.64038 3.51844
# Velocity P-wave (km/s) = 6.11386 6.65797 6.39170
#
# Compressibility (1/GPa) = 0.02374692
#
# Stress axis : x y z
#
# Youngs Moduli (GPa) = 91.35061 35.65915 56.00245
#
# Poissons Ratio (x) = 0.27323 0.15117
# Poissons Ratio (y) = 0.69995 0.34655
# Poissons Ratio (z) = 0.24659 0.22066
#
# Static dielectric constant tensor:
#      x y z
#    x 3.784040 0.000000 -0.010580 
#    y 0.000000 3.365080 0.000000 
#    z -0.010580 0.000000 3.498390 
# 
# 
# High freq. dielectric constant tensor:
#      x y z
#    x 1.759790 0.000000 0.000350 
#    y 0.000000 1.724750 0.000000 
#    z 0.000350 0.000000 1.736490 
# 
# From -- ./inp_files/49065.got.cif
#   From: 2010.06.25/outbox.cif.g09.slc.cpg/sg10_25_cif.got.tgz:49065.got - 2010.06.27 22:07:45.
