data_PCOD8063547
_publ_section_title
;
Structure prediction by ZEFSAII (Michael W. Deem and Ramdas Pophale) SiO2 
 PCOD8063547
Probable space group: P 2/M
;
_chemical_formula_sum "Si O2"
_cell_formula_units_Z 32
_cell_length_a 12.056747
_cell_length_b 9.448050
_cell_length_c 14.576440
_cell_angle_alpha 90.000000
_cell_angle_beta 89.153648
_cell_angle_gamma 90.000000
_cell_volume 1660.261192
_symmetry_space_group_name_H-M "P 2/M"
_symmetry_group_IT_number 10
_symmetry_cell_setting 'monoclinic'
loop_
_space_group_symop_operation_xyz
x,y,z
-x,y,-z
-x,-y,-z
x,-y,z
loop_
_atom_site_type_symbol
_atom_site_label
_atom_site_fract_x
_atom_site_fract_y
_atom_site_fract_z
Si Si1 0.745663 0.667528 0.170822
Si Si2 0.290842 0.667323 0.625024
Si Si3 0.875263 0.834318 0.025647
Si Si4 0.298793 0.836323 0.124928
Si Si5 0.739839 0.833769 0.664098
Si Si6 0.502294 0.655925 0.143947
Si Si7 0.466833 0.341970 0.360384
Si Si8 0.875226 0.665867 0.529459
O O1 0.767860 0.500000 0.167569
O O2 0.744917 0.727142 0.275028
O O3 0.628356 0.705312 0.122958
O O4 0.842586 0.748482 0.116627
O O5 0.287792 0.500000 0.633578
O O6 0.417297 0.711050 0.595172
O O7 0.204811 0.721905 0.550474
O O8 0.798434 0.787549 0.941530
O O9 0.863783 0.000000 0.046835
O O10 0.000000 0.792177 0.000000
O O11 0.259370 0.799727 0.228091
O O12 0.413246 0.758093 0.097466
O O13 0.325864 0.000000 0.114546
O O14 0.631215 0.767404 0.616044
O O15 0.847315 0.756272 0.620539
O O16 0.743329 0.000000 0.643666
O O17 0.481883 0.500000 0.103139
O O18 0.488022 0.651847 0.252568
O O19 0.433750 0.500000 0.396383
O O20 0.858113 0.500000 0.550265
O O21 0.000000 0.699754 0.500000
#
# Coordination Sequence:
#
# PCOD8063547 Si02
#       8
#     4   4   4   4   4   4   4   4
#     4   9  18  34  55  78 103 130 163 206 254 298
#     4   8  16  33  55  77 103 133 163 202 252 300
#     4  10  22  38  52  70  99 135 175 211 244 292
#     4   9  19  35  53  73 101 136 167 200 248 301
#     4  10  20  34  52  75 104 133 163 206 254 295
#     4   8  15  29  51  78 103 126 158 203 251 300
#     4   8  14  29  53  76  99 130 165 198 243 305
#     4  10  21  36  53  74 100 133 174 211 244 293
#
# _framework density 19.274075
#
# number of rings (size 3 to 8) (size 9 to 14) (size 15 to 20)
#    0.000    3.000    0.000    1.875    0.000    4.000 
#    0.000    8.125    0.000    0.000    0.000    0.000 
#    0.000    0.000    0.000    0.000    0.000    0.000 
#
# Total GULP energy -396730.252506 kJ/mol
# GULP energy per Si atom -12397.820391 kJ/mol
# Density = 1.923021 g / cm^3
# Si number density = 19.274075 Si / 1000 Ang^3
#
#
#
# Elastic Constant Matrix: (Units=GPa)
#
#
# Indices 1 2 3 4 5 6 
#
# 1 89.4911 28.6227 13.6392 0.0000 -6.7004 0.0000
# 2 28.6227 51.1276 17.6249 0.0000 -10.7967 0.0000
# 3 13.6392 17.6249 38.5771 0.0000 -2.3417 0.0000
# 4 0.0000 0.0000 0.0000 18.6110 0.0000 -5.3341
# 5 -6.7004 -10.7967 -2.3417 0.0000 33.8475 0.0000
# 6 0.0000 0.0000 0.0000 -5.3341 0.0000 27.0986
#
#
#
# Elastic Compliance Matrix: (Units=1/GPa)
#
#
# Indices 1 2 3 4 5 6 
#
# 1 0.013697 -0.007040 -0.001605 0.000000 0.000355 0.000000
# 2 -0.007040 0.028452 -0.010086 0.000000 0.006984 0.000000
# 3 -0.001605 -0.010086 0.031013 0.000000 -0.001389 0.000000
# 4 0.000000 0.000000 0.000000 0.056944 0.000000 0.011209
# 5 0.000355 0.006984 -0.001389 0.000000 0.031746 0.000000
# 6 0.000000 0.000000 0.000000 0.011209 0.000000 0.039109
#
#
# Mechanical properties :
#
#
# Convention : Reuss Voigt Hill
#
# Bulk Modulus (GPa) = 28.01060 33.21881 30.61470
# Shear Modulus (GPa) = 19.97421 23.86535 21.91978
#
# Velocity S-wave (km/s) = 3.22269 3.52264 3.37600
# Velocity P-wave (km/s) = 5.33029 5.81530 5.57807
#
# Compressibility (1/GPa) = 0.03570077
#
# Stress axis : x y z
#
# Youngs Moduli (GPa) = 73.00834 35.14723 32.24433
#
# Poissons Ratio (x) = 0.24743 0.05175
# Poissons Ratio (y) = 0.51397 0.32521
# Poissons Ratio (z) = 0.11716 0.35449
#
# Static dielectric constant tensor:
#      x y z
#    x 3.678170 0.000000 0.103330 
#    y 0.000000 3.318850 0.000000 
#    z 0.103330 0.000000 3.507390 
# 
# 
# High freq. dielectric constant tensor:
#      x y z
#    x 1.749840 0.000000 -0.002620 
#    y 0.000000 1.724000 0.000000 
#    z -0.002620 0.000000 1.749480 
# 
# From -- ./inp_files/63848.got.cif
#   From: 2010.06.25/outbox.cif.g09.slc.cpg/sg10_32_cif.got.tgz:63848.got - 2010.06.27 22:07:45.
