data_PCOD8063684
_publ_section_title
;
Structure prediction by ZEFSAII (Michael W. Deem and Ramdas Pophale) SiO2 
 PCOD8063684
Probable space group: P 2/M
;
_chemical_formula_sum "Si O2"
_cell_formula_units_Z 32
_cell_length_a 23.106597
_cell_length_b 9.446630
_cell_length_c 14.987673
_cell_angle_alpha 90.000000
_cell_angle_beta 30.587970
_cell_angle_gamma 90.000000
_cell_volume 1664.738406
_symmetry_space_group_name_H-M "P 2/M"
_symmetry_group_IT_number 10
_symmetry_cell_setting 'monoclinic'
loop_
_space_group_symop_operation_xyz
x,y,z
-x,y,-z
-x,-y,-z
x,-y,z
loop_
_atom_site_type_symbol
_atom_site_label
_atom_site_fract_x
_atom_site_fract_y
_atom_site_fract_z
Si Si1 0.254150 0.159669 0.978386
Si Si2 0.942028 0.339583 0.831935
Si Si3 0.920002 0.668321 0.185382
Si Si4 0.082152 0.339593 0.467765
Si Si5 0.495591 0.166110 0.402155
Si Si6 0.508480 0.336487 0.093330
Si Si7 0.339321 0.334194 0.474724
Si Si8 0.276929 0.838272 0.149265
O O1 0.383387 0.210073 0.798666
O O2 0.241275 0.000000 0.960244
O O3 0.174518 0.254656 0.022495
O O4 0.220099 0.171847 0.127090
O O5 0.906735 0.500000 0.901104
O O6 0.019718 0.273140 0.805901
O O7 0.016761 0.330057 0.645664
O O8 0.915700 0.500000 0.192252
O O9 0.790315 0.724105 0.353446
O O10 0.000000 0.725450 0.000000
O O11 0.121306 0.500000 0.394318
O O12 0.193321 0.241806 0.328157
O O13 0.000000 0.281476 0.500000
O O14 0.500000 0.209229 0.500000
O O15 0.401748 0.252651 0.471901
O O16 0.469438 0.000000 0.424805
O O17 0.545374 0.500000 0.053094
O O18 0.393962 0.307885 0.303365
O O19 0.500000 0.295621 0.000000
O O20 0.601926 0.236828 0.013425
O O21 0.344009 0.500000 0.491619
O O22 0.292601 0.000000 0.159108
#
# Coordination Sequence:
#
# PCOD8063684 Si02
#       8
#     4   4   4   4   4   4   4   4
#     4  10  21  37  56  82 117 149 185 236 288 340
#     4  10  21  36  59  84 111 151 193 233 280 340
#     4   9  20  38  58  83 115 148 186 239 291 330
#     4  10  20  34  53  81 114 147 185 228 275 335
#     4  10  22  40  61  84 115 155 189 231 293 348
#     4  10  22  38  59  84 113 153 194 237 286 342
#     4  10  21  38  61  89 117 148 193 242 287 343
#     4  11  22  36  56  81 115 153 187 232 288 342
#
# _framework density 19.222238999999998
#
# number of rings (size 3 to 8) (size 9 to 14) (size 15 to 20)
#    0.000    2.000    2.500    0.375    3.500    2.250 
#    0.000    0.625    0.000    0.750    0.000    0.000 
#    0.000    0.000    0.000    0.000    0.000    0.000 
#
# Total GULP energy -396779.736608 kJ/mol
# GULP energy per Si atom -12399.366769 kJ/mol
# Density = 1.917849 g / cm^3
# Si number density = 19.222239 Si / 1000 Ang^3
#
#
#
# Elastic Constant Matrix: (Units=GPa)
#
#
# Indices 1 2 3 4 5 6 
#
# 1 138.7120 49.0646 57.7292 0.0000 -10.7236 0.0000
# 2 49.0646 70.7670 45.1412 0.0000 -16.5519 0.0000
# 3 57.7292 45.1412 107.6824 0.0000 -16.3970 0.0000
# 4 0.0000 0.0000 0.0000 28.8393 0.0000 1.3677
# 5 -10.7236 -16.5519 -16.3970 0.0000 36.7527 0.0000
# 6 0.0000 0.0000 0.0000 1.3677 0.0000 15.1169
#
#
#
# Elastic Compliance Matrix: (Units=1/GPa)
#
#
# Indices 1 2 3 4 5 6 
#
# 1 0.010459 -0.005179 -0.003569 0.000000 -0.000873 0.000000
# 2 -0.005179 0.022927 -0.005893 0.000000 0.006185 0.000000
# 3 -0.003569 -0.005893 0.014063 0.000000 0.002579 0.000000
# 4 0.000000 0.000000 0.000000 0.034824 0.000000 -0.003151
# 5 -0.000873 0.006185 0.002579 0.000000 0.030890 0.000000
# 6 0.000000 0.000000 0.000000 -0.003151 0.000000 0.066436
#
#
# Mechanical properties :
#
#
# Convention : Reuss Voigt Hill
#
# Bulk Modulus (GPa) = 55.04371 69.00349 62.02360
# Shear Modulus (GPa) = 23.26255 27.15687 25.20971
#
# Velocity S-wave (km/s) = 3.48255 3.76278 3.62537
# Velocity P-wave (km/s) = 6.69839 7.40633 7.06124
#
# Compressibility (1/GPa) = 0.01816738
#
# Stress axis : x y z
#
# Youngs Moduli (GPa) = 95.61199 43.61594 71.10894
#
# Poissons Ratio (x) = 0.22589 0.25378
# Poissons Ratio (y) = 0.49518 0.41904
# Poissons Ratio (z) = 0.34123 0.25703
#
# Static dielectric constant tensor:
#      x y z
#    x 3.408470 0.000000 0.045390 
#    y 0.000000 3.370340 0.000000 
#    z 0.045390 0.000000 3.608880 
# 
# 
# High freq. dielectric constant tensor:
#      x y z
#    x 1.747800 0.000000 0.001160 
#    y 0.000000 1.726370 0.000000 
#    z 0.001160 0.000000 1.757450 
# 
# From -- ./inp_files/71516.got.cif
#   From: 2010.06.25/outbox.cif.g09.slc.cpg/sg10_36_cif.got.tgz:71516.got - 2010.06.27 22:07:45.
