data_PCOD8063169
_publ_section_title
;
Structure prediction by ZEFSAII (Michael W. Deem and Ramdas Pophale) SiO2 
 PCOD8063169
Probable space group: P 2/M
;
_chemical_formula_sum "Si O2"
_cell_formula_units_Z 24
_cell_length_a 22.703662
_cell_length_b 8.942309
_cell_length_c 21.325363
_cell_angle_alpha 90.000000
_cell_angle_beta 161.831572
_cell_angle_gamma 90.000000
_cell_volume 1350.000754
_symmetry_space_group_name_H-M "P 2/M"
_symmetry_group_IT_number 10
_symmetry_cell_setting 'monoclinic'
loop_
_space_group_symop_operation_xyz
x,y,z
-x,y,-z
-x,-y,-z
x,-y,z
loop_
_atom_site_type_symbol
_atom_site_label
_atom_site_fract_x
_atom_site_fract_y
_atom_site_fract_z
Si Si1 0.009946 0.822447 0.110524
Si Si2 0.707556 0.674784 0.035692
Si Si3 0.305974 0.175247 0.648220
Si Si4 0.291628 0.178238 0.292403
Si Si5 0.029019 0.325917 0.458274
Si Si6 0.986467 0.823929 0.227228
O O1 0.191440 0.764846 0.254919
O O2 0.013383 0.758562 0.184404
O O3 0.014146 0.000000 0.117687
O O4 0.822511 0.767563 0.884460
O O5 0.682607 0.500000 0.999446
O O6 0.836715 0.710131 0.226665
O O7 0.803818 0.744755 0.071674
O O8 0.504949 0.745921 0.841482
O O9 0.175662 0.215710 0.456792
O O10 0.204492 0.233761 0.608246
O O11 0.339638 0.000000 0.688601
O O12 0.500000 0.248605 0.500000
O O13 0.298802 0.000000 0.300320
O O14 0.081549 0.500000 0.506995
O O15 0.000000 0.273547 0.500000
O O16 0.946689 0.000000 0.187416
#
# Coordination Sequence:
#
# PCOD8063169 Si02
#       6
#     4   4   4   4   4   4
#     4   8  14  24  38  60  90 121 153 188 229 279
#     4  10  20  34  52  72  96 126 160 198 238 283
#     4  10  20  33  50  73 101 129 158 196 240 285
#     4   8  13  21  35  58  89 121 150 185 231 279
#     4   9  19  36  55  73  95 126 163 199 235 280
#     4   9  18  32  49  70  97 128 161 197 238 283
#
# _framework density 17.777767999999998
#
# number of rings (size 3 to 8) (size 9 to 14) (size 15 to 20)
#    0.000    3.000    0.000    2.000    0.000    3.667 
#    0.000    8.333    0.000    0.000    0.000    2.333 
#    0.000    6.667    0.000    0.000    0.000    0.000 
#
# Total GULP energy -297555.368938 kJ/mol
# GULP energy per Si atom -12398.140372 kJ/mol
# Density = 1.773731 g / cm^3
# Si number density = 17.777768 Si / 1000 Ang^3
#
#
#
# Elastic Constant Matrix: (Units=GPa)
#
#
# Indices 1 2 3 4 5 6 
#
# 1 178.2367 38.3941 86.3257 0.0000 2.9482 0.0000
# 2 38.3941 45.4137 41.6078 0.0000 9.4264 0.0000
# 3 86.3257 41.6078 144.8126 0.0000 27.5881 0.0000
# 4 0.0000 0.0000 0.0000 24.0673 0.0000 4.4815
# 5 2.9482 9.4264 27.5881 0.0000 23.8412 0.0000
# 6 0.0000 0.0000 0.0000 4.4815 0.0000 5.5597
#
#
#
# Elastic Compliance Matrix: (Units=1/GPa)
#
#
# Indices 1 2 3 4 5 6 
#
# 1 0.009049 -0.003985 -0.005563 0.000000 0.006893 0.000000
# 2 -0.003985 0.031751 -0.005708 0.000000 -0.005456 0.000000
# 3 -0.005563 -0.005708 0.014496 0.000000 -0.013830 0.000000
# 4 0.000000 0.000000 0.000000 0.048888 0.000000 -0.039407
# 5 0.006893 -0.005456 -0.013830 0.000000 0.059252 0.000000
# 6 0.000000 0.000000 0.000000 -0.039407 0.000000 0.211632
#
#
# Mechanical properties :
#
#
# Convention : Reuss Voigt Hill
#
# Bulk Modulus (GPa) = 40.34648 77.90204 59.12426
# Shear Modulus (GPa) = 12.08196 24.16933 18.12564
#
# Velocity S-wave (km/s) = 2.60976 3.69117 3.19653
# Velocity P-wave (km/s) = 5.64139 7.87918 6.85225
#
# Compressibility (1/GPa) = 0.02478531
#
# Stress axis : x y z
#
# Youngs Moduli (GPa) = 110.50940 31.49554 68.98369
#
# Poissons Ratio (x) = 0.12550 0.38373
# Poissons Ratio (y) = 0.44034 0.39375
# Poissons Ratio (z) = 0.61473 0.17977
#
# Static dielectric constant tensor:
#      x y z
#    x 3.578440 0.000000 0.008150 
#    y 0.000000 2.980960 0.000000 
#    z 0.008150 0.000000 3.405510 
# 
# 
# High freq. dielectric constant tensor:
#      x y z
#    x 1.695340 0.000000 0.003870 
#    y 0.000000 1.654390 0.000000 
#    z 0.003870 0.000000 1.690710 
# 
# From -- ./inp_files/86078.got.cif
#   From: 2010.06.25/outbox.cif.g09.slc.cpg/sg10_44_cif.got.tgz:86078.got - 2010.06.27 22:07:45.
