data_PCOD8063853
_publ_section_title
;
Structure prediction by ZEFSAII (Michael W. Deem and Ramdas Pophale) SiO2 
 PCOD8063853
Probable space group: P 2/M
;
_chemical_formula_sum "Si O2"
_cell_formula_units_Z 32
_cell_length_a 23.701658
_cell_length_b 13.468302
_cell_length_c 16.079020
_cell_angle_alpha 90.000000
_cell_angle_beta 162.269326
_cell_angle_gamma 90.000000
_cell_volume 1563.147002
_symmetry_space_group_name_H-M "P 2/M"
_symmetry_group_IT_number 10
_symmetry_cell_setting 'monoclinic'
loop_
_space_group_symop_operation_xyz
x,y,z
-x,y,-z
-x,-y,-z
x,-y,z
loop_
_atom_site_type_symbol
_atom_site_label
_atom_site_fract_x
_atom_site_fract_y
_atom_site_fract_z
Si Si1 0.482412 0.392429 0.212661
Si Si2 0.898057 0.802120 0.480924
Si Si3 0.893175 0.390840 0.217091
Si Si4 0.720644 0.115177 0.951799
Si Si5 0.679910 0.108572 0.308874
Si Si6 0.827972 0.613484 0.816483
Si Si7 0.708711 0.291074 0.808920
Si Si8 0.557287 0.184440 0.889006
O O1 0.510453 0.500000 0.207544
O O2 0.633812 0.379540 0.496563
O O3 0.496085 0.299868 0.169736
O O4 0.275957 0.384576 0.957598
O O5 0.825516 0.813133 0.474586
O O6 0.948370 0.687315 0.534442
O O7 0.078690 0.870790 0.724793
O O8 0.748856 0.841037 0.205095
O O9 0.984695 0.500000 0.346390
O O10 0.811724 0.368038 0.012712
O O11 0.681988 0.000000 0.876434
O O12 0.707644 0.180367 0.848593
O O13 0.573043 0.154385 0.813837
O O14 0.617739 0.128074 0.316494
O O15 0.773159 0.000000 0.435899
O O16 0.500000 0.113871 0.000000
O O17 0.855550 0.500000 0.888285
O O18 0.820099 0.696276 0.878685
O O19 0.000000 0.643973 0.000000
O O20 0.500000 0.326703 0.500000
#
# Coordination Sequence:
#
# PCOD8063853 Si02
#       8
#     4   4   4   4   4   4   4   4
#     4  10  20  35  55  85 119 149 187 232 285 344
#     4  10  21  36  56  82 114 152 196 239 281 336
#     4  10  20  34  55  85 115 150 191 231 281 341
#     4  11  23  36  55  85 112 142 190 242 289 338
#     4   9  19  35  56  79 107 150 197 240 288 336
#     4  10  21  37  60  88 114 146 188 232 281 341
#     4  11  20  37  59  80 111 148 185 235 286 343
#     4  11  20  37  57  82 116 154 193 235 287 338
#
# _framework density 20.471523999999999
#
# number of rings (size 3 to 8) (size 9 to 14) (size 15 to 20)
#    0.000    1.750    3.750    1.500    0.000    5.250 
#    0.000    3.125    0.000    2.625    0.000    0.000 
#    0.000    0.000    0.000    0.000    0.000    0.000 
#
# Total GULP energy -396540.235967 kJ/mol
# GULP energy per Si atom -12391.882374 kJ/mol
# Density = 2.042493 g / cm^3
# Si number density = 20.471524 Si / 1000 Ang^3
#
#
#
# Elastic Constant Matrix: (Units=GPa)
#
#
# Indices 1 2 3 4 5 6 
#
# 1 105.3580 45.8494 15.2159 0.0000 19.8342 0.0000
# 2 45.8494 122.9944 16.2329 0.0000 22.1376 0.0000
# 3 15.2159 16.2329 26.7363 0.0000 6.6709 0.0000
# 4 0.0000 0.0000 0.0000 20.4916 0.0000 0.2418
# 5 19.8342 22.1376 6.6709 0.0000 21.8829 0.0000
# 6 0.0000 0.0000 0.0000 0.2418 0.0000 29.0210
#
#
#
# Elastic Compliance Matrix: (Units=1/GPa)
#
#
# Indices 1 2 3 4 5 6 
#
# 1 0.012680 -0.002912 -0.003589 0.000000 -0.007453 0.000000
# 2 -0.002912 0.010982 -0.003136 0.000000 -0.007515 0.000000
# 3 -0.003589 -0.003136 0.043017 0.000000 -0.006689 0.000000
# 4 0.000000 0.000000 0.000000 0.048805 0.000000 -0.000407
# 5 -0.007453 -0.007515 -0.006689 0.000000 0.062095 0.000000
# 6 0.000000 0.000000 0.000000 -0.000407 0.000000 0.034461
#
#
# Mechanical properties :
#
#
# Convention : Reuss Voigt Hill
#
# Bulk Modulus (GPa) = 21.09380 45.52056 33.30718
# Shear Modulus (GPa) = 20.23340 26.13180 23.18260
#
# Velocity S-wave (km/s) = 3.14724 3.57668 3.36881
# Velocity P-wave (km/s) = 4.85110 6.27226 5.60689
#
# Compressibility (1/GPa) = 0.04740729
#
# Stress axis : x y z
#
# Youngs Moduli (GPa) = 78.86471 91.05528 23.24638
#
# Poissons Ratio (x) = 0.26512 0.08343
# Poissons Ratio (y) = 0.22962 0.07290
# Poissons Ratio (z) = 0.28303 0.28553
#
# Static dielectric constant tensor:
#      x y z
#    x 3.737850 0.000000 0.198070 
#    y 0.000000 3.922260 0.000000 
#    z 0.198070 0.000000 3.576150 
# 
# 
# High freq. dielectric constant tensor:
#      x y z
#    x 1.787720 0.000000 0.011980 
#    y 0.000000 1.799340 0.000000 
#    z 0.011980 0.000000 1.782590 
# 
# From -- ./inp_files/61859.got.cif
#   From: 2010.06.25/outbox.cif.g09.slc.cpg/sg10_31_cif.got.tgz:61859.got - 2010.06.27 22:07:45.
