data_PCOD8063421
_publ_section_title
;
Structure prediction by ZEFSAII (Michael W. Deem and Ramdas Pophale) SiO2 
 PCOD8063421
Probable space group: P 2/M
;
_chemical_formula_sum "Si O2"
_cell_formula_units_Z 32
_cell_length_a 18.987795
_cell_length_b 8.917665
_cell_length_c 11.767046
_cell_angle_alpha 90.000000
_cell_angle_beta 53.231519
_cell_angle_gamma 90.000000
_cell_volume 1596.094524
_symmetry_space_group_name_H-M "P 2/M"
_symmetry_group_IT_number 10
_symmetry_cell_setting 'monoclinic'
loop_
_space_group_symop_operation_xyz
x,y,z
-x,y,-z
-x,-y,-z
x,-y,z
loop_
_atom_site_type_symbol
_atom_site_label
_atom_site_fract_x
_atom_site_fract_y
_atom_site_fract_z
Si Si1 0.688650 0.669797 0.190341
Si Si2 0.586866 0.174138 0.730239
Si Si3 0.578178 0.668683 0.506359
Si Si4 0.123979 0.321448 0.938680
Si Si5 0.389128 0.174681 0.937653
Si Si6 0.083533 0.678621 0.492528
Si Si7 0.050783 0.321741 0.776477
Si Si8 0.722462 0.677435 0.762972
O O1 0.683067 0.500000 0.148215
O O2 0.665306 0.672205 0.346021
O O3 0.786788 0.737040 0.090004
O O4 0.623773 0.772717 0.179482
O O5 0.588660 0.213198 0.596250
O O6 0.489980 0.210510 0.875341
O O7 0.661958 0.269558 0.717849
O O8 0.608492 0.000000 0.726226
O O9 0.500000 0.719778 0.500000
O O10 0.560771 0.500000 0.571165
O O11 0.124115 0.500000 0.933321
O O12 0.114085 0.263993 0.817401
O O13 0.046506 0.264860 0.095658
O O14 0.370405 0.000000 0.967220
O O15 0.317941 0.260227 0.082057
O O16 0.081107 0.500000 0.496727
O O17 0.077312 0.743704 0.627470
O O18 0.176641 0.733762 0.349659
O O19 0.000000 0.738826 0.500000
O O20 0.052644 0.500000 0.767459
O O21 0.720312 0.500000 0.768983
#
# Coordination Sequence:
#
# PCOD8063421 Si02
#       8
#     4   4   4   4   4   4   4   4
#     4  10  20  33  56  87 117 149 191 239 288 340
#     4  11  24  41  61  83 115 158 201 241 288 353
#     4  10  20  35  56  86 121 150 185 240 295 339
#     4   8  15  26  47  79 111 145 180 224 277 332
#     4  11  24  41  59  81 115 156 199 243 290 348
#     4   9  19  33  52  83 119 148 180 232 291 347
#     4   8  14  27  46  74 113 147 178 220 279 338
#     4  11  24  39  62  90 115 148 194 247 298 342
#
# _framework density 20.048938
#
# number of rings (size 3 to 8) (size 9 to 14) (size 15 to 20)
#    0.000    2.250    1.250    2.250    3.500    3.750 
#    0.000    0.000    0.000    1.500    0.000    1.750 
#    0.000    0.000    0.000    0.000    0.000    0.000 
#
# Total GULP energy -396653.150770 kJ/mol
# GULP energy per Si atom -12395.410962 kJ/mol
# Density = 2.000331 g / cm^3
# Si number density = 20.048938 Si / 1000 Ang^3
#
#
#
# Elastic Constant Matrix: (Units=GPa)
#
#
# Indices 1 2 3 4 5 6 
#
# 1 111.2885 34.9978 50.1600 0.0000 -18.1568 0.0000
# 2 34.9978 45.7765 31.7205 0.0000 -6.3344 0.0000
# 3 50.1600 31.7205 117.2539 0.0000 -3.1284 0.0000
# 4 0.0000 0.0000 0.0000 14.7784 0.0000 0.1739
# 5 -18.1568 -6.3344 -3.1284 0.0000 35.5388 0.0000
# 6 0.0000 0.0000 0.0000 0.1739 0.0000 7.8151
#
#
#
# Elastic Compliance Matrix: (Units=1/GPa)
#
#
# Indices 1 2 3 4 5 6 
#
# 1 0.013869 -0.007183 -0.003844 0.000000 0.005467 0.000000
# 2 -0.007183 0.031234 -0.005339 0.000000 0.001427 0.000000
# 3 -0.003844 -0.005339 0.011567 0.000000 -0.001897 0.000000
# 4 0.000000 0.000000 0.000000 0.067684 0.000000 -0.001506
# 5 0.005467 0.001427 -0.001897 0.000000 0.031019 0.000000
# 6 0.000000 0.000000 0.000000 -0.001506 0.000000 0.127990
#
#
# Mechanical properties :
#
#
# Convention : Reuss Voigt Hill
#
# Bulk Modulus (GPa) = 41.77470 56.45283 49.11377
# Shear Modulus (GPa) = 15.42857 22.12251 18.77554
#
# Velocity S-wave (km/s) = 2.77708 3.32539 3.06352
# Velocity P-wave (km/s) = 5.58252 6.55461 6.08800
#
# Compressibility (1/GPa) = 0.02393793
#
# Stress axis : x y z
#
# Youngs Moduli (GPa) = 72.10254 32.01630 86.45635
#
# Poissons Ratio (x) = 0.22998 0.33233
# Poissons Ratio (y) = 0.51794 0.46156
# Poissons Ratio (z) = 0.27716 0.17092
#
# Static dielectric constant tensor:
#      x y z
#    x 3.871610 0.000000 -0.127670 
#    y 0.000000 3.162530 0.000000 
#    z -0.127670 0.000000 3.926210 
# 
# 
# High freq. dielectric constant tensor:
#      x y z
#    x 1.790870 0.000000 -0.003530 
#    y 0.000000 1.730250 0.000000 
#    z -0.003530 0.000000 1.793230 
# 
# From -- ./inp_files/55240.got.cif
#   From: 2010.06.25/outbox.cif.g09.slc.cpg/sg10_28_cif.got.tgz:55240.got - 2010.06.27 22:07:45.
