data_PCOD8063265
_publ_section_title
;
Structure prediction by ZEFSAII (Michael W. Deem and Ramdas Pophale) SiO2 
 PCOD8063265
Probable space group: P 2/M
;
_chemical_formula_sum "Si O2"
_cell_formula_units_Z 32
_cell_length_a 26.584475
_cell_length_b 9.046801
_cell_length_c 21.234305
_cell_angle_alpha 90.000000
_cell_angle_beta 160.284382
_cell_angle_gamma 90.000000
_cell_volume 1722.837466
_symmetry_space_group_name_H-M "P 2/M"
_symmetry_group_IT_number 10
_symmetry_cell_setting 'monoclinic'
loop_
_space_group_symop_operation_xyz
x,y,z
-x,y,-z
-x,-y,-z
x,-y,z
loop_
_atom_site_type_symbol
_atom_site_label
_atom_site_fract_x
_atom_site_fract_y
_atom_site_fract_z
Si Si1 0.364756 0.666831 0.926308
Si Si2 0.048587 0.170956 0.877691
Si Si3 0.857832 0.827982 0.872945
Si Si4 0.765580 0.322858 0.491509
Si Si5 0.294113 0.664414 0.711661
Si Si6 0.656367 0.831299 0.844521
Si Si7 0.440743 0.325617 0.497043
Si Si8 0.542667 0.171290 0.847734
O O1 0.308061 0.500000 0.874401
O O2 0.278009 0.738252 0.762588
O O3 0.535948 0.659566 0.109442
O O4 0.348600 0.769205 0.968613
O O5 0.903848 0.270031 0.695650
O O6 0.999088 0.000000 0.820256
O O7 0.117391 0.218277 0.025603
O O8 0.171835 0.203294 0.969660
O O9 0.722086 0.739298 0.682700
O O10 0.820828 0.000000 0.823426
O O11 0.000000 0.782928 0.000000
O O12 0.752875 0.500000 0.477837
O O13 0.791066 0.263601 0.448858
O O14 0.613561 0.257538 0.341092
O O15 0.232769 0.500000 0.649068
O O16 0.548938 0.724285 0.679866
O O17 0.634901 0.802603 0.892914
O O18 0.617643 0.000000 0.780374
O O19 0.500000 0.265671 0.500000
O O20 0.430447 0.500000 0.485649
O O21 0.507605 0.000000 0.818555
#
# Coordination Sequence:
#
# PCOD8063265 Si02
#       8
#     4   4   4   4   4   4   4   4
#     4   8  13  26  48  72 101 135 172 214 259 304
#     4  10  21  38  56  76 104 139 179 218 257 308
#     4  10  22  39  60  82 105 139 178 214 260 316
#     4  10  20  34  53  78 109 141 172 213 267 315
#     4   7  12  25  46  71 100 137 173 205 252 315
#     4  10  22  39  58  75 102 146 182 210 255 316
#     4  11  23  38  58  84 109 133 172 222 263 306
#     4  10  20  33  51  79 108 136 176 219 257 306
#
# _framework density 18.574010000000001
#
# number of rings (size 3 to 8) (size 9 to 14) (size 15 to 20)
#    0.000    2.500    1.250    2.625    1.750    2.750 
#    0.000    5.625    0.000    0.750    0.000    5.250 
#    0.000    0.000    0.000    0.000    0.000    0.000 
#
# Total GULP energy -396592.450769 kJ/mol
# GULP energy per Si atom -12393.514087 kJ/mol
# Density = 1.853173 g / cm^3
# Si number density = 18.574010 Si / 1000 Ang^3
#
#
#
# Elastic Constant Matrix: (Units=GPa)
#
#
# Indices 1 2 3 4 5 6 
#
# 1 105.1410 32.1658 19.9692 0.0000 0.9260 0.0000
# 2 32.1658 58.9261 16.0519 0.0000 3.4002 0.0000
# 3 19.9692 16.0519 32.3249 0.0000 5.9323 0.0000
# 4 0.0000 0.0000 0.0000 21.6342 0.0000 -8.2399
# 5 0.9260 3.4002 5.9323 0.0000 19.8639 0.0000
# 6 0.0000 0.0000 0.0000 -8.2399 0.0000 23.0113
#
#
#
# Elastic Compliance Matrix: (Units=1/GPa)
#
#
# Indices 1 2 3 4 5 6 
#
# 1 0.012102 -0.005301 -0.005191 0.000000 0.001894 0.000000
# 2 -0.005301 0.021952 -0.007386 0.000000 -0.001304 0.000000
# 3 -0.005191 -0.007386 0.039711 0.000000 -0.010353 0.000000
# 4 0.000000 0.000000 0.000000 0.053523 0.000000 0.019166
# 5 0.001894 -0.001304 -0.010353 0.000000 0.053570 0.000000
# 6 0.000000 0.000000 0.000000 0.019166 0.000000 0.050320
#
#
# Mechanical properties :
#
#
# Convention : Reuss Voigt Hill
#
# Bulk Modulus (GPa) = 26.31118 36.97400 31.64259
# Shear Modulus (GPa) = 17.88246 21.44887 19.66567
#
# Velocity S-wave (km/s) = 3.10622 3.40189 3.25741
# Velocity P-wave (km/s) = 5.20203 5.94811 5.58754
#
# Compressibility (1/GPa) = 0.03800666
#
# Stress axis : x y z
#
# Youngs Moduli (GPa) = 82.62987 45.55480 25.18204
#
# Poissons Ratio (x) = 0.24150 0.13073
# Poissons Ratio (y) = 0.43805 0.18600
# Poissons Ratio (z) = 0.42896 0.33648
#
# Static dielectric constant tensor:
#      x y z
#    x 3.696170 0.000000 -0.373050 
#    y 0.000000 3.294600 0.000000 
#    z -0.373050 0.000000 3.354900 
# 
# 
# High freq. dielectric constant tensor:
#      x y z
#    x 1.725010 0.000000 -0.022410 
#    y 0.000000 1.705040 0.000000 
#    z -0.022410 0.000000 1.703120 
# 
# From -- ./inp_files/86936.got.cif
#   From: 2010.06.25/outbox.cif.g09.slc.cpg/sg10_44_cif.got.tgz:86936.got - 2010.06.27 22:07:45.
