data_PCOD8063323
_publ_section_title
;
Structure prediction by ZEFSAII (Michael W. Deem and Ramdas Pophale) SiO2 
 PCOD8063323
Probable space group: P 2/M
;
_chemical_formula_sum "Si O2"
_cell_formula_units_Z 32
_cell_length_a 15.264472
_cell_length_b 8.872320
_cell_length_c 22.609085
_cell_angle_alpha 90.000000
_cell_angle_beta 31.427474
_cell_angle_gamma 90.000000
_cell_volume 1596.572725
_symmetry_space_group_name_H-M "P 2/M"
_symmetry_group_IT_number 10
_symmetry_cell_setting 'monoclinic'
loop_
_space_group_symop_operation_xyz
x,y,z
-x,y,-z
-x,-y,-z
x,-y,z
loop_
_atom_site_type_symbol
_atom_site_label
_atom_site_fract_x
_atom_site_fract_y
_atom_site_fract_z
Si Si1 0.478217 0.823284 0.822850
Si Si2 0.885413 0.321681 0.119142
Si Si3 0.487977 0.678312 0.692311
Si Si4 0.683181 0.666523 0.807864
Si Si5 0.114467 0.174838 0.076905
Si Si6 0.216293 0.173722 0.533359
Si Si7 0.882895 0.178336 0.790359
Si Si8 0.966629 0.666023 0.455307
O O1 0.540721 0.744098 0.726417
O O2 0.565406 0.760809 0.831880
O O3 0.516838 0.000000 0.796525
O O4 0.280380 0.790227 0.943473
O O5 0.891033 0.500000 0.117653
O O6 0.696646 0.262514 0.218597
O O7 0.956507 0.260923 0.140063
O O8 0.000000 0.257858 0.000000
O O9 0.493819 0.500000 0.693468
O O10 0.608706 0.733350 0.568538
O O11 0.604323 0.500000 0.865408
O O12 0.724894 0.751256 0.845622
O O13 0.860291 0.643942 0.676353
O O14 0.140990 0.230767 0.128676
O O15 0.069520 0.000000 0.103164
O O16 0.071407 0.232711 0.661865
O O17 0.145593 0.204589 0.508729
O O18 0.258307 0.000000 0.519807
O O19 0.872044 0.000000 0.787239
O O20 0.875640 0.500000 0.509163
O O21 0.000000 0.731499 0.500000
#
# Coordination Sequence:
#
# PCOD8063323 Si02
#       8
#     4   4   4   4   4   4   4   4
#     4  11  22  35  55  85 116 147 188 235 283 335
#     4  10  21  39  61  86 114 145 181 226 285 342
#     4  11  22  37  58  84 117 148 179 229 287 340
#     4  10  20  33  52  80 113 152 193 232 275 327
#     4  10  22  39  61  85 111 148 190 234 282 333
#     4  10  20  34  55  80 108 145 187 229 274 328
#     4   9  20  40  59  79 113 154 193 233 277 324
#     4   9  17  30  48  71 103 143 185 228 276 325
#
# _framework density 20.042933000000001
#
# number of rings (size 3 to 8) (size 9 to 14) (size 15 to 20)
#    0.000    2.000    1.250    2.250    0.000    5.000 
#    0.000    3.125    0.000    3.750    0.000    0.000 
#    0.000    0.000    0.000    0.000    0.000    0.000 
#
# Total GULP energy -396615.177627 kJ/mol
# GULP energy per Si atom -12394.224301 kJ/mol
# Density = 1.999731 g / cm^3
# Si number density = 20.042933 Si / 1000 Ang^3
#
#
#
# Elastic Constant Matrix: (Units=GPa)
#
#
# Indices 1 2 3 4 5 6 
#
# 1 85.7723 22.7424 2.3848 0.0000 -8.4859 0.0000
# 2 22.7424 65.3320 21.7104 0.0000 -4.7384 0.0000
# 3 2.3848 21.7104 49.5296 0.0000 -9.8398 0.0000
# 4 0.0000 0.0000 0.0000 25.3515 0.0000 -4.9385
# 5 -8.4859 -4.7384 -9.8398 0.0000 30.9958 0.0000
# 6 0.0000 0.0000 0.0000 -4.9385 0.0000 34.7174
#
#
#
# Elastic Compliance Matrix: (Units=1/GPa)
#
#
# Indices 1 2 3 4 5 6 
#
# 1 0.013315 -0.005149 0.002330 0.000000 0.003598 0.000000
# 2 -0.005149 0.019909 -0.008703 0.000000 -0.001129 0.000000
# 3 0.002330 -0.008703 0.025354 0.000000 0.007356 0.000000
# 4 0.000000 0.000000 0.000000 0.040570 0.000000 0.005771
# 5 0.003598 -0.001129 0.007356 0.000000 0.035410 0.000000
# 6 0.000000 0.000000 0.000000 0.005771 0.000000 0.029625
#
#
# Mechanical properties :
#
#
# Convention : Reuss Voigt Hill
#
# Bulk Modulus (GPa) = 28.14069 32.70101 30.42085
# Shear Modulus (GPa) = 25.11678 28.46602 26.79140
#
# Velocity S-wave (km/s) = 3.54382 3.77271 3.66006
# Velocity P-wave (km/s) = 5.55118 5.94380 5.75084
#
# Compressibility (1/GPa) = 0.03553574
#
# Stress axis : x y z
#
# Youngs Moduli (GPa) = 75.10288 50.22889 39.44152
#
# Poissons Ratio (x) = 0.25860 -0.09192
# Poissons Ratio (y) = 0.38667 0.34326
# Poissons Ratio (z) = -0.17502 0.43714
#
# Static dielectric constant tensor:
#      x y z
#    x 3.464690 0.000000 -0.025890 
#    y 0.000000 3.660290 0.000000 
#    z -0.025890 0.000000 3.828120 
# 
# 
# High freq. dielectric constant tensor:
#      x y z
#    x 1.768980 0.000000 -0.004300 
#    y 0.000000 1.778330 0.000000 
#    z -0.004300 0.000000 1.785980 
# 
# From -- ./inp_files/89562.got.cif
#   From: 2010.06.25/outbox.cif.g09.slc.cpg/sg10_45_cif.got.tgz:89562.got - 2010.06.27 22:07:45.
