data_PCOD8063685
_publ_section_title
;
Structure prediction by ZEFSAII (Michael W. Deem and Ramdas Pophale) SiO2 
 PCOD8063685
Probable space group: P 2/M
;
_chemical_formula_sum "Si O2"
_cell_formula_units_Z 32
_cell_length_a 14.111726
_cell_length_b 8.975197
_cell_length_c 12.373515
_cell_angle_alpha 90.000000
_cell_angle_beta 88.965705
_cell_angle_gamma 90.000000
_cell_volume 1566.918647
_symmetry_space_group_name_H-M "P 2/M"
_symmetry_group_IT_number 10
_symmetry_cell_setting 'monoclinic'
loop_
_space_group_symop_operation_xyz
x,y,z
-x,y,-z
-x,-y,-z
x,-y,z
loop_
_atom_site_type_symbol
_atom_site_label
_atom_site_fract_x
_atom_site_fract_y
_atom_site_fract_z
Si Si1 0.277876 0.172075 0.813041
Si Si2 0.973219 0.167822 0.884724
Si Si3 0.017975 0.329338 0.325631
Si Si4 0.234593 0.835893 0.048478
Si Si5 0.809531 0.327971 0.391250
Si Si6 0.337503 0.668538 0.216812
Si Si7 0.209377 0.176150 0.392063
Si Si8 0.533947 0.328949 0.117749
O O1 0.230919 0.265813 0.719224
O O2 0.383275 0.225478 0.839024
O O3 0.281023 0.000000 0.777772
O O4 0.214186 0.196907 0.922313
O O5 0.013897 0.275821 0.792652
O O6 0.860005 0.164712 0.878320
O O7 0.015154 0.000000 0.870143
O O8 0.000000 0.235273 0.000000
O O9 0.052001 0.500000 0.322150
O O10 0.104026 0.229564 0.364696
O O11 0.923794 0.310550 0.399852
O O12 0.302829 0.711686 0.096988
O O13 0.282219 0.000000 0.056918
O O14 0.780635 0.500000 0.399646
O O15 0.762278 0.240686 0.491620
O O16 0.306440 0.500000 0.242723
O O17 0.290336 0.774286 0.306741
O O18 0.450716 0.685070 0.209281
O O19 0.208339 0.000000 0.396699
O O20 0.568508 0.500000 0.108638
O O21 0.500000 0.273630 0.000000
#
# Coordination Sequence:
#
# PCOD8063685 Si02
#       8
#     4   4   4   4   4   4   4   4
#     4  11  23  39  63  94 128 164 204 253 310 368
#     4  10  20  34  53  81 121 165 204 247 300 359
#     4  11  23  39  61  90 121 160 209 256 302 361
#     4  10  20  34  55  86 123 162 200 245 303 360
#     4  11  25  44  64  88 123 164 209 258 306 363
#     4  11  22  38  63  91 122 159 202 251 302 361
#     4  12  25  42  65  91 123 161 207 260 310 364
#     4  10  21  39  63  93 126 163 205 249 304 368
#
# _framework density 20.422246999999999
#
# number of rings (size 3 to 8) (size 9 to 14) (size 15 to 20)
#    0.000    1.250    2.500    3.750    0.000    6.500 
#    0.000    0.625    0.000    3.750    0.000    0.000 
#    0.000    0.000    0.000    0.000    0.000    0.000 
#
# Total GULP energy -396855.521620 kJ/mol
# GULP energy per Si atom -12401.735051 kJ/mol
# Density = 2.037577 g / cm^3
# Si number density = 20.422247 Si / 1000 Ang^3
#
#
#
# Elastic Constant Matrix: (Units=GPa)
#
#
# Indices 1 2 3 4 5 6 
#
# 1 57.2098 34.9029 18.1766 0.0000 -5.4429 0.0000
# 2 34.9029 138.4821 54.9086 0.0000 -6.8838 0.0000
# 3 18.1766 54.9086 103.9928 0.0000 -8.7576 0.0000
# 4 0.0000 0.0000 0.0000 34.0008 0.0000 4.8335
# 5 -5.4429 -6.8838 -8.7576 0.0000 23.9293 0.0000
# 6 0.0000 0.0000 0.0000 4.8335 0.0000 27.9166
#
#
#
# Elastic Compliance Matrix: (Units=1/GPa)
#
#
# Indices 1 2 3 4 5 6 
#
# 1 0.020970 -0.004783 -0.000881 0.000000 0.003071 0.000000
# 2 -0.004783 0.010243 -0.004556 0.000000 0.000191 0.000000
# 3 -0.000881 -0.004556 0.012432 0.000000 0.003039 0.000000
# 4 0.000000 0.000000 0.000000 0.030153 0.000000 -0.005221
# 5 0.003071 0.000191 0.003039 0.000000 0.043655 0.000000
# 6 0.000000 0.000000 0.000000 -0.005221 0.000000 0.036725
#
#
# Mechanical properties :
#
#
# Convention : Reuss Voigt Hill
#
# Bulk Modulus (GPa) = 43.09704 57.29567 50.19636
# Shear Modulus (GPa) = 27.41939 29.94912 28.68425
#
# Velocity S-wave (km/s) = 3.66816 3.83364 3.75181
# Velocity P-wave (km/s) = 6.25214 6.90740 6.58792
#
# Compressibility (1/GPa) = 0.02320345
#
# Stress axis : x y z
#
# Youngs Moduli (GPa) = 47.68756 97.63060 80.44055
#
# Poissons Ratio (x) = 0.46699 0.07087
# Poissons Ratio (y) = 0.22810 0.36649
# Poissons Ratio (z) = 0.04202 0.44481
#
# Static dielectric constant tensor:
#      x y z
#    x 3.587460 0.000000 -0.128500 
#    y 0.000000 3.735510 0.000000 
#    z -0.128500 0.000000 3.778850 
# 
# 
# High freq. dielectric constant tensor:
#      x y z
#    x 1.787710 0.000000 -0.009160 
#    y 0.000000 1.801860 0.000000 
#    z -0.009160 0.000000 1.801260 
# 
# From -- ./inp_files/49846.got.cif
#   From: 2010.06.25/outbox.cif.g09.slc.cpg/sg10_25_cif.got.tgz:49846.got - 2010.06.27 22:07:45.
