data_PCOD8063353
_publ_section_title
;
Structure prediction by ZEFSAII (Michael W. Deem and Ramdas Pophale) SiO2 
 PCOD8063353
Probable space group: P 2/M
;
_chemical_formula_sum "Si O2"
_cell_formula_units_Z 32
_cell_length_a 31.221550
_cell_length_b 8.916695
_cell_length_c 12.045791
_cell_angle_alpha 90.000000
_cell_angle_beta 150.255656
_cell_angle_gamma 90.000000
_cell_volume 1663.756944
_symmetry_space_group_name_H-M "P 2/M"
_symmetry_group_IT_number 10
_symmetry_cell_setting 'monoclinic'
loop_
_space_group_symop_operation_xyz
x,y,z
-x,y,-z
-x,-y,-z
x,-y,z
loop_
_atom_site_type_symbol
_atom_site_label
_atom_site_fract_x
_atom_site_fract_y
_atom_site_fract_z
Si Si1 0.889597 0.327873 0.364553
Si Si2 0.470212 0.323837 0.052935
Si Si3 0.775450 0.177089 0.708506
Si Si4 0.272781 0.322944 0.625438
Si Si5 0.087682 0.671736 0.838398
Si Si6 0.620205 0.823431 0.512544
Si Si7 0.403758 0.822525 0.295835
Si Si8 0.751283 0.823093 0.201649
O O1 0.861305 0.500000 0.320369
O O2 0.884254 0.286540 0.223018
O O3 0.828080 0.215098 0.290846
O O4 0.986164 0.302932 0.626174
O O5 0.483035 0.500000 0.094085
O O6 0.527543 0.243536 0.273783
O O7 0.500000 0.266550 0.000000
O O8 0.372278 0.273414 0.849570
O O9 0.774915 0.252440 0.587120
O O10 0.695900 0.240187 0.603943
O O11 0.769775 0.000000 0.681538
O O12 0.864300 0.219642 0.968174
O O13 0.261172 0.500000 0.593972
O O14 0.230009 0.260123 0.640855
O O15 0.112311 0.500000 0.919618
O O16 0.637861 0.776226 0.679497
O O17 0.614141 0.000000 0.485804
O O18 0.500000 0.752201 0.500000
O O19 0.410703 0.000000 0.303093
O O20 0.339423 0.764175 0.054934
O O21 0.749165 0.000000 0.216956
#
# Coordination Sequence:
#
# PCOD8063353 Si02
#       8
#     4   4   4   4   4   4   4   4
#     4   9  19  38  62  88 116 149 187 224 274 338
#     4  10  20  35  53  76 107 145 190 235 277 323
#     4  11  22  35  54  84 116 145 186 236 286 335
#     4  11  23  39  57  77 110 152 194 237 283 337
#     4   9  19  37  62  88 116 149 184 226 276 334
#     4  10  20  33  53  80 110 145 185 228 279 335
#     4   9  18  33  52  77 111 147 181 222 271 326
#     4  11  22  37  59  84 114 150 190 233 282 335
#
# _framework density 19.233578999999999
#
# number of rings (size 3 to 8) (size 9 to 14) (size 15 to 20)
#    0.000    2.000    1.250    3.375    0.000    4.750 
#    0.000    3.125    0.000    7.125    0.000    0.000 
#    0.000    0.000    0.000    0.000    0.000    0.000 
#
# Total GULP energy -396892.090206 kJ/mol
# GULP energy per Si atom -12402.877819 kJ/mol
# Density = 1.918980 g / cm^3
# Si number density = 19.233579 Si / 1000 Ang^3
#
#
#
# Elastic Constant Matrix: (Units=GPa)
#
#
# Indices 1 2 3 4 5 6 
#
# 1 101.3015 31.0859 47.4786 0.0000 -8.0939 0.0000
# 2 31.0859 53.1106 37.1952 0.0000 -6.6652 0.0000
# 3 47.4786 37.1952 112.1705 0.0000 -15.4926 0.0000
# 4 0.0000 0.0000 0.0000 32.8285 0.0000 -0.0217
# 5 -8.0939 -6.6652 -15.4926 0.0000 31.5572 0.0000
# 6 0.0000 0.0000 0.0000 -0.0217 0.0000 26.3843
#
#
#
# Elastic Compliance Matrix: (Units=1/GPa)
#
#
# Indices 1 2 3 4 5 6 
#
# 1 0.013262 -0.004974 -0.003904 0.000000 0.000434 0.000000
# 2 -0.004974 0.026437 -0.006507 0.000000 0.001113 0.000000
# 3 -0.003904 -0.006507 0.013299 0.000000 0.004153 0.000000
# 4 0.000000 0.000000 0.000000 0.030461 0.000000 0.000025
# 5 0.000434 0.001113 0.004153 0.000000 0.034074 0.000000
# 6 0.000000 0.000000 0.000000 0.000025 0.000000 0.037901
#
#
# Mechanical properties :
#
#
# Convention : Reuss Voigt Hill
#
# Bulk Modulus (GPa) = 44.98937 55.34469 50.16703
# Shear Modulus (GPa) = 25.82446 28.20884 27.01665
#
# Velocity S-wave (km/s) = 3.66823 3.83384 3.75195
# Velocity P-wave (km/s) = 6.43297 6.95954 6.70143
#
# Compressibility (1/GPa) = 0.02222747
#
# Stress axis : x y z
#
# Youngs Moduli (GPa) = 75.40119 37.82604 75.19342
#
# Poissons Ratio (x) = 0.18813 0.29358
# Poissons Ratio (y) = 0.37502 0.48931
# Poissons Ratio (z) = 0.29439 0.24615
#
# Static dielectric constant tensor:
#      x y z
#    x 3.535450 0.000000 -0.043050 
#    y 0.000000 3.277450 0.000000 
#    z -0.043050 0.000000 3.509170 
# 
# 
# High freq. dielectric constant tensor:
#      x y z
#    x 1.750020 0.000000 -0.006540 
#    y 0.000000 1.733550 0.000000 
#    z -0.006540 0.000000 1.749180 
# 
# From -- ./inp_files/58364.got.cif
#   From: 2010.06.25/outbox.cif.g09.slc.cpg/sg10_30_cif.got.tgz:58364.got - 2010.06.27 22:07:45.
