data_PCOD8063126
_publ_section_title
;
Structure prediction by ZEFSAII (Michael W. Deem and Ramdas Pophale) SiO2 
 PCOD8063126
Probable space group: P 2/M
;
_chemical_formula_sum "Si O2"
_cell_formula_units_Z 32
_cell_length_a 15.533225
_cell_length_b 8.888345
_cell_length_c 20.989017
_cell_angle_alpha 90.000000
_cell_angle_beta 42.263164
_cell_angle_gamma 90.000000
_cell_volume 1948.905255
_symmetry_space_group_name_H-M "P 2/M"
_symmetry_group_IT_number 10
_symmetry_cell_setting 'monoclinic'
loop_
_space_group_symop_operation_xyz
x,y,z
-x,y,-z
-x,-y,-z
x,-y,z
loop_
_atom_site_type_symbol
_atom_site_label
_atom_site_fract_x
_atom_site_fract_y
_atom_site_fract_z
Si Si1 0.383950 0.677641 0.784434
Si Si2 0.216872 0.177327 0.109252
Si Si3 0.293227 0.825654 0.607587
Si Si4 0.893747 0.678722 0.106253
Si Si5 0.047182 0.322359 0.784434
Si Si6 0.612437 0.330735 0.887563
Si Si7 0.491599 0.174346 0.607587
Si Si8 0.435375 0.822673 0.890749
O O1 0.386107 0.500000 0.793270
O O2 0.244179 0.737957 0.840534
O O3 0.483793 0.724314 0.674913
O O4 0.423093 0.756329 0.827745
O O5 0.266520 0.244897 0.148780
O O6 0.078584 0.243671 0.172256
O O7 0.208609 0.000000 0.121374
O O8 0.310576 0.223608 0.000000
O O9 0.166382 0.724314 0.674912
O O10 0.371358 0.795173 0.500000
O O11 0.379526 0.777798 0.620474
O O12 0.255005 0.000000 0.633703
O O13 0.895081 0.500000 0.104919
O O14 0.925247 0.737957 0.159466
O O15 0.000000 0.744405 0.000000
O O16 0.027352 0.500000 0.793270
O O17 0.652968 0.500000 0.847032
O O18 0.564079 0.244897 0.851220
O O19 0.500000 0.330694 0.000000
O O20 0.477589 0.000000 0.633703
O O21 0.451356 0.000000 0.878627
#
# Coordination Sequence:
#
# PCOD8063126 Si02
#       8
#     4   4   4   4   4   4   4   4
#     4  11  20  31  48  71  98 130 166 206 247 289
#     4  10  20  33  49  71 100 133 167 203 243 291
#     4   9  18  33  51  69  93 126 162 204 252 298
#     4   9  18  30  42  61  94 132 165 197 236 281
#     4  11  20  31  48  71  98 130 166 206 247 289
#     4   9  17  31  51  73  96 125 162 205 249 289
#     4   9  18  33  51  69  93 126 162 204 252 298
#     4  10  20  33  49  71 100 133 167 203 243 291
#
# _framework density 16.419474000000001
#
# number of rings (size 3 to 8) (size 9 to 14) (size 15 to 20)
#    0.000    2.250    1.250    3.375    0.000    4.500 
#    0.000    1.250    0.000    3.000    0.000    0.875 
#    0.000    7.000    0.000    0.000    0.000    0.000 
#
# Total GULP energy -396855.987993 kJ/mol
# GULP energy per Si atom -12401.749625 kJ/mol
# Density = 1.638210 g / cm^3
# Si number density = 16.419474 Si / 1000 Ang^3
#
#
#
# Elastic Constant Matrix: (Units=GPa)
#
#
# Indices 1 2 3 4 5 6 
#
# 1 130.9129 44.2395 51.2449 0.0000 -2.4294 0.0000
# 2 44.2395 66.1975 32.9221 0.0000 -0.4545 0.0000
# 3 51.2449 32.9221 85.7802 0.0000 0.6167 0.0000
# 4 0.0000 0.0000 0.0000 25.1767 0.0000 -0.1481
# 5 -2.4294 -0.4545 0.6167 0.0000 9.6980 0.0000
# 6 0.0000 0.0000 0.0000 -0.1481 0.0000 28.8664
#
#
#
# Elastic Compliance Matrix: (Units=1/GPa)
#
#
# Indices 1 2 3 4 5 6 
#
# 1 0.011313 -0.005153 -0.004802 0.000000 0.002898 0.000000
# 2 -0.005153 0.021034 -0.004995 0.000000 0.000013 0.000000
# 3 -0.004802 -0.004995 0.016461 0.000000 -0.002484 0.000000
# 4 0.000000 0.000000 0.000000 0.039720 0.000000 0.000204
# 5 0.002898 0.000013 -0.002484 0.000000 0.103998 0.000000
# 6 0.000000 0.000000 0.000000 0.000204 0.000000 0.034643
#
#
# Mechanical properties :
#
#
# Convention : Reuss Voigt Hill
#
# Bulk Modulus (GPa) = 52.88187 59.96708 56.42448
# Shear Modulus (GPa) = 18.98457 23.04716 21.01587
#
# Velocity S-wave (km/s) = 3.40402 3.75059 3.58150
# Velocity P-wave (km/s) = 6.90844 7.44024 7.17926
#
# Compressibility (1/GPa) = 0.01891007
#
# Stress axis : x y z
#
# Youngs Moduli (GPa) = 88.39131 47.54240 60.74941
#
# Poissons Ratio (x) = 0.24497 0.29171
# Poissons Ratio (y) = 0.45545 0.30342
# Poissons Ratio (z) = 0.42444 0.23746
#
# Static dielectric constant tensor:
#      x y z
#    x 3.097990 0.000000 -0.004720 
#    y 0.000000 3.058910 0.000000 
#    z -0.004720 0.000000 2.980510 
# 
# 
# High freq. dielectric constant tensor:
#      x y z
#    x 1.623670 0.000000 -0.000490 
#    y 0.000000 1.634750 0.000000 
#    z -0.000490 0.000000 1.611580 
# 
# From -- ./inp_files/29469.got.cif
#   From: 2010.06.25/outbox.cif.g09.slc.cpg/sg10_15_cif.got.tgz:29469.got - 2010.06.27 22:07:45.
