data_PCOD8063136
_publ_section_title
;
Structure prediction by ZEFSAII (Michael W. Deem and Ramdas Pophale) SiO2 
 PCOD8063136
Probable space group: P 2/M
;
_chemical_formula_sum "Si O2"
_cell_formula_units_Z 28
_cell_length_a 9.716464
_cell_length_b 9.157948
_cell_length_c 33.806313
_cell_angle_alpha 90.000000
_cell_angle_beta 30.532565
_cell_angle_gamma 90.000000
_cell_volume 1528.241110
_symmetry_space_group_name_H-M "P 2/M"
_symmetry_group_IT_number 10
_symmetry_cell_setting 'monoclinic'
loop_
_space_group_symop_operation_xyz
x,y,z
-x,y,-z
-x,-y,-z
x,-y,z
loop_
_atom_site_type_symbol
_atom_site_label
_atom_site_fract_x
_atom_site_fract_y
_atom_site_fract_z
Si Si1 0.387386 0.671972 0.428342
Si Si2 0.030038 0.329114 0.692053
Si Si3 0.702259 0.169885 0.710049
Si Si4 0.395286 0.828487 0.982927
Si Si5 0.540240 0.329397 0.870504
Si Si6 0.212512 0.168520 0.887842
Si Si7 0.832553 0.672193 0.600255
O O1 0.411786 0.500000 0.418659
O O2 0.309763 0.730429 0.404299
O O3 0.676434 0.736473 0.369653
O O4 0.153160 0.711196 0.518045
O O5 0.040028 0.500000 0.679447
O O6 0.943601 0.244826 0.674287
O O7 0.824586 0.297088 0.778719
O O8 0.416727 0.201661 0.801600
O O9 0.687767 0.240398 0.670714
O O10 0.764746 0.000000 0.691125
O O11 0.080788 0.786222 0.055678
O O12 0.445186 0.000000 0.965076
O O13 0.500000 0.776847 0.000000
O O14 0.563542 0.743535 0.907795
O O15 0.483246 0.500000 0.889161
O O16 0.292186 0.260869 0.906873
O O17 0.222478 0.000000 0.898341
O O18 0.790800 0.500000 0.617090
#
# Coordination Sequence:
#
# PCOD8063136 Si02
#       7
#     4   4   4   4   4   4   4
#     4   8  16  32  53  73  95 128 168 202 236 289
#     4   9  18  34  53  73  98 129 164 200 241 289
#     4  10  20  33  49  73 102 129 161 201 243 287
#     4  10  21  36  53  73  98 130 166 199 236 289
#     4  10  20  33  52  77 101 126 160 203 247 287
#     4   9  19  36  54  70  95 133 168 196 235 292
#     4   9  17  32  53  74  96 127 166 203 241 287
#
# _framework density 18.321715999999999
#
# number of rings (size 3 to 8) (size 9 to 14) (size 15 to 20)
#    0.000    2.714    0.000    2.143    0.000    5.429 
#    0.000    5.714    0.000    0.000    0.000    0.000 
#    0.000    0.000    0.000    0.000    0.000    0.000 
#
# Total GULP energy -347213.286448 kJ/mol
# GULP energy per Si atom -12400.474516 kJ/mol
# Density = 1.828002 g / cm^3
# Si number density = 18.321716 Si / 1000 Ang^3
#
#
#
# Elastic Constant Matrix: (Units=GPa)
#
#
# Indices 1 2 3 4 5 6 
#
# 1 69.9157 23.1087 21.8866 0.0000 6.3587 0.0000
# 2 23.1087 50.8981 22.4446 0.0000 11.1374 0.0000
# 3 21.8866 22.4446 50.8342 0.0000 10.4795 0.0000
# 4 0.0000 0.0000 0.0000 27.2942 0.0000 9.2140
# 5 6.3587 11.1374 10.4795 0.0000 38.8764 0.0000
# 6 0.0000 0.0000 0.0000 9.2140 0.0000 24.3849
#
#
#
# Elastic Compliance Matrix: (Units=1/GPa)
#
#
# Indices 1 2 3 4 5 6 
#
# 1 0.017832 -0.005872 -0.005114 0.000000 0.000144 0.000000
# 2 -0.005872 0.027038 -0.008482 0.000000 -0.004499 0.000000
# 3 -0.005114 -0.008482 0.026413 0.000000 -0.003853 0.000000
# 4 0.000000 0.000000 0.000000 0.041994 0.000000 -0.015868
# 5 0.000144 -0.004499 -0.003853 0.000000 0.028027 0.000000
# 6 0.000000 0.000000 0.000000 -0.015868 0.000000 0.047005
#
#
# Mechanical properties :
#
#
# Convention : Reuss Voigt Hill
#
# Bulk Modulus (GPa) = 30.91636 34.05862 32.48749
# Shear Modulus (GPa) = 21.00588 25.05831 23.03209
#
# Velocity S-wave (km/s) = 3.38968 3.70223 3.54940
# Velocity P-wave (km/s) = 5.67721 6.07494 5.87944
#
# Compressibility (1/GPa) = 0.03234533
#
# Stress axis : x y z
#
# Youngs Moduli (GPa) = 56.07973 36.98481 37.85960
#
# Poissons Ratio (x) = 0.21718 0.19363
# Poissons Ratio (y) = 0.32931 0.32114
# Poissons Ratio (z) = 0.28682 0.31372
#
# Static dielectric constant tensor:
#      x y z
#    x 3.538360 0.000000 -0.131730 
#    y 0.000000 3.189260 0.000000 
#    z -0.131730 0.000000 3.463460 
# 
# 
# High freq. dielectric constant tensor:
#      x y z
#    x 1.708830 0.000000 0.001240 
#    y 0.000000 1.692150 0.000000 
#    z 0.001240 0.000000 1.716680 
# 
# From -- ./inp_files/36891.got.cif
#   From: 2010.06.25/outbox.cif.g09.slc.cpg/sg10_19_cif.got.tgz:36891.got - 2010.06.27 22:07:45.
