data_PCOD8063177
_publ_section_title
;
Structure prediction by ZEFSAII (Michael W. Deem and Ramdas Pophale) SiO2 
 PCOD8063177
Probable space group: P 2/M
;
_chemical_formula_sum "Si O2"
_cell_formula_units_Z 32
_cell_length_a 30.261156
_cell_length_b 9.010135
_cell_length_c 12.916869
_cell_angle_alpha 90.000000
_cell_angle_beta 152.199604
_cell_angle_gamma 90.000000
_cell_volume 1642.577472
_symmetry_space_group_name_H-M "P 2/M"
_symmetry_group_IT_number 10
_symmetry_cell_setting 'monoclinic'
loop_
_space_group_symop_operation_xyz
x,y,z
-x,y,-z
-x,-y,-z
x,-y,z
loop_
_atom_site_type_symbol
_atom_site_label
_atom_site_fract_x
_atom_site_fract_y
_atom_site_fract_z
Si Si1 0.620790 0.823778 0.056394
Si Si2 0.730190 0.834881 0.815450
Si Si3 0.106465 0.176921 0.695111
Si Si4 0.181836 0.162592 0.223884
Si Si5 0.020073 0.826269 0.153586
Si Si6 0.566731 0.326661 0.377835
Si Si7 0.339249 0.671805 0.648116
Si Si8 0.818013 0.176570 0.368816
O O1 0.531469 0.759517 0.809199
O O2 0.614448 0.000000 0.048928
O O3 0.618787 0.762109 0.169004
O O4 0.712875 0.770603 0.182100
O O5 0.764863 0.848300 0.771667
O O6 0.637980 0.729743 0.616219
O O7 0.702378 0.000000 0.799202
O O8 0.814881 0.765210 0.059694
O O9 0.145395 0.236818 0.665935
O O10 0.000000 0.238603 0.500000
O O11 0.102057 0.000000 0.689860
O O12 0.230921 0.278068 0.403813
O O13 0.183091 0.000000 0.281670
O O14 0.074029 0.208078 0.974795
O O15 0.110510 0.754812 0.397436
O O16 0.040350 0.000000 0.184620
O O17 0.000000 0.754380 0.000000
O O18 0.551364 0.500000 0.363377
O O19 0.601593 0.293798 0.333086
O O20 0.342370 0.500000 0.683887
O O21 0.822956 0.000000 0.376477
#
# Coordination Sequence:
#
# PCOD8063177 Si02
#       8
#     4   4   4   4   4   4   4   4
#     4  11  21  33  51  74 102 136 173 214 255 298
#     4   9  17  30  51  78 102 126 164 211 254 298
#     4   9  16  29  52  81 110 135 162 206 260 305
#     4   9  16  27  46  73 101 129 165 207 248 296
#     4   9  15  24  41  67 100 134 164 197 241 293
#     4  10  21  36  53  73 100 135 172 211 257 306
#     4  10  20  33  50  73 102 136 171 208 254 306
#     4   9  18  30  46  74 107 136 169 209 256 306
#
# _framework density 19.481577000000001
#
# number of rings (size 3 to 8) (size 9 to 14) (size 15 to 20)
#    0.000    2.500    0.000    3.000    0.000    8.000 
#    0.000    0.625    0.000    9.750    0.000    0.000 
#    0.000    0.000    0.000    0.000    0.000    0.000 
#
# Total GULP energy -396567.297158 kJ/mol
# GULP energy per Si atom -12392.728036 kJ/mol
# Density = 1.943724 g / cm^3
# Si number density = 19.481577 Si / 1000 Ang^3
#
#
#
# Elastic Constant Matrix: (Units=GPa)
#
#
# Indices 1 2 3 4 5 6 
#
# 1 62.8642 30.7181 54.4272 0.0000 12.7838 0.0000
# 2 30.7181 56.6076 49.2275 0.0000 8.4472 0.0000
# 3 54.4272 49.2275 182.8935 0.0000 15.4718 0.0000
# 4 0.0000 0.0000 0.0000 7.3658 0.0000 -4.3374
# 5 12.7838 8.4472 15.4718 0.0000 32.2717 0.0000
# 6 0.0000 0.0000 0.0000 -4.3374 0.0000 8.8865
#
#
#
# Elastic Compliance Matrix: (Units=1/GPa)
#
#
# Indices 1 2 3 4 5 6 
#
# 1 0.025452 -0.008890 -0.004717 0.000000 -0.005494 0.000000
# 2 -0.008890 0.026489 -0.004373 0.000000 -0.001315 0.000000
# 3 -0.004717 -0.004373 0.008123 0.000000 -0.000881 0.000000
# 4 0.000000 0.000000 0.000000 0.190522 0.000000 0.092991
# 5 -0.005494 -0.001315 -0.000881 0.000000 0.033930 0.000000
# 6 0.000000 0.000000 0.000000 0.092991 0.000000 0.157918
#
#
# Mechanical properties :
#
#
# Convention : Reuss Voigt Hill
#
# Bulk Modulus (GPa) = 41.48575 63.45675 52.47125
# Shear Modulus (GPa) = 10.27902 20.90430 15.59166
#
# Velocity S-wave (km/s) = 2.29951 3.27927 2.83208
# Velocity P-wave (km/s) = 5.32836 6.85431 6.13893
#
# Compressibility (1/GPa) = 0.02410467
#
# Stress axis : x y z
#
# Youngs Moduli (GPa) = 39.28916 37.75209 123.10968
#
# Poissons Ratio (x) = 0.33562 0.58068
# Poissons Ratio (y) = 0.34928 0.53833
# Poissons Ratio (z) = 0.18532 0.16508
#
# Static dielectric constant tensor:
#      x y z
#    x 3.501410 0.000000 0.110300 
#    y 0.000000 3.252810 0.000000 
#    z 0.110300 0.000000 3.918270 
# 
# 
# High freq. dielectric constant tensor:
#      x y z
#    x 1.743230 0.000000 0.010570 
#    y 0.000000 1.708600 0.000000 
#    z 0.010570 0.000000 1.774990 
# 
# From -- ./inp_files/58325.got.cif
#   From: 2010.06.25/outbox.cif.g09.slc.cpg/sg10_30_cif.got.tgz:58325.got - 2010.06.27 22:07:45.
