data_PCOD8063569
_publ_section_title
;
Structure prediction by ZEFSAII (Michael W. Deem and Ramdas Pophale) SiO2 
 PCOD8063569
Probable space group: P 2/M
;
_chemical_formula_sum "Si O2"
_cell_formula_units_Z 32
_cell_length_a 12.222213
_cell_length_b 13.336652
_cell_length_c 24.932114
_cell_angle_alpha 90.000000
_cell_angle_beta 154.416370
_cell_angle_gamma 90.000000
_cell_volume 1754.957641
_symmetry_space_group_name_H-M "P 2/M"
_symmetry_group_IT_number 10
_symmetry_cell_setting 'monoclinic'
loop_
_space_group_symop_operation_xyz
x,y,z
-x,y,-z
-x,-y,-z
x,-y,z
loop_
_atom_site_type_symbol
_atom_site_label
_atom_site_fract_x
_atom_site_fract_y
_atom_site_fract_z
Si Si1 0.124435 0.615499 0.700519
Si Si2 0.960908 0.771095 0.805723
Si Si3 0.739347 0.110581 0.144017
Si Si4 0.554841 0.754422 0.909678
Si Si5 0.519680 0.885617 0.216631
Si Si6 0.548238 0.116188 0.690744
Si Si7 0.030602 0.225960 0.452766
Si Si8 0.763844 0.384523 0.640485
O O1 0.117732 0.500000 0.680037
O O2 0.418890 0.648976 0.836132
O O3 0.983820 0.678284 0.592262
O O4 0.987109 0.631799 0.696550
O O5 0.027384 0.841362 0.784804
O O6 0.787347 0.833129 0.768865
O O7 0.822847 0.673147 0.721759
O O8 0.211036 0.734659 0.947815
O O9 0.667640 0.177160 0.163260
O O10 0.820927 0.000000 0.199825
O O11 0.500000 0.102488 0.000000
O O12 0.641416 0.813117 0.894087
O O13 0.408678 0.872099 0.226819
O O14 0.814289 0.855424 0.344989
O O15 0.491374 0.000000 0.184665
O O16 0.295376 0.171152 0.559556
O O17 0.531098 0.000000 0.666665
O O18 0.000000 0.265377 0.500000
O O19 0.500000 0.343656 0.500000
O O20 0.734649 0.500000 0.643996
#
# Coordination Sequence:
#
# PCOD8063569 Si02
#       8
#     4   4   4   4   4   4   4   4
#     4  10  20  35  56  80 106 138 182 232 273 318
#     4  11  21  34  53  77 110 142 176 225 270 318
#     4   9  17  30  48  71 101 138 173 205 251 310
#     4  10  20  34  52  77 107 143 181 221 268 317
#     4   9  18  33  55  80 107 143 184 223 264 318
#     4  10  20  34  54  81 112 146 183 221 265 321
#     4   9  18  34  56  82 109 141 180 224 273 322
#     4  10  21  37  57  78 103 139 180 223 274 327
#
# _framework density 18.234058999999998
#
# number of rings (size 3 to 8) (size 9 to 14) (size 15 to 20)
#    0.000    2.250    1.250    1.875    0.000    4.250 
#    0.000    2.500    0.000    4.500    0.000    8.750 
#    0.000    0.000    0.000    0.000    0.000    0.000 
#
# Total GULP energy -396839.821427 kJ/mol
# GULP energy per Si atom -12401.244420 kJ/mol
# Density = 1.819256 g / cm^3
# Si number density = 18.234059 Si / 1000 Ang^3
#
#
#
# Elastic Constant Matrix: (Units=GPa)
#
#
# Indices 1 2 3 4 5 6 
#
# 1 80.7249 46.4572 31.6524 0.0000 2.0196 0.0000
# 2 46.4572 114.1617 48.3074 0.0000 -5.6596 0.0000
# 3 31.6524 48.3074 94.8583 0.0000 -6.1422 0.0000
# 4 0.0000 0.0000 0.0000 22.5714 0.0000 -4.5798
# 5 2.0196 -5.6596 -6.1422 0.0000 26.4100 0.0000
# 6 0.0000 0.0000 0.0000 -4.5798 0.0000 28.2009
#
#
#
# Elastic Compliance Matrix: (Units=1/GPa)
#
#
# Indices 1 2 3 4 5 6 
#
# 1 0.016963 -0.005837 -0.002896 0.000000 -0.003222 0.000000
# 2 -0.005837 0.013205 -0.004635 0.000000 0.002198 0.000000
# 3 -0.002896 -0.004635 0.014030 0.000000 0.002491 0.000000
# 4 0.000000 0.000000 0.000000 0.045813 0.000000 0.007440
# 5 -0.003222 0.002198 0.002491 0.000000 0.039161 0.000000
# 6 0.000000 0.000000 0.000000 0.007440 0.000000 0.036668
#
#
# Mechanical properties :
#
#
# Convention : Reuss Voigt Hill
#
# Bulk Modulus (GPa) = 57.26715 60.28657 58.77686
# Shear Modulus (GPa) = 25.20184 26.32501 25.76342
#
# Velocity S-wave (km/s) = 3.72173 3.80376 3.76297
# Velocity P-wave (km/s) = 7.06706 7.24057 7.15434
#
# Compressibility (1/GPa) = 0.01746202
#
# Stress axis : x y z
#
# Youngs Moduli (GPa) = 58.95077 75.72854 71.27571
#
# Poissons Ratio (x) = 0.44205 0.20643
# Poissons Ratio (y) = 0.34411 0.33034
# Poissons Ratio (z) = 0.17074 0.35098
#
# Static dielectric constant tensor:
#      x y z
#    x 3.395950 0.000000 -0.091770 
#    y 0.000000 3.358900 0.000000 
#    z -0.091770 0.000000 3.238250 
# 
# 
# High freq. dielectric constant tensor:
#      x y z
#    x 1.707520 0.000000 -0.006090 
#    y 0.000000 1.703060 0.000000 
#    z -0.006090 0.000000 1.699490 
# 
# From -- ./inp_files/88945.got.cif
#   From: 2010.06.25/outbox.cif.g09.slc.cpg/sg10_45_cif.got.tgz:88945.got - 2010.06.27 22:07:45.
