data_PCOD8063852
_publ_section_title
;
Structure prediction by ZEFSAII (Michael W. Deem and Ramdas Pophale) SiO2 
 PCOD8063852
Probable space group: P 2/M
;
_chemical_formula_sum "Si O2"
_cell_formula_units_Z 32
_cell_length_a 23.923997
_cell_length_b 8.812171
_cell_length_c 23.922390
_cell_angle_alpha 90.000000
_cell_angle_beta 18.637274
_cell_angle_gamma 90.000000
_cell_volume 1611.740535
_symmetry_space_group_name_H-M "P 2/M"
_symmetry_group_IT_number 10
_symmetry_cell_setting 'monoclinic'
loop_
_space_group_symop_operation_xyz
x,y,z
-x,y,-z
-x,-y,-z
x,-y,z
loop_
_atom_site_type_symbol
_atom_site_label
_atom_site_fract_x
_atom_site_fract_y
_atom_site_fract_z
Si Si1 0.652959 0.173766 0.523476
Si Si2 0.089959 0.678704 0.969924
Si Si3 0.346878 0.824344 0.892994
Si Si4 0.858516 0.679952 0.704525
Si Si5 0.004227 0.678824 0.172574
Si Si6 0.444411 0.173582 0.613427
Si Si7 0.413407 0.175057 0.958344
Si Si8 0.785030 0.179907 0.656663
O O1 0.497403 0.239509 0.709327
O O2 0.605455 0.191167 0.503174
O O3 0.828665 0.266057 0.369320
O O4 0.688449 0.000000 0.506137
O O5 0.068448 0.500000 0.987875
O O6 0.292095 0.720554 0.780240
O O7 0.005720 0.741526 0.107194
O O8 0.000000 0.752610 0.000000
O O9 0.410145 0.796832 0.895663
O O10 0.312502 0.000000 0.912170
O O11 0.167920 0.736802 0.052552
O O12 0.866654 0.500000 0.689123
O O13 0.776518 0.756229 0.727323
O O14 0.054274 0.743705 0.529227
O O15 0.736116 0.722033 0.872473
O O16 0.010641 0.500000 0.166807
O O17 0.500000 0.233002 0.500000
O O18 0.378560 0.000000 0.672981
O O19 0.604735 0.225175 0.797743
O O20 0.376779 0.000000 0.008445
O O21 0.813803 0.000000 0.630823
#
# Coordination Sequence:
#
# PCOD8063852 Si02
#       8
#     4   4   4   4   4   4   4   4
#     4  10  21  38  60  84 112 150 193 238 295 350
#     4  10  21  36  54  80 115 152 188 228 283 355
#     4  10  22  42  63  83 112 153 199 247 294 348
#     4  11  22  36  58  90 127 161 194 240 300 352
#     4  11  23  38  59  86 115 150 192 237 293 352
#     4  10  20  34  55  85 115 143 185 239 291 344
#     4  10  22  39  61  86 113 153 204 248 291 346
#     4  10  20  37  61  88 121 160 204 247 288 343
#
# _framework density 19.854313000000001
#
# number of rings (size 3 to 8) (size 9 to 14) (size 15 to 20)
#    0.000    1.750    1.250    3.750    0.000    6.000 
#    0.000    2.500    0.000    0.000    0.000    0.000 
#    0.000    0.000    0.000    0.000    0.000    0.000 
#
# Total GULP energy -396904.573715 kJ/mol
# GULP energy per Si atom -12403.267929 kJ/mol
# Density = 1.980912 g / cm^3
# Si number density = 19.854313 Si / 1000 Ang^3
#
#
#
# Elastic Constant Matrix: (Units=GPa)
#
#
# Indices 1 2 3 4 5 6 
#
# 1 78.9415 27.8348 52.2018 0.0000 0.3158 0.0000
# 2 27.8348 47.0119 33.9551 0.0000 -0.0020 0.0000
# 3 52.2018 33.9551 136.8749 0.0000 -4.3807 0.0000
# 4 0.0000 0.0000 0.0000 5.6470 0.0000 20.1327
# 5 0.3158 -0.0020 -4.3807 0.0000 27.2621 0.0000
# 6 0.0000 0.0000 0.0000 20.1327 0.0000 3.7691
#
#
#
# Elastic Compliance Matrix: (Units=1/GPa)
#
#
# Indices 1 2 3 4 5 6 
#
# 1 0.018797 -0.007220 -0.005413 0.000000 -0.001088 0.000000
# 2 -0.007220 0.028717 -0.004390 0.000000 -0.000620 0.000000
# 3 -0.005413 -0.004390 0.010515 0.000000 0.001752 0.000000
# 4 0.000000 0.000000 0.000000 -0.009814 0.000000 0.052423
# 5 -0.001088 -0.000620 0.001752 0.000000 0.036975 0.000000
# 6 0.000000 0.000000 0.000000 0.052423 0.000000 -0.014704
#
#
# Mechanical properties :
#
#
# Convention : Reuss Voigt Hill
#
# Bulk Modulus (GPa) = 41.69497 54.53463 48.11480
# Shear Modulus (GPa) = 44.43420 17.25806 30.84613
#
# Velocity S-wave (km/s) = 4.73590 2.95148 3.94588
# Velocity P-wave (km/s) = 7.13800 6.25636 6.71167
#
# Compressibility (1/GPa) = 0.02398371
#
# Stress axis : x y z
#
# Youngs Moduli (GPa) = 53.20020 34.82269 95.09903
#
# Poissons Ratio (x) = 0.25142 0.51473
# Poissons Ratio (y) = 0.38411 0.41750
# Poissons Ratio (z) = 0.28795 0.15288
#
# Static dielectric constant tensor:
#      x y z
#    x 3.668380 0.000000 0.059180 
#    y 0.000000 3.494550 0.000000 
#    z 0.059180 0.000000 3.674990 
# 
# 
# High freq. dielectric constant tensor:
#      x y z
#    x 1.773590 0.000000 -0.000720 
#    y 0.000000 1.764530 0.000000 
#    z -0.000720 0.000000 1.783110 
# 
# From -- ./inp_files/90575.got.cif
#   From: 2010.06.25/outbox.cif.g09.slc.cpg/sg10_46_cif.got.tgz:90575.got - 2010.06.27 22:07:45.
