data_PCOD8063867
_publ_section_title
;
Structure prediction by ZEFSAII (Michael W. Deem and Ramdas Pophale) SiO2 
 PCOD8063867
Probable space group: P 2/M
;
_chemical_formula_sum "Si O2"
_cell_formula_units_Z 28
_cell_length_a 29.088247
_cell_length_b 7.699899
_cell_length_c 10.153767
_cell_angle_alpha 90.000000
_cell_angle_beta 143.430915
_cell_angle_gamma 90.000000
_cell_volume 1354.952769
_symmetry_space_group_name_H-M "P 2/M"
_symmetry_group_IT_number 10
_symmetry_cell_setting 'monoclinic'
loop_
_space_group_symop_operation_xyz
x,y,z
-x,y,-z
-x,-y,-z
x,-y,z
loop_
_atom_site_type_symbol
_atom_site_label
_atom_site_fract_x
_atom_site_fract_y
_atom_site_fract_z
Si Si1 0.834056 0.698226 0.097083
Si Si2 0.955918 0.000000 0.761135
Si Si3 0.316867 0.196167 0.839720
Si Si4 0.938659 0.000000 0.245621
Si Si5 0.336528 0.699209 0.392346
Si Si6 0.842847 0.696620 0.423548
Si Si7 0.415757 0.196351 0.830580
Si Si8 0.590008 0.299067 0.703377
O O1 0.863340 0.500000 0.150478
O O2 0.890564 0.823916 0.148915
O O3 0.828025 0.749733 0.237183
O O4 0.753383 0.723629 0.839193
O O5 0.903909 0.827562 0.628386
O O6 0.022270 0.000000 0.805501
O O7 0.000000 0.000000 0.000000
O O8 0.237852 0.299230 0.683600
O O9 0.366422 0.285803 0.835176
O O10 0.293793 0.000000 0.748733
O O11 0.369916 0.191096 0.090316
O O12 0.000000 0.000000 0.500000
O O13 0.358930 0.500000 0.468566
O O14 0.363414 0.805547 0.580458
O O15 0.381422 0.774084 0.370060
O O16 0.875290 0.500000 0.507853
O O17 0.432128 0.000000 0.914001
O O18 0.500000 0.287076 0.000000
O O19 0.500000 0.269294 0.500000
O O20 0.614202 0.500000 0.775647
#
# Coordination Sequence:
#
# PCOD8063867 Si02
#       8
#     4   2   4   2   4   4   4   4
#     4  10  22  40  67 101 131 163 218 271 312 381
#     4  12  28  48  68 104 141 162 210 260 309 396
#     4  11  22  37  62  88 123 170 220 263 315 384
#     4  12  24  42  72 100 127 174 210 248 331 386
#     4  10  21  37  58  87 120 160 211 265 313 369
#     4  11  22  43  72  97 131 173 209 262 326 379
#     4  10  23  40  56  84 127 172 215 268 323 370
#     4  10  20  34  55  87 122 159 211 270 319 368
#
# _framework density 20.664928
#
# number of rings (size 3 to 8) (size 9 to 14) (size 15 to 20)
#    0.000    1.429    3.571    1.286    1.000    4.571 
#    0.000    1.429    0.000    0.000    0.000    0.000 
#    0.000    0.000    0.000    0.000    0.000    0.000 
#
# Total GULP energy -347239.244703 kJ/mol
# GULP energy per Si atom -12401.401597 kJ/mol
# Density = 2.061789 g / cm^3
# Si number density = 20.664928 Si / 1000 Ang^3
#
#
#
# Elastic Constant Matrix: (Units=GPa)
#
#
# Indices 1 2 3 4 5 6 
#
# 1 179.7611 40.6668 62.1242 0.0000 0.6510 0.0000
# 2 40.6668 82.5140 39.7245 0.0000 9.2847 0.0000
# 3 62.1242 39.7245 129.0492 0.0000 -7.1074 0.0000
# 4 0.0000 0.0000 0.0000 15.0859 0.0000 -8.6167
# 5 0.6510 9.2847 -7.1074 0.0000 30.4243 0.0000
# 6 0.0000 0.0000 0.0000 -8.6167 0.0000 18.0592
#
#
#
# Elastic Compliance Matrix: (Units=1/GPa)
#
#
# Indices 1 2 3 4 5 6 
#
# 1 0.006981 -0.002117 -0.002717 0.000000 -0.000138 0.000000
# 2 -0.002117 0.015816 -0.004166 0.000000 -0.005755 0.000000
# 3 -0.002717 -0.004166 0.010548 0.000000 0.003794 0.000000
# 4 0.000000 0.000000 0.000000 0.091120 0.000000 0.043476
# 5 -0.000138 -0.005755 0.003794 0.000000 0.035514 0.000000
# 6 0.000000 0.000000 0.000000 0.043476 0.000000 0.076117
#
#
# Mechanical properties :
#
#
# Convention : Reuss Voigt Hill
#
# Bulk Modulus (GPa) = 65.16739 75.15058 70.15899
# Shear Modulus (GPa) = 19.28925 29.30113 24.29519
#
# Velocity S-wave (km/s) = 3.05852 3.76961 3.43253
# Velocity P-wave (km/s) = 6.63901 7.44257 7.05224
#
# Compressibility (1/GPa) = 0.01534510
#
# Stress axis : x y z
#
# Youngs Moduli (GPa) = 143.24030 63.22744 94.80349
#
# Poissons Ratio (x) = 0.13387 0.25754
# Poissons Ratio (y) = 0.30329 0.39497
# Poissons Ratio (z) = 0.38913 0.26342
#
# Static dielectric constant tensor:
#      x y z
#    x 3.851450 0.000000 0.042360 
#    y 0.000000 3.685430 0.000000 
#    z 0.042360 0.000000 3.574650 
# 
# 
# High freq. dielectric constant tensor:
#      x y z
#    x 1.816880 0.000000 0.004190 
#    y 0.000000 1.805020 0.000000 
#    z 0.004190 0.000000 1.802810 
# 
# From -- ./inp_files/37133.got.cif
#   From: 2010.06.25/outbox.cif.g09.slc.cpg/sg10_19_cif.got.tgz:37133.got - 2010.06.27 22:07:45.
