data_PCOD8063324
_publ_section_title
;
Structure prediction by ZEFSAII (Michael W. Deem and Ramdas Pophale) SiO2 
 PCOD8063324
Probable space group: P 2/M
;
_chemical_formula_sum "Si O2"
_cell_formula_units_Z 32
_cell_length_a 20.905399
_cell_length_b 9.123401
_cell_length_c 9.323549
_cell_angle_alpha 90.000000
_cell_angle_beta 87.887575
_cell_angle_gamma 90.000000
_cell_volume 1777.056540
_symmetry_space_group_name_H-M "P 2/M"
_symmetry_group_IT_number 10
_symmetry_cell_setting 'monoclinic'
loop_
_space_group_symop_operation_xyz
x,y,z
-x,y,-z
-x,-y,-z
x,-y,z
loop_
_atom_site_type_symbol
_atom_site_label
_atom_site_fract_x
_atom_site_fract_y
_atom_site_fract_z
Si Si1 0.626338 0.326274 0.813747
Si Si2 0.439025 0.662818 0.902876
Si Si3 0.510696 0.172830 0.665747
Si Si4 0.864193 0.166579 0.534183
Si Si5 0.899954 0.671981 0.257063
Si Si6 0.967433 0.167235 0.763294
Si Si7 0.244068 0.831940 0.232714
Si Si8 0.141542 0.831334 0.006826
O O1 0.618712 0.500000 0.794290
O O2 0.575330 0.249131 0.713948
O O3 0.696079 0.275126 0.760322
O O4 0.617067 0.283275 0.983700
O O5 0.424490 0.500000 0.843336
O O6 0.450382 0.769976 0.766415
O O7 0.500000 0.657549 0.000000
O O8 0.500000 0.212629 0.500000
O O9 0.516692 0.000000 0.687935
O O10 0.864981 0.278193 0.403842
O O11 0.924328 0.203285 0.629595
O O12 0.797500 0.188650 0.621084
O O13 0.870051 0.000000 0.478085
O O14 0.902044 0.500000 0.250739
O O15 0.972013 0.728782 0.241094
O O16 0.856181 0.729983 0.131854
O O17 0.925857 0.195056 0.908421
O O18 0.991639 0.000000 0.756336
O O19 0.200961 0.786295 0.101013
O O20 0.267056 0.000000 0.216409
O O21 0.147264 0.000000 0.960471
#
# Coordination Sequence:
#
# PCOD8063324 Si02
#       8
#     4   4   4   4   4   4   4   4
#     4  10  20  34  55  80 106 138 170 203 251 309
#     4   8  16  31  50  75 105 136 169 201 242 297
#     4  10  20  33  52  81 112 139 172 213 250 284
#     4   9  19  36  55  73  97 132 172 213 255 303
#     4  12  23  31  46  76 107 132 162 206 261 313
#     4   9  18  34  55  74  94 128 172 211 255 313
#     4   9  19  37  59  78  95 126 176 220 251 293
#     4   9  19  36  55  73  96 130 170 212 257 303
#
# _framework density 18.007304999999999
#
# number of rings (size 3 to 8) (size 9 to 14) (size 15 to 20)
#    0.000    2.500    0.000    4.875    0.000    8.750 
#    0.000    3.750    0.000    1.500    0.000    0.000 
#    0.000    0.000    0.000    0.000    0.000    0.000 
#
# Total GULP energy -396755.850361 kJ/mol
# GULP energy per Si atom -12398.620324 kJ/mol
# Density = 1.796632 g / cm^3
# Si number density = 18.007305 Si / 1000 Ang^3
#
#
#
# Elastic Constant Matrix: (Units=GPa)
#
#
# Indices 1 2 3 4 5 6 
#
# 1 75.9483 39.3419 29.2399 0.0000 0.7838 0.0000
# 2 39.3419 104.5535 61.4442 0.0000 4.5300 0.0000
# 3 29.2399 61.4442 108.5666 0.0000 6.0418 0.0000
# 4 0.0000 0.0000 0.0000 16.5349 0.0000 -7.5385
# 5 0.7838 4.5300 6.0418 0.0000 7.5670 0.0000
# 6 0.0000 0.0000 0.0000 -7.5385 0.0000 15.1742
#
#
#
# Elastic Compliance Matrix: (Units=1/GPa)
#
#
# Indices 1 2 3 4 5 6 
#
# 1 0.016549 -0.005450 -0.001527 0.000000 0.002767 0.000000
# 2 -0.005450 0.016161 -0.007505 0.000000 -0.003118 0.000000
# 3 -0.001527 -0.007505 0.014244 0.000000 -0.006722 0.000000
# 4 0.000000 0.000000 0.000000 0.078187 0.000000 0.038843
# 5 0.002767 -0.003118 -0.006722 0.000000 0.139100 0.000000
# 6 0.000000 0.000000 0.000000 0.038843 0.000000 0.085199
#
#
# Mechanical properties :
#
#
# Convention : Reuss Voigt Hill
#
# Bulk Modulus (GPa) = 55.58514 61.01337 58.29926
# Shear Modulus (GPa) = 13.00728 18.45804 15.73266
#
# Velocity S-wave (km/s) = 2.69054 3.20508 2.95902
# Velocity P-wave (km/s) = 6.37080 6.90311 6.64229
#
# Compressibility (1/GPa) = 0.01799042
#
# Stress axis : x y z
#
# Youngs Moduli (GPa) = 60.42608 61.87786 70.20618
#
# Poissons Ratio (x) = 0.33722 0.10719
# Poissons Ratio (y) = 0.32931 0.52690
# Poissons Ratio (z) = 0.09226 0.46440
#
# Static dielectric constant tensor:
#      x y z
#    x 3.222410 0.000000 -0.196970 
#    y 0.000000 3.245950 0.000000 
#    z -0.196970 0.000000 3.436100 
# 
# 
# High freq. dielectric constant tensor:
#      x y z
#    x 1.680040 0.000000 -0.010620 
#    y 0.000000 1.693360 0.000000 
#    z -0.010620 0.000000 1.700360 
# 
# From -- ./inp_files/35686.got.cif
#   From: 2010.06.25/outbox.cif.g09.slc.cpg/sg10_18_cif.got.tgz:35686.got - 2010.06.27 22:07:45.
