data_PCOD8063507
_publ_section_title
;
Structure prediction by ZEFSAII (Michael W. Deem and Ramdas Pophale) SiO2 
 PCOD8063507
Probable space group: P 2/M
;
_chemical_formula_sum "Si O2"
_cell_formula_units_Z 32
_cell_length_a 26.750318
_cell_length_b 8.955996
_cell_length_c 21.341505
_cell_angle_alpha 90.000000
_cell_angle_beta 160.448188
_cell_angle_gamma 90.000000
_cell_volume 1711.081037
_symmetry_space_group_name_H-M "P 2/M"
_symmetry_group_IT_number 10
_symmetry_cell_setting 'monoclinic'
loop_
_space_group_symop_operation_xyz
x,y,z
-x,y,-z
-x,-y,-z
x,-y,z
loop_
_atom_site_type_symbol
_atom_site_label
_atom_site_fract_x
_atom_site_fract_y
_atom_site_fract_z
Si Si1 0.362194 0.668582 0.921805
Si Si2 0.051648 0.175802 0.883587
Si Si3 0.880858 0.670909 0.909620
Si Si4 0.762910 0.320823 0.489373
Si Si5 0.294986 0.666244 0.711397
Si Si6 0.662823 0.826656 0.854285
Si Si7 0.453333 0.329682 0.511547
Si Si8 0.550187 0.174679 0.856236
O O1 0.305239 0.500000 0.868921
O O2 0.276839 0.740836 0.759455
O O3 0.534183 0.661683 0.107223
O O4 0.343869 0.771444 0.961278
O O5 0.897719 0.262100 0.690364
O O6 0.020780 0.000000 0.845374
O O7 0.114957 0.222104 0.025685
O O8 0.173864 0.225910 0.976192
O O9 0.911449 0.500000 0.966803
O O10 0.723298 0.685064 0.688576
O O11 0.000000 0.727260 0.000000
O O12 0.755543 0.500000 0.482347
O O13 0.789226 0.261036 0.448165
O O14 0.607621 0.259533 0.333448
O O15 0.233744 0.500000 0.648344
O O16 0.529810 0.751123 0.659446
O O17 0.644446 0.787336 0.905506
O O18 0.645037 0.000000 0.820232
O O19 0.500000 0.257520 0.500000
O O20 0.508962 0.500000 0.578500
O O21 0.517595 0.000000 0.824992
#
# Coordination Sequence:
#
# PCOD8063507 Si02
#       8
#     4   4   4   4   4   4   4   4
#     4   8  13  26  48  74 103 136 173 215 261 309
#     4  11  23  39  56  77 106 143 180 216 260 314
#     4  10  22  39  57  81 109 136 169 214 265 313
#     4  10  20  35  55  79 107 140 176 220 268 313
#     4   7  12  25  47  73 102 135 171 212 262 311
#     4  10  23  39  55  75 107 146 178 213 260 312
#     4  10  20  36  58  81 103 131 174 220 256 304
#     4  10  20  34  51  79 111 140 176 218 261 311
#
# _framework density 18.701626999999998
#
# number of rings (size 3 to 8) (size 9 to 14) (size 15 to 20)
#    0.000    2.500    1.250    2.625    1.750    2.500 
#    0.000    5.625    0.000    0.750    0.000    5.250 
#    0.000    0.000    0.000    0.000    0.000    0.000 
#
# Total GULP energy -396553.265417 kJ/mol
# GULP energy per Si atom -12392.289544 kJ/mol
# Density = 1.865906 g / cm^3
# Si number density = 18.701627 Si / 1000 Ang^3
#
#
#
# Elastic Constant Matrix: (Units=GPa)
#
#
# Indices 1 2 3 4 5 6 
#
# 1 120.8708 42.2230 24.5839 0.0000 -1.9065 0.0000
# 2 42.2230 57.2038 19.3007 0.0000 -1.5120 0.0000
# 3 24.5839 19.3007 33.5843 0.0000 3.5997 0.0000
# 4 0.0000 0.0000 0.0000 3.1784 0.0000 -2.6051
# 5 -1.9065 -1.5120 3.5997 0.0000 27.7625 0.0000
# 6 0.0000 0.0000 0.0000 -2.6051 0.0000 27.0746
#
#
#
# Elastic Compliance Matrix: (Units=1/GPa)
#
#
# Indices 1 2 3 4 5 6 
#
# 1 0.011689 -0.007043 -0.004618 0.000000 0.001018 0.000000
# 2 -0.007043 0.026152 -0.010116 0.000000 0.002252 0.000000
# 3 -0.004618 -0.010116 0.039613 0.000000 -0.006004 0.000000
# 4 0.000000 0.000000 0.000000 0.341561 0.000000 0.032864
# 5 0.001018 0.002252 -0.006004 0.000000 0.036991 0.000000
# 6 0.000000 0.000000 0.000000 0.032864 0.000000 0.040097
#
#
# Mechanical properties :
#
#
# Convention : Reuss Voigt Hill
#
# Bulk Modulus (GPa) = 29.49718 42.65269 36.07494
# Shear Modulus (GPa) = 9.07513 19.97319 14.52416
#
# Velocity S-wave (km/s) = 2.20525 3.27156 2.78982
# Velocity P-wave (km/s) = 4.72133 6.09321 5.45060
#
# Compressibility (1/GPa) = 0.03390154
#
# Stress axis : x y z
#
# Youngs Moduli (GPa) = 85.55226 38.23766 25.24408
#
# Poissons Ratio (x) = 0.26929 0.11658
# Poissons Ratio (y) = 0.60251 0.25536
# Poissons Ratio (z) = 0.39508 0.38680
#
# Static dielectric constant tensor:
#      x y z
#    x 3.680610 0.000000 -0.310700 
#    y 0.000000 3.305770 0.000000 
#    z -0.310700 0.000000 3.436450 
# 
# 
# High freq. dielectric constant tensor:
#      x y z
#    x 1.730130 0.000000 -0.021190 
#    y 0.000000 1.708550 0.000000 
#    z -0.021190 0.000000 1.709660 
# 
# From -- ./inp_files/86935.got.cif
#   From: 2010.06.25/outbox.cif.g09.slc.cpg/sg10_44_cif.got.tgz:86935.got - 2010.06.27 22:07:45.
