data_PCOD8063178
_publ_section_title
;
Structure prediction by ZEFSAII (Michael W. Deem and Ramdas Pophale) SiO2 
 PCOD8063178
Probable space group: P 2/M
;
_chemical_formula_sum "Si O2"
_cell_formula_units_Z 20
_cell_length_a 25.916647
_cell_length_b 9.058251
_cell_length_c 9.460996
_cell_angle_alpha 90.000000
_cell_angle_beta 29.211147
_cell_angle_gamma 90.000000
_cell_volume 1083.942085
_symmetry_space_group_name_H-M "P 2/M"
_symmetry_group_IT_number 10
_symmetry_cell_setting 'monoclinic'
loop_
_space_group_symop_operation_xyz
x,y,z
-x,y,-z
-x,-y,-z
x,-y,z
loop_
_atom_site_type_symbol
_atom_site_label
_atom_site_fract_x
_atom_site_fract_y
_atom_site_fract_z
Si Si1 0.441871 0.670831 0.881925
Si Si2 0.306495 0.169665 0.422379
Si Si3 0.884358 0.828129 0.321402
Si Si4 0.659523 0.172831 0.337875
Si Si5 0.751803 0.671045 0.861839
O O1 0.470416 0.500000 0.831746
O O2 0.544977 0.757540 0.587021
O O3 0.398875 0.731742 0.133681
O O4 0.355496 0.697691 0.967977
O O5 0.193757 0.205907 0.622118
O O6 0.297932 0.207552 0.607436
O O7 0.338819 0.000000 0.320114
O O8 0.850356 0.737577 0.540761
O O9 0.884151 0.000000 0.361985
O O10 0.000000 0.773546 0.000000
O O11 0.652208 0.000000 0.324745
O O12 0.743118 0.245782 0.031573
O O13 0.773527 0.500000 0.837614
#
# Coordination Sequence:
#
# PCOD8063178 Si02
#       5
#     4   4   4   4   4
#     4  10  20  33  50  73 102 137 172 203 240 290
#     4   9  19  34  51  75 103 130 166 207 246 293
#     4   9  18  36  60  78  94 124 166 209 252 298
#     4  11  21  32  49  74 105 137 166 202 246 291
#     4  10  21  35  51  74 103 133 167 206 246 292
#
# _framework density 18.451170000000001
#
# number of rings (size 3 to 8) (size 9 to 14) (size 15 to 20)
#    0.000    2.200    0.000    3.000    0.000    9.200 
#    0.000    1.000    0.000    6.000    0.000    0.000 
#    0.000    0.000    0.000    0.000    0.000    0.000 
#
# Total GULP energy -248101.404041 kJ/mol
# GULP energy per Si atom -12405.070202 kJ/mol
# Density = 1.840917 g / cm^3
# Si number density = 18.451170 Si / 1000 Ang^3
#
#
#
# Elastic Constant Matrix: (Units=GPa)
#
#
# Indices 1 2 3 4 5 6 
#
# 1 47.9065 35.9736 46.4523 0.0000 21.3493 0.0000
# 2 35.9736 99.3360 67.0177 0.0000 19.3877 0.0000
# 3 46.4523 67.0177 146.2055 0.0000 17.2938 0.0000
# 4 0.0000 0.0000 0.0000 14.8494 0.0000 -4.4711
# 5 21.3493 19.3877 17.2938 0.0000 32.8492 0.0000
# 6 0.0000 0.0000 0.0000 -4.4711 0.0000 17.3402
#
#
#
# Elastic Compliance Matrix: (Units=1/GPa)
#
#
# Indices 1 2 3 4 5 6 
#
# 1 0.042037 -0.005737 -0.008419 0.000000 -0.019502 0.000000
# 2 -0.005737 0.016322 -0.005290 0.000000 -0.003120 0.000000
# 3 -0.008419 -0.005290 0.011648 0.000000 0.002462 0.000000
# 4 0.000000 0.000000 0.000000 0.073011 0.000000 0.018825
# 5 -0.019502 -0.003120 0.002462 0.000000 0.043662 0.000000
# 6 0.000000 0.000000 0.000000 0.018825 0.000000 0.062524
#
#
# Mechanical properties :
#
#
# Convention : Reuss Voigt Hill
#
# Bulk Modulus (GPa) = 32.13904 65.81502 48.97703
# Shear Modulus (GPa) = 16.75221 22.60806 19.68013
#
# Velocity S-wave (km/s) = 3.01644 3.50421 3.26944
# Velocity P-wave (km/s) = 5.43950 7.21942 6.39172
#
# Compressibility (1/GPa) = 0.03111481
#
# Stress axis : x y z
#
# Youngs Moduli (GPa) = 23.78879 61.26592 85.84858
#
# Poissons Ratio (x) = 0.35146 0.72280
# Poissons Ratio (y) = 0.13647 0.45415
# Poissons Ratio (z) = 0.20029 0.32410
#
# Static dielectric constant tensor:
#      x y z
#    x 3.317220 0.000000 0.107950 
#    y 0.000000 3.464720 0.000000 
#    z 0.107950 0.000000 3.399700 
# 
# 
# High freq. dielectric constant tensor:
#      x y z
#    x 1.703700 0.000000 0.014540 
#    y 0.000000 1.722760 0.000000 
#    z 0.014540 0.000000 1.712900 
# 
# From -- ./inp_files/22104.got.cif
#   From: 2010.06.25/outbox.cif.g09.slc.cpg/sg10_12_cif.got.tgz:22104.got - 2010.06.27 22:07:45.
