data_PCOD8063098
_publ_section_title
;
Structure prediction by ZEFSAII (Michael W. Deem and Ramdas Pophale) SiO2 
 PCOD8063098
Probable space group: P 2/M
;
_chemical_formula_sum "Si O2"
_cell_formula_units_Z 32
_cell_length_a 10.087915
_cell_length_b 14.311455
_cell_length_c 15.403373
_cell_angle_alpha 90.000000
_cell_angle_beta 120.652694
_cell_angle_gamma 90.000000
_cell_volume 1913.099613
_symmetry_space_group_name_H-M "P 2/M"
_symmetry_group_IT_number 10
_symmetry_cell_setting 'monoclinic'
loop_
_space_group_symop_operation_xyz
x,y,z
-x,y,-z
-x,-y,-z
x,-y,z
loop_
_atom_site_type_symbol
_atom_site_label
_atom_site_fract_x
_atom_site_fract_y
_atom_site_fract_z
Si Si1 0.165162 0.793178 0.233417
Si Si2 0.681302 0.893939 0.557570
Si Si3 0.826303 0.397819 0.840638
Si Si4 0.808642 0.398021 0.028578
Si Si5 0.290684 0.109776 0.106042
Si Si6 0.193600 0.793167 0.901003
Si Si7 0.828795 0.110892 0.430418
Si Si8 0.354035 0.889849 0.796888
O O1 0.246594 0.827950 0.346733
O O2 0.224238 0.686669 0.238794
O O3 0.212921 0.856590 0.168496
O O4 0.982609 0.799153 0.188606
O O5 0.500000 0.889345 0.500000
O O6 0.729914 0.856255 0.479623
O O7 0.740418 0.000000 0.592520
O O8 0.776144 0.500000 0.786445
O O9 0.008301 0.394253 0.911903
O O10 0.750113 0.383137 0.910195
O O11 0.752344 0.500000 0.044445
O O12 0.748454 0.314416 0.069664
O O13 0.470681 0.136043 0.165986
O O14 0.266557 0.000000 0.090585
O O15 0.203805 0.156781 0.997001
O O16 0.305671 0.841031 0.869763
O O17 0.751377 0.149749 0.316641
O O18 0.000000 0.151847 0.500000
O O19 0.831686 0.000000 0.425008
O O20 0.332337 0.000000 0.802478
#
# Coordination Sequence:
#
# PCOD8063098 Si02
#       8
#     4   4   4   4   4   4   4   4
#     4  11  20  31  51  77  96 120 162 207 245 278
#     4  10  20  33  48  68  96 126 158 201 248 287
#     4   8  14  27  47  71  98 124 152 192 242 291
#     4   8  14  27  47  70  97 125 155 195 238 282
#     4  11  22  33  44  65 103 140 161 184 232 296
#     4  11  20  31  49  74  98 126 164 201 233 278
#     4   9  17  31  49  66  85 116 162 208 238 265
#     4  10  21  35  48  64  95 138 169 190 233 293
#
# _framework density 16.726783000000001
#
# number of rings (size 3 to 8) (size 9 to 14) (size 15 to 20)
#    0.000    2.250    1.250    3.750    0.000    6.500 
#    0.000    0.000    0.000    2.625    0.000    0.875 
#    0.000    5.000    0.000    0.000    0.000    0.000 
#
# Total GULP energy -396706.235789 kJ/mol
# GULP energy per Si atom -12397.069868 kJ/mol
# Density = 1.668871 g / cm^3
# Si number density = 16.726783 Si / 1000 Ang^3
#
#
#
# Elastic Constant Matrix: (Units=GPa)
#
#
# Indices 1 2 3 4 5 6 
#
# 1 56.3108 19.8786 5.4787 0.0000 -9.5202 0.0000
# 2 19.8786 84.1920 23.0453 0.0000 2.4170 0.0000
# 3 5.4787 23.0453 57.3443 0.0000 0.3266 0.0000
# 4 0.0000 0.0000 0.0000 18.3276 0.0000 -3.4341
# 5 -9.5202 2.4170 0.3266 0.0000 19.7460 0.0000
# 6 0.0000 0.0000 0.0000 -3.4341 0.0000 12.6062
#
#
#
# Elastic Compliance Matrix: (Units=1/GPa)
#
#
# Indices 1 2 3 4 5 6 
#
# 1 0.021532 -0.005417 0.000057 0.000000 0.011043 0.000000
# 2 -0.005417 0.014756 -0.005388 0.000000 -0.004328 0.000000
# 3 0.000057 -0.005388 0.019596 0.000000 0.000363 0.000000
# 4 0.000000 0.000000 0.000000 0.057497 0.000000 0.015663
# 5 0.011043 -0.004328 0.000363 0.000000 0.056491 0.000000
# 6 0.000000 0.000000 0.000000 0.015663 0.000000 0.083593
#
#
# Mechanical properties :
#
#
# Convention : Reuss Voigt Hill
#
# Bulk Modulus (GPa) = 29.07921 32.73915 30.90918
# Shear Modulus (GPa) = 17.45665 20.09893 18.77779
#
# Velocity S-wave (km/s) = 3.23404 3.47017 3.35418
# Velocity P-wave (km/s) = 5.60071 5.97256 5.78962
#
# Compressibility (1/GPa) = 0.03438883
#
# Stress axis : x y z
#
# Youngs Moduli (GPa) = 46.44196 67.77127 51.03021
#
# Poissons Ratio (x) = 0.36709 -0.00289
# Poissons Ratio (y) = 0.25155 0.27494
# Poissons Ratio (z) = -0.00263 0.36513
#
# Static dielectric constant tensor:
#      x y z
#    x 3.061070 0.000000 -0.043500 
#    y 0.000000 3.356840 0.000000 
#    z -0.043500 0.000000 3.104060 
# 
# 
# High freq. dielectric constant tensor:
#      x y z
#    x 1.638000 0.000000 -0.005200 
#    y 0.000000 1.629710 0.000000 
#    z -0.005200 0.000000 1.632420 
# 
# From -- ./inp_files/35171.got.cif
#   From: 2010.06.25/outbox.cif.g09.slc.cpg/sg10_18_cif.got.tgz:35171.got - 2010.06.27 22:07:45.
