data_PCOD8063924
_publ_section_title
;
Structure prediction by ZEFSAII (Michael W. Deem and Ramdas Pophale) SiO2 
 PCOD8063924
Probable space group: P 2/M
;
_chemical_formula_sum "Si O2"
_cell_formula_units_Z 28
_cell_length_a 12.250062
_cell_length_b 8.874817
_cell_length_c 12.682224
_cell_angle_alpha 90.000000
_cell_angle_beta 66.897059
_cell_angle_gamma 90.000000
_cell_volume 1268.198278
_symmetry_space_group_name_H-M "P 2/M"
_symmetry_group_IT_number 10
_symmetry_cell_setting 'monoclinic'
loop_
_space_group_symop_operation_xyz
x,y,z
-x,y,-z
-x,-y,-z
x,-y,z
loop_
_atom_site_type_symbol
_atom_site_label
_atom_site_fract_x
_atom_site_fract_y
_atom_site_fract_z
Si Si1 0.040908 0.333596 0.094649
Si Si2 0.281300 0.823666 0.209365
Si Si3 0.393018 0.171059 0.386996
Si Si4 0.985945 0.173667 0.692776
Si Si5 0.681937 0.333435 0.015176
Si Si6 0.779018 0.323291 0.391453
Si Si7 0.339813 0.826473 0.755757
O O1 0.984546 0.500000 0.140975
O O2 0.997063 0.205433 0.190126
O O3 0.179295 0.352224 0.040131
O O4 0.000000 0.268633 0.000000
O O5 0.360989 0.785046 0.279401
O O6 0.146168 0.764671 0.286012
O O7 0.271903 0.000000 0.187715
O O8 0.349110 0.749091 0.083783
O O9 0.329019 0.281761 0.491602
O O10 0.533252 0.188092 0.349730
O O11 0.351691 0.000000 0.426477
O O12 0.098580 0.261599 0.599864
O O13 0.999861 0.000000 0.657248
O O14 0.622267 0.500000 0.040960
O O15 0.646331 0.241246 0.132488
O O16 0.788422 0.500000 0.377607
O O17 0.755820 0.257467 0.282360
O O18 0.301602 0.000000 0.781140
#
# Coordination Sequence:
#
# PCOD8063924 Si02
#       7
#     4   4   4   4   4   4   4
#     4   9  17  30  49  76 112 151 188 232 287 340
#     4   9  20  40  63  88 119 156 198 240 287 345
#     4  10  23  43  64  85 114 155 201 248 292 340
#     4  10  20  35  58  85 114 150 192 237 284 344
#     4  10  20  34  56  87 123 157 191 237 290 346
#     4  12  25  40  60  87 120 154 192 243 300 354
#     4  11  23  40  63  88 116 153 199 246 292 347
#
# _framework density 22.078568000000001
#
# number of rings (size 3 to 8) (size 9 to 14) (size 15 to 20)
#    0.000    1.857    0.000    3.857    0.000    7.143 
#    0.000    5.714    0.000    0.000    0.000    0.000 
#    0.000    0.000    0.000    0.000    0.000    0.000 
#
# Total GULP energy -347050.042268 kJ/mol
# GULP energy per Si atom -12394.644367 kJ/mol
# Density = 2.202832 g / cm^3
# Si number density = 22.078568 Si / 1000 Ang^3
#
#
#
# Elastic Constant Matrix: (Units=GPa)
#
#
# Indices 1 2 3 4 5 6 
#
# 1 38.5246 18.4093 -10.6210 0.0000 -4.9967 0.0000
# 2 18.4093 114.3964 26.6341 0.0000 -6.4552 0.0000
# 3 -10.6210 26.6341 63.3388 0.0000 -6.3258 0.0000
# 4 0.0000 0.0000 0.0000 32.7705 0.0000 0.0743
# 5 -4.9967 -6.4552 -6.3258 0.0000 32.1309 0.0000
# 6 0.0000 0.0000 0.0000 0.0743 0.0000 17.3744
#
#
#
# Elastic Compliance Matrix: (Units=1/GPa)
#
#
# Indices 1 2 3 4 5 6 
#
# 1 0.032462 -0.006997 0.008925 0.000000 0.005400 0.000000
# 2 -0.006997 0.011242 -0.005900 0.000000 0.000009 0.000000
# 3 0.008925 -0.005900 0.020183 0.000000 0.004176 0.000000
# 4 0.000000 0.000000 0.000000 0.030516 0.000000 -0.000131
# 5 0.005400 0.000009 0.004176 0.000000 0.032786 0.000000
# 6 0.000000 0.000000 0.000000 -0.000131 0.000000 0.057557
#
#
# Mechanical properties :
#
#
# Convention : Reuss Voigt Hill
#
# Bulk Modulus (GPa) = 17.87545 31.67830 24.77687
# Shear Modulus (GPa) = 23.65902 28.57765 26.11834
#
# Velocity S-wave (km/s) = 3.27706 3.60163 3.44317
# Velocity P-wave (km/s) = 4.73631 5.62803 5.20132
#
# Compressibility (1/GPa) = 0.05594265
#
# Stress axis : x y z
#
# Youngs Moduli (GPa) = 30.80523 88.95511 49.54769
#
# Poissons Ratio (x) = 0.62244 -0.44221
# Poissons Ratio (y) = 0.21555 0.29231
# Poissons Ratio (z) = -0.27494 0.52480
#
# Static dielectric constant tensor:
#      x y z
#    x 4.069830 0.000000 -0.074700 
#    y 0.000000 4.055900 0.000000 
#    z -0.074700 0.000000 3.707820 
# 
# 
# High freq. dielectric constant tensor:
#      x y z
#    x 1.875870 0.000000 -0.003740 
#    y 0.000000 1.859730 0.000000 
#    z -0.003740 0.000000 1.863980 
# 
# From -- ./inp_files/49204.got.cif
#   From: 2010.06.25/outbox.cif.g09.slc.cpg/sg10_25_cif.got.tgz:49204.got - 2010.06.27 22:07:45.
