data_PCOD8063485
_publ_section_title
;
Structure prediction by ZEFSAII (Michael W. Deem and Ramdas Pophale) SiO2 
 PCOD8063485
Probable space group: P 2/M
;
_chemical_formula_sum "Si O2"
_cell_formula_units_Z 32
_cell_length_a 30.900960
_cell_length_b 8.601458
_cell_length_c 15.070094
_cell_angle_alpha 90.000000
_cell_angle_beta 151.601870
_cell_angle_gamma 90.000000
_cell_volume 1905.012116
_symmetry_space_group_name_H-M "P 2/M"
_symmetry_group_IT_number 10
_symmetry_cell_setting 'monoclinic'
loop_
_space_group_symop_operation_xyz
x,y,z
-x,y,-z
-x,-y,-z
x,-y,z
loop_
_atom_site_type_symbol
_atom_site_label
_atom_site_fract_x
_atom_site_fract_y
_atom_site_fract_z
Si Si1 0.435810 0.816677 0.262587
Si Si2 0.698301 0.680074 0.328208
Si Si3 0.368097 0.815954 0.325178
Si Si4 0.414799 0.182250 0.028696
Si Si5 0.622768 0.180176 0.367241
Si Si6 0.899205 0.319788 0.731970
Si Si7 0.751636 0.319085 0.746255
Si Si8 0.083969 0.818962 0.047198
O O1 0.368277 0.768492 0.221002
O O2 0.537745 0.753195 0.462438
O O3 0.446657 0.000000 0.281698
O O4 0.397930 0.760357 0.099494
O O5 0.683426 0.500000 0.325580
O O6 0.654073 0.719240 0.154444
O O7 0.652035 0.784263 0.320020
O O8 0.805204 0.719244 0.512907
O O9 0.285797 0.728995 0.224957
O O10 0.356554 0.000000 0.317284
O O11 0.394660 0.000000 0.980588
O O12 0.517275 0.222678 0.185698
O O13 0.680186 0.279439 0.540284
O O14 0.640125 0.000000 0.420241
O O15 0.924006 0.500000 0.770125
O O16 0.888100 0.274976 0.814693
O O17 0.980707 0.223385 0.832835
O O18 0.772704 0.500000 0.782150
O O19 0.846350 0.227919 0.904275
O O20 0.091044 0.000000 0.080908
#
# Coordination Sequence:
#
# PCOD8063485 Si02
#       8
#     4   4   4   4   4   4   4   4
#     4   8  15  30  52  74  96 128 168 212 251 286
#     4  11  23  35  49  71 102 138 170 204 250 296
#     4   9  16  31  53  73  97 129 168 207 248 299
#     4  10  20  34  51  72  98 134 177 213 245 284
#     4  11  21  34  51  70  97 135 179 214 241 285
#     4  10  20  35  51  71 101 131 162 205 255 296
#     4  12  22  32  48  74 106 136 163 202 255 304
#     4  11  21  33  53  75  96 127 168 206 247 299
#
# _framework density 16.797792999999999
#
# number of rings (size 3 to 8) (size 9 to 14) (size 15 to 20)
#    0.000    1.750    2.500    5.250    0.000    4.000 
#    0.000    1.875    0.000    0.000    0.000    0.875 
#    0.000    7.000    0.000    0.000    0.000    0.000 
#
# Total GULP energy -396822.150706 kJ/mol
# GULP energy per Si atom -12400.692210 kJ/mol
# Density = 1.675956 g / cm^3
# Si number density = 16.797793 Si / 1000 Ang^3
#
#
#
# Elastic Constant Matrix: (Units=GPa)
#
#
# Indices 1 2 3 4 5 6 
#
# 1 114.2498 17.7873 53.6179 0.0000 7.5872 0.0000
# 2 17.7873 41.2962 27.6994 0.0000 7.0157 0.0000
# 3 53.6179 27.6994 87.8152 0.0000 8.1553 0.0000
# 4 0.0000 0.0000 0.0000 24.7642 0.0000 4.1209
# 5 7.5872 7.0157 8.1553 0.0000 23.7506 0.0000
# 6 0.0000 0.0000 0.0000 4.1209 0.0000 12.8706
#
#
#
# Elastic Compliance Matrix: (Units=1/GPa)
#
#
# Indices 1 2 3 4 5 6 
#
# 1 0.012313 -0.000144 -0.007346 0.000000 -0.001369 0.000000
# 2 -0.000144 0.031547 -0.009298 0.000000 -0.006080 0.000000
# 3 -0.007346 -0.009298 0.018937 0.000000 -0.001409 0.000000
# 4 0.000000 0.000000 0.000000 0.042654 0.000000 -0.013657
# 5 -0.001369 -0.006080 -0.001409 0.000000 0.044821 0.000000
# 6 0.000000 0.000000 0.000000 -0.013657 0.000000 0.082069
#
#
# Mechanical properties :
#
#
# Convention : Reuss Voigt Hill
#
# Bulk Modulus (GPa) = 34.22211 49.06338 41.64274
# Shear Modulus (GPa) = 18.13845 21.89417 20.01631
#
# Velocity S-wave (km/s) = 3.28961 3.61417 3.45571
# Velocity P-wave (km/s) = 5.90305 6.83286 6.38490
#
# Compressibility (1/GPa) = 0.02922088
#
# Stress axis : x y z
#
# Youngs Moduli (GPa) = 81.21177 31.69873 52.80802
#
# Poissons Ratio (x) = 0.00456 0.38792
# Poissons Ratio (y) = 0.01170 0.49102
# Poissons Ratio (z) = 0.59657 0.29474
#
# Static dielectric constant tensor:
#      x y z
#    x 3.352730 0.000000 0.044370 
#    y 0.000000 3.062390 0.000000 
#    z 0.044370 0.000000 3.111460 
# 
# 
# High freq. dielectric constant tensor:
#      x y z
#    x 1.642110 0.000000 0.011240 
#    y 0.000000 1.646130 0.000000 
#    z 0.011240 0.000000 1.623220 
# 
# From -- ./inp_files/69959.got.cif
#   From: 2010.06.25/outbox.cif.g09.slc.cpg/sg10_35_cif.got.tgz:69959.got - 2010.06.27 22:07:45.
