data_PCOD8063695
_publ_section_title
;
Structure prediction by ZEFSAII (Michael W. Deem and Ramdas Pophale) SiO2 
 PCOD8063695
Probable space group: P 2/M
;
_chemical_formula_sum "Si O2"
_cell_formula_units_Z 22
_cell_length_a 13.349611
_cell_length_b 9.920283
_cell_length_c 7.002726
_cell_angle_alpha 90.000000
_cell_angle_beta 87.158683
_cell_angle_gamma 90.000000
_cell_volume 926.244364
_symmetry_space_group_name_H-M "P 2/M"
_symmetry_group_IT_number 10
_symmetry_cell_setting 'monoclinic'
loop_
_space_group_symop_operation_xyz
x,y,z
-x,y,-z
-x,-y,-z
x,-y,z
loop_
_atom_site_type_symbol
_atom_site_label
_atom_site_fract_x
_atom_site_fract_y
_atom_site_fract_z
Si Si1 0.262888 0.652242 0.163117
Si Si2 0.802654 0.647515 0.395176
Si Si3 0.000000 0.228915 0.500000
Si Si4 0.358047 0.150419 0.675643
Si Si5 0.574078 0.151753 0.765924
Si Si6 0.905716 0.148772 0.881821
O O1 0.272788 0.500000 0.080129
O O2 0.239072 0.646574 0.387826
O O3 0.364705 0.737375 0.118248
O O4 0.174124 0.734062 0.066651
O O5 0.791256 0.500000 0.303610
O O6 0.920538 0.683233 0.385598
O O7 0.734194 0.747975 0.273160
O O8 0.062800 0.140517 0.344198
O O9 0.454761 0.180423 0.801581
O O10 0.394966 0.163869 0.456363
O O11 0.317366 0.000000 0.717289
O O12 0.598904 0.000000 0.836404
O O13 0.862570 0.000000 0.936798
O O14 0.000000 0.185763 0.000000
#
# Coordination Sequence:
#
# PCOD8063695 Si02
#       6
#     4   4   2   4   4   4
#     4   9  17  28  44  68  97 130 167 207 252 301
#     4   9  17  28  43  65  96 132 169 209 251 299
#     4  10  20  34  54  76 102 136 170 208 254 296
#     4   8  14  23  37  61  92 126 167 210 252 299
#     4   8  13  23  39  60  91 129 165 207 254 298
#     4  10  21  36  54  77 103 133 171 210 249 298
#
# _framework density 23.751833000000001
#
# number of rings (size 3 to 8) (size 9 to 14) (size 15 to 20)
#    0.000    3.091    0.000    2.182    0.000    6.909 
#    0.000    3.636    0.000    0.000    0.000    1.273 
#    0.000    8.727    0.000    0.727    0.000    0.000 
#
# Total GULP energy -272692.926847 kJ/mol
# GULP energy per Si atom -12395.133038 kJ/mol
# Density = 2.369777 g / cm^3
# Si number density = 23.751833 Si / 1000 Ang^3
#
#
#
# Elastic Constant Matrix: (Units=GPa)
#
#
# Indices 1 2 3 4 5 6 
#
# 1 164.2914 122.8702 18.0632 0.0000 45.6333 0.0000
# 2 122.8702 236.2341 20.3348 0.0000 45.4217 0.0000
# 3 18.0632 20.3348 24.7127 0.0000 11.3221 0.0000
# 4 0.0000 0.0000 0.0000 -6.8796 0.0000 17.2023
# 5 45.6333 45.4217 11.3221 0.0000 45.6694 0.0000
# 6 0.0000 0.0000 0.0000 17.2023 0.0000 21.9634
#
#
#
# Elastic Compliance Matrix: (Units=1/GPa)
#
#
# Indices 1 2 3 4 5 6 
#
# 1 0.011517 -0.004592 -0.001646 0.000000 -0.006532 0.000000
# 2 -0.004592 0.007170 -0.001555 0.000000 -0.002157 0.000000
# 3 -0.001646 -0.001555 0.046802 0.000000 -0.008411 0.000000
# 4 0.000000 0.000000 0.000000 -0.049133 0.000000 0.038482
# 5 -0.006532 -0.002157 -0.008411 0.000000 0.032654 0.000000
# 6 0.000000 0.000000 0.000000 0.038482 0.000000 0.015390
#
#
# Mechanical properties :
#
#
# Convention : Reuss Voigt Hill
#
# Bulk Modulus (GPa) = 20.03981 83.08608 51.56294
# Shear Modulus (GPa) = 51.74877 29.74863 40.74870
#
# Velocity S-wave (km/s) = 4.67275 3.54288 4.14648
# Velocity P-wave (km/s) = 6.12929 7.19672 6.68435
#
# Compressibility (1/GPa) = 0.04990068
#
# Stress axis : x y z
#
# Youngs Moduli (GPa) = 86.83136 139.46410 21.36683
#
# Poissons Ratio (x) = 0.64047 0.03518
# Poissons Ratio (y) = 0.39876 0.03323
# Poissons Ratio (z) = 0.14296 0.21688
#
# Static dielectric constant tensor:
#      x y z
#    x 4.409970 0.000000 0.199320 
#    y 0.000000 4.456380 0.000000 
#    z 0.199320 0.000000 3.943740 
# 
# 
# High freq. dielectric constant tensor:
#      x y z
#    x 1.938740 0.000000 0.007120 
#    y 0.000000 1.930580 0.000000 
#    z 0.007120 0.000000 1.936340 
# 
# From -- ./inp_files/27325.got.cif
#   From: 2010.06.25/outbox.cif.g09.slc.cpg/sg10_14_cif.got.tgz:27325.got - 2010.06.27 22:07:45.
