data_PCOD8063933
_publ_section_title
;
Structure prediction by ZEFSAII (Michael W. Deem and Ramdas Pophale) SiO2 
 PCOD8063933
Probable space group: P 2/M
;
_chemical_formula_sum "Si O2"
_cell_formula_units_Z 28
_cell_length_a 9.660132
_cell_length_b 17.192082
_cell_length_c 14.387943
_cell_angle_alpha 90.000000
_cell_angle_beta 39.043916
_cell_angle_gamma 90.000000
_cell_volume 1505.195096
_symmetry_space_group_name_H-M "P 2/M"
_symmetry_group_IT_number 10
_symmetry_cell_setting 'monoclinic'
loop_
_space_group_symop_operation_xyz
x,y,z
-x,y,-z
-x,-y,-z
x,-y,z
loop_
_atom_site_type_symbol
_atom_site_label
_atom_site_fract_x
_atom_site_fract_y
_atom_site_fract_z
Si Si1 0.089050 0.170865 0.134420
Si Si2 0.789372 0.686389 0.044210
Si Si3 0.407147 0.842093 0.647825
Si Si4 0.244467 0.587713 0.113213
Si Si5 0.832900 0.000000 0.960525
Si Si6 0.642852 0.731308 0.656368
Si Si7 0.937662 0.724270 0.675855
Si Si8 0.668522 0.000000 0.241554
O O1 0.190487 0.082435 0.084559
O O2 0.063798 0.203759 0.251785
O O3 0.851403 0.174141 0.209906
O O4 0.236112 0.230368 0.996587
O O5 0.559799 0.671559 0.219294
O O6 0.815728 0.616196 0.958395
O O7 0.000000 0.684666 0.000000
O O8 0.500000 0.814670 0.500000
O O9 0.527185 0.805209 0.672391
O O10 0.456164 0.931404 0.641381
O O11 0.156503 0.500000 0.170585
O O12 0.127694 0.642002 0.248279
O O13 0.500000 0.592789 0.000000
O O14 0.074411 0.000000 0.874497
O O15 0.650612 0.000000 0.138083
O O16 0.767278 0.752089 0.686481
O O17 0.821832 0.702479 0.488721
#
# Coordination Sequence:
#
# PCOD8063933 Si02
#       8
#     4   4   4   4   2   4   4   2
#     4  10  20  34  57  82 112 154 191 242 287 332
#     4  11  21  35  61  89 114 150 189 237 284 332
#     4  11  19  33  53  82 112 150 195 239 291 340
#     4  10  21  41  64  87 116 149 188 230 280 342
#     4   9  18  32  51  79 114 144 198 243 286 329
#     4  11  21  36  57  85 117 147 192 232 279 342
#     4  10  22  39  57  85 116 154 187 232 284 343
#     4   9  19  30  49  77 112 146 193 251 284 329
#
# _framework density 18.602240999999999
#
# number of rings (size 3 to 8) (size 9 to 14) (size 15 to 20)
#    0.000    1.714    4.286    1.071    2.000    0.286 
#    0.000    2.857    0.000    4.286    0.000    0.000 
#    0.000    0.000    0.000    0.000    0.000    0.000 
#
# Total GULP energy -346941.708740 kJ/mol
# GULP energy per Si atom -12390.775312 kJ/mol
# Density = 1.855990 g / cm^3
# Si number density = 18.602241 Si / 1000 Ang^3
#
#
#
# Elastic Constant Matrix: (Units=GPa)
#
#
# Indices 1 2 3 4 5 6 
#
# 1 103.8753 46.8341 38.5465 0.0000 10.8255 0.0000
# 2 46.8341 121.3796 25.0044 0.0000 13.3081 0.0000
# 3 38.5465 25.0044 82.7224 0.0000 8.1504 0.0000
# 4 0.0000 0.0000 0.0000 19.4100 0.0000 -0.1877
# 5 10.8255 13.3081 8.1504 0.0000 29.0310 0.0000
# 6 0.0000 0.0000 0.0000 -0.1877 0.0000 19.8841
#
#
#
# Elastic Compliance Matrix: (Units=1/GPa)
#
#
# Indices 1 2 3 4 5 6 
#
# 1 0.013415 -0.003974 -0.004871 0.000000 -0.001813 0.000000
# 2 -0.003974 0.010297 -0.000968 0.000000 -0.002966 0.000000
# 3 -0.004871 -0.000968 0.014839 0.000000 -0.001906 0.000000
# 4 0.000000 0.000000 0.000000 0.051525 0.000000 0.000486
# 5 -0.001813 -0.002966 -0.001906 0.000000 0.037017 0.000000
# 6 0.000000 0.000000 0.000000 0.000486 0.000000 0.050296
#
#
# Mechanical properties :
#
#
# Convention : Reuss Voigt Hill
#
# Bulk Modulus (GPa) = 52.84376 58.74970 55.79673
# Shear Modulus (GPa) = 24.59133 26.83783 25.71458
#
# Velocity S-wave (km/s) = 3.63981 3.80244 3.72201
# Velocity P-wave (km/s) = 6.79214 7.13643 6.96641
#
# Compressibility (1/GPa) = 0.01892371
#
# Stress axis : x y z
#
# Youngs Moduli (GPa) = 74.54169 97.11872 67.39006
#
# Poissons Ratio (x) = 0.38595 0.32828
# Poissons Ratio (y) = 0.29623 0.06526
# Poissons Ratio (z) = 0.36312 0.09404
#
# Static dielectric constant tensor:
#      x y z
#    x 3.392030 0.000000 0.077440 
#    y 0.000000 3.432800 0.000000 
#    z 0.077440 0.000000 3.602140 
# 
# 
# High freq. dielectric constant tensor:
#      x y z
#    x 1.717320 0.000000 0.009340 
#    y 0.000000 1.703390 0.000000 
#    z 0.009340 0.000000 1.730720 
# 
# From -- ./inp_files/62347.got.cif
#   From: 2010.06.25/outbox.cif.g09.slc.cpg/sg10_32_cif.got.tgz:62347.got - 2010.06.27 22:07:45.
