data_PCOD8063443
_publ_section_title
;
Structure prediction by ZEFSAII (Michael W. Deem and Ramdas Pophale) SiO2 
 PCOD8063443
Probable space group: P 2/M
;
_chemical_formula_sum "Si O2"
_cell_formula_units_Z 32
_cell_length_a 20.821323
_cell_length_b 9.378221
_cell_length_c 12.085750
_cell_angle_alpha 90.000000
_cell_angle_beta 51.751391
_cell_angle_gamma 90.000000
_cell_volume 1853.342406
_symmetry_space_group_name_H-M "P 2/M"
_symmetry_group_IT_number 10
_symmetry_cell_setting 'monoclinic'
loop_
_space_group_symop_operation_xyz
x,y,z
-x,y,-z
-x,-y,-z
x,-y,z
loop_
_atom_site_type_symbol
_atom_site_label
_atom_site_fract_x
_atom_site_fract_y
_atom_site_fract_z
Si Si1 0.624491 0.668397 0.051755
Si Si2 0.110798 0.668473 0.964439
Si Si3 0.940121 0.668333 0.222592
Si Si4 0.804984 0.166094 0.470647
Si Si5 0.681770 0.836195 0.789199
Si Si6 0.667505 0.835235 0.445140
Si Si7 0.708695 0.668223 0.190077
Si Si8 0.540165 0.162442 0.766412
O O1 0.621129 0.500000 0.039567
O O2 0.680913 0.734260 0.895915
O O3 0.664105 0.712734 0.125634
O O4 0.533651 0.729165 0.141946
O O5 0.109789 0.500000 0.960543
O O6 0.096166 0.723151 0.855576
O O7 0.197578 0.725021 0.916869
O O8 0.035835 0.715689 0.124586
O O9 0.929946 0.500000 0.249548
O O10 0.889674 0.746959 0.372912
O O11 0.762957 0.200575 0.632802
O O12 0.744264 0.214448 0.437166
O O13 0.824355 0.000000 0.440006
O O14 0.602051 0.807973 0.800227
O O15 0.683410 0.000000 0.826338
O O16 0.661530 0.741772 0.341383
O O17 0.584457 0.810666 0.602301
O O18 0.676737 0.000000 0.402355
O O19 0.706094 0.500000 0.213140
O O20 0.507745 0.000000 0.807344
#
# Coordination Sequence:
#
# PCOD8063443 Si02
#       8
#     4   4   4   4   4   4   4   4
#     4  11  23  34  48  73  98 125 164 205 241 280
#     4   8  15  28  46  70  99 130 161 190 227 285
#     4   9  15  26  49  75  96 125 163 193 230 286
#     4   9  17  30  49  75 102 122 151 201 249 283
#     4   9  19  36  55  71  93 128 163 198 244 290
#     4   9  18  32  50  73  97 125 162 196 233 288
#     4  10  20  34  49  67 101 137 159 191 240 287
#     4   9  19  36  55  72  94 125 160 201 246 288
#
# _framework density 17.266102
#
# number of rings (size 3 to 8) (size 9 to 14) (size 15 to 20)
#    0.000    2.750    1.250    3.000    0.000    4.500 
#    0.000    6.875    0.000    0.750    0.000    5.250 
#    0.000    0.000    0.000    0.000    0.000    0.000 
#
# Total GULP energy -396732.279364 kJ/mol
# GULP energy per Si atom -12397.883730 kJ/mol
# Density = 1.722680 g / cm^3
# Si number density = 17.266102 Si / 1000 Ang^3
#
#
#
# Elastic Constant Matrix: (Units=GPa)
#
#
# Indices 1 2 3 4 5 6 
#
# 1 23.6953 17.6280 26.1692 0.0000 8.8704 0.0000
# 2 17.6280 51.5297 47.6366 0.0000 8.5748 0.0000
# 3 26.1692 47.6366 115.9140 0.0000 4.6190 0.0000
# 4 0.0000 0.0000 0.0000 34.2702 0.0000 -1.6315
# 5 8.8704 8.5748 4.6190 0.0000 26.8570 0.0000
# 6 0.0000 0.0000 0.0000 -1.6315 0.0000 17.6936
#
#
#
# Elastic Compliance Matrix: (Units=1/GPa)
#
#
# Indices 1 2 3 4 5 6 
#
# 1 0.068061 -0.011045 -0.010141 0.000000 -0.017209 0.000000
# 2 -0.011045 0.034816 -0.011596 0.000000 -0.005473 0.000000
# 3 -0.010141 -0.011596 0.015508 0.000000 0.004385 0.000000
# 4 0.000000 0.000000 0.000000 0.029308 0.000000 0.002703
# 5 -0.017209 -0.005473 0.004385 0.000000 0.043912 0.000000
# 6 0.000000 0.000000 0.000000 0.002703 0.000000 0.056767
#
#
# Mechanical properties :
#
#
# Convention : Reuss Voigt Hill
#
# Bulk Modulus (GPa) = 18.93220 41.55628 30.24424
# Shear Modulus (GPa) = 15.08101 22.41116 18.74608
#
# Velocity S-wave (km/s) = 2.95862 3.60667 3.29860
# Velocity P-wave (km/s) = 4.76025 6.43929 5.66235
#
# Compressibility (1/GPa) = 0.05282005
#
# Stress axis : x y z
#
# Youngs Moduli (GPa) = 14.69266 28.72256 64.48470
#
# Poissons Ratio (x) = 0.31724 0.65394
# Poissons Ratio (y) = 0.16228 0.74779
# Poissons Ratio (z) = 0.14900 0.33308
#
# Static dielectric constant tensor:
#      x y z
#    x 3.122250 0.000000 -0.151310 
#    y 0.000000 3.009490 0.000000 
#    z -0.151310 0.000000 3.326940 
# 
# 
# High freq. dielectric constant tensor:
#      x y z
#    x 1.638710 0.000000 -0.012340 
#    y 0.000000 1.652590 0.000000 
#    z -0.012340 0.000000 1.676520 
# 
# From -- ./inp_files/55280.got.cif
#   From: 2010.06.25/outbox.cif.g09.slc.cpg/sg10_28_cif.got.tgz:55280.got - 2010.06.27 22:07:45.
