data_PCOD8063357
_publ_section_title
;
Structure prediction by ZEFSAII (Michael W. Deem and Ramdas Pophale) SiO2 
 PCOD8063357
Probable space group: P 2/M
;
_chemical_formula_sum "Si O2"
_cell_formula_units_Z 32
_cell_length_a 21.029002
_cell_length_b 9.280483
_cell_length_c 26.355176
_cell_angle_alpha 90.000000
_cell_angle_beta 160.226717
_cell_angle_gamma 90.000000
_cell_volume 1740.027334
_symmetry_space_group_name_H-M "P 2/M"
_symmetry_group_IT_number 10
_symmetry_cell_setting 'monoclinic'
loop_
_space_group_symop_operation_xyz
x,y,z
-x,y,-z
-x,-y,-z
x,-y,z
loop_
_atom_site_type_symbol
_atom_site_label
_atom_site_fract_x
_atom_site_fract_y
_atom_site_fract_z
Si Si1 0.977819 0.665451 0.763721
Si Si2 0.624210 0.330759 0.140294
Si Si3 0.594714 0.667722 0.923506
Si Si4 0.382209 0.169555 0.678934
Si Si5 0.201354 0.160697 0.288783
Si Si6 0.986069 0.832789 0.432095
Si Si7 0.626147 0.670681 0.433102
Si Si8 0.572271 0.837322 0.634275
O O1 0.941047 0.500000 0.747598
O O2 0.954038 0.741422 0.800581
O O3 0.827022 0.717157 0.608303
O O4 0.186270 0.695192 0.899326
O O5 0.658798 0.500000 0.165311
O O6 0.523392 0.281913 0.116408
O O7 0.822999 0.254444 0.281975
O O8 0.500000 0.279809 0.000000
O O9 0.558324 0.500000 0.883545
O O10 0.537378 0.764851 0.832909
O O11 0.397635 0.248742 0.637376
O O12 0.177873 0.201996 0.547774
O O13 0.419140 0.000000 0.700180
O O14 0.252359 0.212574 0.269701
O O15 0.388048 0.163756 0.461964
O O16 0.118558 0.000000 0.223988
O O17 0.000000 0.776753 0.500000
O O18 0.933396 0.000000 0.391138
O O19 0.609939 0.500000 0.413064
O O20 0.454937 0.725319 0.340177
O O21 0.606572 0.000000 0.680672
#
# Coordination Sequence:
#
# PCOD8063357 Si02
#       8
#     4   4   4   4   4   4   4   4
#     4   9  19  33  51  77 110 141 173 217 265 314
#     4  10  22  37  58  84 108 138 175 217 264 315
#     4  10  21  38  55  76 107 142 177 215 263 316
#     4  11  23  38  56  77 104 141 180 220 265 313
#     4   8  14  26  47  74 104 140 177 213 257 308
#     4  10  21  39  58  78 106 137 176 222 264 312
#     4  10  20  33  53  81 109 140 176 218 264 313
#     4   8  14  27  47  73 107 140 173 216 259 305
#
# _framework density 18.390516000000002
#
# number of rings (size 3 to 8) (size 9 to 14) (size 15 to 20)
#    0.000    2.500    1.250    1.500    1.750    3.000 
#    0.000    2.500    0.000    0.750    0.000    5.250 
#    0.000    0.000    0.000    0.000    0.000    0.000 
#
# Total GULP energy -396749.243847 kJ/mol
# GULP energy per Si atom -12398.413870 kJ/mol
# Density = 1.834866 g / cm^3
# Si number density = 18.390516 Si / 1000 Ang^3
#
#
#
# Elastic Constant Matrix: (Units=GPa)
#
#
# Indices 1 2 3 4 5 6 
#
# 1 111.0415 43.6847 19.4603 0.0000 -14.1072 0.0000
# 2 43.6847 60.0391 21.7551 0.0000 -9.5501 0.0000
# 3 19.4603 21.7551 49.5995 0.0000 -14.0374 0.0000
# 4 0.0000 0.0000 0.0000 24.5449 0.0000 3.2248
# 5 -14.1072 -9.5501 -14.0374 0.0000 22.9907 0.0000
# 6 0.0000 0.0000 0.0000 3.2248 0.0000 23.4493
#
#
#
# Elastic Compliance Matrix: (Units=1/GPa)
#
#
# Indices 1 2 3 4 5 6 
#
# 1 0.013009 -0.008765 -0.000037 0.000000 0.004319 0.000000
# 2 -0.008765 0.025949 -0.007754 0.000000 0.000666 0.000000
# 3 -0.000037 -0.007754 0.027393 0.000000 0.013481 0.000000
# 4 0.000000 0.000000 0.000000 0.041491 0.000000 -0.005706
# 5 0.004319 0.000666 0.013481 0.000000 0.054654 0.000000
# 6 0.000000 0.000000 0.000000 -0.005706 0.000000 0.043430
#
#
# Mechanical properties :
#
#
# Convention : Reuss Voigt Hill
#
# Bulk Modulus (GPa) = 30.08635 43.38668 36.73652
# Shear Modulus (GPa) = 19.99063 23.24900 21.61982
#
# Velocity S-wave (km/s) = 3.30056 3.55939 3.43242
# Velocity P-wave (km/s) = 5.56059 6.36675 5.97727
#
# Compressibility (1/GPa) = 0.03323767
#
# Stress axis : x y z
#
# Youngs Moduli (GPa) = 76.86954 38.53736 36.50634
#
# Poissons Ratio (x) = 0.33778 0.00137
# Poissons Ratio (y) = 0.67376 0.28307
# Poissons Ratio (z) = 0.00287 0.29882
#
# Static dielectric constant tensor:
#      x y z
#    x 3.685100 0.000000 0.152090 
#    y 0.000000 3.404560 0.000000 
#    z 0.152090 0.000000 3.196060 
# 
# 
# High freq. dielectric constant tensor:
#      x y z
#    x 1.721640 0.000000 0.009520 
#    y 0.000000 1.710380 0.000000 
#    z 0.009520 0.000000 1.687740 
# 
# From -- ./inp_files/93622.got.cif
#   From: 2010.06.25/outbox.cif.g09.slc.cpg/sg10_47_cif.got.tgz:93622.got - 2010.06.27 22:07:45.
