data_PCOD8063167
_publ_section_title
;
Structure prediction by ZEFSAII (Michael W. Deem and Ramdas Pophale) SiO2 
 PCOD8063167
Probable space group: P 2/M
;
_chemical_formula_sum "Si O2"
_cell_formula_units_Z 32
_cell_length_a 20.561345
_cell_length_b 9.247147
_cell_length_c 26.896021
_cell_angle_alpha 90.000000
_cell_angle_beta 20.011844
_cell_angle_gamma 90.000000
_cell_volume 1750.030347
_symmetry_space_group_name_H-M "P 2/M"
_symmetry_group_IT_number 10
_symmetry_cell_setting 'monoclinic'
loop_
_space_group_symop_operation_xyz
x,y,z
-x,y,-z
-x,-y,-z
x,-y,z
loop_
_atom_site_type_symbol
_atom_site_label
_atom_site_fract_x
_atom_site_fract_y
_atom_site_fract_z
Si Si1 0.371308 0.661154 0.789841
Si Si2 0.684074 0.339088 0.650519
Si Si3 0.683941 0.329758 0.398523
Si Si4 0.362022 0.167742 0.466731
Si Si5 0.376136 0.328021 0.945214
Si Si6 0.682506 0.669284 0.901876
Si Si7 0.086898 0.328858 0.072439
Si Si8 0.053805 0.832466 0.603430
O O1 0.339836 0.500000 0.789936
O O2 0.525819 0.653379 0.721921
O O3 0.441165 0.766411 0.695866
O O4 0.177253 0.723472 0.954751
O O5 0.770047 0.500000 0.596755
O O6 0.580261 0.281620 0.775238
O O7 0.851192 0.230410 0.514965
O O8 0.500000 0.281411 0.500000
O O9 0.683512 0.500000 0.410359
O O10 0.694375 0.246536 0.442479
O O11 0.866986 0.283536 0.234353
O O12 0.190110 0.195115 0.552375
O O13 0.396854 0.000000 0.452018
O O14 0.366715 0.500000 0.952512
O O15 0.356875 0.267726 0.014750
O O16 0.203398 0.264339 0.035862
O O17 0.731901 0.500000 0.867836
O O18 0.857608 0.751965 0.752398
O O19 0.500000 0.702018 0.000000
O O20 0.111601 0.500000 0.055906
O O21 0.014129 0.000000 0.623272
#
# Coordination Sequence:
#
# PCOD8063167 Si02
#       8
#     4   4   4   4   4   4   4   4
#     4   8  14  27  49  73  93 117 154 200 245 285
#     4   8  14  27  49  73  93 117 154 200 245 285
#     4  10  20  33  50  73 100 131 166 202 242 288
#     4  10  20  33  50  73  99 127 160 198 242 292
#     4   8  14  27  49  74  96 120 156 202 245 284
#     4  10  20  33  50  73 100 131 166 202 242 288
#     4   8  14  27  49  74  96 120 156 202 245 284
#     4  10  20  33  50  73  99 127 160 198 242 292
#
# _framework density 18.285399000000002
#
# number of rings (size 3 to 8) (size 9 to 14) (size 15 to 20)
#    0.000    3.000    0.000    3.000    0.000    3.000 
#    0.000    2.500    0.000   12.000    0.000    0.000 
#    0.000    0.000    0.000    0.000    0.000    0.000 
#
# Total GULP energy -396660.932059 kJ/mol
# GULP energy per Si atom -12395.654127 kJ/mol
# Density = 1.824378 g / cm^3
# Si number density = 18.285399 Si / 1000 Ang^3
#
#
#
# Elastic Constant Matrix: (Units=GPa)
#
#
# Indices 1 2 3 4 5 6 
#
# 1 25.7435 22.8860 43.1146 0.0000 -5.4876 0.0000
# 2 22.8860 59.1787 58.2486 0.0000 -2.0873 0.0000
# 3 43.1146 58.2486 171.6676 0.0000 12.1526 0.0000
# 4 0.0000 0.0000 0.0000 0.7251 0.0000 -3.5047
# 5 -5.4876 -2.0873 12.1526 0.0000 16.1587 0.0000
# 6 0.0000 0.0000 0.0000 -3.5047 0.0000 14.4630
#
#
#
# Elastic Compliance Matrix: (Units=1/GPa)
#
#
# Indices 1 2 3 4 5 6 
#
# 1 0.104971 -0.013629 -0.025496 0.000000 0.053063 0.000000
# 2 -0.013629 0.028875 -0.006666 0.000000 0.004115 0.000000
# 3 -0.025496 -0.006666 0.016017 0.000000 -0.021566 0.000000
# 4 0.000000 0.000000 0.000000 -8.055698 0.000000 -1.952058
# 5 0.053063 0.004115 -0.021566 0.000000 0.096657 0.000000
# 6 0.000000 0.000000 0.000000 -1.952058 0.000000 -0.403881
#
#
# Mechanical properties :
#
#
# Convention : Reuss Voigt Hill
#
# Bulk Modulus (GPa) = 17.15781 56.12094 36.63937
# Shear Modulus (GPa) = -0.61713 15.09207 7.23747
#
# Velocity S-wave (km/s) = -0.58158 2.87603 1.99165
# Velocity P-wave (km/s) = 2.99211 6.46429 5.03685
#
# Compressibility (1/GPa) = 0.05828248
#
# Stress axis : x y z
#
# Youngs Moduli (GPa) = 9.52640 34.63218 62.43343
#
# Poissons Ratio (x) = 0.47199 1.59179
# Poissons Ratio (y) = 0.12983 0.41618
# Poissons Ratio (z) = 0.24288 0.23086
#
# Static dielectric constant tensor:
#      x y z
#    x 3.235940 0.000000 0.257890 
#    y 0.000000 3.126140 0.000000 
#    z 0.257890 0.000000 3.739000 
# 
# 
# High freq. dielectric constant tensor:
#      x y z
#    x 1.681280 0.000000 0.019180 
#    y 0.000000 1.674690 0.000000 
#    z 0.019180 0.000000 1.723390 
# 
# From -- ./inp_files/86943.got.cif
#   From: 2010.06.25/outbox.cif.g09.slc.cpg/sg10_44_cif.got.tgz:86943.got - 2010.06.27 22:07:45.
