data_PCOD8063397
_publ_section_title
;
Structure prediction by ZEFSAII (Michael W. Deem and Ramdas Pophale) SiO2 
 PCOD8063397
Probable space group: P 2/M
;
_chemical_formula_sum "Si O2"
_cell_formula_units_Z 32
_cell_length_a 12.295121
_cell_length_b 8.966916
_cell_length_c 31.899916
_cell_angle_alpha 90.000000
_cell_angle_beta 28.426279
_cell_angle_gamma 90.000000
_cell_volume 1674.162442
_symmetry_space_group_name_H-M "P 2/M"
_symmetry_group_IT_number 10
_symmetry_cell_setting 'monoclinic'
loop_
_space_group_symop_operation_xyz
x,y,z
-x,y,-z
-x,-y,-z
x,-y,z
loop_
_atom_site_type_symbol
_atom_site_label
_atom_site_fract_x
_atom_site_fract_y
_atom_site_fract_z
Si Si1 0.922352 0.323959 0.573072
Si Si2 0.443598 0.176602 0.755279
Si Si3 0.973417 0.323086 0.144278
Si Si4 0.223042 0.322375 0.634429
Si Si5 0.259043 0.824242 0.907895
Si Si6 0.142104 0.677182 0.176651
Si Si7 0.270699 0.676866 0.525206
Si Si8 0.613512 0.324001 0.053615
O O1 0.882262 0.500000 0.591602
O O2 0.691014 0.239649 0.661825
O O3 0.000000 0.282743 0.500000
O O4 0.113358 0.262478 0.540818
O O5 0.267646 0.244733 0.781620
O O6 0.365697 0.227790 0.827881
O O7 0.444415 0.000000 0.750533
O O8 0.938442 0.500000 0.156210
O O9 0.066989 0.263676 0.156846
O O10 0.154381 0.272366 0.047716
O O11 0.221483 0.500000 0.635887
O O12 0.468999 0.265066 0.568016
O O13 0.177337 0.268009 0.602180
O O14 0.027095 0.255826 0.730703
O O15 0.408606 0.749747 0.893489
O O16 0.269314 0.000000 0.910016
O O17 0.000000 0.765418 0.000000
O O18 0.130116 0.500000 0.181173
O O19 0.399086 0.731152 0.098702
O O20 0.269732 0.500000 0.523907
O O21 0.606665 0.500000 0.061664
#
# Coordination Sequence:
#
# PCOD8063397 Si02
#       8
#     4   4   4   4   4   4   4   4
#     4  10  22  37  58  87 116 143 180 232 285 337
#     4  11  24  40  58  80 110 152 196 234 279 332
#     4  10  20  35  55  80 114 148 183 229 279 334
#     4   8  14  26  46  72 103 140 172 210 263 322
#     4  10  21  39  58  77 109 153 195 234 277 331
#     4   9  18  30  50  79 112 144 176 222 282 334
#     4   8  15  28  46  74 109 136 168 212 266 327
#     4  10  20  33  54  85 115 143 181 231 285 333
#
# _framework density 19.114035000000001
#
# number of rings (size 3 to 8) (size 9 to 14) (size 15 to 20)
#    0.000    2.500    1.250    1.500    3.500    3.000 
#    0.000    0.625    0.000    1.500    0.000    1.750 
#    0.000    0.000    0.000    0.000    0.000    0.000 
#
# Total GULP energy -396779.511391 kJ/mol
# GULP energy per Si atom -12399.359731 kJ/mol
# Density = 1.907053 g / cm^3
# Si number density = 19.114035 Si / 1000 Ang^3
#
#
#
# Elastic Constant Matrix: (Units=GPa)
#
#
# Indices 1 2 3 4 5 6 
#
# 1 172.7294 29.2040 61.1715 0.0000 -5.9314 0.0000
# 2 29.2040 22.3459 27.8125 0.0000 0.7309 0.0000
# 3 61.1715 27.8125 117.4557 0.0000 -2.1633 0.0000
# 4 0.0000 0.0000 0.0000 17.3478 0.0000 3.8473
# 5 -5.9314 0.7309 -2.1633 0.0000 32.7219 0.0000
# 6 0.0000 0.0000 0.0000 3.8473 0.0000 4.1881
#
#
#
# Elastic Compliance Matrix: (Units=1/GPa)
#
#
# Indices 1 2 3 4 5 6 
#
# 1 0.007934 -0.007525 -0.002324 0.000000 0.001453 0.000000
# 2 -0.007525 0.070779 -0.012911 0.000000 -0.003799 0.000000
# 3 -0.002324 -0.012911 0.012794 0.000000 0.000713 0.000000
# 4 0.000000 0.000000 0.000000 0.072392 0.000000 -0.066501
# 5 0.001453 -0.003799 0.000713 0.000000 0.030956 0.000000
# 6 0.000000 0.000000 0.000000 -0.066501 0.000000 0.299860
#
#
# Mechanical properties :
#
#
# Convention : Reuss Voigt Hill
#
# Bulk Modulus (GPa) = 21.74449 60.98967 41.36708
# Shear Modulus (GPa) = 8.99986 23.80775 16.40380
#
# Velocity S-wave (km/s) = 2.17226 3.53308 2.93270
# Velocity P-wave (km/s) = 4.20625 6.97289 5.75820
#
# Compressibility (1/GPa) = 0.04598866
#
# Stress axis : x y z
#
# Youngs Moduli (GPa) = 126.03195 14.12856 78.15952
#
# Poissons Ratio (x) = 0.10632 0.18162
# Poissons Ratio (y) = 0.94838 1.00910
# Poissons Ratio (z) = 0.29286 0.18241
#
# Static dielectric constant tensor:
#      x y z
#    x 3.783700 0.000000 0.022650 
#    y 0.000000 2.959480 0.000000 
#    z 0.022650 0.000000 3.674890 
# 
# 
# High freq. dielectric constant tensor:
#      x y z
#    x 1.759460 0.000000 0.000170 
#    y 0.000000 1.689810 0.000000 
#    z 0.000170 0.000000 1.751910 
# 
# From -- ./inp_files/94937.got.cif
#   From: 2010.06.25/outbox.cif.g09.slc.cpg/sg10_48_cif.got.tgz:94937.got - 2010.06.27 22:07:45.
