data_PCOD8063461
_publ_section_title
;
Structure prediction by ZEFSAII (Michael W. Deem and Ramdas Pophale) SiO2 
 PCOD8063461
Probable space group: P 2/M
;
_chemical_formula_sum "Si O2"
_cell_formula_units_Z 26
_cell_length_a 19.361210
_cell_length_b 14.177140
_cell_length_c 22.045935
_cell_angle_alpha 90.000000
_cell_angle_beta 167.760197
_cell_angle_gamma 90.000000
_cell_volume 1282.901133
_symmetry_space_group_name_H-M "P 2/M"
_symmetry_group_IT_number 10
_symmetry_cell_setting 'monoclinic'
loop_
_space_group_symop_operation_xyz
x,y,z
-x,y,-z
-x,-y,-z
x,-y,z
loop_
_atom_site_type_symbol
_atom_site_label
_atom_site_fract_x
_atom_site_fract_y
_atom_site_fract_z
Si Si1 0.119889 0.500000 0.670054
Si Si2 0.910386 0.606698 0.151539
Si Si3 0.624053 0.105200 0.538893
Si Si4 0.287742 0.715799 0.573573
Si Si5 0.116125 0.707635 0.667780
Si Si6 0.151915 0.392442 0.229781
Si Si7 0.762384 0.788936 0.891787
O O1 0.011216 0.601936 0.602452
O O2 0.000000 0.500000 0.500000
O O3 0.500000 0.500000 0.000000
O O4 0.829396 0.500000 0.098392
O O5 0.042701 0.651854 0.325615
O O6 0.168467 0.614691 0.317282
O O7 0.574596 0.653764 0.846363
O O8 0.500000 0.099197 0.500000
O O9 0.339473 0.155251 0.255890
O O10 0.684566 0.000000 0.564772
O O11 0.959041 0.162996 0.827929
O O12 0.444086 0.791347 0.661699
O O13 0.085123 0.767896 0.454561
O O14 0.000000 0.729166 0.500000
O O15 0.500000 0.727566 0.000000
O O16 0.500000 0.365149 0.500000
O O17 0.050852 0.500000 0.123819
O O18 0.881527 0.316946 0.974677
#
# Coordination Sequence:
#
# PCOD8063461 Si02
#       7
#     2   4   4   4   4   4   4
#     4   8  16  28  42  64  90 126 175 228 279 312
#     4  10  21  34  50  72 103 148 196 242 290 327
#     4  11  24  42  66  93 120 152 192 243 304 360
#     4  11  22  36  53  77 109 146 187 239 291 350
#     4  10  20  34  50  72 103 140 190 242 287 341
#     4   9  19  37  58  82 116 162 212 247 277 328
#     4  11  22  39  62  89 122 155 195 243 294 350
#
# _framework density 20.266565
#
# number of rings (size 3 to 8) (size 9 to 14) (size 15 to 20)
#    0.000    1.846    0.000    4.615    2.154    3.077 
#    2.769    3.077    0.000   23.538    0.000    0.000 
#    0.000   12.308    0.000    0.000    0.000    0.000 
#
# Total GULP energy -322168.721050 kJ/mol
# GULP energy per Si atom -12391.104656 kJ/mol
# Density = 2.022044 g / cm^3
# Si number density = 20.266565 Si / 1000 Ang^3
#
#
#
# Elastic Constant Matrix: (Units=GPa)
#
#
# Indices 1 2 3 4 5 6 
#
# 1 113.9903 20.5962 55.5165 0.0000 6.7751 0.0000
# 2 20.5962 84.0484 27.1004 0.0000 -7.4721 0.0000
# 3 55.5165 27.1004 115.2673 0.0000 -12.0702 0.0000
# 4 0.0000 0.0000 0.0000 17.8541 0.0000 -4.6353
# 5 6.7751 -7.4721 -12.0702 0.0000 49.8320 0.0000
# 6 0.0000 0.0000 0.0000 -4.6353 0.0000 13.1386
#
#
#
# Elastic Compliance Matrix: (Units=1/GPa)
#
#
# Indices 1 2 3 4 5 6 
#
# 1 0.012048 -0.001364 -0.005823 0.000000 -0.003253 0.000000
# 2 -0.001364 0.013102 -0.002255 0.000000 0.001604 0.000000
# 3 -0.005823 -0.002255 0.012371 0.000000 0.003450 0.000000
# 4 0.000000 0.000000 0.000000 0.061657 0.000000 0.021753
# 5 -0.003253 0.001604 0.003450 0.000000 0.021586 0.000000
# 6 0.000000 0.000000 0.000000 0.021753 0.000000 0.083786
#
#
# Mechanical properties :
#
#
# Convention : Reuss Voigt Hill
#
# Bulk Modulus (GPa) = 53.65659 57.74803 55.70231
# Shear Modulus (GPa) = 21.77243 30.17113 25.97178
#
# Velocity S-wave (km/s) = 3.28121 3.86257 3.58370
# Velocity P-wave (km/s) = 6.39438 6.96051 6.68344
#
# Compressibility (1/GPa) = 0.01863704
#
# Stress axis : x y z
#
# Youngs Moduli (GPa) = 82.99873 76.32411 80.83101
#
# Poissons Ratio (x) = 0.10412 0.47066
# Poissons Ratio (y) = 0.11323 0.18231
# Poissons Ratio (z) = 0.48329 0.17214
#
# Static dielectric constant tensor:
#      x y z
#    x 3.996610 0.000000 0.015850 
#    y 0.000000 3.705540 0.000000 
#    z 0.015850 0.000000 3.772290 
# 
# 
# High freq. dielectric constant tensor:
#      x y z
#    x 1.798400 0.000000 -0.004990 
#    y 0.000000 1.742340 0.000000 
#    z -0.004990 0.000000 1.803920 
# 
# From -- ./inp_files/90473.got.cif
#   From: 2010.06.25/outbox.cif.g09.slc.cpg/sg10_46_cif.got.tgz:90473.got - 2010.06.27 22:07:45.
