data_PCOD8063312
_publ_section_title
;
Structure prediction by ZEFSAII (Michael W. Deem and Ramdas Pophale) SiO2 
 PCOD8063312
Probable space group: P 2/M
;
_chemical_formula_sum "Si O2"
_cell_formula_units_Z 32
_cell_length_a 21.059047
_cell_length_b 9.266386
_cell_length_c 26.530129
_cell_angle_alpha 90.000000
_cell_angle_beta 160.711402
_cell_angle_gamma 90.000000
_cell_volume 1710.141189
_symmetry_space_group_name_H-M "P 2/M"
_symmetry_group_IT_number 10
_symmetry_cell_setting 'monoclinic'
loop_
_space_group_symop_operation_xyz
x,y,z
-x,y,-z
-x,-y,-z
x,-y,z
loop_
_atom_site_type_symbol
_atom_site_label
_atom_site_fract_x
_atom_site_fract_y
_atom_site_fract_z
Si Si1 0.369776 0.670999 0.043628
Si Si2 0.013954 0.170559 0.238665
Si Si3 0.996992 0.168442 0.440497
Si Si4 0.196822 0.337042 0.291335
Si Si5 0.371525 0.331739 0.857282
Si Si6 0.409433 0.169269 0.706643
Si Si7 0.593821 0.661254 0.647817
Si Si8 0.402864 0.167989 0.586030
O O1 0.338916 0.500000 0.025481
O O2 0.525715 0.710041 0.117979
O O3 0.439155 0.737065 0.148531
O O4 0.171131 0.746613 0.878442
O O5 0.051809 0.226530 0.209867
O O6 0.191084 0.213077 0.407800
O O7 0.976414 0.000000 0.209187
O O8 0.828224 0.249959 0.285319
O O9 0.000000 0.222998 0.500000
O O10 0.195346 0.210028 0.562884
O O11 0.953210 0.000000 0.404382
O O12 0.111726 0.500000 0.228697
O O13 0.236038 0.287000 0.262774
O O14 0.396352 0.334742 0.469863
O O15 0.327548 0.500000 0.827020
O O16 0.500000 0.280610 0.000000
O O17 0.429219 0.214577 0.663406
O O18 0.450931 0.000000 0.746555
O O19 0.639485 0.500000 0.700533
O O20 0.574961 0.760102 0.683004
O O21 0.429100 0.000000 0.598305
#
# Coordination Sequence:
#
# PCOD8063312 Si02
#       8
#     4   4   4   4   4   4   4   4
#     4  11  23  38  55  76 104 141 179 215 261 316
#     4  10  20  33  52  79 109 140 175 216 262 312
#     4  10  20  36  59  82 103 135 178 219 260 310
#     4   8  14  27  47  73 105 140 174 212 257 306
#     4  10  23  40  56  79 109 138 172 217 267 314
#     4  10  21  38  56  77 107 140 176 218 263 312
#     4   8  14  26  47  74 105 138 174 214 256 304
#     4   9  19  33  51  78 109 139 173 216 263 311
#
# _framework density 18.711904000000001
#
# number of rings (size 3 to 8) (size 9 to 14) (size 15 to 20)
#    0.000    2.500    1.250    1.500    1.750    3.000 
#    0.000    2.500    0.000    0.750    0.000    5.250 
#    0.000    0.000    0.000    0.000    0.000    0.000 
#
# Total GULP energy -396765.002657 kJ/mol
# GULP energy per Si atom -12398.906333 kJ/mol
# Density = 1.866932 g / cm^3
# Si number density = 18.711904 Si / 1000 Ang^3
#
#
#
# Elastic Constant Matrix: (Units=GPa)
#
#
# Indices 1 2 3 4 5 6 
#
# 1 92.1988 26.9840 8.1053 0.0000 -15.9685 0.0000
# 2 26.9840 55.4722 21.8562 0.0000 -5.7731 0.0000
# 3 8.1053 21.8562 45.1118 0.0000 -12.4356 0.0000
# 4 0.0000 0.0000 0.0000 27.6201 0.0000 0.4206
# 5 -15.9685 -5.7731 -12.4356 0.0000 21.9268 0.0000
# 6 0.0000 0.0000 0.0000 0.4206 0.0000 28.0334
#
#
#
# Elastic Compliance Matrix: (Units=1/GPa)
#
#
# Indices 1 2 3 4 5 6 
#
# 1 0.014597 -0.007560 0.004056 0.000000 0.010940 0.000000
# 2 -0.007560 0.026197 -0.012980 0.000000 -0.005969 0.000000
# 3 0.004056 -0.012980 0.032713 0.000000 0.018089 0.000000
# 4 0.000000 0.000000 0.000000 0.036214 0.000000 -0.000543
# 5 0.010940 -0.005969 0.018089 0.000000 0.062261 0.000000
# 6 0.000000 0.000000 0.000000 -0.000543 0.000000 0.035680
#
#
# Mechanical properties :
#
#
# Convention : Reuss Voigt Hill
#
# Bulk Modulus (GPa) = 24.66678 34.07486 29.37082
# Shear Modulus (GPa) = 19.67394 24.57188 22.12291
#
# Velocity S-wave (km/s) = 3.24607 3.62770 3.44218
# Velocity P-wave (km/s) = 5.22114 5.98304 5.61502
#
# Compressibility (1/GPa) = 0.04054036
#
# Stress axis : x y z
#
# Youngs Moduli (GPa) = 68.50728 38.17193 30.56850
#
# Poissons Ratio (x) = 0.28858 -0.12398
# Poissons Ratio (y) = 0.51792 0.39676
# Poissons Ratio (z) = -0.27786 0.49545
#
# Static dielectric constant tensor:
#      x y z
#    x 3.739870 0.000000 0.108840 
#    y 0.000000 3.385690 0.000000 
#    z 0.108840 0.000000 3.200610 
# 
# 
# High freq. dielectric constant tensor:
#      x y z
#    x 1.734770 0.000000 0.008570 
#    y 0.000000 1.721770 0.000000 
#    z 0.008570 0.000000 1.701560 
# 
# From -- ./inp_files/86948.got.cif
#   From: 2010.06.25/outbox.cif.g09.slc.cpg/sg10_44_cif.got.tgz:86948.got - 2010.06.27 22:07:45.
