data_PCOD8063020
_publ_section_title
;
Structure prediction by ZEFSAII (Michael W. Deem and Ramdas Pophale) SiO2 
 PCOD8063020
Probable space group: P 2/M
;
_chemical_formula_sum "Si O2"
_cell_formula_units_Z 32
_cell_length_a 16.130781
_cell_length_b 9.609346
_cell_length_c 25.107872
_cell_angle_alpha 90.000000
_cell_angle_beta 153.369098
_cell_angle_gamma 90.000000
_cell_volume 1744.500022
_symmetry_space_group_name_H-M "P 2/M"
_symmetry_group_IT_number 10
_symmetry_cell_setting 'monoclinic'
loop_
_space_group_symop_operation_xyz
x,y,z
-x,y,-z
-x,-y,-z
x,-y,z
loop_
_atom_site_type_symbol
_atom_site_label
_atom_site_fract_x
_atom_site_fract_y
_atom_site_fract_z
Si Si1 0.795569 0.343236 0.790213
Si Si2 0.546902 0.663915 0.213940
Si Si3 0.887869 0.838835 0.383436
Si Si4 0.358123 0.151875 0.378316
Si Si5 0.161724 0.836993 0.444829
Si Si6 0.840392 0.336525 0.059014
Si Si7 0.996189 0.153596 0.237160
Si Si8 0.522311 0.660560 0.321398
O O1 0.781624 0.500000 0.761699
O O2 0.646542 0.253008 0.673570
O O3 0.702481 0.327905 0.795490
O O4 0.005648 0.293888 0.898256
O O5 0.581623 0.500000 0.228456
O O6 0.704950 0.746072 0.273302
O O7 0.547588 0.712019 0.275695
O O8 0.353671 0.708572 0.076983
O O9 0.000000 0.792836 0.500000
O O10 0.010324 0.806197 0.402597
O O11 0.829931 0.000000 0.353571
O O12 0.500000 0.222831 0.500000
O O13 0.162135 0.134660 0.292286
O O14 0.433290 0.000000 0.403222
O O15 0.348135 0.752238 0.565305
O O16 0.070770 0.787531 0.336496
O O17 0.213256 0.000000 0.471694
O O18 0.849241 0.500000 0.075961
O O19 0.860551 0.259833 0.128017
O O20 0.903246 0.000000 0.192233
O O21 0.583628 0.500000 0.363044
#
# Coordination Sequence:
#
# PCOD8063020 Si02
#       8
#     4   4   4   4   4   4   4   4
#     4   9  18  31  47  70 101 136 172 210 249 294
#     4  10  21  36  55  78 104 137 174 213 258 307
#     4  10  20  36  57  81 105 132 167 209 262 316
#     4   9  16  27  44  67  96 131 170 209 252 299
#     4  10  20  35  55  79 107 135 167 211 263 314
#     4   9  19  36  54  73 103 142 179 212 250 298
#     4   9  18  32  51  74 100 134 173 212 254 303
#     4  10  20  32  50  79 108 135 172 214 258 306
#
# _framework density 18.343364000000001
#
# number of rings (size 3 to 8) (size 9 to 14) (size 15 to 20)
#    0.000    2.500    1.250    0.750    0.000    4.000 
#    0.000    5.625    0.000    3.750    0.000    5.250 
#    0.000    0.000    0.000    0.000    0.000    0.000 
#
# Total GULP energy -396453.151752 kJ/mol
# GULP energy per Si atom -12389.160992 kJ/mol
# Density = 1.830161 g / cm^3
# Si number density = 18.343364 Si / 1000 Ang^3
#
#
#
# Elastic Constant Matrix: (Units=GPa)
#
#
# Indices 1 2 3 4 5 6 
#
# 1 85.4246 25.2192 39.5142 0.0000 1.6609 0.0000
# 2 25.2192 48.1256 45.0717 0.0000 2.3362 0.0000
# 3 39.5142 45.0717 114.1340 0.0000 2.7074 0.0000
# 4 0.0000 0.0000 0.0000 28.2924 0.0000 -2.5217
# 5 1.6609 2.3362 2.7074 0.0000 26.3750 0.0000
# 6 0.0000 0.0000 0.0000 -2.5217 0.0000 22.4494
#
#
#
# Elastic Compliance Matrix: (Units=1/GPa)
#
#
# Indices 1 2 3 4 5 6 
#
# 1 0.014558 -0.004608 -0.003216 0.000000 -0.000178 0.000000
# 2 -0.004608 0.034499 -0.011992 0.000000 -0.001535 0.000000
# 3 -0.003216 -0.011992 0.014616 0.000000 -0.000236 0.000000
# 4 0.000000 0.000000 0.000000 0.035703 0.000000 0.004010
# 5 -0.000178 -0.001535 -0.000236 0.000000 0.038086 0.000000
# 6 0.000000 0.000000 0.000000 0.004010 0.000000 0.044995
#
#
# Mechanical properties :
#
#
# Convention : Reuss Voigt Hill
#
# Bulk Modulus (GPa) = 41.59558 51.92161 46.75859
# Shear Modulus (GPa) = 21.72940 24.61531 23.17236
#
# Velocity S-wave (km/s) = 3.44552 3.66720 3.55809
# Velocity P-wave (km/s) = 6.20920 6.80426 6.51353
#
# Compressibility (1/GPa) = 0.02404101
#
# Stress axis : x y z
#
# Youngs Moduli (GPa) = 68.69209 28.98614 68.41656
#
# Poissons Ratio (x) = 0.13357 0.22003
# Poissons Ratio (y) = 0.31653 0.82046
# Poissons Ratio (z) = 0.22092 0.34760
#
# Static dielectric constant tensor:
#      x y z
#    x 3.449410 0.000000 -0.096790 
#    y 0.000000 3.590830 0.000000 
#    z -0.096790 0.000000 3.695330 
# 
# 
# High freq. dielectric constant tensor:
#      x y z
#    x 1.711730 0.000000 0.003640 
#    y 0.000000 1.705500 0.000000 
#    z 0.003640 0.000000 1.697040 
# 
# From -- ./inp_files/89508.got.cif
#   From: 2010.06.25/outbox.cif.g09.slc.cpg/sg10_45_cif.got.tgz:89508.got - 2010.06.27 22:07:45.
