data_PCOD8063556
_publ_section_title
;
Structure prediction by ZEFSAII (Michael W. Deem and Ramdas Pophale) SiO2 
 PCOD8063556
Probable space group: P 2/M
;
_chemical_formula_sum "Si O2"
_cell_formula_units_Z 32
_cell_length_a 13.735636
_cell_length_b 12.986012
_cell_length_c 14.834557
_cell_angle_alpha 90.000000
_cell_angle_beta 41.133243
_cell_angle_gamma 90.000000
_cell_volume 1740.608818
_symmetry_space_group_name_H-M "P 2/M"
_symmetry_group_IT_number 10
_symmetry_cell_setting 'monoclinic'
loop_
_space_group_symop_operation_xyz
x,y,z
-x,y,-z
-x,-y,-z
x,-y,z
loop_
_atom_site_type_symbol
_atom_site_label
_atom_site_fract_x
_atom_site_fract_y
_atom_site_fract_z
Si Si1 0.529625 0.290704 0.583734
Si Si2 0.000249 0.691085 0.140250
Si Si3 0.419395 0.118412 0.312433
Si Si4 0.101515 0.811190 0.515804
Si Si5 0.223678 0.619706 0.847250
Si Si6 0.165655 0.616042 0.577518
Si Si7 0.923754 0.117531 0.808206
Si Si8 0.589935 0.121607 0.021038
O O1 0.500000 0.269229 0.500000
O O2 0.557177 0.181447 0.612099
O O3 0.394535 0.348831 0.726566
O O4 0.673727 0.361927 0.491752
O O5 0.865922 0.685420 0.163660
O O6 0.959825 0.629259 0.258835
O O7 0.021068 0.811801 0.148013
O O8 0.151823 0.643088 0.994925
O O9 0.254294 0.131019 0.388739
O O10 0.528077 0.162734 0.159480
O O11 0.452957 0.000000 0.311953
O O12 0.131550 0.691580 0.518125
O O13 0.000000 0.819609 0.500000
O O14 0.028720 0.870806 0.649525
O O15 0.206254 0.500000 0.835696
O O16 0.161197 0.500000 0.543567
O O17 0.925456 0.000000 0.841475
O O18 0.760304 0.153271 0.892567
O O19 0.566880 0.000000 0.035543
O O20 0.500000 0.171367 0.000000
#
# Coordination Sequence:
#
# PCOD8063556 Si02
#       8
#     4   4   4   4   4   4   4   4
#     4  11  22  35  53  79 108 142 184 223 261 319
#     4  10  20  34  52  78 104 134 177 218 262 317
#     4  10  21  36  53  77 110 144 179 220 266 318
#     4  10  21  35  54  81 108 139 181 221 264 324
#     4  11  21  35  56  77 102 134 176 224 266 309
#     4  10  20  36  56  78 107 139 176 226 277 318
#     4  10  20  34  52  75 108 140 171 215 263 313
#     4   9  17  31  53  76  98 132 176 217 261 311
#
# _framework density 18.384371000000002
#
# number of rings (size 3 to 8) (size 9 to 14) (size 15 to 20)
#    0.000    1.875    1.250    3.750    0.000    3.000 
#    0.000    1.875    0.000    0.000    0.000    0.000 
#    0.000   20.500    0.000    0.000    0.000    0.000 
#
# Total GULP energy -396884.487019 kJ/mol
# GULP energy per Si atom -12402.640219 kJ/mol
# Density = 1.834253 g / cm^3
# Si number density = 18.384371 Si / 1000 Ang^3
#
#
#
# Elastic Constant Matrix: (Units=GPa)
#
#
# Indices 1 2 3 4 5 6 
#
# 1 70.6786 38.1445 12.7618 0.0000 -4.6115 0.0000
# 2 38.1445 106.2835 24.4227 0.0000 -1.5052 0.0000
# 3 12.7618 24.4227 82.9148 0.0000 -13.0502 0.0000
# 4 0.0000 0.0000 0.0000 16.7513 0.0000 -5.5398
# 5 -4.6115 -1.5052 -13.0502 0.0000 26.1962 0.0000
# 6 0.0000 0.0000 0.0000 -5.5398 0.0000 12.4394
#
#
#
# Elastic Compliance Matrix: (Units=1/GPa)
#
#
# Indices 1 2 3 4 5 6 
#
# 1 0.017763 -0.006223 -0.000505 0.000000 0.002518 0.000000
# 2 -0.006223 0.012295 -0.002957 0.000000 -0.001862 0.000000
# 3 -0.000505 -0.002957 0.014072 0.000000 0.006751 0.000000
# 4 0.000000 0.000000 0.000000 0.070008 0.000000 0.031178
# 5 0.002518 -0.001862 0.006751 0.000000 0.041873 0.000000
# 6 0.000000 0.000000 0.000000 0.031178 0.000000 0.094275
#
#
# Mechanical properties :
#
#
# Convention : Reuss Voigt Hill
#
# Bulk Modulus (GPa) = 40.38703 45.61500 43.00101
# Shear Modulus (GPa) = 17.99157 23.38056 20.68606
#
# Velocity S-wave (km/s) = 3.13171 3.57005 3.35804
# Velocity P-wave (km/s) = 5.92390 6.46988 6.20290
#
# Compressibility (1/GPa) = 0.02476043
#
# Stress axis : x y z
#
# Youngs Moduli (GPa) = 56.29807 81.33131 71.06405
#
# Poissons Ratio (x) = 0.50615 0.03585
# Poissons Ratio (y) = 0.35036 0.21013
# Poissons Ratio (z) = 0.02840 0.24048
#
# Static dielectric constant tensor:
#      x y z
#    x 3.262830 0.000000 -0.126310 
#    y 0.000000 3.252220 0.000000 
#    z -0.126310 0.000000 3.680240 
# 
# 
# High freq. dielectric constant tensor:
#      x y z
#    x 1.699160 0.000000 -0.010560 
#    y 0.000000 1.699970 0.000000 
#    z -0.010560 0.000000 1.733220 
# 
# From -- ./inp_files/67343.got.cif
#   From: 2010.06.25/outbox.cif.g09.slc.cpg/sg10_34_cif.got.tgz:67343.got - 2010.06.27 22:07:45.
