data_PCOD8063946
_publ_section_title
;
Structure prediction by ZEFSAII (Michael W. Deem and Ramdas Pophale) SiO2 
 PCOD8063946
Probable space group: P 2/M
;
_chemical_formula_sum "Si O2"
_cell_formula_units_Z 28
_cell_length_a 18.705021
_cell_length_b 12.861035
_cell_length_c 11.764628
_cell_angle_alpha 90.000000
_cell_angle_beta 31.281227
_cell_angle_gamma 90.000000
_cell_volume 1469.534291
_symmetry_space_group_name_H-M "P 2/M"
_symmetry_group_IT_number 10
_symmetry_cell_setting 'monoclinic'
loop_
_space_group_symop_operation_xyz
x,y,z
-x,y,-z
-x,-y,-z
x,-y,z
loop_
_atom_site_type_symbol
_atom_site_label
_atom_site_fract_x
_atom_site_fract_y
_atom_site_fract_z
Si Si1 0.355301 0.381804 0.001612
Si Si2 0.137013 0.621650 0.477629
Si Si3 0.662053 0.617347 0.587238
Si Si4 0.999090 0.000000 0.204901
Si Si5 0.331809 0.774474 0.848647
Si Si6 0.200648 0.000000 0.736885
Si Si7 0.639460 0.202156 0.448183
Si Si8 0.039380 0.818380 0.317899
O O1 0.316769 0.500000 0.044246
O O2 0.507975 0.364427 0.847427
O O3 0.344785 0.338555 0.888411
O O4 0.238811 0.333881 0.241806
O O5 0.091537 0.500000 0.522606
O O6 0.220105 0.634003 0.480731
O O7 0.006165 0.699602 0.652181
O O8 0.670237 0.500000 0.527022
O O9 0.687422 0.698068 0.453051
O O10 0.904876 0.000000 0.222380
O O11 0.971903 0.101013 0.320373
O O12 0.147751 0.000000 0.940312
O O13 0.307498 0.766442 0.748243
O O14 0.478338 0.829266 0.672851
O O15 0.204105 0.832809 0.081411
O O16 0.288885 0.102267 0.598220
O O17 0.000000 0.848543 0.500000
#
# Coordination Sequence:
#
# PCOD8063946 Si02
#       8
#     4   4   4   2   4   2   4   4
#     4   9  17  32  55  83 117 156 196 233 276 337
#     4  10  20  34  57  85 117 156 193 233 282 340
#     4   9  18  34  56  85 117 151 193 239 286 332
#     4  11  25  41  63  88 112 151 192 227 293 340
#     4  10  21  36  56  89 113 149 192 233 288 330
#     4  11  22  42  66  85 111 148 192 243 273 343
#     4  10  21  38  62  84 114 148 195 241 280 333
#     4  12  23  40  60  84 122 151 188 234 285 348
#
# _framework density 19.053654999999999
#
# number of rings (size 3 to 8) (size 9 to 14) (size 15 to 20)
#    0.000    1.857    2.857    1.500    0.000    4.857 
#    0.000    2.857    0.000    2.571    0.000    0.000 
#    0.000    0.000    0.000    0.000    0.000    0.000 
#
# Total GULP energy -346976.761453 kJ/mol
# GULP energy per Si atom -12392.027195 kJ/mol
# Density = 1.901029 g / cm^3
# Si number density = 19.053655 Si / 1000 Ang^3
#
#
#
# Elastic Constant Matrix: (Units=GPa)
#
#
# Indices 1 2 3 4 5 6 
#
# 1 78.3032 40.9600 39.9933 0.0000 12.1851 0.0000
# 2 40.9600 98.8129 41.4241 0.0000 9.3373 0.0000
# 3 39.9933 41.4241 109.1640 0.0000 6.6981 0.0000
# 4 0.0000 0.0000 0.0000 20.8979 0.0000 1.5843
# 5 12.1851 9.3373 6.6981 0.0000 25.6404 0.0000
# 6 0.0000 0.0000 0.0000 1.5843 0.0000 31.1636
#
#
#
# Elastic Compliance Matrix: (Units=1/GPa)
#
#
# Indices 1 2 3 4 5 6 
#
# 1 0.018763 -0.005348 -0.004489 0.000000 -0.005797 0.000000
# 2 -0.005348 0.013830 -0.003187 0.000000 -0.001662 0.000000
# 3 -0.004489 -0.003187 0.012005 0.000000 0.000158 0.000000
# 4 0.000000 0.000000 0.000000 0.048037 0.000000 -0.002442
# 5 -0.005797 -0.001662 0.000158 0.000000 0.042320 0.000000
# 6 0.000000 0.000000 0.000000 -0.002442 0.000000 0.032213
#
#
# Mechanical properties :
#
#
# Convention : Reuss Voigt Hill
#
# Bulk Modulus (GPa) = 53.90744 59.00387 56.45565
# Shear Modulus (GPa) = 25.07539 26.46722 25.77131
#
# Velocity S-wave (km/s) = 3.63166 3.73109 3.68171
# Velocity P-wave (km/s) = 6.77784 7.04243 6.91140
#
# Compressibility (1/GPa) = 0.01855032
#
# Stress axis : x y z
#
# Youngs Moduli (GPa) = 53.29570 72.30634 83.30085
#
# Poissons Ratio (x) = 0.38670 0.37394
# Poissons Ratio (y) = 0.28503 0.26545
# Poissons Ratio (z) = 0.23924 0.23042
#
# Static dielectric constant tensor:
#      x y z
#    x 3.516030 0.000000 -0.004020 
#    y 0.000000 3.594150 0.000000 
#    z -0.004020 0.000000 3.687830 
# 
# 
# High freq. dielectric constant tensor:
#      x y z
#    x 1.746730 0.000000 -0.002520 
#    y 0.000000 1.731760 0.000000 
#    z -0.002520 0.000000 1.739550 
# 
# From -- ./inp_files/55828.got.cif
#   From: 2010.06.25/outbox.cif.g09.slc.cpg/sg10_28_cif.got.tgz:55828.got - 2010.06.27 22:07:45.
