data_PCOD8063006
_publ_section_title
;
Structure prediction by ZEFSAII (Michael W. Deem and Ramdas Pophale) SiO2 
 PCOD8063006
Probable space group: P 2/M
;
_chemical_formula_sum "Si O2"
_cell_formula_units_Z 32
_cell_length_a 8.042405
_cell_length_b 21.044684
_cell_length_c 11.160887
_cell_angle_alpha 90.000000
_cell_angle_beta 125.888870
_cell_angle_gamma 90.000000
_cell_volume 1530.366537
_symmetry_space_group_name_H-M "P 2/M"
_symmetry_group_IT_number 10
_symmetry_cell_setting 'monoclinic'
loop_
_space_group_symop_operation_xyz
x,y,z
-x,y,-z
-x,-y,-z
x,-y,z
loop_
_atom_site_type_symbol
_atom_site_label
_atom_site_fract_x
_atom_site_fract_y
_atom_site_fract_z
Si Si1 0.327884 0.069886 0.100663
Si Si2 0.568894 0.844011 0.650618
Si Si3 0.227828 0.644735 0.079786
Si Si4 0.410503 0.569403 0.830839
Si Si5 0.810198 0.195013 0.347225
Si Si6 0.155938 0.314768 0.787021
Si Si7 0.791326 0.928661 0.206760
Si Si8 0.704904 0.711537 0.652552
O O1 0.291988 0.114363 0.200903
O O2 0.558790 0.071876 0.152396
O O3 0.268644 0.000000 0.120586
O O4 0.188947 0.087631 0.926733
O O5 0.500000 0.882761 0.500000
O O6 0.378816 0.815762 0.644343
O O7 0.706315 0.787926 0.652137
O O8 0.392161 0.588359 0.165284
O O9 0.287203 0.695323 0.204671
O O10 0.241187 0.681088 0.958454
O O11 0.000000 0.615746 0.000000
O O12 0.325883 0.500000 0.753690
O O13 0.233423 0.623047 0.746712
O O14 0.500000 0.564029 0.000000
O O15 0.748891 0.249505 0.225640
O O16 0.895404 0.129285 0.322440
O O17 0.000000 0.223807 0.500000
O O18 0.908284 0.314815 0.673270
O O19 0.883189 0.000000 0.271564
O O20 0.500000 0.684615 0.500000
#
# Coordination Sequence:
#
# PCOD8063006 Si02
#       8
#     4   4   4   4   4   4   4   4
#     4   8  15  30  50  73 103 139 184 236 285 342
#     4  10  20  32  50  76 106 144 187 233 291 349
#     4   9  19  35  57  88 117 150 191 234 288 346
#     4   9  18  35  59  88 119 149 192 246 288 338
#     4  11  21  33  54  80 109 145 187 237 291 343
#     4  10  21  36  57  85 114 150 198 242 291 345
#     4   8  16  31  50  76 106 141 186 235 288 342
#     4  10  20  36  55  77 116 155 187 242 299 349
#
# _framework density 20.910022999999999
#
# number of rings (size 3 to 8) (size 9 to 14) (size 15 to 20)
#    0.000    2.625    0.000    3.000    1.750    0.750 
#    4.500    1.875    0.000    6.375    0.000    7.000 
#    0.000    0.000    0.000    0.000    0.000    0.000 
#
# Total GULP energy -396468.552437 kJ/mol
# GULP energy per Si atom -12389.642264 kJ/mol
# Density = 2.086243 g / cm^3
# Si number density = 20.910023 Si / 1000 Ang^3
#
#
#
# Elastic Constant Matrix: (Units=GPa)
#
#
# Indices 1 2 3 4 5 6 
#
# 1 86.1346 48.7644 40.6193 0.0000 -1.6863 0.0000
# 2 48.7644 135.7048 42.0757 0.0000 -6.5301 0.0000
# 3 40.6193 42.0757 75.2280 0.0000 -6.5419 0.0000
# 4 0.0000 0.0000 0.0000 18.4705 0.0000 3.0995
# 5 -1.6863 -6.5301 -6.5419 0.0000 28.8226 0.0000
# 6 0.0000 0.0000 0.0000 3.0995 0.0000 18.2586
#
#
#
# Elastic Compliance Matrix: (Units=1/GPa)
#
#
# Indices 1 2 3 4 5 6 
#
# 1 0.017262 -0.004048 -0.007191 0.000000 -0.001539 0.000000
# 2 -0.004048 0.009887 -0.003234 0.000000 0.001269 0.000000
# 3 -0.007191 -0.003234 0.019264 0.000000 0.003219 0.000000
# 4 0.000000 0.000000 0.000000 0.055728 0.000000 -0.009460
# 5 -0.001539 0.001269 0.003219 0.000000 0.035623 0.000000
# 6 0.000000 0.000000 0.000000 -0.009460 0.000000 0.056375
#
#
# Mechanical properties :
#
#
# Convention : Reuss Voigt Hill
#
# Bulk Modulus (GPa) = 57.24467 62.22070 59.73268
# Shear Modulus (GPa) = 21.84293 24.15087 22.99690
#
# Velocity S-wave (km/s) = 3.23556 3.40220 3.31992
# Velocity P-wave (km/s) = 6.43386 6.72713 6.58213
#
# Compressibility (1/GPa) = 0.01746887
#
# Stress axis : x y z
#
# Youngs Moduli (GPa) = 57.93047 101.14061 51.90932
#
# Poissons Ratio (x) = 0.40937 0.37326
# Poissons Ratio (y) = 0.23448 0.16788
# Poissons Ratio (z) = 0.41656 0.32711
#
# Static dielectric constant tensor:
#      x y z
#    x 3.920080 0.000000 -0.268220 
#    y 0.000000 3.995800 0.000000 
#    z -0.268220 0.000000 3.876940 
# 
# 
# High freq. dielectric constant tensor:
#      x y z
#    x 1.816970 0.000000 -0.012100 
#    y 0.000000 1.800070 0.000000 
#    z -0.012100 0.000000 1.803810 
# 
# From -- ./inp_files/43613.got.cif
#   From: 2010.06.25/outbox.cif.g09.slc.cpg/sg10_22_cif.got.tgz:43613.got - 2010.06.27 22:07:45.
