data_PCOD8063503
_publ_section_title
;
Structure prediction by ZEFSAII (Michael W. Deem and Ramdas Pophale) SiO2 
 PCOD8063503
Probable space group: P 2/M
;
_chemical_formula_sum "Si O2"
_cell_formula_units_Z 28
_cell_length_a 8.762140
_cell_length_b 15.072938
_cell_length_c 10.863723
_cell_angle_alpha 90.000000
_cell_angle_beta 105.940278
_cell_angle_gamma 90.000000
_cell_volume 1379.615202
_symmetry_space_group_name_H-M "P 2/M"
_symmetry_group_IT_number 10
_symmetry_cell_setting 'monoclinic'
loop_
_space_group_symop_operation_xyz
x,y,z
-x,y,-z
-x,-y,-z
x,-y,z
loop_
_atom_site_type_symbol
_atom_site_label
_atom_site_fract_x
_atom_site_fract_y
_atom_site_fract_z
Si Si1 0.556942 0.822005 0.645245
Si Si2 0.820236 0.756373 0.077212
Si Si3 0.063700 0.593721 0.645738
Si Si4 0.620704 0.900980 0.913837
Si Si5 0.631589 0.308715 0.245783
Si Si6 0.141036 0.281434 0.246056
Si Si7 0.318026 0.605627 0.097210
O O1 0.500000 0.862827 0.500000
O O2 0.544061 0.888605 0.760368
O O3 0.445304 0.738595 0.652373
O O4 0.740282 0.791785 0.671904
O O5 0.723761 0.766528 0.184405
O O6 0.011409 0.766965 0.127985
O O7 0.756216 0.825765 0.960494
O O8 0.781352 0.653678 0.032982
O O9 0.048104 0.500000 0.717213
O O10 0.248727 0.618016 0.677662
O O11 0.000000 0.572935 0.500000
O O12 0.965168 0.676133 0.672733
O O13 0.693586 0.000000 0.936420
O O14 0.500000 0.888279 0.000000
O O15 0.498495 0.358842 0.134593
O O16 0.236961 0.361784 0.205255
O O17 0.310146 0.500000 0.080592
#
# Coordination Sequence:
#
# PCOD8063503 Si02
#       7
#     4   4   4   4   4   4   4
#     4  11  22  39  62  90 120 155 196 243 302 356
#     4  11  20  38  58  86 119 156 197 245 295 352
#     4  10  20  34  51  76 112 162 215 250 285 344
#     4  11  22  41  69  95 117 153 197 241 297 360
#     4  10  20  35  56  78 118 157 204 243 292 348
#     4  10  22  35  56  80 124 156 197 244 304 349
#     4  11  21  32  53  85 120 156 196 247 302 348
#
# _framework density 20.295514000000001
#
# number of rings (size 3 to 8) (size 9 to 14) (size 15 to 20)
#    0.000    1.429    4.286    2.571    0.000    4.857 
#    0.000    1.429    0.000    6.857    0.000    2.000 
#    0.000    0.000    0.000    0.000    0.000    0.000 
#
# Total GULP energy -346935.850908 kJ/mol
# GULP energy per Si atom -12390.566104 kJ/mol
# Density = 2.024932 g / cm^3
# Si number density = 20.295514 Si / 1000 Ang^3
#
#
#
# Elastic Constant Matrix: (Units=GPa)
#
#
# Indices 1 2 3 4 5 6 
#
# 1 95.6331 26.8952 28.9661 0.0000 21.8947 0.0000
# 2 26.8952 98.2280 32.7632 0.0000 9.5115 0.0000
# 3 28.9661 32.7632 107.1918 0.0000 12.3314 0.0000
# 4 0.0000 0.0000 0.0000 20.7833 0.0000 3.0218
# 5 21.8947 9.5115 12.3314 0.0000 29.1223 0.0000
# 6 0.0000 0.0000 0.0000 3.0218 0.0000 17.2049
#
#
#
# Elastic Compliance Matrix: (Units=1/GPa)
#
#
# Indices 1 2 3 4 5 6 
#
# 1 0.013689 -0.002233 -0.002015 0.000000 -0.008709 0.000000
# 2 -0.002233 0.011855 -0.002910 0.000000 -0.000961 0.000000
# 3 -0.002015 -0.002910 0.011016 0.000000 -0.002199 0.000000
# 4 0.000000 0.000000 0.000000 0.049376 0.000000 -0.008672
# 5 -0.008709 -0.000961 -0.002199 0.000000 0.042131 0.000000
# 6 0.000000 0.000000 0.000000 -0.008672 0.000000 0.059646
#
#
# Mechanical properties :
#
#
# Convention : Reuss Voigt Hill
#
# Bulk Modulus (GPa) = 44.95250 53.14466 49.04858
# Shear Modulus (GPa) = 23.87287 27.58400 25.72844
#
# Velocity S-wave (km/s) = 3.43339 3.69062 3.56433
# Velocity P-wave (km/s) = 6.15749 6.66357 6.41552
#
# Compressibility (1/GPa) = 0.02224570
#
# Stress axis : x y z
#
# Youngs Moduli (GPa) = 73.05303 84.35046 90.77813
#
# Poissons Ratio (x) = 0.18833 0.18289
# Poissons Ratio (y) = 0.16311 0.26413
# Poissons Ratio (z) = 0.14718 0.24543
#
# Static dielectric constant tensor:
#      x y z
#    x 3.854300 0.000000 0.147540 
#    y 0.000000 3.513610 0.000000 
#    z 0.147540 0.000000 3.716850 
# 
# 
# High freq. dielectric constant tensor:
#      x y z
#    x 1.805150 0.000000 0.000420 
#    y 0.000000 1.762150 0.000000 
#    z 0.000420 0.000000 1.788510 
# 
# From -- ./inp_files/42731.got.cif
#   From: 2010.06.25/outbox.cif.g09.slc.cpg/sg10_22_cif.got.tgz:42731.got - 2010.06.27 22:07:45.
