data_PCOD8063190
_publ_section_title
;
Structure prediction by ZEFSAII (Michael W. Deem and Ramdas Pophale) SiO2 
 PCOD8063190
Probable space group: P 2/M
;
_chemical_formula_sum "Si O2"
_cell_formula_units_Z 28
_cell_length_a 11.653871
_cell_length_b 8.758480
_cell_length_c 18.743470
_cell_angle_alpha 90.000000
_cell_angle_beta 127.746994
_cell_angle_gamma 90.000000
_cell_volume 1512.768935
_symmetry_space_group_name_H-M "P 2/M"
_symmetry_group_IT_number 10
_symmetry_cell_setting 'monoclinic'
loop_
_space_group_symop_operation_xyz
x,y,z
-x,y,-z
-x,-y,-z
x,-y,z
loop_
_atom_site_type_symbol
_atom_site_label
_atom_site_fract_x
_atom_site_fract_y
_atom_site_fract_z
Si Si1 0.498957 0.320719 0.828577
Si Si2 0.635648 0.320015 0.598258
Si Si3 0.937610 0.676698 0.858401
Si Si4 0.079090 0.177130 0.301120
Si Si5 0.758610 0.177102 0.190090
Si Si6 0.255358 0.676760 0.968897
Si Si7 0.346562 0.819935 0.238647
O O1 0.509322 0.500000 0.819691
O O2 0.340357 0.276719 0.795670
O O3 0.524982 0.236131 0.763741
O O4 0.618192 0.264993 0.931299
O O5 0.500000 0.264557 0.500000
O O6 0.636529 0.500000 0.608435
O O7 0.783100 0.266615 0.612806
O O8 0.625533 0.243182 0.671733
O O9 0.896843 0.500000 0.833952
O O10 0.942787 0.759313 0.785441
O O11 0.807106 0.756753 0.852482
O O12 0.100429 0.696210 0.951984
O O13 0.924405 0.203972 0.281063
O O14 0.119401 0.000000 0.313426
O O15 0.736793 0.225883 0.099997
O O16 0.716249 0.000000 0.179788
O O17 0.277734 0.500000 0.956060
O O18 0.343193 0.000000 0.239747
#
# Coordination Sequence:
#
# PCOD8063190 Si02
#       7
#     4   4   4   4   4   4   4
#     4  11  22  35  50  69  99 139 179 215 253 297
#     4  10  20  35  58  85 107 127 157 198 244 299
#     4   9  16  30  50  70  97 131 169 211 252 296
#     4   9  17  30  50  76 104 132 163 201 247 296
#     4  10  20  33  50  74 103 135 174 216 253 291
#     4   9  19  33  50  72  97 133 179 220 255 293
#     4  11  22  35  51  74 104 134 166 204 254 308
#
# _framework density 18.509105000000002
#
# number of rings (size 3 to 8) (size 9 to 14) (size 15 to 20)
#    0.000    2.143    0.000    5.571    0.000    6.857 
#    0.000    2.857    0.000    0.857    0.000    6.000 
#    0.000    0.000    0.000    0.000    0.000    0.000 
#
# Total GULP energy -347035.499810 kJ/mol
# GULP energy per Si atom -12394.124993 kJ/mol
# Density = 1.846698 g / cm^3
# Si number density = 18.509105 Si / 1000 Ang^3
#
#
#
# Elastic Constant Matrix: (Units=GPa)
#
#
# Indices 1 2 3 4 5 6 
#
# 1 108.6581 43.3741 51.3729 0.0000 14.9041 0.0000
# 2 43.3741 109.7091 40.5382 0.0000 8.3971 0.0000
# 3 51.3729 40.5382 82.1521 0.0000 24.2593 0.0000
# 4 0.0000 0.0000 0.0000 36.9488 0.0000 -3.4369
# 5 14.9041 8.3971 24.2593 0.0000 24.7737 0.0000
# 6 0.0000 0.0000 0.0000 -3.4369 0.0000 38.2274
#
#
#
# Elastic Compliance Matrix: (Units=1/GPa)
#
#
# Indices 1 2 3 4 5 6 
#
# 1 0.013718 -0.002770 -0.007106 0.000000 -0.000355 0.000000
# 2 -0.002770 0.011798 -0.004784 0.000000 0.002352 0.000000
# 3 -0.007106 -0.004784 0.024247 0.000000 -0.017847 0.000000
# 4 0.000000 0.000000 0.000000 0.027293 0.000000 0.002454
# 5 -0.000355 0.002352 -0.017847 0.000000 0.057258 0.000000
# 6 0.000000 0.000000 0.000000 0.002454 0.000000 0.026380
#
#
# Mechanical properties :
#
#
# Convention : Reuss Voigt Hill
#
# Bulk Modulus (GPa) = 48.92005 63.45443 56.18724
# Shear Modulus (GPa) = 25.40283 31.00557 28.20420
#
# Velocity S-wave (km/s) = 3.70868 4.09730 3.90782
# Velocity P-wave (km/s) = 6.69528 7.53267 7.12628
#
# Compressibility (1/GPa) = 0.02044151
#
# Stress axis : x y z
#
# Youngs Moduli (GPa) = 72.89948 84.76057 41.24180
#
# Poissons Ratio (x) = 0.23481 0.29308
# Poissons Ratio (y) = 0.20196 0.19730
# Poissons Ratio (z) = 0.51805 0.40549
#
# Static dielectric constant tensor:
#      x y z
#    x 3.788850 0.000000 0.593290 
#    y 0.000000 3.471600 0.000000 
#    z 0.593290 0.000000 3.432370 
# 
# 
# High freq. dielectric constant tensor:
#      x y z
#    x 1.718870 0.000000 0.029800 
#    y 0.000000 1.732120 0.000000 
#    z 0.029800 0.000000 1.683280 
# 
# From -- ./inp_files/83409.got.cif
#   From: 2010.06.25/outbox.cif.g09.slc.cpg/sg10_42_cif.got.tgz:83409.got - 2010.06.27 22:07:45.
