data_PCOD8063590
_publ_section_title
;
Structure prediction by ZEFSAII (Michael W. Deem and Ramdas Pophale) SiO2 
 PCOD8063590
Probable space group: P 2/M
;
_chemical_formula_sum "Si O2"
_cell_formula_units_Z 32
_cell_length_a 13.874143
_cell_length_b 9.147161
_cell_length_c 22.324415
_cell_angle_alpha 90.000000
_cell_angle_beta 141.422643
_cell_angle_gamma 90.000000
_cell_volume 1766.681552
_symmetry_space_group_name_H-M "P 2/M"
_symmetry_group_IT_number 10
_symmetry_cell_setting 'monoclinic'
loop_
_space_group_symop_operation_xyz
x,y,z
-x,y,-z
-x,-y,-z
x,-y,z
loop_
_atom_site_type_symbol
_atom_site_label
_atom_site_fract_x
_atom_site_fract_y
_atom_site_fract_z
Si Si1 0.641120 0.663688 0.114155
Si Si2 0.828202 0.167044 0.711147
Si Si3 0.443839 0.170211 0.106219
Si Si4 0.858559 0.170139 0.468100
Si Si5 0.559215 0.326625 0.644808
Si Si6 0.742638 0.829802 0.536788
Si Si7 0.514554 0.169482 0.272666
Si Si8 0.176201 0.168276 0.888479
O O1 0.690038 0.500000 0.154898
O O2 0.590436 0.746194 0.149685
O O3 0.785723 0.741802 0.153000
O O4 0.500000 0.667745 0.000000
O O5 0.716705 0.279892 0.689304
O O6 0.833087 0.196711 0.642232
O O7 0.998960 0.195862 0.820155
O O8 0.775382 0.000000 0.697965
O O9 0.432152 0.210761 0.170376
O O10 0.478093 0.000000 0.114176
O O11 0.282980 0.216771 0.996473
O O12 0.846443 0.227396 0.531136
O O13 0.697399 0.203191 0.356241
O O14 0.000000 0.246553 0.500000
O O15 0.894440 0.000000 0.488336
O O16 0.545534 0.500000 0.638022
O O17 0.417408 0.258700 0.538877
O O18 0.563410 0.268688 0.714721
O O19 0.700380 0.000000 0.506442
O O20 0.488141 0.000000 0.276593
O O21 0.206479 0.000000 0.887242
#
# Coordination Sequence:
#
# PCOD8063590 Si02
#       8
#     4   4   4   4   4   4   4   4
#     4   9  17  29  46  69 100 137 169 199 241 292
#     4  10  20  34  53  74  98 129 165 208 255 299
#     4   9  17  31  52  75  99 131 171 211 247 288
#     4   8  14  26  46  73 100 123 155 198 236 277
#     4  11  22  35  52  73  98 127 162 207 255 303
#     4   9  18  33  53  75  99 130 165 198 239 297
#     4   9  18  33  53  73  96 131 171 207 246 295
#     4   9  18  32  50  75 103 129 165 212 252 288
#
# _framework density 18.113054999999999
#
# number of rings (size 3 to 8) (size 9 to 14) (size 15 to 20)
#    0.000    2.750    0.000    2.625    0.000    5.500 
#    0.000    4.375    0.000    9.750    0.000    0.000 
#    0.000    0.000    0.000    0.000    0.000    0.000 
#
# Total GULP energy -396741.770295 kJ/mol
# GULP energy per Si atom -12398.180322 kJ/mol
# Density = 1.807183 g / cm^3
# Si number density = 18.113055 Si / 1000 Ang^3
#
#
#
# Elastic Constant Matrix: (Units=GPa)
#
#
# Indices 1 2 3 4 5 6 
#
# 1 105.6402 42.5911 46.2795 0.0000 4.5586 0.0000
# 2 42.5911 75.0823 30.3135 0.0000 -2.0029 0.0000
# 3 46.2795 30.3135 83.8378 0.0000 -7.3228 0.0000
# 4 0.0000 0.0000 0.0000 11.1849 0.0000 -1.4928
# 5 4.5586 -2.0029 -7.3228 0.0000 23.0512 0.0000
# 6 0.0000 0.0000 0.0000 -1.4928 0.0000 14.7515
#
#
#
# Elastic Compliance Matrix: (Units=1/GPa)
#
#
# Indices 1 2 3 4 5 6 
#
# 1 0.015024 -0.006002 -0.006612 0.000000 -0.005593 0.000000
# 2 -0.006002 0.017998 -0.003038 0.000000 0.001786 0.000000
# 3 -0.006612 -0.003038 0.017246 0.000000 0.006522 0.000000
# 4 0.000000 0.000000 0.000000 0.090630 0.000000 0.009171
# 5 -0.005593 0.001786 0.006522 0.000000 0.046715 0.000000
# 6 0.000000 0.000000 0.000000 0.009171 0.000000 0.068718
#
#
# Mechanical properties :
#
#
# Convention : Reuss Voigt Hill
#
# Bulk Modulus (GPa) = 52.73386 55.88096 54.30741
# Shear Modulus (GPa) = 17.00939 19.48927 18.24933
#
# Velocity S-wave (km/s) = 3.06775 3.28377 3.17759
# Velocity P-wave (km/s) = 6.45949 6.73021 6.59624
#
# Compressibility (1/GPa) = 0.01896315
#
# Stress axis : x y z
#
# Youngs Moduli (GPa) = 66.56087 55.56225 57.98549
#
# Poissons Ratio (x) = 0.33350 0.38338
# Poissons Ratio (y) = 0.39952 0.17617
# Poissons Ratio (z) = 0.44007 0.16881
#
# Static dielectric constant tensor:
#      x y z
#    x 3.402130 0.000000 -0.067690 
#    y 0.000000 3.183970 0.000000 
#    z -0.067690 0.000000 3.307570 
# 
# 
# High freq. dielectric constant tensor:
#      x y z
#    x 1.700200 0.000000 -0.005340 
#    y 0.000000 1.679310 0.000000 
#    z -0.005340 0.000000 1.690320 
# 
# From -- ./inp_files/83615.got.cif
#   From: 2010.06.25/outbox.cif.g09.slc.cpg/sg10_42_cif.got.tgz:83615.got - 2010.06.27 22:07:45.
