data_PCOD8063291
_publ_section_title
;
Structure prediction by ZEFSAII (Michael W. Deem and Ramdas Pophale) SiO2 
 PCOD8063291
Probable space group: P 2/M
;
_chemical_formula_sum "Si O2"
_cell_formula_units_Z 32
_cell_length_a 15.477082
_cell_length_b 8.936071
_cell_length_c 25.379016
_cell_angle_alpha 90.000000
_cell_angle_beta 30.237351
_cell_angle_gamma 90.000000
_cell_volume 1767.590902
_symmetry_space_group_name_H-M "P 2/M"
_symmetry_group_IT_number 10
_symmetry_cell_setting 'monoclinic'
loop_
_space_group_symop_operation_xyz
x,y,z
-x,y,-z
-x,-y,-z
x,-y,z
loop_
_atom_site_type_symbol
_atom_site_label
_atom_site_fract_x
_atom_site_fract_y
_atom_site_fract_z
Si Si1 0.918010 0.824110 0.424221
Si Si2 0.940533 0.172491 0.947788
Si Si3 0.726974 0.827565 0.161738
Si Si4 0.786654 0.324527 0.932246
Si Si5 0.371688 0.323704 0.355379
Si Si6 0.450595 0.832641 0.086476
Si Si7 0.148550 0.336461 0.379896
Si Si8 0.116161 0.675731 0.236064
O O1 0.745107 0.756487 0.539405
O O2 0.088014 0.783166 0.368703
O O3 0.949569 0.756618 0.349103
O O4 0.897098 0.000000 0.431792
O O5 0.916163 0.276287 0.909810
O O6 0.132190 0.199903 0.867454
O O7 0.914789 0.000000 0.945450
O O8 0.804769 0.218246 0.064307
O O9 0.566820 0.724425 0.260298
O O10 0.669304 0.000000 0.191350
O O11 0.751073 0.500000 0.952679
O O12 0.870729 0.278363 0.832112
O O13 0.605770 0.241541 0.037236
O O14 0.351883 0.500000 0.374425
O O15 0.313901 0.279247 0.326046
O O16 0.282659 0.730918 0.180968
O O17 0.415475 0.000000 0.126770
O O18 0.500000 0.839406 0.000000
O O19 0.183671 0.500000 0.334967
O O20 0.000000 0.358359 0.500000
O O21 0.097256 0.500000 0.253082
#
# Coordination Sequence:
#
# PCOD8063291 Si02
#       8
#     4   4   4   4   4   4   4   4
#     4  11  21  32  50  75 103 138 177 213 250 297
#     4   9  19  36  56  77 104 133 163 206 256 305
#     4   9  19  36  56  78 102 131 166 205 254 307
#     4  10  20  33  52  77 104 136 172 210 255 304
#     4  10  20  34  53  76 103 136 170 209 256 303
#     4   9  17  30  48  70  97 130 169 209 247 290
#     4   8  16  31  47  66  97 133 166 202 246 292
#     4  10  20  34  50  71 104 141 175 212 252 297
#
# _framework density 18.103736999999999
#
# number of rings (size 3 to 8) (size 9 to 14) (size 15 to 20)
#    0.000    2.500    0.000    4.125    0.000    7.750 
#    0.000    3.750    0.000    0.750    0.000    5.250 
#    0.000    0.000    0.000    0.000    0.000    0.000 
#
# Total GULP energy -396730.336025 kJ/mol
# GULP energy per Si atom -12397.823001 kJ/mol
# Density = 1.806253 g / cm^3
# Si number density = 18.103737 Si / 1000 Ang^3
#
#
#
# Elastic Constant Matrix: (Units=GPa)
#
#
# Indices 1 2 3 4 5 6 
#
# 1 84.8854 38.4694 40.5351 0.0000 -1.2557 0.0000
# 2 38.4694 103.3613 47.8182 0.0000 1.1618 0.0000
# 3 40.5351 47.8182 93.4994 0.0000 -3.1618 0.0000
# 4 0.0000 0.0000 0.0000 31.3332 0.0000 -4.0466
# 5 -1.2557 1.1618 -3.1618 0.0000 21.2487 0.0000
# 6 0.0000 0.0000 0.0000 -4.0466 0.0000 17.6809
#
#
#
# Elastic Compliance Matrix: (Units=1/GPa)
#
#
# Indices 1 2 3 4 5 6 
#
# 1 0.015795 -0.003564 -0.005012 0.000000 0.000383 0.000000
# 2 -0.003564 0.013537 -0.005437 0.000000 -0.001760 0.000000
# 3 -0.005012 -0.005437 0.015728 0.000000 0.002341 0.000000
# 4 0.000000 0.000000 0.000000 0.032887 0.000000 0.007527
# 5 0.000383 -0.001760 0.002341 0.000000 0.047529 0.000000
# 6 0.000000 0.000000 0.000000 0.007527 0.000000 0.058281
#
#
# Mechanical properties :
#
#
# Convention : Reuss Voigt Hill
#
# Bulk Modulus (GPa) = 58.71042 59.48795 59.09919
# Shear Modulus (GPa) = 22.99269 24.38080 23.68675
#
# Velocity S-wave (km/s) = 3.56765 3.67376 3.62109
# Velocity P-wave (km/s) = 7.03358 7.13626 7.08510
#
# Compressibility (1/GPa) = 0.01703275
#
# Stress axis : x y z
#
# Youngs Moduli (GPa) = 63.31196 73.87379 63.58092
#
# Poissons Ratio (x) = 0.26331 0.31865
# Poissons Ratio (y) = 0.22566 0.34571
# Poissons Ratio (z) = 0.31731 0.40167
#
# Static dielectric constant tensor:
#      x y z
#    x 3.351580 0.000000 0.056740 
#    y 0.000000 3.342490 0.000000 
#    z 0.056740 0.000000 3.277410 
# 
# 
# High freq. dielectric constant tensor:
#      x y z
#    x 1.679950 0.000000 0.006220 
#    y 0.000000 1.707830 0.000000 
#    z 0.006220 0.000000 1.693250 
# 
# From -- ./inp_files/66580.got.cif
#   From: 2010.06.25/outbox.cif.g09.slc.cpg/sg10_34_cif.got.tgz:66580.got - 2010.06.27 22:07:45.
