data_PCOD8063016
_publ_section_title
;
Structure prediction by ZEFSAII (Michael W. Deem and Ramdas Pophale) SiO2 
 PCOD8063016
Probable space group: P 2/M
;
_chemical_formula_sum "Si O2"
_cell_formula_units_Z 30
_cell_length_a 16.886312
_cell_length_b 9.004855
_cell_length_c 27.601312
_cell_angle_alpha 90.000000
_cell_angle_beta 22.713479
_cell_angle_gamma 90.000000
_cell_volume 1620.567035
_symmetry_space_group_name_H-M "P 2/M"
_symmetry_group_IT_number 10
_symmetry_cell_setting 'monoclinic'
loop_
_space_group_symop_operation_xyz
x,y,z
-x,y,-z
-x,-y,-z
x,-y,z
loop_
_atom_site_type_symbol
_atom_site_label
_atom_site_fract_x
_atom_site_fract_y
_atom_site_fract_z
Si Si1 0.264537 0.177259 0.176732
Si Si2 0.504302 0.672337 0.314032
Si Si3 0.090922 0.825929 0.898220
Si Si4 0.701382 0.322122 0.940171
Si Si5 0.900805 0.836554 0.451193
Si Si6 0.232006 0.173639 0.002045
Si Si7 0.554267 0.664096 0.762885
Si Si8 0.000000 0.754706 0.500000
O O1 0.190832 0.245602 0.167007
O O2 0.099272 0.220940 0.310493
O O3 0.299878 0.000000 0.152838
O O4 0.471780 0.259726 0.074993
O O5 0.514882 0.500000 0.319211
O O6 0.691207 0.750860 0.236148
O O7 0.286533 0.729597 0.456538
O O8 0.522081 0.709896 0.247264
O O9 0.127885 0.000000 0.881303
O O10 0.000000 0.763684 0.000000
O O11 0.937985 0.784106 0.941434
O O12 0.701701 0.500000 0.935163
O O13 0.823131 0.268386 0.919116
O O14 0.946717 0.850440 0.482672
O O15 0.841260 0.000000 0.466330
O O16 0.457194 0.218180 0.854814
O O17 0.235880 0.000000 0.012275
O O18 0.473596 0.500000 0.821999
O O19 0.801304 0.657009 0.625464
#
# Coordination Sequence:
#
# PCOD8063016 Si02
#       8
#     4   4   4   4   4   4   4   2
#     4  10  20  37  59  82 111 147 187 227 269 319
#     4  10  21  34  52  77 108 144 180 219 267 325
#     4  10  20  36  56  79 107 144 184 227 274 326
#     4  11  22  36  56  83 112 144 182 228 279 327
#     4  10  21  35  54  78 107 145 184 222 264 319
#     4  11  22  35  55  80 108 141 181 229 276 322
#     4  10  20  33  48  72 107 145 180 218 264 319
#     4  10  20  32  50  78 110 146 180 218 260 314
#
# _framework density 18.512038
#
# number of rings (size 3 to 8) (size 9 to 14) (size 15 to 20)
#    0.000    1.733    1.333    4.400    0.000    6.667 
#    0.000    0.000    0.000    0.800    0.000    5.600 
#    0.000    0.000    0.000    0.000    0.000    0.000 
#
# Total GULP energy -371981.914301 kJ/mol
# GULP energy per Si atom -12399.397143 kJ/mol
# Density = 1.846990 g / cm^3
# Si number density = 18.512038 Si / 1000 Ang^3
#
#
#
# Elastic Constant Matrix: (Units=GPa)
#
#
# Indices 1 2 3 4 5 6 
#
# 1 99.1839 41.8178 44.1135 0.0000 -0.6092 0.0000
# 2 41.8178 85.5218 31.2292 0.0000 0.9288 0.0000
# 3 44.1135 31.2292 96.8132 0.0000 0.5745 0.0000
# 4 0.0000 0.0000 0.0000 21.1576 0.0000 -0.9746
# 5 -0.6092 0.9288 0.5745 0.0000 27.8346 0.0000
# 6 0.0000 0.0000 0.0000 -0.9746 0.0000 26.3745
#
#
#
# Elastic Compliance Matrix: (Units=1/GPa)
#
#
# Indices 1 2 3 4 5 6 
#
# 1 0.014504 -0.005309 -0.004900 0.000000 0.000596 0.000000
# 2 -0.005309 0.015201 -0.002481 0.000000 -0.000572 0.000000
# 3 -0.004900 -0.002481 0.013364 0.000000 -0.000300 0.000000
# 4 0.000000 0.000000 0.000000 0.047345 0.000000 0.001749
# 5 0.000596 -0.000572 -0.000300 0.000000 0.035965 0.000000
# 6 0.000000 0.000000 0.000000 0.001749 0.000000 0.037980
#
#
# Mechanical properties :
#
#
# Convention : Reuss Voigt Hill
#
# Bulk Modulus (GPa) = 56.53194 57.31553 56.92373
# Shear Modulus (GPa) = 25.55793 26.03055 25.79424
#
# Velocity S-wave (km/s) = 3.71969 3.75392 3.73685
# Velocity P-wave (km/s) = 7.00374 7.05816 7.03100
#
# Compressibility (1/GPa) = 0.01768911
#
# Stress axis : x y z
#
# Youngs Moduli (GPa) = 68.94870 65.78465 74.82935
#
# Poissons Ratio (x) = 0.34926 0.36663
# Poissons Ratio (y) = 0.36606 0.18564
# Poissons Ratio (z) = 0.33782 0.16321
#
# Static dielectric constant tensor:
#      x y z
#    x 3.490910 0.000000 0.054970 
#    y 0.000000 3.351300 0.000000 
#    z 0.054970 0.000000 3.307240 
# 
# 
# High freq. dielectric constant tensor:
#      x y z
#    x 1.707600 0.000000 -0.000960 
#    y 0.000000 1.724940 0.000000 
#    z -0.000960 0.000000 1.702950 
# 
# From -- ./inp_files/95491.got.cif
#   From: 2010.06.25/outbox.cif.g09.slc.cpg/sg10_48_cif.got.tgz:95491.got - 2010.06.27 22:07:45.
