data_PCOD8063515
_publ_section_title
;
Structure prediction by ZEFSAII (Michael W. Deem and Ramdas Pophale) SiO2 
 PCOD8063515
Probable space group: P 2/M
;
_chemical_formula_sum "Si O2"
_cell_formula_units_Z 28
_cell_length_a 9.541382
_cell_length_b 8.943755
_cell_length_c 26.700229
_cell_angle_alpha 90.000000
_cell_angle_beta 140.073102
_cell_angle_gamma 90.000000
_cell_volume 1462.353770
_symmetry_space_group_name_H-M "P 2/M"
_symmetry_group_IT_number 10
_symmetry_cell_setting 'monoclinic'
loop_
_space_group_symop_operation_xyz
x,y,z
-x,y,-z
-x,-y,-z
x,-y,z
loop_
_atom_site_type_symbol
_atom_site_label
_atom_site_fract_x
_atom_site_fract_y
_atom_site_fract_z
Si Si1 0.576201 0.176884 0.076315
Si Si2 0.211797 0.177013 0.588624
Si Si3 0.684494 0.323641 0.280013
Si Si4 0.249604 0.169500 0.183016
Si Si5 0.323957 0.830442 0.318075
Si Si6 0.086858 0.323702 0.760227
Si Si7 0.125393 0.176555 0.988062
O O1 0.788964 0.255915 0.157385
O O2 0.620378 0.000000 0.089439
O O3 0.500000 0.226607 0.000000
O O4 0.373552 0.232612 0.054882
O O5 0.200176 0.250870 0.640036
O O6 0.424772 0.227956 0.614714
O O7 0.000000 0.227456 0.500000
O O8 0.224583 0.000000 0.600741
O O9 0.698030 0.500000 0.289731
O O10 0.432987 0.273801 0.208524
O O11 0.805846 0.270140 0.262633
O O12 0.233788 0.182452 0.237586
O O13 0.010278 0.219488 0.098804
O O14 0.304859 0.000000 0.181353
O O15 0.166331 0.730209 0.309474
O O16 0.314356 0.000000 0.335568
O O17 0.092594 0.500000 0.766873
O O18 0.134670 0.000000 0.996512
O O19 0.000000 0.252061 0.000000
#
# Coordination Sequence:
#
# PCOD8063515 Si02
#       7
#     4   4   4   4   4   4   4
#     4  10  20  34  52  72  97 134 180 228 273 313
#     4   9  19  38  63  88 109 130 165 213 261 312
#     4  10  21  35  52  78 110 144 179 212 254 311
#     4   9  17  32  53  75  99 131 176 225 268 312
#     4   9  18  33  55  79 102 133 172 212 257 310
#     4  11  23  36  50  74 110 147 182 217 255 308
#     4   9  16  26  44  70  95 122 163 216 269 312
#
# _framework density 19.147214000000002
#
# number of rings (size 3 to 8) (size 9 to 14) (size 15 to 20)
#    0.000    2.429    0.000    3.429    0.000    8.571 
#    0.000    1.429    0.000    6.857    0.000    0.000 
#    0.000    0.000    0.000    0.000    0.000    0.000 
#
# Total GULP energy -347049.236384 kJ/mol
# GULP energy per Si atom -12394.615585 kJ/mol
# Density = 1.910363 g / cm^3
# Si number density = 19.147214 Si / 1000 Ang^3
#
#
#
# Elastic Constant Matrix: (Units=GPa)
#
#
# Indices 1 2 3 4 5 6 
#
# 1 96.3238 33.8804 27.7468 0.0000 13.7442 0.0000
# 2 33.8804 49.0697 23.5727 0.0000 0.9243 0.0000
# 3 27.7468 23.5727 97.7736 0.0000 15.1393 0.0000
# 4 0.0000 0.0000 0.0000 11.6009 0.0000 1.3421
# 5 13.7442 0.9243 15.1393 0.0000 24.7889 0.0000
# 6 0.0000 0.0000 0.0000 1.3421 0.0000 26.8785
#
#
#
# Elastic Compliance Matrix: (Units=1/GPa)
#
#
# Indices 1 2 3 4 5 6 
#
# 1 0.015193 -0.010000 -0.000722 0.000000 -0.007610 0.000000
# 2 -0.010000 0.029807 -0.005561 0.000000 0.007829 0.000000
# 3 -0.000722 -0.005561 0.012899 0.000000 -0.007270 0.000000
# 4 0.000000 0.000000 0.000000 0.086701 0.000000 -0.004329
# 5 -0.007610 0.007829 -0.007270 0.000000 0.048708 0.000000
# 6 0.000000 0.000000 0.000000 -0.004329 0.000000 0.037421
#
#
# Mechanical properties :
#
#
# Convention : Reuss Voigt Hill
#
# Bulk Modulus (GPa) = 39.47336 45.95187 42.71262
# Shear Modulus (GPa) = 18.40000 23.18480 20.79240
#
# Velocity S-wave (km/s) = 3.10332 3.48353 3.29891
# Velocity P-wave (km/s) = 5.78803 6.34282 6.07176
#
# Compressibility (1/GPa) = 0.02533354
#
# Stress axis : x y z
#
# Youngs Moduli (GPa) = 65.82106 33.54877 77.52482
#
# Poissons Ratio (x) = 0.33547 0.05600
# Poissons Ratio (y) = 0.65818 0.43111
# Poissons Ratio (z) = 0.04755 0.18656
#
# Static dielectric constant tensor:
#      x y z
#    x 3.760240 0.000000 0.184590 
#    y 0.000000 3.212060 0.000000 
#    z 0.184590 0.000000 3.534740 
# 
# 
# High freq. dielectric constant tensor:
#      x y z
#    x 1.750470 0.000000 0.012590 
#    y 0.000000 1.714840 0.000000 
#    z 0.012590 0.000000 1.739850 
# 
# From -- ./inp_files/94536.got.cif
#   From: 2010.06.25/outbox.cif.g09.slc.cpg/sg10_48_cif.got.tgz:94536.got - 2010.06.27 22:07:45.
