data_PCOD8063721
_publ_section_title
;
Structure prediction by ZEFSAII (Michael W. Deem and Ramdas Pophale) SiO2 
 PCOD8063721
Probable space group: P 2/M
;
_chemical_formula_sum "Si O2"
_cell_formula_units_Z 28
_cell_length_a 13.654120
_cell_length_b 9.286819
_cell_length_c 13.608165
_cell_angle_alpha 90.000000
_cell_angle_beta 119.914187
_cell_angle_gamma 90.000000
_cell_volume 1495.670004
_symmetry_space_group_name_H-M "P 2/M"
_symmetry_group_IT_number 10
_symmetry_cell_setting 'monoclinic'
loop_
_space_group_symop_operation_xyz
x,y,z
-x,y,-z
-x,-y,-z
x,-y,z
loop_
_atom_site_type_symbol
_atom_site_label
_atom_site_fract_x
_atom_site_fract_y
_atom_site_fract_z
Si Si1 0.052150 0.670525 0.747708
Si Si2 0.620227 0.329531 0.601837
Si Si3 0.753026 0.329418 0.304218
Si Si4 0.812142 0.670999 0.550086
Si Si5 0.334818 0.834172 0.177405
Si Si6 0.095800 0.167212 0.969556
Si Si7 0.533534 0.833736 0.125421
O O1 0.049368 0.500000 0.759731
O O2 0.149520 0.718956 0.721683
O O3 0.074186 0.740194 0.863030
O O4 0.933540 0.728792 0.645922
O O5 0.500000 0.279212 0.500000
O O6 0.626214 0.500000 0.616256
O O7 0.716636 0.271437 0.576642
O O8 0.636746 0.262503 0.715973
O O9 0.737831 0.500000 0.297797
O O10 0.786186 0.270084 0.428339
O O11 0.635918 0.261239 0.214015
O O12 0.812611 0.500000 0.547941
O O13 0.426631 0.805153 0.140210
O O14 0.332558 0.000000 0.209441
O O15 0.214671 0.785876 0.074773
O O16 0.095457 0.000000 0.939830
O O17 0.000000 0.204122 0.000000
O O18 0.570952 0.000000 0.144609
O O19 0.500000 0.783081 0.000000
#
# Coordination Sequence:
#
# PCOD8063721 Si02
#       7
#     4   4   4   4   4   4   4
#     4  10  20  34  55  81 106 137 175 214 260 310
#     4  10  20  34  54  79 106 138 174 213 258 306
#     4  10  20  35  56  80 105 135 175 219 258 304
#     4   9  18  34  54  77 108 141 171 209 260 313
#     4  10  21  36  54  77 105 138 174 213 260 311
#     4  10  21  37  56  78 106 140 176 215 259 306
#     4  10  21  37  55  75 104 141 175 211 261 315
#
# _framework density 18.720707999999998
#
# number of rings (size 3 to 8) (size 9 to 14) (size 15 to 20)
#    0.000    2.143    0.000    3.000    0.000    6.571 
#    0.000    1.429    0.000    1.714    0.000    0.000 
#    0.000    0.000    0.000    0.000    0.000    0.000 
#
# Total GULP energy -347311.553587 kJ/mol
# GULP energy per Si atom -12403.984057 kJ/mol
# Density = 1.867810 g / cm^3
# Si number density = 18.720708 Si / 1000 Ang^3
#
#
#
# Elastic Constant Matrix: (Units=GPa)
#
#
# Indices 1 2 3 4 5 6 
#
# 1 139.2043 28.7577 73.0046 0.0000 13.9791 0.0000
# 2 28.7577 23.3864 36.0286 0.0000 1.9021 0.0000
# 3 73.0046 36.0286 161.4427 0.0000 4.1704 0.0000
# 4 0.0000 0.0000 0.0000 -3.2524 0.0000 3.5332
# 5 13.9791 1.9021 4.1704 0.0000 40.8018 0.0000
# 6 0.0000 0.0000 0.0000 3.5332 0.0000 26.1399
#
#
#
# Elastic Compliance Matrix: (Units=1/GPa)
#
#
# Indices 1 2 3 4 5 6 
#
# 1 0.010762 -0.008552 -0.002881 0.000000 -0.002994 0.000000
# 2 -0.008552 0.072059 -0.012235 0.000000 0.000821 0.000000
# 3 -0.002881 -0.012235 0.010214 0.000000 0.000513 0.000000
# 4 0.000000 0.000000 0.000000 -0.268098 0.000000 0.036238
# 5 -0.002994 0.000821 0.000513 0.000000 0.025444 0.000000
# 6 0.000000 0.000000 0.000000 0.036238 0.000000 0.033358
#
#
# Mechanical properties :
#
#
# Convention : Reuss Voigt Hill
#
# Bulk Modulus (GPa) = 21.88246 66.62390 44.25318
# Shear Modulus (GPa) = -93.12130 25.15402 -33.98364
#
# Velocity S-wave (km/s) = -7.06048 3.66956 -4.26525
# Velocity P-wave (km/s) = 7.39952 7.32255 0.75270
#
# Compressibility (1/GPa) = 0.04569870
#
# Stress axis : x y z
#
# Youngs Moduli (GPa) = 92.92103 13.87760 97.90555
#
# Poissons Ratio (x) = 0.11868 0.28203
# Poissons Ratio (y) = 0.79469 1.19787
# Poissons Ratio (z) = 0.26767 0.16979
#
# Static dielectric constant tensor:
#      x y z
#    x 3.663340 0.000000 -0.039070 
#    y 0.000000 3.185610 0.000000 
#    z -0.039070 0.000000 3.507380 
# 
# 
# High freq. dielectric constant tensor:
#      x y z
#    x 1.749820 0.000000 0.000360 
#    y 0.000000 1.701070 0.000000 
#    z 0.000360 0.000000 1.743050 
# 
# From -- ./inp_files/49487.got.cif
#   From: 2010.06.25/outbox.cif.g09.slc.cpg/sg10_25_cif.got.tgz:49487.got - 2010.06.27 22:07:45.
