data_PCOD8063789
_publ_section_title
;
Structure prediction by ZEFSAII (Michael W. Deem and Ramdas Pophale) SiO2 
 PCOD8063789
Probable space group: P 2/M
;
_chemical_formula_sum "Si O2"
_cell_formula_units_Z 28
_cell_length_a 17.709910
_cell_length_b 8.869552
_cell_length_c 14.915797
_cell_angle_alpha 90.000000
_cell_angle_beta 35.849069
_cell_angle_gamma 90.000000
_cell_volume 1372.158195
_symmetry_space_group_name_H-M "P 2/M"
_symmetry_group_IT_number 10
_symmetry_cell_setting 'monoclinic'
loop_
_space_group_symop_operation_xyz
x,y,z
-x,y,-z
-x,-y,-z
x,-y,z
loop_
_atom_site_type_symbol
_atom_site_label
_atom_site_fract_x
_atom_site_fract_y
_atom_site_fract_z
Si Si1 0.568419 0.672068 0.300834
Si Si2 0.004767 0.679239 0.274275
Si Si3 0.772277 0.321080 0.809063
Si Si4 0.953459 0.823223 0.141874
Si Si5 0.759487 0.679505 0.621568
Si Si6 0.475555 0.680163 0.849711
Si Si7 0.299324 0.673388 0.654172
O O1 0.611532 0.500000 0.252247
O O2 0.575963 0.747576 0.195632
O O3 0.422527 0.682908 0.473148
O O4 0.665979 0.742518 0.280551
O O5 0.008536 0.500000 0.263778
O O6 0.028355 0.745638 0.152318
O O7 0.867623 0.735079 0.447088
O O8 0.118460 0.741807 0.228992
O O9 0.779273 0.500000 0.804485
O O10 0.797845 0.261659 0.683924
O O11 0.628526 0.268162 0.976255
O O12 0.804391 0.778867 0.293288
O O13 0.974035 0.000000 0.130251
O O14 0.000000 0.762205 0.000000
O O15 0.754643 0.500000 0.626548
O O16 0.617947 0.745120 0.733606
O O17 0.484638 0.500000 0.835084
O O18 0.250879 0.500000 0.705957
#
# Coordination Sequence:
#
# PCOD8063789 Si02
#       7
#     4   4   4   4   4   4   4
#     4   8  15  27  47  78 110 136 165 212 262 305
#     4  10  20  34  55  79 102 135 177 218 259 310
#     4   9  17  27  44  76 111 138 169 210 256 308
#     4  11  25  40  52  71 104 140 175 220 270 314
#     4   9  16  28  47  74 110 141 165 206 262 309
#     4   9  15  23  40  69 109 144 166 196 254 316
#     4   9  17  32  54  77 103 135 174 216 260 308
#
# _framework density 20.405809000000001
#
# number of rings (size 3 to 8) (size 9 to 14) (size 15 to 20)
#    0.000    2.714    0.000    3.000    2.000    6.857 
#    0.000    1.429    0.000    1.714    0.000    0.000 
#    0.000    3.714    0.000    0.000    0.000    0.000 
#
# Total GULP energy -347008.837022 kJ/mol
# GULP energy per Si atom -12393.172751 kJ/mol
# Density = 2.035936 g / cm^3
# Si number density = 20.405809 Si / 1000 Ang^3
#
#
#
# Elastic Constant Matrix: (Units=GPa)
#
#
# Indices 1 2 3 4 5 6 
#
# 1 118.2413 12.1421 38.8395 0.0000 13.9897 0.0000
# 2 12.1421 16.2350 14.2551 0.0000 3.0787 0.0000
# 3 38.8395 14.2551 85.4907 0.0000 11.7530 0.0000
# 4 0.0000 0.0000 0.0000 9.4971 0.0000 3.1095
# 5 13.9897 3.0787 11.7530 0.0000 43.6281 0.0000
# 6 0.0000 0.0000 0.0000 3.1095 0.0000 6.1910
#
#
#
# Elastic Compliance Matrix: (Units=1/GPa)
#
#
# Indices 1 2 3 4 5 6 
#
# 1 0.010344 -0.004066 -0.003743 0.000000 -0.002021 0.000000
# 2 -0.004066 0.073914 -0.010322 0.000000 -0.001132 0.000000
# 3 -0.003743 -0.010322 0.015425 0.000000 -0.002227 0.000000
# 4 0.000000 0.000000 0.000000 0.126018 0.000000 -0.063294
# 5 -0.002021 -0.001132 -0.002227 0.000000 0.024249 0.000000
# 6 0.000000 0.000000 0.000000 -0.063294 0.000000 0.193315
#
#
# Mechanical properties :
#
#
# Convention : Reuss Voigt Hill
#
# Bulk Modulus (GPa) = 15.76785 38.93784 27.35284
# Shear Modulus (GPa) = 9.98668 22.17859 16.08264
#
# Velocity S-wave (km/s) = 2.21465 3.30036 2.81043
# Velocity P-wave (km/s) = 3.77935 5.80054 4.89539
#
# Compressibility (1/GPa) = 0.06342018
#
# Stress axis : x y z
#
# Youngs Moduli (GPa) = 96.67848 13.52927 64.82938
#
# Poissons Ratio (x) = 0.05501 0.24268
# Poissons Ratio (y) = 0.39307 0.66917
# Poissons Ratio (z) = 0.36190 0.13965
#
# Static dielectric constant tensor:
#      x y z
#    x 4.078820 0.000000 0.135200 
#    y 0.000000 2.877540 0.000000 
#    z 0.135200 0.000000 3.815720 
# 
# 
# High freq. dielectric constant tensor:
#      x y z
#    x 1.820290 0.000000 0.006450 
#    y 0.000000 1.705750 0.000000 
#    z 0.006450 0.000000 1.804510 
# 
# From -- ./inp_files/68620.got.cif
#   From: 2010.06.25/outbox.cif.g09.slc.cpg/sg10_35_cif.got.tgz:68620.got - 2010.06.27 22:07:45.
