data_PCOD8063011
_publ_section_title
;
Structure prediction by ZEFSAII (Michael W. Deem and Ramdas Pophale) SiO2 
 PCOD8063011
Probable space group: P 2/M
;
_chemical_formula_sum "Si O2"
_cell_formula_units_Z 32
_cell_length_a 16.221496
_cell_length_b 9.397809
_cell_length_c 11.026351
_cell_angle_alpha 90.000000
_cell_angle_beta 88.982035
_cell_angle_gamma 90.000000
_cell_volume 1680.663556
_symmetry_space_group_name_H-M "P 2/M"
_symmetry_group_IT_number 10
_symmetry_cell_setting 'monoclinic'
loop_
_space_group_symop_operation_xyz
x,y,z
-x,y,-z
-x,-y,-z
x,-y,z
loop_
_atom_site_type_symbol
_atom_site_label
_atom_site_fract_x
_atom_site_fract_y
_atom_site_fract_z
Si Si1 0.772586 0.830920 0.128058
Si Si2 0.791607 0.337062 0.664478
Si Si3 0.950885 0.165015 0.626004
Si Si4 0.370520 0.836649 0.701244
Si Si5 0.548317 0.839919 0.745069
Si Si6 0.958229 0.831172 0.127214
Si Si7 0.625878 0.661972 0.536007
Si Si8 0.292366 0.835611 0.125222
O O1 0.711529 0.773059 0.234025
O O2 0.865037 0.769474 0.138237
O O3 0.774202 0.000000 0.133167
O O4 0.731047 0.778613 0.005631
O O5 0.811821 0.500000 0.696796
O O6 0.722290 0.326412 0.563633
O O7 0.762539 0.257017 0.784517
O O8 0.871076 0.260285 0.609058
O O9 0.996488 0.216340 0.749310
O O10 0.000000 0.189143 0.500000
O O11 0.926725 0.000000 0.640504
O O12 0.452046 0.824045 0.785714
O O13 0.392129 0.747221 0.583907
O O14 0.355085 0.000000 0.664848
O O15 0.569566 0.727057 0.641763
O O16 0.609433 0.813153 0.857297
O O17 0.564000 0.000000 0.694284
O O18 0.955527 0.000000 0.120423
O O19 0.000000 0.773761 0.000000
O O20 0.598211 0.500000 0.519037
O O21 0.266742 0.000000 0.143381
#
# Coordination Sequence:
#
# PCOD8063011 Si02
#       8
#     4   4   4   4   4   4   4   4
#     4   9  18  31  52  80 106 137 172 215 268 315
#     4  10  21  36  54  76 104 138 175 217 267 315
#     4  10  21  34  54  83 108 136 178 224 269 323
#     4  10  20  32  50  77 109 139 171 216 269 317
#     4   9  18  32  51  78 106 135 173 219 265 310
#     4   9  17  31  52  78 107 137 175 220 263 315
#     4  10  21  35  52  74 102 141 183 217 256 314
#     4   9  17  33  56  78 102 135 177 216 256 311
#
# _framework density 19.040098
#
# number of rings (size 3 to 8) (size 9 to 14) (size 15 to 20)
#    0.000    2.500    0.000    1.875    1.750    6.250 
#    0.000    3.125    0.000    3.375    0.000    4.375 
#    0.000    0.000    0.000    0.000    0.000    0.000 
#
# Total GULP energy -396622.766279 kJ/mol
# GULP energy per Si atom -12394.461446 kJ/mol
# Density = 1.899676 g / cm^3
# Si number density = 19.040098 Si / 1000 Ang^3
#
#
#
# Elastic Constant Matrix: (Units=GPa)
#
#
# Indices 1 2 3 4 5 6 
#
# 1 128.5326 30.9022 33.0760 0.0000 -3.3239 0.0000
# 2 30.9022 60.9593 16.4042 0.0000 0.6056 0.0000
# 3 33.0760 16.4042 75.1954 0.0000 9.8820 0.0000
# 4 0.0000 0.0000 0.0000 -6.3142 0.0000 6.2096
# 5 -3.3239 0.6056 9.8820 0.0000 19.8942 0.0000
# 6 0.0000 0.0000 0.0000 6.2096 0.0000 17.0433
#
#
#
# Elastic Compliance Matrix: (Units=1/GPa)
#
#
# Indices 1 2 3 4 5 6 
#
# 1 0.009848 -0.003964 -0.003957 0.000000 0.003732 0.000000
# 2 -0.003964 0.019063 -0.002409 0.000000 -0.000046 0.000000
# 3 -0.003957 -0.002409 0.016735 0.000000 -0.008900 0.000000
# 4 0.000000 0.000000 0.000000 -0.116596 0.000000 0.042481
# 5 0.003732 -0.000046 -0.008900 0.000000 0.055312 0.000000
# 6 0.000000 0.000000 0.000000 0.042481 0.000000 0.043196
#
#
# Mechanical properties :
#
#
# Convention : Reuss Voigt Hill
#
# Bulk Modulus (GPa) = 40.02526 47.27245 43.64885
# Shear Modulus (GPa) = 88.42203 18.41166 53.41685
#
# Velocity S-wave (km/s) = 6.82208 3.11303 5.30244
# Velocity P-wave (km/s) = 9.11710 6.14841 7.77575
#
# Compressibility (1/GPa) = 0.02498422
#
# Stress axis : x y z
#
# Youngs Moduli (GPa) = 101.54163 52.45830 59.75652
#
# Poissons Ratio (x) = 0.20797 0.23648
# Poissons Ratio (y) = 0.40256 0.14394
# Poissons Ratio (z) = 0.40185 0.12636
#
# Static dielectric constant tensor:
#      x y z
#    x 3.791950 0.000000 0.114220 
#    y 0.000000 3.225210 0.000000 
#    z 0.114220 0.000000 3.435850 
# 
# 
# High freq. dielectric constant tensor:
#      x y z
#    x 1.757430 0.000000 0.008090 
#    y 0.000000 1.705370 0.000000 
#    z 0.008090 0.000000 1.731370 
# 
# From -- ./inp_files/49798.got.cif
#   From: 2010.06.25/outbox.cif.g09.slc.cpg/sg10_25_cif.got.tgz:49798.got - 2010.06.27 22:07:45.
