data_PCOD8063089
_publ_section_title
;
Structure prediction by ZEFSAII (Michael W. Deem and Ramdas Pophale) SiO2 
 PCOD8063089
Probable space group: P 2/M
;
_chemical_formula_sum "Si O2"
_cell_formula_units_Z 28
_cell_length_a 10.135056
_cell_length_b 9.154556
_cell_length_c 30.652410
_cell_angle_alpha 90.000000
_cell_angle_beta 34.946774
_cell_angle_gamma 90.000000
_cell_volume 1629.080761
_symmetry_space_group_name_H-M "P 2/M"
_symmetry_group_IT_number 10
_symmetry_cell_setting 'monoclinic'
loop_
_space_group_symop_operation_xyz
x,y,z
-x,y,-z
-x,-y,-z
x,-y,z
loop_
_atom_site_type_symbol
_atom_site_label
_atom_site_fract_x
_atom_site_fract_y
_atom_site_fract_z
Si Si1 0.224389 0.675063 0.168515
Si Si2 0.352530 0.658981 0.996657
Si Si3 0.254539 0.169246 0.550704
Si Si4 0.825616 0.829421 0.727265
Si Si5 0.559009 0.328333 0.727136
Si Si6 0.052658 0.674179 0.840221
Si Si7 0.012268 0.329258 0.447582
O O1 0.226296 0.500000 0.173741
O O2 0.479960 0.734556 0.084573
O O3 0.156512 0.753334 0.231112
O O4 0.035289 0.723527 0.183661
O O5 0.286940 0.500000 0.995438
O O6 0.500000 0.637481 0.000000
O O7 0.114784 0.740170 0.075745
O O8 0.500000 0.229571 0.500000
O O9 0.069652 0.200113 0.638420
O O10 0.190497 0.253086 0.524122
O O11 0.268843 0.000000 0.534823
O O12 0.622553 0.757049 0.753955
O O13 0.772502 0.000000 0.746930
O O14 0.556463 0.500000 0.738420
O O15 0.311576 0.270654 0.777787
O O16 0.739096 0.290762 0.640053
O O17 0.037259 0.500000 0.847066
O O18 0.962535 0.500000 0.459689
O O19 0.000000 0.268901 0.500000
#
# Coordination Sequence:
#
# PCOD8063089 Si02
#       7
#     4   4   4   4   4   4   4
#     4   9  16  28  49  73  93 116 149 188 229 271
#     4   7  11  22  42  68  93 114 143 187 229 261
#     4   9  19  35  51  66  87 119 157 190 220 261
#     4  10  20  33  47  65  93 124 151 184 225 267
#     4   9  17  31  49  67  91 123 154 184 222 269
#     4   8  14  26  47  72  92 114 151 194 227 260
#     4   9  18  31  47  70  97 120 145 183 230 274
#
# _framework density 17.187605999999999
#
# number of rings (size 3 to 8) (size 9 to 14) (size 15 to 20)
#    0.000    3.286    0.000    2.143    0.000    2.286 
#    0.000    2.857    0.000    9.000    0.000    0.000 
#    0.000    0.000    0.000    0.000    0.000    0.000 
#
# Total GULP energy -346963.225035 kJ/mol
# GULP energy per Si atom -12391.543751 kJ/mol
# Density = 1.714849 g / cm^3
# Si number density = 17.187606 Si / 1000 Ang^3
#
#
#
# Elastic Constant Matrix: (Units=GPa)
#
#
# Indices 1 2 3 4 5 6 
#
# 1 137.1839 42.4205 84.3281 0.0000 -8.2045 0.0000
# 2 42.4205 36.6582 33.1393 0.0000 1.2477 0.0000
# 3 84.3281 33.1393 97.7050 0.0000 -10.8069 0.0000
# 4 0.0000 0.0000 0.0000 13.3882 0.0000 -4.4823
# 5 -8.2045 1.2477 -10.8069 0.0000 30.5765 0.0000
# 6 0.0000 0.0000 0.0000 -4.4823 0.0000 5.1907
#
#
#
# Elastic Compliance Matrix: (Units=1/GPa)
#
#
# Indices 1 2 3 4 5 6 
#
# 1 0.017604 -0.009756 -0.011779 0.000000 0.000959 0.000000
# 2 -0.009756 0.046062 -0.008014 0.000000 -0.007330 0.000000
# 3 -0.011779 -0.008014 0.023734 0.000000 0.005555 0.000000
# 4 0.000000 0.000000 0.000000 0.105069 0.000000 0.090732
# 5 0.000959 -0.007330 0.005555 0.000000 0.035224 0.000000
# 6 0.000000 0.000000 0.000000 0.090732 0.000000 0.271004
#
#
# Mechanical properties :
#
#
# Convention : Reuss Voigt Hill
#
# Bulk Modulus (GPa) = 35.33200 65.70255 50.51728
# Shear Modulus (GPa) = 8.81476 17.27501 13.04488
#
# Velocity S-wave (km/s) = 2.26709 3.17375 2.75793
# Velocity P-wave (km/s) = 5.23968 7.19305 6.29262
#
# Compressibility (1/GPa) = 0.02830295
#
# Stress axis : x y z
#
# Youngs Moduli (GPa) = 56.80470 21.70964 42.13392
#
# Poissons Ratio (x) = 0.21179 0.49630
# Poissons Ratio (y) = 0.55417 0.33767
# Poissons Ratio (z) = 0.66911 0.17398
#
# Static dielectric constant tensor:
#      x y z
#    x 3.169610 0.000000 -0.091740 
#    y 0.000000 2.875120 0.000000 
#    z -0.091740 0.000000 3.538570 
# 
# 
# High freq. dielectric constant tensor:
#      x y z
#    x 1.652350 0.000000 -0.001030 
#    y 0.000000 1.626330 0.000000 
#    z -0.001030 0.000000 1.674430 
# 
# From -- ./inp_files/37034.got.cif
#   From: 2010.06.25/outbox.cif.g09.slc.cpg/sg10_19_cif.got.tgz:37034.got - 2010.06.27 22:07:45.
