data_PCOD8063844
_publ_section_title
;
Structure prediction by ZEFSAII (Michael W. Deem and Ramdas Pophale) SiO2 
 PCOD8063844
Probable space group: P 2/M
;
_chemical_formula_sum "Si O2"
_cell_formula_units_Z 32
_cell_length_a 23.745727
_cell_length_b 9.429835
_cell_length_c 22.054845
_cell_angle_alpha 90.000000
_cell_angle_beta 19.681373
_cell_angle_gamma 90.000000
_cell_volume 1663.227614
_symmetry_space_group_name_H-M "P 2/M"
_symmetry_group_IT_number 10
_symmetry_cell_setting 'monoclinic'
loop_
_space_group_symop_operation_xyz
x,y,z
-x,y,-z
-x,-y,-z
x,-y,z
loop_
_atom_site_type_symbol
_atom_site_label
_atom_site_fract_x
_atom_site_fract_y
_atom_site_fract_z
Si Si1 0.557978 0.165794 0.628545
Si Si2 0.077472 0.663692 0.983935
Si Si3 0.241652 0.664654 0.001768
Si Si4 0.815802 0.660237 0.681713
Si Si5 0.895292 0.664259 0.290649
Si Si6 0.408629 0.162815 0.652647
Si Si7 0.353357 0.340962 0.019255
Si Si8 0.589744 0.157412 0.843539
O O1 0.395857 0.241297 0.821823
O O2 0.539037 0.179488 0.575375
O O3 0.731692 0.241771 0.472716
O O4 0.563351 0.000000 0.642653
O O5 0.129783 0.500000 0.924402
O O6 0.242831 0.748356 0.834683
O O7 0.937241 0.684307 0.177367
O O8 0.000000 0.722550 0.000000
O O9 0.271524 0.500000 0.952736
O O10 0.236515 0.684611 0.079661
O O11 0.060440 0.714936 0.160727
O O12 0.790570 0.500000 0.686399
O O13 0.753457 0.752081 0.688708
O O14 0.000000 0.712048 0.500000
O O15 0.744768 0.686382 0.819895
O O16 0.854267 0.500000 0.347238
O O17 0.500000 0.221463 0.500000
O O18 0.353957 0.000000 0.699179
O O19 0.428157 0.500000 0.941505
O O20 0.500217 0.225638 0.875544
O O21 0.634960 0.000000 0.778154
O O22 0.500000 0.164194 0.000000
#
# Coordination Sequence:
#
# PCOD8063844 Si02
#       8
#     4   4   4   4   4   4   4   4
#     4  11  23  38  59  85 114 150 192 237 290 348
#     4  10  20  34  55  84 112 142 185 237 290 341
#     4  10  21  40  62  82 111 153 197 240 286 340
#     4   9  17  31  52  80 112 141 178 227 273 321
#     4  10  21  38  59  83 114 150 190 237 291 346
#     4  10  21  36  54  80 113 149 188 232 287 351
#     4   9  18  34  56  79 104 141 185 226 272 327
#     4   9  17  30  50  75 105 140 174 212 263 319
#
# _framework density 19.239699999999999
#
# number of rings (size 3 to 8) (size 9 to 14) (size 15 to 20)
#    0.000    2.250    1.250    1.500    0.000    4.250 
#    2.250    0.000    0.000    0.000    0.000    0.000 
#    0.000    0.000    0.000    0.000    0.000    0.000 
#
# Total GULP energy -396568.781661 kJ/mol
# GULP energy per Si atom -12392.774427 kJ/mol
# Density = 1.919591 g / cm^3
# Si number density = 19.239700 Si / 1000 Ang^3
#
#
#
# Elastic Constant Matrix: (Units=GPa)
#
#
# Indices 1 2 3 4 5 6 
#
# 1 104.9892 49.3256 29.5728 0.0000 -24.9844 0.0000
# 2 49.3256 103.7744 65.8502 0.0000 -17.5179 0.0000
# 3 29.5728 65.8502 100.4283 0.0000 -32.0556 0.0000
# 4 0.0000 0.0000 0.0000 72.3070 0.0000 -27.1385
# 5 -24.9844 -17.5179 -32.0556 0.0000 30.2350 0.0000
# 6 0.0000 0.0000 0.0000 -27.1385 0.0000 23.1272
#
#
#
# Elastic Compliance Matrix: (Units=1/GPa)
#
#
# Indices 1 2 3 4 5 6 
#
# 1 0.015055 -0.008196 0.005133 0.000000 0.013134 0.000000
# 2 -0.008196 0.021133 -0.014657 0.000000 -0.010068 0.000000
# 3 0.005133 -0.014657 0.025241 0.000000 0.022511 0.000000
# 4 0.000000 0.000000 0.000000 0.024715 0.000000 0.029001
# 5 0.013134 -0.010068 0.022511 0.000000 0.061961 0.000000
# 6 0.000000 0.000000 0.000000 0.029001 0.000000 0.077270
#
#
# Mechanical properties :
#
#
# Convention : Reuss Voigt Hill
#
# Bulk Modulus (GPa) = 38.47628 66.52102 52.49865
# Shear Modulus (GPa) = 18.55440 36.09675 27.32557
#
# Velocity S-wave (km/s) = 3.10882 4.33616 3.77274
# Velocity P-wave (km/s) = 5.73830 7.72785 6.80617
#
# Compressibility (1/GPa) = 0.02599004
#
# Stress axis : x y z
#
# Youngs Moduli (GPa) = 66.42285 47.31952 39.61743
#
# Poissons Ratio (x) = 0.38783 -0.20336
# Poissons Ratio (y) = 0.54440 0.58066
# Poissons Ratio (z) = -0.34095 0.69355
#
# Static dielectric constant tensor:
#      x y z
#    x 3.637500 0.000000 -0.212960 
#    y 0.000000 3.583010 0.000000 
#    z -0.212960 0.000000 3.407810 
# 
# 
# High freq. dielectric constant tensor:
#      x y z
#    x 1.753790 0.000000 -0.013800 
#    y 0.000000 1.746020 0.000000 
#    z -0.013800 0.000000 1.732130 
# 
# From -- ./inp_files/90576.got.cif
#   From: 2010.06.25/outbox.cif.g09.slc.cpg/sg10_46_cif.got.tgz:90576.got - 2010.06.27 22:07:45.
