data_PCOD8063457
_publ_section_title
;
Structure prediction by ZEFSAII (Michael W. Deem and Ramdas Pophale) SiO2 
 PCOD8063457
Probable space group: P 2/M
;
_chemical_formula_sum "Si O2"
_cell_formula_units_Z 32
_cell_length_a 15.602473
_cell_length_b 8.895913
_cell_length_c 27.585587
_cell_angle_alpha 90.000000
_cell_angle_beta 27.905684
_cell_angle_gamma 90.000000
_cell_volume 1791.959853
_symmetry_space_group_name_H-M "P 2/M"
_symmetry_group_IT_number 10
_symmetry_cell_setting 'monoclinic'
loop_
_space_group_symop_operation_xyz
x,y,z
-x,y,-z
-x,-y,-z
x,-y,z
loop_
_atom_site_type_symbol
_atom_site_label
_atom_site_fract_x
_atom_site_fract_y
_atom_site_fract_z
Si Si1 0.218315 0.821898 0.337943
Si Si2 0.805493 0.177643 0.541510
Si Si3 0.199914 0.672718 0.081484
Si Si4 0.822182 0.822403 0.807019
Si Si5 0.202819 0.673940 0.617072
Si Si6 0.447580 0.822448 0.417912
Si Si7 0.579896 0.326438 0.848097
Si Si8 0.797144 0.671561 0.269719
O O1 0.251855 0.766689 0.376298
O O2 0.363635 0.735035 0.232449
O O3 0.012811 0.773531 0.424844
O O4 0.246336 0.000000 0.318107
O O5 0.664691 0.241993 0.572141
O O6 0.798974 0.000000 0.545571
O O7 0.183811 0.500000 0.107735
O O8 0.240132 0.772813 0.108430
O O9 0.006983 0.718769 0.153005
O O10 0.360633 0.693758 0.962193
O O11 0.671011 0.769356 0.844824
O O12 0.015367 0.752814 0.694684
O O13 0.839287 0.000000 0.796311
O O14 0.190668 0.500000 0.609247
O O15 0.370286 0.748787 0.505238
O O16 0.239218 0.697795 0.655400
O O17 0.660415 0.775481 0.306886
O O18 0.429902 0.000000 0.430149
O O19 0.636532 0.500000 0.825245
O O20 0.759515 0.500000 0.273813
#
# Coordination Sequence:
#
# PCOD8063457 Si02
#       8
#     4   4   4   4   4   4   4   4
#     4   9  17  34  56  74  97 130 163 196 241 297
#     4   8  17  33  52  74 101 130 157 193 247 302
#     4   9  20  37  52  67  97 137 170 205 248 290
#     4  11  21  32  49  75 104 132 166 205 243 290
#     4  10  20  34  50  70 101 138 170 202 244 293
#     4  11  20  30  49  77 103 128 164 208 251 296
#     4  11  21  33  51  75 101 130 165 204 249 297
#     4   9  19  35  50  66  94 135 174 204 242 291
#
# _framework density 17.857543
#
# number of rings (size 3 to 8) (size 9 to 14) (size 15 to 20)
#    0.000    2.250    0.000    5.250    0.000    7.500 
#    0.000    3.125    0.000    0.750    0.000    5.250 
#    0.000    0.000    0.000    0.000    0.000    0.000 
#
# Total GULP energy -396821.613468 kJ/mol
# GULP energy per Si atom -12400.675421 kJ/mol
# Density = 1.781690 g / cm^3
# Si number density = 17.857543 Si / 1000 Ang^3
#
#
#
# Elastic Constant Matrix: (Units=GPa)
#
#
# Indices 1 2 3 4 5 6 
#
# 1 85.9305 34.6067 52.5081 0.0000 -13.7120 0.0000
# 2 34.6067 80.7159 39.0051 0.0000 -5.1538 0.0000
# 3 52.5081 39.0051 117.2956 0.0000 -5.7233 0.0000
# 4 0.0000 0.0000 0.0000 25.1179 0.0000 -3.3251
# 5 -13.7120 -5.1538 -5.7233 0.0000 21.9882 0.0000
# 6 0.0000 0.0000 0.0000 -3.3251 0.0000 20.9944
#
#
#
# Elastic Compliance Matrix: (Units=1/GPa)
#
#
# Indices 1 2 3 4 5 6 
#
# 1 0.018819 -0.004330 -0.006545 0.000000 0.009017 0.000000
# 2 -0.004330 0.015864 -0.003330 0.000000 0.000151 0.000000
# 3 -0.006545 -0.003330 0.012484 0.000000 -0.001612 0.000000
# 4 0.000000 0.000000 0.000000 0.040665 0.000000 0.006440
# 5 0.009017 0.000151 -0.001612 0.000000 0.050718 0.000000
# 6 0.000000 0.000000 0.000000 0.006440 0.000000 0.048652
#
#
# Mechanical properties :
#
#
# Convention : Reuss Voigt Hill
#
# Bulk Modulus (GPa) = 53.30954 59.57575 56.44264
# Shear Modulus (GPa) = 22.53633 24.14156 23.33895
#
# Velocity S-wave (km/s) = 3.55633 3.68080 3.61910
# Velocity P-wave (km/s) = 6.83965 7.17625 7.00997
#
# Compressibility (1/GPa) = 0.01875837
#
# Stress axis : x y z
#
# Youngs Moduli (GPa) = 53.13708 63.03412 80.10431
#
# Poissons Ratio (x) = 0.27296 0.52425
# Poissons Ratio (y) = 0.23010 0.26672
# Poissons Ratio (z) = 0.34776 0.20988
#
# Static dielectric constant tensor:
#      x y z
#    x 3.364910 0.000000 -0.132230 
#    y 0.000000 3.208040 0.000000 
#    z -0.132230 0.000000 3.400190 
# 
# 
# High freq. dielectric constant tensor:
#      x y z
#    x 1.672980 0.000000 -0.012470 
#    y 0.000000 1.685310 0.000000 
#    z -0.012470 0.000000 1.689110 
# 
# From -- ./inp_files/66460.got.cif
#   From: 2010.06.25/outbox.cif.g09.slc.cpg/sg10_34_cif.got.tgz:66460.got - 2010.06.27 22:07:45.
