data_PCOD8063091
_publ_section_title
;
Structure prediction by ZEFSAII (Michael W. Deem and Ramdas Pophale) SiO2 
 PCOD8063091
Probable space group: P 2/M
;
_chemical_formula_sum "Si O2"
_cell_formula_units_Z 32
_cell_length_a 22.125021
_cell_length_b 8.794222
_cell_length_c 31.261434
_cell_angle_alpha 90.000000
_cell_angle_beta 18.797982
_cell_angle_gamma 90.000000
_cell_volume 1960.013917
_symmetry_space_group_name_H-M "P 2/M"
_symmetry_group_IT_number 10
_symmetry_cell_setting 'monoclinic'
loop_
_space_group_symop_operation_xyz
x,y,z
-x,y,-z
-x,-y,-z
x,-y,z
loop_
_atom_site_type_symbol
_atom_site_label
_atom_site_fract_x
_atom_site_fract_y
_atom_site_fract_z
Si Si1 0.071199 0.830942 0.775352
Si Si2 0.807860 0.667245 0.603086
Si Si3 0.989951 0.819455 0.316645
Si Si4 0.215349 0.678766 0.089355
Si Si5 0.350777 0.167983 0.508982
Si Si6 0.391063 0.177809 0.191571
Si Si7 0.639513 0.330535 0.366585
Si Si8 0.060358 0.679291 0.360327
O O1 0.221327 0.836090 0.637212
O O2 0.173862 0.767016 0.748923
O O3 0.897876 0.724766 0.877697
O O4 0.995222 0.000000 0.836193
O O5 0.711875 0.500000 0.667121
O O6 0.669746 0.786422 0.718613
O O7 0.000000 0.656895 0.500000
O O8 0.866471 0.717587 0.515731
O O9 0.139067 0.770649 0.181096
O O10 0.034347 0.727502 0.329269
O O11 0.778636 0.773526 0.443447
O O12 0.006668 0.000000 0.312472
O O13 0.193610 0.500000 0.112006
O O14 0.430065 0.722361 0.939750
O O15 0.531774 0.272532 0.396262
O O16 0.427207 0.000000 0.447795
O O17 0.230257 0.224582 0.266131
O O18 0.435520 0.000000 0.157573
O O19 0.500000 0.323823 0.500000
O O20 0.707358 0.500000 0.311799
O O21 0.106394 0.500000 0.332875
#
# Coordination Sequence:
#
# PCOD8063091 Si02
#       8
#     4   4   4   4   4   4   4   4
#     4   9  16  27  41  58  83 114 148 184 223 264
#     4   8  16  32  51  70  91 113 142 184 231 273
#     4  10  20  33  47  66  93 123 156 190 226 269
#     4  11  21  33  47  64  91 124 156 188 227 272
#     4   8  15  26  39  56  82 115 146 181 222 261
#     4  11  21  33  50  70  91 117 152 190 229 271
#     4   9  15  22  36  58  81 109 147 184 217 259
#     4  10  20  34  51  70  92 119 151 187 229 272
#
# _framework density 16.326415000000001
#
# number of rings (size 3 to 8) (size 9 to 14) (size 15 to 20)
#    0.000    2.500    0.000    5.250    0.000    8.250 
#    0.000    2.500    0.000    0.000    0.000    0.000 
#    0.000    1.000    0.000   10.500    0.000    8.125 
#
# Total GULP energy -396636.671928 kJ/mol
# GULP energy per Si atom -12394.895998 kJ/mol
# Density = 1.628926 g / cm^3
# Si number density = 16.326415 Si / 1000 Ang^3
#
#
#
# Elastic Constant Matrix: (Units=GPa)
#
#
# Indices 1 2 3 4 5 6 
#
# 1 53.5380 17.5111 43.0453 0.0000 -12.6113 0.0000
# 2 17.5111 73.6547 14.0560 0.0000 -5.5021 0.0000
# 3 43.0453 14.0560 35.7460 0.0000 -0.1368 0.0000
# 4 0.0000 0.0000 0.0000 22.9786 0.0000 -6.0220
# 5 -12.6113 -5.5021 -0.1368 0.0000 14.8628 0.0000
# 6 0.0000 0.0000 0.0000 -6.0220 0.0000 23.8857
#
#
#
# Elastic Compliance Matrix: (Units=1/GPa)
#
#
# Indices 1 2 3 4 5 6 
#
# 1 -0.111609 -0.006713 0.136672 0.000000 -0.095929 0.000000
# 2 -0.006713 0.014718 0.002296 0.000000 -0.000227 0.000000
# 3 0.136672 0.002296 -0.137066 0.000000 0.115557 0.000000
# 4 0.000000 0.000000 0.000000 0.046598 0.000000 0.011748
# 5 -0.095929 -0.000227 0.115557 0.000000 -0.013136 0.000000
# 6 0.000000 0.000000 0.000000 0.011748 0.000000 0.044828
#
#
# Mechanical properties :
#
#
# Convention : Reuss Voigt Hill
#
# Bulk Modulus (GPa) = 32.73041 34.68484 33.70762
# Shear Modulus (GPa) = -12.19536 18.23385 3.01924
#
# Velocity S-wave (km/s) = -2.73604 3.34553 1.36136
# Velocity P-wave (km/s) = 3.17959 6.01782 4.81269
#
# Compressibility (1/GPa) = 0.03055263
#
# Stress axis : x y z
#
# Youngs Moduli (GPa) = -8.95985 67.94488 -7.29578
#
# Poissons Ratio (x) = 0.45614 0.99713
# Poissons Ratio (y) = -0.06015 0.01675
# Poissons Ratio (z) = 1.22456 -0.15601
#
# Static dielectric constant tensor:
#      x y z
#    x 3.179180 0.000000 -0.109210 
#    y 0.000000 3.226460 0.000000 
#    z -0.109210 0.000000 2.892200 
# 
# 
# High freq. dielectric constant tensor:
#      x y z
#    x 1.610290 0.000000 -0.021760 
#    y 0.000000 1.642970 0.000000 
#    z -0.021760 0.000000 1.588130 
# 
# From -- ./inp_files/95655.got.cif
#   From: 2010.06.25/outbox.cif.g09.slc.cpg/sg10_48_cif.got.tgz:95655.got - 2010.06.27 22:07:45.
