data_PCOD8063899
_publ_section_title
;
Structure prediction by ZEFSAII (Michael W. Deem and Ramdas Pophale) SiO2 
 PCOD8063899
Probable space group: P 2/M
;
_chemical_formula_sum "Si O2"
_cell_formula_units_Z 32
_cell_length_a 13.465513
_cell_length_b 9.248296
_cell_length_c 22.489899
_cell_angle_alpha 90.000000
_cell_angle_beta 146.674414
_cell_angle_gamma 90.000000
_cell_volume 1538.713004
_symmetry_space_group_name_H-M "P 2/M"
_symmetry_group_IT_number 10
_symmetry_cell_setting 'monoclinic'
loop_
_space_group_symop_operation_xyz
x,y,z
-x,y,-z
-x,-y,-z
x,-y,z
loop_
_atom_site_type_symbol
_atom_site_label
_atom_site_fract_x
_atom_site_fract_y
_atom_site_fract_z
Si Si1 0.700500 0.160062 0.812995
Si Si2 0.058634 0.173494 0.268996
Si Si3 0.333221 0.840734 0.946939
Si Si4 0.716761 0.659990 0.285842
Si Si5 0.677074 0.252451 0.932928
Si Si6 0.070202 0.337848 0.158878
Si Si7 0.286592 0.832356 0.599131
Si Si8 0.063802 0.331252 0.389560
O O1 0.710795 0.166435 0.889404
O O2 0.832866 0.278007 0.851507
O O3 0.497253 0.188224 0.689284
O O4 0.764819 0.000000 0.826085
O O5 0.141237 0.239297 0.249608
O O6 0.853431 0.232920 0.164746
O O7 0.135643 0.243480 0.367671
O O8 0.083800 0.000000 0.281279
O O9 0.327845 0.000000 0.915829
O O10 0.500000 0.753939 0.000000
O O11 0.353960 0.857379 0.028233
O O12 0.765322 0.500000 0.334943
O O13 0.505928 0.653204 0.161685
O O14 0.753424 0.780952 0.353815
O O15 0.850308 0.694326 0.297004
O O16 0.855117 0.344518 0.038900
O O17 0.137313 0.500000 0.204476
O O18 0.176497 0.730007 0.500692
O O19 0.228033 0.000000 0.564161
O O20 0.107194 0.500000 0.401753
#
# Coordination Sequence:
#
# PCOD8063899 Si02
#       8
#     4   4   4   4   4   4   4   4
#     4  10  22  39  59  83 112 147 189 238 290 340
#     4  10  21  37  57  80 110 148 189 233 280 334
#     4   9  17  30  50  79 114 150 188 229 272 321
#     4  10  21  36  55  84 121 156 188 226 276 333
#     4  10  20  34  56  84 118 154 191 228 273 331
#     4  11  23  38  58  84 114 148 188 235 285 336
#     4  10  22  39  59  84 113 147 190 238 285 335
#     4  11  22  37  59  85 115 151 189 232 282 334
#
# _framework density 20.796602
#
# number of rings (size 3 to 8) (size 9 to 14) (size 15 to 20)
#    0.000    1.875    0.000    3.750    0.000    8.500 
#    0.000    0.625    0.000    9.750    0.000    0.000 
#    0.000    0.000    0.000    0.000    0.000    0.000 
#
# Total GULP energy -396592.771465 kJ/mol
# GULP energy per Si atom -12393.524108 kJ/mol
# Density = 2.074927 g / cm^3
# Si number density = 20.796602 Si / 1000 Ang^3
#
#
#
# Elastic Constant Matrix: (Units=GPa)
#
#
# Indices 1 2 3 4 5 6 
#
# 1 97.9693 39.1511 27.7341 0.0000 -7.7260 0.0000
# 2 39.1511 126.8489 30.0719 0.0000 -3.7382 0.0000
# 3 27.7341 30.0719 60.7744 0.0000 -9.7777 0.0000
# 4 0.0000 0.0000 0.0000 21.8740 0.0000 -3.3890
# 5 -7.7260 -3.7382 -9.7777 0.0000 23.7127 0.0000
# 6 0.0000 0.0000 0.0000 -3.3890 0.0000 28.6727
#
#
#
# Elastic Compliance Matrix: (Units=1/GPa)
#
#
# Indices 1 2 3 4 5 6 
#
# 1 0.012661 -0.002895 -0.004022 0.000000 0.002010 0.000000
# 2 -0.002895 0.009597 -0.003573 0.000000 -0.000904 0.000000
# 3 -0.004022 -0.003573 0.021160 0.000000 0.006851 0.000000
# 4 0.000000 0.000000 0.000000 0.046569 0.000000 0.005504
# 5 0.002010 -0.000904 0.006851 0.000000 0.045509 0.000000
# 6 0.000000 0.000000 0.000000 0.005504 0.000000 0.035527
#
#
# Mechanical properties :
#
#
# Convention : Reuss Voigt Hill
#
# Bulk Modulus (GPa) = 44.56646 53.27854 48.92250
# Shear Modulus (GPa) = 25.06467 27.42759 26.24613
#
# Velocity S-wave (km/s) = 3.47541 3.63554 3.55637
# Velocity P-wave (km/s) = 6.13032 6.58007 6.35917
#
# Compressibility (1/GPa) = 0.02243840
#
# Stress axis : x y z
#
# Youngs Moduli (GPa) = 78.98045 104.19490 47.25891
#
# Poissons Ratio (x) = 0.30166 0.19007
# Poissons Ratio (y) = 0.22866 0.16886
# Poissons Ratio (z) = 0.31766 0.37230
#
# Static dielectric constant tensor:
#      x y z
#    x 3.874490 0.000000 0.069560 
#    y 0.000000 3.549920 0.000000 
#    z 0.069560 0.000000 3.689450 
# 
# 
# High freq. dielectric constant tensor:
#      x y z
#    x 1.816400 0.000000 -0.002950 
#    y 0.000000 1.806480 0.000000 
#    z -0.002950 0.000000 1.802650 
# 
# From -- ./inp_files/89622.got.cif
#   From: 2010.06.25/outbox.cif.g09.slc.cpg/sg10_45_cif.got.tgz:89622.got - 2010.06.27 22:07:45.
