data_PCOD8063945
_publ_section_title
;
Structure prediction by ZEFSAII (Michael W. Deem and Ramdas Pophale) SiO2 
 PCOD8063945
Probable space group: P 2/M
;
_chemical_formula_sum "Si O2"
_cell_formula_units_Z 28
_cell_length_a 29.778970
_cell_length_b 7.854353
_cell_length_c 8.987549
_cell_angle_alpha 90.000000
_cell_angle_beta 41.087267
_cell_angle_gamma 90.000000
_cell_volume 1381.541847
_symmetry_space_group_name_H-M "P 2/M"
_symmetry_group_IT_number 10
_symmetry_cell_setting 'monoclinic'
loop_
_space_group_symop_operation_xyz
x,y,z
-x,y,-z
-x,-y,-z
x,-y,z
loop_
_atom_site_type_symbol
_atom_site_label
_atom_site_fract_x
_atom_site_fract_y
_atom_site_fract_z
Si Si1 0.574818 0.000000 0.633306
Si Si2 0.199296 0.800263 0.086310
Si Si3 0.797842 0.807661 0.581659
Si Si4 0.669108 0.689479 0.741746
Si Si5 0.931326 0.694076 0.097413
Si Si6 0.934553 0.799601 0.757321
Si Si7 0.332766 0.309248 0.596551
Si Si8 0.577697 0.000000 0.979588
O O1 0.612788 0.829633 0.480298
O O2 0.572134 0.000000 0.816910
O O3 0.497972 0.000000 0.760160
O O4 0.188359 0.748106 0.284676
O O5 0.132398 0.741835 0.164835
O O6 0.212395 0.000000 0.033693
O O7 0.263906 0.699863 0.862664
O O8 0.740129 0.690869 0.652621
O O9 0.867511 0.801113 0.315154
O O10 0.770353 0.000000 0.645988
O O11 0.637097 0.500000 0.839218
O O12 0.685521 0.730146 0.528957
O O13 0.616525 0.829451 0.937581
O O14 0.921083 0.500000 0.173739
O O15 0.936311 0.702712 0.908095
O O16 0.000000 0.770018 0.000000
O O17 0.000000 0.741720 0.500000
O O18 0.935467 0.000000 0.785360
O O19 0.363556 0.500000 0.537420
#
# Coordination Sequence:
#
# PCOD8063945 Si02
#       8
#     2   4   4   4   4   4   4   2
#     4   9  18  34  57  85 122 149 190 235 279 347
#     4  10  21  36  56  82 113 148 191 242 290 342
#     4  11  22  37  59  83 110 150 195 239 290 341
#     4  10  20  35  57  87 118 150 194 237 284 347
#     4  11  24  39  55  80 115 152 190 238 292 344
#     4  10  21  38  60  84 111 147 192 240 289 344
#     4  10  20  34  57  85 115 153 191 236 290 340
#     4   9  18  34  57  87 118 157 184 231 293 333
#
# _framework density 20.267211
#
# number of rings (size 3 to 8) (size 9 to 14) (size 15 to 20)
#    0.000    1.857    1.429    2.571    0.000    7.143 
#    0.000    2.857    0.000    1.714    0.000    2.000 
#    0.000    0.000    0.000    0.000    0.000    0.000 
#
# Total GULP energy -347299.515444 kJ/mol
# GULP energy per Si atom -12403.554123 kJ/mol
# Density = 2.022108 g / cm^3
# Si number density = 20.267211 Si / 1000 Ang^3
#
#
#
# Elastic Constant Matrix: (Units=GPa)
#
#
# Indices 1 2 3 4 5 6 
#
# 1 101.4918 36.2478 59.1252 0.0000 -7.5952 0.0000
# 2 36.2478 101.7649 45.0690 0.0000 -12.2077 0.0000
# 3 59.1252 45.0690 119.2657 0.0000 -18.5771 0.0000
# 4 0.0000 0.0000 0.0000 19.7133 0.0000 0.4727
# 5 -7.5952 -12.2077 -18.5771 0.0000 37.8192 0.0000
# 6 0.0000 0.0000 0.0000 0.4727 0.0000 18.2308
#
#
#
# Elastic Compliance Matrix: (Units=1/GPa)
#
#
# Indices 1 2 3 4 5 6 
#
# 1 0.014342 -0.002416 -0.006356 0.000000 -0.001022 0.000000
# 2 -0.002416 0.012317 -0.003154 0.000000 0.001941 0.000000
# 3 -0.006356 -0.003154 0.013395 0.000000 0.004285 0.000000
# 4 0.000000 0.000000 0.000000 0.050759 0.000000 -0.001316
# 5 -0.001022 0.001941 0.004285 0.000000 0.028968 0.000000
# 6 0.000000 0.000000 0.000000 -0.001316 0.000000 0.054886
#
#
# Mechanical properties :
#
#
# Convention : Reuss Voigt Hill
#
# Bulk Modulus (GPa) = 61.72425 67.04517 64.38471
# Shear Modulus (GPa) = 24.51926 27.29135 25.90531
#
# Velocity S-wave (km/s) = 3.48199 3.67355 3.57905
# Velocity P-wave (km/s) = 6.83279 7.15163 6.99403
#
# Compressibility (1/GPa) = 0.01620109
#
# Stress axis : x y z
#
# Youngs Moduli (GPa) = 69.72331 81.18860 74.65401
#
# Poissons Ratio (x) = 0.19617 0.47452
# Poissons Ratio (y) = 0.16847 0.23548
# Poissons Ratio (z) = 0.44318 0.25609
#
# Static dielectric constant tensor:
#      x y z
#    x 3.592890 0.000000 -0.104160 
#    y 0.000000 3.649760 0.000000 
#    z -0.104160 0.000000 3.566910 
# 
# 
# High freq. dielectric constant tensor:
#      x y z
#    x 1.780230 0.000000 -0.005800 
#    y 0.000000 1.796980 0.000000 
#    z -0.005800 0.000000 1.781650 
# 
# From -- ./inp_files/37135.got.cif
#   From: 2010.06.25/outbox.cif.g09.slc.cpg/sg10_19_cif.got.tgz:37135.got - 2010.06.27 22:07:45.
