data_PCOD8063372
_publ_section_title
;
Structure prediction by ZEFSAII (Michael W. Deem and Ramdas Pophale) SiO2 
 PCOD8063372
Probable space group: P 2/M
;
_chemical_formula_sum "Si O2"
_cell_formula_units_Z 22
_cell_length_a 10.881224
_cell_length_b 9.819393
_cell_length_c 11.420055
_cell_angle_alpha 90.000000
_cell_angle_beta 113.441339
_cell_angle_gamma 90.000000
_cell_volume 1119.493149
_symmetry_space_group_name_H-M "P 2/M"
_symmetry_group_IT_number 10
_symmetry_cell_setting 'monoclinic'
loop_
_space_group_symop_operation_xyz
x,y,z
-x,y,-z
-x,-y,-z
x,-y,z
loop_
_atom_site_type_symbol
_atom_site_label
_atom_site_fract_x
_atom_site_fract_y
_atom_site_fract_z
Si Si1 0.347955 0.658067 0.473698
Si Si2 0.582446 0.845294 0.876602
Si Si3 0.000000 0.744953 0.000000
Si Si4 0.224295 0.148737 0.251544
Si Si5 0.656549 0.653683 0.261645
Si Si6 0.779423 0.350526 0.077093
O O1 0.500000 0.703445 0.500000
O O2 0.329593 0.500000 0.437030
O O3 0.236197 0.737484 0.355852
O O4 0.308574 0.693606 0.592324
O O5 0.635786 0.845102 0.764702
O O6 0.447595 0.759524 0.832184
O O7 0.557961 0.000000 0.911300
O O8 0.688989 0.772920 0.000114
O O9 0.103630 0.834229 0.113852
O O10 0.924059 0.655688 0.069626
O O11 0.207166 0.000000 0.303707
O O12 0.595740 0.500000 0.240177
O O13 0.785336 0.660434 0.222420
O O14 0.718669 0.500000 0.022006
#
# Coordination Sequence:
#
# PCOD8063372 Si02
#       6
#     4   4   2   4   4   4
#     4  10  20  35  57  85 116 149 184 226 277 335
#     4  10  20  33  53  83 116 147 181 227 281 335
#     4  10  22  40  60  82 108 146 194 238 276 326
#     4  10  21  37  59  84 113 150 189 230 276 331
#     4  10  20  35  54  81 115 146 181 229 280 330
#     4  10  21  36  56  80 108 146 190 233 277 327
#
# _framework density 19.651751999999998
#
# number of rings (size 3 to 8) (size 9 to 14) (size 15 to 20)
#    0.000    2.000    1.818    1.636    0.000    8.364 
#    0.000    0.909    0.000    4.364    0.000    0.000 
#    0.000    0.000    0.000    0.000    0.000    0.000 
#
# Total GULP energy -272576.953613 kJ/mol
# GULP energy per Si atom -12389.861528 kJ/mol
# Density = 1.960702 g / cm^3
# Si number density = 19.651752 Si / 1000 Ang^3
#
#
#
# Elastic Constant Matrix: (Units=GPa)
#
#
# Indices 1 2 3 4 5 6 
#
# 1 94.2794 35.9147 60.4409 0.0000 -21.8828 0.0000
# 2 35.9147 116.5092 52.1106 0.0000 -6.0569 0.0000
# 3 60.4409 52.1106 109.1358 0.0000 -20.4032 0.0000
# 4 0.0000 0.0000 0.0000 19.6109 0.0000 3.2540
# 5 -21.8828 -6.0569 -20.4032 0.0000 34.0676 0.0000
# 6 0.0000 0.0000 0.0000 3.2540 0.0000 13.3899
#
#
#
# Elastic Compliance Matrix: (Units=1/GPa)
#
#
# Indices 1 2 3 4 5 6 
#
# 1 0.017749 -0.001624 -0.007856 0.000000 0.006407 0.000000
# 2 -0.001624 0.011116 -0.004768 0.000000 -0.001922 0.000000
# 3 -0.007856 -0.004768 0.016540 0.000000 0.004012 0.000000
# 4 0.000000 0.000000 0.000000 0.053135 0.000000 -0.012913
# 5 0.006407 -0.001922 0.004012 0.000000 0.035530 0.000000
# 6 0.000000 0.000000 0.000000 -0.012913 0.000000 0.077822
#
#
# Mechanical properties :
#
#
# Convention : Reuss Voigt Hill
#
# Bulk Modulus (GPa) = 59.13961 68.53965 63.83963
# Shear Modulus (GPa) = 20.32316 24.84422 22.58369
#
# Velocity S-wave (km/s) = 3.21933 3.55945 3.39366
# Velocity P-wave (km/s) = 6.63159 7.20040 6.92184
#
# Compressibility (1/GPa) = 0.01690914
#
# Stress axis : x y z
#
# Youngs Moduli (GPa) = 56.34050 89.95896 60.45823
#
# Poissons Ratio (x) = 0.14613 0.47498
# Poissons Ratio (y) = 0.09152 0.28824
# Poissons Ratio (z) = 0.44263 0.42889
#
# Static dielectric constant tensor:
#      x y z
#    x 3.663710 0.000000 -0.390400 
#    y 0.000000 3.638100 0.000000 
#    z -0.390400 0.000000 3.443520 
# 
# 
# High freq. dielectric constant tensor:
#      x y z
#    x 1.746180 0.000000 -0.030690 
#    y 0.000000 1.773480 0.000000 
#    z -0.030690 0.000000 1.752810 
# 
# From -- ./inp_files/45262.got.cif
#   From: 2010.06.25/outbox.cif.g09.slc.cpg/sg10_23_cif.got.tgz:45262.got - 2010.06.27 22:07:45.
