data_PCOD8063309
_publ_section_title
;
Structure prediction by ZEFSAII (Michael W. Deem and Ramdas Pophale) SiO2 
 PCOD8063309
Probable space group: P 2/M
;
_chemical_formula_sum "Si O2"
_cell_formula_units_Z 20
_cell_length_a 16.311253
_cell_length_b 9.720681
_cell_length_c 14.326770
_cell_angle_alpha 90.000000
_cell_angle_beta 28.560443
_cell_angle_gamma 90.000000
_cell_volume 1086.020324
_symmetry_space_group_name_H-M "P 2/M"
_symmetry_group_IT_number 10
_symmetry_cell_setting 'monoclinic'
loop_
_space_group_symop_operation_xyz
x,y,z
-x,y,-z
-x,-y,-z
x,-y,z
loop_
_atom_site_type_symbol
_atom_site_label
_atom_site_fract_x
_atom_site_fract_y
_atom_site_fract_z
Si Si1 0.308954 0.157867 0.959675
Si Si2 0.691083 0.157868 0.577528
Si Si3 0.000022 0.163348 0.395900
Si Si4 0.799835 0.657359 0.306072
Si Si5 0.200167 0.657356 0.905756
O O1 0.500029 0.171143 0.811952
O O2 0.304863 0.243435 0.868524
O O3 0.266045 0.000000 0.977928
O O4 0.170558 0.215724 0.172062
O O5 0.829506 0.215721 0.513085
O O6 0.695132 0.243442 0.478237
O O7 0.733977 0.000000 0.509976
O O8 0.000000 0.227075 0.500000
O O9 0.000014 0.000000 0.402436
O O10 0.757474 0.500000 0.374171
O O11 0.742700 0.688161 0.257291
O O12 0.000000 0.687140 0.118290
O O13 0.242530 0.500000 0.889138
#
# Coordination Sequence:
#
# PCOD8063309 Si02
#       5
#     4   4   4   4   4
#     4  10  20  33  52  79 106 133 169 210 253 302
#     4  10  20  33  52  79 106 133 169 210 253 302
#     4   9  18  34  54  75 102 134 167 209 260 305
#     4   9  18  33  53  76 103 138 176 209 247 299
#     4   9  18  33  53  76 103 138 176 209 247 299
#
# _framework density 18.415863000000002
#
# number of rings (size 3 to 8) (size 9 to 14) (size 15 to 20)
#    0.000    2.600    2.000    1.200    0.000    3.200 
#    0.000   10.000    0.000    2.400    0.000    2.800 
#    0.000    0.000    0.000    0.000    0.000    0.000 
#
# Total GULP energy -247980.421291 kJ/mol
# GULP energy per Si atom -12399.021065 kJ/mol
# Density = 1.837395 g / cm^3
# Si number density = 18.415863 Si / 1000 Ang^3
#
#
#
# Elastic Constant Matrix: (Units=GPa)
#
#
# Indices 1 2 3 4 5 6 
#
# 1 108.7870 41.5397 76.4297 0.0000 5.9704 0.0000
# 2 41.5397 51.1028 37.2598 0.0000 5.3277 0.0000
# 3 76.4297 37.2598 107.9940 0.0000 -4.8676 0.0000
# 4 0.0000 0.0000 0.0000 14.7961 0.0000 -7.0556
# 5 5.9704 5.3277 -4.8676 0.0000 27.2513 0.0000
# 6 0.0000 0.0000 0.0000 -7.0556 0.0000 9.1127
#
#
#
# Elastic Compliance Matrix: (Units=1/GPa)
#
#
# Indices 1 2 3 4 5 6 
#
# 1 0.021291 -0.007439 -0.012749 0.000000 -0.005487 0.000000
# 2 -0.007439 0.030048 -0.005337 0.000000 -0.005198 0.000000
# 3 -0.012749 -0.005337 0.020461 0.000000 0.007491 0.000000
# 4 0.000000 0.000000 0.000000 0.107143 0.000000 0.082956
# 5 -0.005487 -0.005198 0.007491 0.000000 0.040252 0.000000
# 6 0.000000 0.000000 0.000000 0.082956 0.000000 0.173965
#
#
# Mechanical properties :
#
#
# Convention : Reuss Voigt Hill
#
# Bulk Modulus (GPa) = 48.18950 64.26024 56.22487
# Shear Modulus (GPa) = 11.08337 17.74234 14.41286
#
# Velocity S-wave (km/s) = 2.45590 3.10728 2.80059
# Velocity P-wave (km/s) = 5.85373 6.91688 6.40739
#
# Compressibility (1/GPa) = 0.02075141
#
# Stress axis : x y z
#
# Youngs Moduli (GPa) = 46.96870 33.27961 48.87326
#
# Poissons Ratio (x) = 0.24758 0.62307
# Poissons Ratio (y) = 0.34941 0.26082
# Poissons Ratio (z) = 0.59879 0.17760
#
# Static dielectric constant tensor:
#      x y z
#    x 3.432230 0.000000 -0.012180 
#    y 0.000000 3.132870 0.000000 
#    z -0.012180 0.000000 3.442060 
# 
# 
# High freq. dielectric constant tensor:
#      x y z
#    x 1.708920 0.000000 -0.009820 
#    y 0.000000 1.685550 0.000000 
#    z -0.009820 0.000000 1.716840 
# 
# From -- ./inp_files/18523.got.cif
#   From: 2010.06.25/outbox.cif.g09.slc.cpg/sg10_10_cif.got.tgz:18523.got - 2010.06.27 22:07:45.
