data_PCOD8063502
_publ_section_title
;
Structure prediction by ZEFSAII (Michael W. Deem and Ramdas Pophale) SiO2 
 PCOD8063502
Probable space group: P 2/M
;
_chemical_formula_sum "Si O2"
_cell_formula_units_Z 28
_cell_length_a 15.460444
_cell_length_b 8.668232
_cell_length_c 11.867830
_cell_angle_alpha 90.000000
_cell_angle_beta 116.822977
_cell_angle_gamma 90.000000
_cell_volume 1419.337796
_symmetry_space_group_name_H-M "P 2/M"
_symmetry_group_IT_number 10
_symmetry_cell_setting 'monoclinic'
loop_
_space_group_symop_operation_xyz
x,y,z
-x,y,-z
-x,-y,-z
x,-y,z
loop_
_atom_site_type_symbol
_atom_site_label
_atom_site_fract_x
_atom_site_fract_y
_atom_site_fract_z
Si Si1 0.621082 0.819139 0.980584
Si Si2 0.177058 0.682196 0.295743
Si Si3 0.787605 0.322886 0.936974
Si Si4 0.903481 0.182176 0.386545
Si Si5 0.271954 0.182599 0.564774
Si Si6 0.580773 0.317863 0.190150
Si Si7 0.958591 0.322612 0.194607
O O1 0.716490 0.786265 0.964762
O O2 0.531178 0.730720 0.871480
O O3 0.599433 0.000000 0.969102
O O4 0.635713 0.762135 0.117375
O O5 0.180179 0.500000 0.316914
O O6 0.215453 0.726164 0.194882
O O7 0.248484 0.766222 0.424236
O O8 0.066958 0.745049 0.244579
O O9 0.754953 0.500000 0.934109
O O10 0.898285 0.300893 0.044105
O O11 0.812357 0.245567 0.402549
O O12 0.898310 0.234220 0.254780
O O13 0.000000 0.251958 0.500000
O O14 0.904338 0.000000 0.392861
O O15 0.370790 0.262103 0.664840
O O16 0.283866 0.000000 0.576102
O O17 0.588847 0.500000 0.181538
O O18 0.965018 0.500000 0.233501
#
# Coordination Sequence:
#
# PCOD8063502 Si02
#       7
#     4   4   4   4   4   4   4
#     4  11  22  39  62  90 119 146 184 233 286 339
#     4  10  21  37  56  80 114 155 198 239 281 334
#     4  10  21  38  58  82 114 153 195 239 285 335
#     4  10  20  34  51  76 112 151 184 226 282 337
#     4  11  22  37  57  83 118 154 191 235 287 340
#     4  11  22  39  64  90 116 147 185 230 286 344
#     4  10  20  34  56  83 111 149 196 241 282 330
#
# _framework density 19.727509000000001
#
# number of rings (size 3 to 8) (size 9 to 14) (size 15 to 20)
#    0.000    1.571    1.429    5.143    0.000    6.571 
#    0.000    0.714    0.000    6.857    0.000    0.000 
#    0.000    0.000    0.000    0.000    0.000    0.000 
#
# Total GULP energy -347318.315888 kJ/mol
# GULP energy per Si atom -12404.225567 kJ/mol
# Density = 1.968261 g / cm^3
# Si number density = 19.727509 Si / 1000 Ang^3
#
#
#
# Elastic Constant Matrix: (Units=GPa)
#
#
# Indices 1 2 3 4 5 6 
#
# 1 63.4803 18.2189 35.1963 0.0000 -2.7600 0.0000
# 2 18.2189 63.1273 30.8584 0.0000 -1.4640 0.0000
# 3 35.1963 30.8584 136.4260 0.0000 4.8108 0.0000
# 4 0.0000 0.0000 0.0000 17.0027 0.0000 5.6089
# 5 -2.7600 -1.4640 4.8108 0.0000 25.9705 0.0000
# 6 0.0000 0.0000 0.0000 5.6089 0.0000 23.4188
#
#
#
# Elastic Compliance Matrix: (Units=1/GPa)
#
#
# Indices 1 2 3 4 5 6 
#
# 1 0.019216 -0.003390 -0.004284 0.000000 0.002645 0.000000
# 2 -0.003390 0.018489 -0.003353 0.000000 0.001303 0.000000
# 3 -0.004284 -0.003353 0.009277 0.000000 -0.002363 0.000000
# 4 0.000000 0.000000 0.000000 0.063860 0.000000 -0.015295
# 5 0.002645 0.001303 -0.002363 0.000000 0.039297 0.000000
# 6 0.000000 0.000000 0.000000 -0.015295 0.000000 0.046364
#
#
# Mechanical properties :
#
#
# Convention : Reuss Voigt Hill
#
# Bulk Modulus (GPa) = 40.11755 47.95341 44.03548
# Shear Modulus (GPa) = 22.03932 25.19574 23.61753
#
# Velocity S-wave (km/s) = 3.34606 3.57765 3.46379
# Velocity P-wave (km/s) = 5.94207 6.43637 6.19415
#
# Compressibility (1/GPa) = 0.02492675
#
# Stress axis : x y z
#
# Youngs Moduli (GPa) = 52.03952 54.08649 107.79370
#
# Poissons Ratio (x) = 0.18338 0.46178
# Poissons Ratio (y) = 0.17644 0.36146
# Poissons Ratio (z) = 0.22293 0.18137
#
# Static dielectric constant tensor:
#      x y z
#    x 3.473630 0.000000 0.085720 
#    y 0.000000 3.438170 0.000000 
#    z 0.085720 0.000000 3.676000 
# 
# 
# High freq. dielectric constant tensor:
#      x y z
#    x 1.755880 0.000000 0.006770 
#    y 0.000000 1.763950 0.000000 
#    z 0.006770 0.000000 1.777670 
# 
# From -- ./inp_files/50114.got.cif
#   From: 2010.06.25/outbox.cif.g09.slc.cpg/sg10_26_cif.got.tgz:50114.got - 2010.06.27 22:07:45.
