data_PCOD8063262
_publ_section_title
;
Structure prediction by ZEFSAII (Michael W. Deem and Ramdas Pophale) SiO2 
 PCOD8063262
Probable space group: P 2/M
;
_chemical_formula_sum "Si O2"
_cell_formula_units_Z 32
_cell_length_a 13.967690
_cell_length_b 9.453577
_cell_length_c 24.572999
_cell_angle_alpha 90.000000
_cell_angle_beta 149.337125
_cell_angle_gamma 90.000000
_cell_volume 1654.767134
_symmetry_space_group_name_H-M "P 2/M"
_symmetry_group_IT_number 10
_symmetry_cell_setting 'monoclinic'
loop_
_space_group_symop_operation_xyz
x,y,z
-x,y,-z
-x,-y,-z
x,-y,z
loop_
_atom_site_type_symbol
_atom_site_label
_atom_site_fract_x
_atom_site_fract_y
_atom_site_fract_z
Si Si1 0.517759 0.335739 0.170740
Si Si2 0.203313 0.834548 0.459411
Si Si3 0.470709 0.335521 0.422924
Si Si4 0.044221 0.335493 0.185590
Si Si5 0.438039 0.839785 0.911049
Si Si6 0.886315 0.333588 0.994954
Si Si7 0.933190 0.336182 0.406331
Si Si8 0.044943 0.843316 0.760060
O O1 0.521439 0.500000 0.158058
O O2 0.478507 0.255881 0.095370
O O3 0.336927 0.300002 0.120180
O O4 0.713191 0.290423 0.294797
O O5 0.402955 0.755622 0.557130
O O6 0.059614 0.761913 0.430436
O O7 0.137897 0.812823 0.365168
O O8 0.223114 0.000000 0.484416
O O9 0.500000 0.290407 0.500000
O O10 0.522222 0.500000 0.440603
O O11 0.261829 0.301752 0.301064
O O12 0.999929 0.500000 0.168108
O O13 0.927639 0.263506 0.176987
O O14 0.973486 0.272385 0.093587
O O15 0.213316 0.830685 0.799018
O O16 0.511196 0.000000 0.938556
O O17 0.500000 0.781316 0.000000
O O18 0.921942 0.500000 0.012457
O O19 0.000000 0.264734 0.000000
O O20 0.958078 0.500000 0.401111
O O21 0.000000 0.311090 0.500000
O O22 0.038501 0.000000 0.782485
#
# Coordination Sequence:
#
# PCOD8063262 Si02
#       8
#     4   4   4   4   4   4   4   4
#     4  10  20  35  58  85 110 142 185 232 278 326
#     4  11  22  36  56  81 111 150 188 228 281 336
#     4  10  20  34  53  80 113 148 186 229 280 336
#     4  10  20  34  56  82 108 145 187 229 277 329
#     4  10  20  34  53  79 113 152 186 221 275 335
#     4   9  19  36  57  82 110 141 182 230 276 322
#     4  10  22  39  59  84 114 149 189 234 283 335
#     4  10  20  33  51  78 112 146 179 222 277 332
#
# _framework density 19.338068
#
# number of rings (size 3 to 8) (size 9 to 14) (size 15 to 20)
#    0.000    2.000    2.500    1.125    0.000    3.250 
#    0.000    3.750    0.000    1.500    0.000    0.000 
#    0.000    0.000    0.000    0.000    0.000    0.000 
#
# Total GULP energy -396733.879812 kJ/mol
# GULP energy per Si atom -12397.933744 kJ/mol
# Density = 1.929405 g / cm^3
# Si number density = 19.338068 Si / 1000 Ang^3
#
#
#
# Elastic Constant Matrix: (Units=GPa)
#
#
# Indices 1 2 3 4 5 6 
#
# 1 126.0707 53.8052 44.3363 0.0000 3.7049 0.0000
# 2 53.8052 62.0502 29.0415 0.0000 0.9948 0.0000
# 3 44.3363 29.0415 86.9880 0.0000 1.2302 0.0000
# 4 0.0000 0.0000 0.0000 15.3819 0.0000 1.1405
# 5 3.7049 0.9948 1.2302 0.0000 24.2742 0.0000
# 6 0.0000 0.0000 0.0000 1.1405 0.0000 10.8170
#
#
#
# Elastic Compliance Matrix: (Units=1/GPa)
#
#
# Indices 1 2 3 4 5 6 
#
# 1 0.013490 -0.010034 -0.003505 0.000000 -0.001470 0.000000
# 2 -0.010034 0.026568 -0.003765 0.000000 0.000633 0.000000
# 3 -0.003505 -0.003765 0.014540 0.000000 -0.000048 0.000000
# 4 0.000000 0.000000 0.000000 0.065524 0.000000 -0.006908
# 5 -0.001470 0.000633 -0.000048 0.000000 0.041397 0.000000
# 6 0.000000 0.000000 0.000000 -0.006908 0.000000 0.093176
#
#
# Mechanical properties :
#
#
# Convention : Reuss Voigt Hill
#
# Bulk Modulus (GPa) = 50.02244 58.83053 54.42649
# Shear Modulus (GPa) = 16.89385 19.95634 18.42509
#
# Velocity S-wave (km/s) = 2.95889 3.21592 3.09008
# Velocity P-wave (km/s) = 6.13163 6.65415 6.39822
#
# Compressibility (1/GPa) = 0.01999103
#
# Stress axis : x y z
#
# Youngs Moduli (GPa) = 74.12845 37.63884 68.77578
#
# Poissons Ratio (x) = 0.37765 0.24107
# Poissons Ratio (y) = 0.74377 0.25894
# Poissons Ratio (z) = 0.25983 0.14171
#
# Static dielectric constant tensor:
#      x y z
#    x 3.486320 0.000000 0.120450 
#    y 0.000000 3.347850 0.000000 
#    z 0.120450 0.000000 3.718090 
# 
# 
# High freq. dielectric constant tensor:
#      x y z
#    x 1.746800 0.000000 0.013000 
#    y 0.000000 1.731680 0.000000 
#    z 0.013000 0.000000 1.761100 
# 
# From -- ./inp_files/66549.got.cif
#   From: 2010.06.25/outbox.cif.g09.slc.cpg/sg10_34_cif.got.tgz:66549.got - 2010.06.27 22:07:45.
