data_PCOD8063362
_publ_section_title
;
Structure prediction by ZEFSAII (Michael W. Deem and Ramdas Pophale) SiO2 
 PCOD8063362
Probable space group: P 2/M
;
_chemical_formula_sum "Si O2"
_cell_formula_units_Z 32
_cell_length_a 12.178974
_cell_length_b 9.329957
_cell_length_c 31.814733
_cell_angle_alpha 90.000000
_cell_angle_beta 151.541051
_cell_angle_gamma 90.000000
_cell_volume 1722.693251
_symmetry_space_group_name_H-M "P 2/M"
_symmetry_group_IT_number 10
_symmetry_cell_setting 'monoclinic'
loop_
_space_group_symop_operation_xyz
x,y,z
-x,y,-z
-x,-y,-z
x,-y,z
loop_
_atom_site_type_symbol
_atom_site_label
_atom_site_fract_x
_atom_site_fract_y
_atom_site_fract_z
Si Si1 0.135445 0.169797 0.820852
Si Si2 0.036809 0.169906 0.147709
Si Si3 0.733478 0.169625 0.524320
Si Si4 0.617569 0.831565 0.948393
Si Si5 0.217505 0.830157 0.365661
Si Si6 0.264569 0.667375 0.091278
Si Si7 0.563502 0.332746 0.759175
Si Si8 0.043583 0.667668 0.562631
O O1 0.049672 0.228980 0.836602
O O2 0.399895 0.215223 0.903332
O O3 0.977961 0.235302 0.730541
O O4 0.112382 0.000000 0.813056
O O5 0.278709 0.244154 0.219621
O O6 0.071360 0.000000 0.159656
O O7 0.848911 0.216707 0.049939
O O8 0.827422 0.221238 0.601592
O O9 0.466542 0.217160 0.432006
O O10 0.868064 0.248059 0.532833
O O11 0.762635 0.000000 0.528151
O O12 0.594424 0.752480 0.896320
O O13 0.615180 0.000000 0.938943
O O14 0.209676 0.000000 0.363341
O O15 0.289400 0.500000 0.090403
O O16 0.373454 0.711076 0.172263
O O17 0.000000 0.716613 0.000000
O O18 0.608547 0.500000 0.766396
O O19 0.301713 0.289337 0.662273
O O20 0.999186 0.500000 0.554196
O O21 0.000000 0.713566 0.500000
#
# Coordination Sequence:
#
# PCOD8063362 Si02
#       8
#     4   4   4   4   4   4   4   4
#     4   9  18  32  52  77 109 142 172 212 266 314
#     4  10  20  34  54  80 109 140 178 219 260 312
#     4   9  18  34  57  81 106 134 173 218 263 316
#     4  10  20  33  53  81 111 140 174 219 265 310
#     4   8  16  32  53  79 107 137 169 214 269 313
#     4  10  20  36  56  76 104 144 181 217 264 316
#     4  10  22  39  56  75 105 145 181 216 266 321
#     4  10  23  40  56  77 109 144 175 217 273 322
#
# _framework density 18.575564
#
# number of rings (size 3 to 8) (size 9 to 14) (size 15 to 20)
#    0.000    2.500    1.250    1.125    3.500    3.000 
#    0.000    1.875    0.000    3.000    0.000    0.000 
#    0.000    0.000    0.000    0.000    0.000    0.000 
#
# Total GULP energy -396821.130754 kJ/mol
# GULP energy per Si atom -12400.660336 kJ/mol
# Density = 1.853329 g / cm^3
# Si number density = 18.575564 Si / 1000 Ang^3
#
#
#
# Elastic Constant Matrix: (Units=GPa)
#
#
# Indices 1 2 3 4 5 6 
#
# 1 157.2377 45.9934 52.4112 0.0000 -0.7080 0.0000
# 2 45.9934 30.4504 24.1623 0.0000 1.6830 0.0000
# 3 52.4112 24.1623 107.7738 0.0000 -4.8798 0.0000
# 4 0.0000 0.0000 0.0000 13.0879 0.0000 -4.6003
# 5 -0.7080 1.6830 -4.8798 0.0000 27.7933 0.0000
# 6 0.0000 0.0000 0.0000 -4.6003 0.0000 -12.1905
#
#
#
# Elastic Compliance Matrix: (Units=1/GPa)
#
#
# Indices 1 2 3 4 5 6 
#
# 1 0.011801 -0.016244 -0.002055 0.000000 0.000923 0.000000
# 2 -0.016244 0.062760 -0.006412 0.000000 -0.005340 0.000000
# 3 -0.002055 -0.006412 0.011825 0.000000 0.002412 0.000000
# 4 0.000000 0.000000 0.000000 0.067459 0.000000 -0.025457
# 5 0.000923 -0.005340 0.002412 0.000000 0.036750 0.000000
# 6 0.000000 0.000000 0.000000 -0.025457 0.000000 -0.072424
#
#
# Mechanical properties :
#
#
# Convention : Reuss Voigt Hill
#
# Bulk Modulus (GPa) = 27.05504 60.06617 43.56060
# Shear Modulus (GPa) = 27.79105 17.26447 22.52776
#
# Velocity S-wave (km/s) = 3.87215 3.05194 3.48625
# Velocity P-wave (km/s) = 5.88115 6.69518 6.30132
#
# Compressibility (1/GPa) = 0.03696169
#
# Stress axis : x y z
#
# Youngs Moduli (GPa) = 84.74177 15.93375 84.56733
#
# Poissons Ratio (x) = 0.25883 0.17378
# Poissons Ratio (y) = 1.37658 0.54228
# Poissons Ratio (z) = 0.17414 0.10217
#
# Static dielectric constant tensor:
#      x y z
#    x 3.444540 0.000000 -0.109100 
#    y 0.000000 3.020220 0.000000 
#    z -0.109100 0.000000 3.717370 
# 
# 
# High freq. dielectric constant tensor:
#      x y z
#    x 1.731460 0.000000 -0.002950 
#    y 0.000000 1.683080 0.000000 
#    z -0.002950 0.000000 1.732090 
# 
# From -- ./inp_files/95076.got.cif
#   From: 2010.06.25/outbox.cif.g09.slc.cpg/sg10_48_cif.got.tgz:95076.got - 2010.06.27 22:07:45.
