data_PCOD8063467
_publ_section_title
;
Structure prediction by ZEFSAII (Michael W. Deem and Ramdas Pophale) SiO2 
 PCOD8063467
Probable space group: P 2/M
;
_chemical_formula_sum "Si O2"
_cell_formula_units_Z 18
_cell_length_a 5.270015
_cell_length_b 12.876180
_cell_length_c 16.815262
_cell_angle_alpha 90.000000
_cell_angle_beta 124.300423
_cell_angle_gamma 90.000000
_cell_volume 942.610053
_symmetry_space_group_name_H-M "P 2/M"
_symmetry_group_IT_number 10
_symmetry_cell_setting 'monoclinic'
loop_
_space_group_symop_operation_xyz
x,y,z
-x,y,-z
-x,-y,-z
x,-y,z
loop_
_atom_site_type_symbol
_atom_site_label
_atom_site_fract_x
_atom_site_fract_y
_atom_site_fract_z
Si Si1 0.500000 0.273004 0.500000
Si Si2 0.360631 0.120278 0.060466
Si Si3 0.683117 0.806838 0.266759
Si Si4 0.625541 0.116580 0.640293
Si Si5 0.925427 0.382063 0.393666
O O1 0.393505 0.193963 0.551668
O O2 0.748470 0.348357 0.585632
O O3 0.525689 0.195649 0.152797
O O4 0.433656 0.000000 0.093574
O O5 0.500000 0.150168 0.000000
O O6 0.000000 0.142422 0.000000
O O7 0.465283 0.878953 0.283013
O O8 0.676257 0.692605 0.307806
O O9 0.024724 0.851297 0.317376
O O10 0.577247 0.000000 0.601402
O O11 0.833694 0.500000 0.358013
O O12 0.000000 0.363986 0.500000
#
# Coordination Sequence:
#
# PCOD8063467 Si02
#       5
#     2   4   4   4   4
#     4  10  20  34  50  80 110 150 188 226 262 332
#     4  10  20  35  57  81 108 143 181 224 276 332
#     4  11  22  37  56  84 112 147 190 228 275 330
#     4  11  21  33  52  78 116 151 180 221 270 329
#     4  10  20  37  57  79 110 148 192 235 274 322
#
# _framework density 19.095914
#
# number of rings (size 3 to 8) (size 9 to 14) (size 15 to 20)
#    0.000    1.556    2.222    4.000    0.000    1.778 
#    0.000    3.333    0.000    1.333    0.000    0.000 
#    0.000    0.000    0.000    0.000    0.000    0.000 
#
# Total GULP energy -222994.950731 kJ/mol
# GULP energy per Si atom -12388.608374 kJ/mol
# Density = 1.905245 g / cm^3
# Si number density = 19.095914 Si / 1000 Ang^3
#
#
#
# Elastic Constant Matrix: (Units=GPa)
#
#
# Indices 1 2 3 4 5 6 
#
# 1 108.5327 33.2170 27.6931 0.0000 -11.6357 0.0000
# 2 33.2170 127.4735 59.3435 0.0000 -4.0250 0.0000
# 3 27.6931 59.3435 111.6023 0.0000 -15.1144 0.0000
# 4 0.0000 0.0000 0.0000 25.7547 0.0000 -1.7454
# 5 -11.6357 -4.0250 -15.1144 0.0000 28.8086 0.0000
# 6 0.0000 0.0000 0.0000 -1.7454 0.0000 12.2873
#
#
#
# Elastic Compliance Matrix: (Units=1/GPa)
#
#
# Indices 1 2 3 4 5 6 
#
# 1 0.010496 -0.002166 -0.000990 0.000000 0.003417 0.000000
# 2 -0.002166 0.010938 -0.005587 0.000000 -0.002278 0.000000
# 3 -0.000990 -0.005587 0.012936 0.000000 0.005607 0.000000
# 4 0.000000 0.000000 0.000000 0.039205 0.000000 0.005569
# 5 0.003417 -0.002278 0.005607 0.000000 0.038715 0.000000
# 6 0.000000 0.000000 0.000000 0.005569 0.000000 0.082176
#
#
# Mechanical properties :
#
#
# Convention : Reuss Voigt Hill
#
# Bulk Modulus (GPa) = 59.22879 65.34620 62.28749
# Shear Modulus (GPa) = 22.97984 28.52710 25.75347
#
# Velocity S-wave (km/s) = 3.47275 3.86927 3.67636
# Velocity P-wave (km/s) = 6.86759 7.36587 7.12109
#
# Compressibility (1/GPa) = 0.01688368
#
# Stress axis : x y z
#
# Youngs Moduli (GPa) = 95.27692 91.42033 77.30162
#
# Poissons Ratio (x) = 0.19805 0.07650
# Poissons Ratio (y) = 0.20640 0.43192
# Poissons Ratio (z) = 0.09429 0.51080
#
# Static dielectric constant tensor:
#      x y z
#    x 3.629500 0.000000 -0.085820 
#    y 0.000000 3.399940 0.000000 
#    z -0.085820 0.000000 3.395070 
# 
# 
# High freq. dielectric constant tensor:
#      x y z
#    x 1.755240 0.000000 -0.008770 
#    y 0.000000 1.726040 0.000000 
#    z -0.008770 0.000000 1.721700 
# 
# From -- ./inp_files/6557.got.cif
#   From: 2010.06.25/outbox.cif.g09.slc.cpg/sg10_4_cif.got.tgz:6557.got - 2010.06.27 22:07:45.
