data_PCOD8063828
_publ_section_title
;
Structure prediction by ZEFSAII (Michael W. Deem and Ramdas Pophale) SiO2 
 PCOD8063828
Probable space group: P 2/M
;
_chemical_formula_sum "Si O2"
_cell_formula_units_Z 32
_cell_length_a 13.057832
_cell_length_b 8.876777
_cell_length_c 18.089814
_cell_angle_alpha 90.000000
_cell_angle_beta 128.822013
_cell_angle_gamma 90.000000
_cell_volume 1633.624029
_symmetry_space_group_name_H-M "P 2/M"
_symmetry_group_IT_number 10
_symmetry_cell_setting 'monoclinic'
loop_
_space_group_symop_operation_xyz
x,y,z
-x,y,-z
-x,-y,-z
x,-y,z
loop_
_atom_site_type_symbol
_atom_site_label
_atom_site_fract_x
_atom_site_fract_y
_atom_site_fract_z
Si Si1 0.014513 0.670495 0.680868
Si Si2 0.489080 0.823820 0.663552
Si Si3 0.699128 0.327051 0.170126
Si Si4 0.959529 0.827396 0.802292
Si Si5 0.702841 0.672920 0.666738
Si Si6 0.248080 0.823499 0.961337
Si Si7 0.743731 0.669685 0.511666
Si Si8 0.543367 0.678491 0.842916
O O1 0.994495 0.500000 0.705077
O O2 0.164752 0.687006 0.720583
O O3 0.994237 0.796867 0.733060
O O4 0.900969 0.694064 0.567296
O O5 0.579197 0.770736 0.636425
O O6 0.338300 0.782970 0.576223
O O7 0.537213 0.741178 0.758202
O O8 0.501321 0.000000 0.681223
O O9 0.671626 0.500000 0.136112
O O10 0.705438 0.235065 0.097327
O O11 0.582536 0.262590 0.167843
O O12 0.093457 0.790895 0.907677
O O13 0.835256 0.725581 0.770061
O O14 0.917591 0.000000 0.793249
O O15 0.675563 0.500000 0.673755
O O16 0.718976 0.700530 0.587022
O O17 0.278364 0.000000 0.978097
O O18 0.324412 0.738272 0.060176
O O19 0.700832 0.500000 0.471535
O O20 0.546112 0.500000 0.840733
#
# Coordination Sequence:
#
# PCOD8063828 Si02
#       8
#     4   4   4   4   4   4   4   4
#     4   8  15  30  53  80 108 136 171 217 263 308
#     4  12  25  38  53  75 107 143 178 220 268 318
#     4   9  18  34  57  83 107 138 181 222 262 310
#     4   9  17  30  51  81 112 138 168 211 262 313
#     4  10  20  36  59  83 107 137 175 218 261 311
#     4  10  20  34  55  83 113 142 173 215 266 317
#     4   9  18  34  57  82 107 137 173 214 261 314
#     4  11  23  38  55  75 105 144 185 226 263 309
#
# _framework density 19.588350999999999
#
# number of rings (size 3 to 8) (size 9 to 14) (size 15 to 20)
#    0.000    2.250    0.000    4.125    0.000    8.000 
#    0.000    1.250    0.000    7.500    0.000    0.000 
#    0.000    0.000    0.000    0.000    0.000    0.000 
#
# Total GULP energy -396670.514659 kJ/mol
# GULP energy per Si atom -12395.953583 kJ/mol
# Density = 1.954377 g / cm^3
# Si number density = 19.588351 Si / 1000 Ang^3
#
#
#
# Elastic Constant Matrix: (Units=GPa)
#
#
# Indices 1 2 3 4 5 6 
#
# 1 20.3494 16.0152 25.2576 0.0000 9.1716 0.0000
# 2 16.0152 79.5774 49.0744 0.0000 4.9636 0.0000
# 3 25.2576 49.0744 97.2342 0.0000 23.6378 0.0000
# 4 0.0000 0.0000 0.0000 26.2989 0.0000 4.2715
# 5 9.1716 4.9636 23.6378 0.0000 26.4281 0.0000
# 6 0.0000 0.0000 0.0000 4.2715 0.0000 22.6312
#
#
#
# Elastic Compliance Matrix: (Units=1/GPa)
#
#
# Indices 1 2 3 4 5 6 
#
# 1 0.076961 -0.006291 -0.013559 0.000000 -0.013400 0.000000
# 2 -0.006291 0.019575 -0.010073 0.000000 0.007516 0.000000
# 3 -0.013559 -0.010073 0.022089 0.000000 -0.013160 0.000000
# 4 0.000000 0.000000 0.000000 0.039227 0.000000 -0.007404
# 5 -0.013400 0.007516 -0.013160 0.000000 0.052848 0.000000
# 6 0.000000 0.000000 0.000000 -0.007404 0.000000 0.045584
#
#
# Mechanical properties :
#
#
# Convention : Reuss Voigt Hill
#
# Bulk Modulus (GPa) = 17.01240 41.98394 29.49817
# Shear Modulus (GPa) = 14.89318 22.19256 18.54287
#
# Velocity S-wave (km/s) = 2.76036 3.36958 3.08007
# Velocity P-wave (km/s) = 4.34319 6.05131 5.26696
#
# Compressibility (1/GPa) = 0.05878065
#
# Stress axis : x y z
#
# Youngs Moduli (GPa) = 12.99353 51.08441 45.27054
#
# Poissons Ratio (x) = 0.32139 0.61381
# Poissons Ratio (y) = 0.08175 0.45600
# Poissons Ratio (z) = 0.17618 0.51456
#
# Static dielectric constant tensor:
#      x y z
#    x 3.475020 0.000000 0.492040 
#    y 0.000000 3.560200 0.000000 
#    z 0.492040 0.000000 3.768630 
# 
# 
# High freq. dielectric constant tensor:
#      x y z
#    x 1.736720 0.000000 0.036720 
#    y 0.000000 1.764820 0.000000 
#    z 0.036720 0.000000 1.765040 
# 
# From -- ./inp_files/84750.got.cif
#   From: 2010.06.25/outbox.cif.g09.slc.cpg/sg10_43_cif.got.tgz:84750.got - 2010.06.27 22:07:45.
