data_PCOD8063682
_publ_section_title
;
Structure prediction by ZEFSAII (Michael W. Deem and Ramdas Pophale) SiO2 
 PCOD8063682
Probable space group: P 2/M
;
_chemical_formula_sum "Si O2"
_cell_formula_units_Z 28
_cell_length_a 18.390644
_cell_length_b 8.760105
_cell_length_c 15.360235
_cell_angle_alpha 90.000000
_cell_angle_beta 144.272516
_cell_angle_gamma 90.000000
_cell_volume 1444.991892
_symmetry_space_group_name_H-M "P 2/M"
_symmetry_group_IT_number 10
_symmetry_cell_setting 'monoclinic'
loop_
_space_group_symop_operation_xyz
x,y,z
-x,y,-z
-x,-y,-z
x,-y,z
loop_
_atom_site_type_symbol
_atom_site_label
_atom_site_fract_x
_atom_site_fract_y
_atom_site_fract_z
Si Si1 0.133730 0.820328 0.669767
Si Si2 0.480290 0.178871 0.212130
Si Si3 0.828375 0.681470 0.769329
Si Si4 0.910388 0.318574 0.034230
Si Si5 0.389116 0.180032 0.831338
Si Si6 0.440219 0.681029 0.531978
Si Si7 0.224949 0.319469 0.927043
O O1 0.250425 0.763943 0.723420
O O2 0.137705 0.725296 0.762298
O O3 0.000000 0.778288 0.500000
O O4 0.143876 0.000000 0.698486
O O5 0.588745 0.225342 0.248723
O O6 0.491375 0.258497 0.316231
O O7 0.477457 0.000000 0.225549
O O8 0.354531 0.232336 0.043145
O O9 0.826451 0.500000 0.770018
O O10 0.701710 0.742212 0.603032
O O11 0.946448 0.740607 0.828661
O O12 0.838511 0.740876 0.878614
O O13 0.910702 0.500000 0.036350
O O14 0.842354 0.253913 0.052425
O O15 0.395977 0.000000 0.848175
O O16 0.500000 0.250640 0.000000
O O17 0.500000 0.742136 0.500000
O O18 0.450004 0.500000 0.543908
O O19 0.246878 0.500000 0.952745
#
# Coordination Sequence:
#
# PCOD8063682 Si02
#       7
#     4   4   4   4   4   4   4
#     4  10  21  38  59  81 107 143 183 222 271 332
#     4  11  22  36  57  80 105 144 189 227 270 326
#     4   8  14  28  49  72 102 141 178 209 256 323
#     4   8  15  28  49  75 102 137 176 214 261 319
#     4   9  17  35  59  78 104 142 184 226 270 324
#     4  10  20  34  53  80 114 145 177 223 273 321
#     4  11  21  34  54  81 110 136 175 227 278 325
#
# _framework density 19.377271
#
# number of rings (size 3 to 8) (size 9 to 14) (size 15 to 20)
#    0.000    2.429    1.429    2.571    0.000    4.000 
#    0.000    2.143    0.000    0.857    0.000    6.000 
#    0.000    0.000    0.000    0.000    0.000    0.000 
#
# Total GULP energy -347062.420460 kJ/mol
# GULP energy per Si atom -12395.086445 kJ/mol
# Density = 1.933317 g / cm^3
# Si number density = 19.377271 Si / 1000 Ang^3
#
#
#
# Elastic Constant Matrix: (Units=GPa)
#
#
# Indices 1 2 3 4 5 6 
#
# 1 134.4537 22.9637 51.4788 0.0000 0.0894 0.0000
# 2 22.9637 16.6173 10.4040 0.0000 -2.0945 0.0000
# 3 51.4788 10.4040 109.9121 0.0000 6.3951 0.0000
# 4 0.0000 0.0000 0.0000 22.8723 0.0000 -5.0855
# 5 0.0894 -2.0945 6.3951 0.0000 34.1219 0.0000
# 6 0.0000 0.0000 0.0000 -5.0855 0.0000 18.9951
#
#
#
# Elastic Compliance Matrix: (Units=1/GPa)
#
#
# Indices 1 2 3 4 5 6 
#
# 1 0.011185 -0.012957 -0.004008 0.000000 -0.000073 0.000000
# 2 -0.012957 0.079874 -0.001799 0.000000 0.005274 0.000000
# 3 -0.004008 -0.001799 0.011274 0.000000 -0.002213 0.000000
# 4 0.000000 0.000000 0.000000 0.046488 0.000000 0.012446
# 5 -0.000073 0.005274 -0.002213 0.000000 0.030045 0.000000
# 6 0.000000 0.000000 0.000000 0.012446 0.000000 0.055977
#
#
# Mechanical properties :
#
#
# Convention : Reuss Voigt Hill
#
# Bulk Modulus (GPa) = 15.43061 47.85289 31.64175
# Shear Modulus (GPa) = 17.00830 26.94030 21.97430
#
# Velocity S-wave (km/s) = 2.96589 3.73272 3.37118
# Velocity P-wave (km/s) = 4.43951 6.58230 5.61408
#
# Compressibility (1/GPa) = 0.06480625
#
# Stress axis : x y z
#
# Youngs Moduli (GPa) = 89.40581 12.51968 88.69644
#
# Poissons Ratio (x) = 0.16221 0.35549
# Poissons Ratio (y) = 1.15839 0.15959
# Poissons Ratio (z) = 0.35833 0.02253
#
# Static dielectric constant tensor:
#      x y z
#    x 3.923870 0.000000 0.155360 
#    y 0.000000 3.018560 0.000000 
#    z 0.155360 0.000000 3.625620 
# 
# 
# High freq. dielectric constant tensor:
#      x y z
#    x 1.770200 0.000000 0.004020 
#    y 0.000000 1.705920 0.000000 
#    z 0.004020 0.000000 1.755560 
# 
# From -- ./inp_files/68707.got.cif
#   From: 2010.06.25/outbox.cif.g09.slc.cpg/sg10_35_cif.got.tgz:68707.got - 2010.06.27 22:07:45.
