data_PCOD8063347
_publ_section_title
;
Structure prediction by ZEFSAII (Michael W. Deem and Ramdas Pophale) SiO2 
 PCOD8063347
Probable space group: P 2/M
;
_chemical_formula_sum "Si O2"
_cell_formula_units_Z 32
_cell_length_a 15.663538
_cell_length_b 8.615139
_cell_length_c 25.301848
_cell_angle_alpha 90.000000
_cell_angle_beta 29.981297
_cell_angle_gamma 90.000000
_cell_volume 1706.195380
_symmetry_space_group_name_H-M "P 2/M"
_symmetry_group_IT_number 10
_symmetry_cell_setting 'monoclinic'
loop_
_space_group_symop_operation_xyz
x,y,z
-x,y,-z
-x,-y,-z
x,-y,z
loop_
_atom_site_type_symbol
_atom_site_label
_atom_site_fract_x
_atom_site_fract_y
_atom_site_fract_z
Si Si1 0.359612 0.180498 0.141310
Si Si2 0.606578 0.817011 0.394932
Si Si3 0.151145 0.320920 0.346041
Si Si4 0.894086 0.680270 0.108460
Si Si5 0.232296 0.679081 0.421451
Si Si6 0.544450 0.181341 0.311859
Si Si7 0.712915 0.319159 0.928781
Si Si8 0.984000 0.181023 0.169408
O O1 0.238627 0.213884 0.255667
O O2 0.263883 0.228307 0.138748
O O3 0.402764 0.000000 0.116241
O O4 0.537048 0.272678 0.051979
O O5 0.500000 0.738557 0.500000
O O6 0.529350 0.759401 0.380557
O O7 0.805663 0.771135 0.292902
O O8 0.587162 0.000000 0.408459
O O9 0.177311 0.500000 0.316633
O O10 0.235651 0.285820 0.357324
O O11 0.951237 0.279811 0.455569
O O12 0.907399 0.500000 0.116222
O O13 0.698123 0.725838 0.201673
O O14 0.972287 0.781595 0.113781
O O15 0.000000 0.721756 0.000000
O O16 0.277076 0.500000 0.407961
O O17 0.369094 0.788166 0.375885
O O18 0.588938 0.000000 0.286352
O O19 0.709239 0.500000 0.917934
O O20 0.868339 0.281849 0.883844
O O21 0.024632 0.000000 0.154977
#
# Coordination Sequence:
#
# PCOD8063347 Si02
#       8
#     4   4   4   4   4   4   4   4
#     4  11  22  37  57  82 110 140 178 226 274 318
#     4   8  16  32  52  75 105 138 170 208 258 312
#     4   9  19  37  57  79 108 144 182 220 269 323
#     4  10  21  37  56  77 104 142 184 223 268 323
#     4   9  19  36  57  78 107 145 182 222 266 321
#     4  10  20  33  53  80 108 139 176 223 274 319
#     4  11  22  38  58  79 108 145 182 221 267 324
#     4  10  20  35  56  82 110 139 175 222 271 316
#
# _framework density 18.755178999999998
#
# number of rings (size 3 to 8) (size 9 to 14) (size 15 to 20)
#    0.000    2.250    0.000    5.625    0.000    4.000 
#    0.000    3.750    0.000   12.750    0.000    0.000 
#    0.000    0.000    0.000    0.000    0.000    0.000 
#
# Total GULP energy -396865.360490 kJ/mol
# GULP energy per Si atom -12402.042515 kJ/mol
# Density = 1.871249 g / cm^3
# Si number density = 18.755179 Si / 1000 Ang^3
#
#
#
# Elastic Constant Matrix: (Units=GPa)
#
#
# Indices 1 2 3 4 5 6 
#
# 1 91.8963 23.2524 58.8345 0.0000 -12.3250 0.0000
# 2 23.2524 57.0466 30.2714 0.0000 4.1394 0.0000
# 3 58.8345 30.2714 120.8853 0.0000 15.2298 0.0000
# 4 0.0000 0.0000 0.0000 27.9519 0.0000 -2.9277
# 5 -12.3250 4.1394 15.2298 0.0000 30.8797 0.0000
# 6 0.0000 0.0000 0.0000 -2.9277 0.0000 32.7457
#
#
#
# Elastic Compliance Matrix: (Units=1/GPa)
#
#
# Indices 1 2 3 4 5 6 
#
# 1 0.020719 -0.003662 -0.010951 0.000000 0.014161 0.000000
# 2 -0.003662 0.020864 -0.003099 0.000000 -0.002730 0.000000
# 3 -0.010951 -0.003099 0.015862 0.000000 -0.011778 0.000000
# 4 0.000000 0.000000 0.000000 0.036114 0.000000 0.003229
# 5 0.014161 -0.002730 -0.011778 0.000000 0.044211 0.000000
# 6 0.000000 0.000000 0.000000 0.003229 0.000000 0.030827
#
#
# Mechanical properties :
#
#
# Convention : Reuss Voigt Hill
#
# Bulk Modulus (GPa) = 45.40781 54.94942 50.17862
# Shear Modulus (GPa) = 23.65632 28.81347 26.23490
#
# Velocity S-wave (km/s) = 3.55536 3.92381 3.74412
# Velocity P-wave (km/s) = 6.41229 7.06330 6.74566
#
# Compressibility (1/GPa) = 0.02202264
#
# Stress axis : x y z
#
# Youngs Moduli (GPa) = 48.26575 47.92850 63.04393
#
# Poissons Ratio (x) = 0.17549 0.69039
# Poissons Ratio (y) = 0.17673 0.19536
# Poissons Ratio (z) = 0.52855 0.14852
#
# Static dielectric constant tensor:
#      x y z
#    x 3.398440 0.000000 0.068700 
#    y 0.000000 3.330370 0.000000 
#    z 0.068700 0.000000 3.544080 
# 
# 
# High freq. dielectric constant tensor:
#      x y z
#    x 1.728280 0.000000 -0.000130 
#    y 0.000000 1.724950 0.000000 
#    z -0.000130 0.000000 1.731480 
# 
# From -- ./inp_files/89481.got.cif
#   From: 2010.06.25/outbox.cif.g09.slc.cpg/sg10_45_cif.got.tgz:89481.got - 2010.06.27 22:07:45.
