data_PCOD8063874
_publ_section_title
;
Structure prediction by ZEFSAII (Michael W. Deem and Ramdas Pophale) SiO2 
 PCOD8063874
Probable space group: P 2/M
;
_chemical_formula_sum "Si O2"
_cell_formula_units_Z 32
_cell_length_a 29.852704
_cell_length_b 9.536295
_cell_length_c 5.393825
_cell_angle_alpha 90.000000
_cell_angle_beta 79.647837
_cell_angle_gamma 90.000000
_cell_volume 1510.541008
_symmetry_space_group_name_H-M "P 2/M"
_symmetry_group_IT_number 10
_symmetry_cell_setting 'monoclinic'
loop_
_space_group_symop_operation_xyz
x,y,z
-x,y,-z
-x,-y,-z
x,-y,z
loop_
_atom_site_type_symbol
_atom_site_label
_atom_site_fract_x
_atom_site_fract_y
_atom_site_fract_z
Si Si1 0.972442 0.161893 0.778695
Si Si2 0.372458 0.167169 0.892737
Si Si3 0.808325 0.347216 0.995656
Si Si4 0.852549 0.845960 0.350004
Si Si5 0.762241 0.848074 0.722922
Si Si6 0.475950 0.833123 0.773897
Si Si7 0.673173 0.162820 0.559183
Si Si8 0.900135 0.654576 0.632998
O O1 0.928756 0.265104 0.817993
O O2 0.000000 0.196158 0.500000
O O3 0.956670 0.000000 0.796341
O O4 0.000000 0.198569 0.000000
O O5 0.424152 0.220478 0.824079
O O6 0.345154 0.229322 0.679965
O O7 0.370058 0.000000 0.895879
O O8 0.350698 0.226597 0.169718
O O9 0.795362 0.500000 0.122747
O O10 0.826752 0.238009 0.169629
O O11 0.762770 0.278471 0.921141
O O12 0.848284 0.371758 0.759193
O O13 0.814615 0.868431 0.596701
O O14 0.897093 0.759159 0.398409
O O15 0.869758 0.000000 0.242397
O O16 0.727718 0.809839 0.532970
O O17 0.745988 0.000000 0.853049
O O18 0.500000 0.774949 0.500000
O O19 0.478249 0.000000 0.771836
O O20 0.500000 0.775001 0.000000
O O21 0.661012 0.000000 0.559504
O O22 0.921426 0.500000 0.549360
#
# Coordination Sequence:
#
# PCOD8063874 Si02
#       8
#     4   4   4   4   4   4   4   4
#     4  10  23  42  63  90 121 154 192 233 280 336
#     4   9  16  25  37  57  84 120 163 215 267 310
#     4  10  21  36  55  80 110 142 179 225 274 326
#     4  10  20  34  56  81 107 140 182 228 275 324
#     4   9  19  33  50  74 100 135 179 225 269 318
#     4   9  15  22  33  49  75 113 161 210 255 310
#     4   9  17  27  42  62  90 121 163 216 264 312
#     4  10  22  39  58  83 114 147 186 230 279 331
#
# _framework density 21.184463000000001
#
# number of rings (size 3 to 8) (size 9 to 14) (size 15 to 20)
#    0.000    2.500    0.000    1.875    3.500    5.500 
#    0.000    0.000    0.000    0.000    0.000    0.000 
#    0.000    0.000    0.000    0.000    0.000   12.500 
#
# Total GULP energy -396430.215965 kJ/mol
# GULP energy per Si atom -12388.444249 kJ/mol
# Density = 2.113625 g / cm^3
# Si number density = 21.184463 Si / 1000 Ang^3
#
#
#
# Elastic Constant Matrix: (Units=GPa)
#
#
# Indices 1 2 3 4 5 6 
#
# 1 95.3798 28.5063 29.6236 0.0000 34.9350 0.0000
# 2 28.5063 119.9736 27.0611 0.0000 31.9982 0.0000
# 3 29.6236 27.0611 113.1116 0.0000 33.2128 0.0000
# 4 0.0000 0.0000 0.0000 -34.9009 0.0000 -97.4469
# 5 34.9350 31.9982 33.2128 0.0000 43.9180 0.0000
# 6 0.0000 0.0000 0.0000 -97.4469 0.0000 -213.4019
#
#
#
# Elastic Compliance Matrix: (Units=1/GPa)
#
#
# Indices 1 2 3 4 5 6 
#
# 1 0.014840 -0.000453 -0.000526 0.000000 -0.011077 0.000000
# 2 -0.000453 0.010369 -0.000321 0.000000 -0.006952 0.000000
# 3 -0.000526 -0.000321 0.011394 0.000000 -0.007965 0.000000
# 4 0.000000 0.000000 0.000000 0.104201 0.000000 -0.047582
# 5 -0.011077 -0.006952 -0.007965 0.000000 0.042670 0.000000
# 6 0.000000 0.000000 0.000000 -0.047582 0.000000 0.017042
#
#
# Mechanical properties :
#
#
# Convention : Reuss Voigt Hill
#
# Bulk Modulus (GPa) = 29.40800 55.42743 42.41771
# Shear Modulus (GPa) = 23.31541 -24.65871 -0.67165
#
# Velocity S-wave (km/s) = 3.32111 -3.41545 -0.56368
# Velocity P-wave (km/s) = 5.34962 3.26608 4.43203
#
# Compressibility (1/GPa) = 0.03400436
#
# Stress axis : x y z
#
# Youngs Moduli (GPa) = 67.38373 96.43808 87.76612
#
# Poissons Ratio (x) = 0.04370 0.04613
# Poissons Ratio (y) = 0.03054 0.02816
# Poissons Ratio (z) = 0.03542 0.03094
#
# Static dielectric constant tensor:
#      x y z
#    x 3.961740 0.000000 0.039110 
#    y 0.000000 3.895980 0.000000 
#    z 0.039110 0.000000 3.960050 
# 
# 
# High freq. dielectric constant tensor:
#      x y z
#    x 1.825780 0.000000 0.017560 
#    y 0.000000 1.780860 0.000000 
#    z 0.017560 0.000000 1.827170 
# 
# From -- ./inp_files/13641.got.cif
#   From: 2010.06.25/outbox.cif.g09.slc.cpg/sg10_7_cif.got.tgz:13641.got - 2010.06.27 22:07:45.
