data_PCOD8063920
_publ_section_title
;
Structure prediction by ZEFSAII (Michael W. Deem and Ramdas Pophale) SiO2 
 PCOD8063920
Probable space group: P 2/M
;
_chemical_formula_sum "Si O2"
_cell_formula_units_Z 28
_cell_length_a 9.461833
_cell_length_b 8.825094
_cell_length_c 29.913259
_cell_angle_alpha 90.000000
_cell_angle_beta 33.176803
_cell_angle_gamma 90.000000
_cell_volume 1366.859280
_symmetry_space_group_name_H-M "P 2/M"
_symmetry_group_IT_number 10
_symmetry_cell_setting 'monoclinic'
loop_
_space_group_symop_operation_xyz
x,y,z
-x,y,-z
-x,-y,-z
x,-y,z
loop_
_atom_site_type_symbol
_atom_site_label
_atom_site_fract_x
_atom_site_fract_y
_atom_site_fract_z
Si Si1 0.760691 0.680401 0.336560
Si Si2 0.463594 0.325783 0.940962
Si Si3 0.799054 0.178483 0.514417
Si Si4 0.714764 0.830792 0.095010
Si Si5 0.024615 0.178124 0.183315
Si Si6 0.806566 0.331687 0.422044
Si Si7 0.900734 0.675821 0.129261
O O1 0.747209 0.500000 0.336692
O O2 0.473510 0.742573 0.404017
O O3 0.884910 0.729226 0.351834
O O4 0.951323 0.748281 0.249607
O O5 0.549239 0.500000 0.921995
O O6 0.451936 0.278699 0.892168
O O7 0.680563 0.222343 0.906626
O O8 0.195723 0.297159 0.036728
O O9 0.903283 0.226483 0.437399
O O10 0.000000 0.228065 0.500000
O O11 0.756884 0.000000 0.526140
O O12 0.710242 0.758552 0.145298
O O13 0.595291 0.000000 0.128053
O O14 0.000000 0.838128 0.000000
O O15 0.846863 0.247942 0.191332
O O16 0.985734 0.000000 0.195200
O O17 0.500000 0.338891 0.500000
O O18 0.918430 0.500000 0.401205
O O19 0.829818 0.500000 0.149670
#
# Coordination Sequence:
#
# PCOD8063920 Si02
#       7
#     4   4   4   4   4   4   4
#     4  10  21  38  57  78 107 142 182 222 265 321
#     4  10  20  35  55  78 105 141 186 229 272 329
#     4  10  20  34  56  87 117 142 172 212 258 312
#     4   9  17  31  52  77 103 131 169 220 272 319
#     4  12  24  36  53  78 109 143 181 229 282 328
#     4   8  16  32  55  80 104 135 173 210 250 303
#     4  10  20  35  55  78 106 143 185 228 276 329
#
# _framework density 20.484919000000001
#
# number of rings (size 3 to 8) (size 9 to 14) (size 15 to 20)
#    0.000    2.143    0.000    4.714    0.000    9.429 
#    0.000    1.429    0.000    3.429    0.000    0.000 
#    0.000    0.000    0.000    0.000    0.000    0.000 
#
# Total GULP energy -347130.332958 kJ/mol
# GULP energy per Si atom -12397.511891 kJ/mol
# Density = 2.043829 g / cm^3
# Si number density = 20.484919 Si / 1000 Ang^3
#
#
#
# Elastic Constant Matrix: (Units=GPa)
#
#
# Indices 1 2 3 4 5 6 
#
# 1 105.2901 43.8839 19.3778 0.0000 33.7725 0.0000
# 2 43.8839 109.0869 29.0405 0.0000 18.3552 0.0000
# 3 19.3778 29.0405 41.3479 0.0000 23.2743 0.0000
# 4 0.0000 0.0000 0.0000 26.4421 0.0000 3.6211
# 5 33.7725 18.3552 23.2743 0.0000 35.4238 0.0000
# 6 0.0000 0.0000 0.0000 3.6211 0.0000 36.8285
#
#
#
# Elastic Compliance Matrix: (Units=1/GPa)
#
#
# Indices 1 2 3 4 5 6 
#
# 1 0.015676 -0.004997 0.004948 0.000000 -0.015607 0.000000
# 2 -0.004997 0.012891 -0.008940 0.000000 0.003959 0.000000
# 3 0.004948 -0.008940 0.044739 0.000000 -0.029480 0.000000
# 4 0.000000 0.000000 0.000000 0.038335 0.000000 -0.003769
# 5 -0.015607 0.003959 -0.029480 0.000000 0.060426 0.000000
# 6 0.000000 0.000000 0.000000 -0.003769 0.000000 0.027523
#
#
# Mechanical properties :
#
#
# Convention : Reuss Voigt Hill
#
# Bulk Modulus (GPa) = 18.07441 48.92547 33.49994
# Shear Modulus (GPa) = 21.18538 30.63374 25.90956
#
# Velocity S-wave (km/s) = 3.21938 3.87127 3.56028
# Velocity P-wave (km/s) = 4.76042 6.62705 5.76973
#
# Compressibility (1/GPa) = 0.05532683
#
# Stress axis : x y z
#
# Youngs Moduli (GPa) = 63.79319 77.57153 22.35183
#
# Poissons Ratio (x) = 0.38765 -0.11060
# Poissons Ratio (y) = 0.31880 0.19984
# Poissons Ratio (z) = -0.31566 0.69352
#
# Static dielectric constant tensor:
#      x y z
#    x 3.990730 0.000000 0.407410 
#    y 0.000000 3.757000 0.000000 
#    z 0.407410 0.000000 3.585080 
# 
# 
# High freq. dielectric constant tensor:
#      x y z
#    x 1.807690 0.000000 0.027810 
#    y 0.000000 1.807630 0.000000 
#    z 0.027810 0.000000 1.768370 
# 
# From -- ./inp_files/91963.got.cif
#   From: 2010.06.25/outbox.cif.g09.slc.cpg/sg10_46_cif.got.tgz:91963.got - 2010.06.27 22:07:45.
