data_PCOD8063189
_publ_section_title
;
Structure prediction by ZEFSAII (Michael W. Deem and Ramdas Pophale) SiO2 
 PCOD8063189
Probable space group: P 2/M
;
_chemical_formula_sum "Si O2"
_cell_formula_units_Z 28
_cell_length_a 8.987766
_cell_length_b 9.112486
_cell_length_c 28.909580
_cell_angle_alpha 90.000000
_cell_angle_beta 141.007765
_cell_angle_gamma 90.000000
_cell_volume 1489.805330
_symmetry_space_group_name_H-M "P 2/M"
_symmetry_group_IT_number 10
_symmetry_cell_setting 'monoclinic'
loop_
_space_group_symop_operation_xyz
x,y,z
-x,y,-z
-x,-y,-z
x,-y,z
loop_
_atom_site_type_symbol
_atom_site_label
_atom_site_fract_x
_atom_site_fract_y
_atom_site_fract_z
Si Si1 0.875231 0.828908 0.780581
Si Si2 0.737986 0.174661 0.928127
Si Si3 0.597351 0.825339 0.071873
Si Si4 0.168052 0.674576 0.500000
Si Si5 0.527673 0.828907 0.780581
Si Si6 0.304881 0.674073 0.353881
Si Si7 0.964523 0.325927 0.353881
O O1 0.711407 0.795738 0.784563
O O2 0.779634 0.740485 0.714307
O O3 0.136141 0.770699 0.855862
O O4 0.879188 0.000000 0.768823
O O5 0.565475 0.236200 0.926190
O O6 0.643169 0.229302 0.855862
O O7 0.745875 0.000000 0.931342
O O8 0.000000 0.238576 0.000000
O O9 0.589160 0.000000 0.068657
O O10 0.500000 0.761424 0.000000
O O11 0.167176 0.500000 0.499999
O O12 0.432841 0.733448 0.571782
O O13 0.073932 0.733450 0.428218
O O14 0.000000 0.736500 0.500000
O O15 0.291901 0.740482 0.714307
O O16 0.464926 0.000000 0.768823
O O17 0.304201 0.500000 0.349201
O O18 0.133121 0.727428 0.353248
O O19 0.941813 0.500000 0.349204
#
# Coordination Sequence:
#
# PCOD8063189 Si02
#       7
#     4   4   4   4   4   4   4
#     4  10  20  33  50  74 103 133 166 205 248 293
#     4   9  16  27  45  69  97 129 165 204 244 288
#     4   9  16  27  45  69  97 129 165 204 244 288
#     4   9  17  31  52  75  98 127 164 204 244 289
#     4  10  20  33  50  74 103 133 166 205 248 293
#     4  10  20  34  53  76 101 130 165 204 246 294
#     4  10  20  34  53  76 101 130 165 204 246 294
#
# _framework density 18.794401000000001
#
# number of rings (size 3 to 8) (size 9 to 14) (size 15 to 20)
#    0.000    2.429    0.000    3.000    0.000    8.571 
#    0.000    0.714    0.000    5.143    0.000    0.000 
#    0.000    0.000    0.000    0.000    0.000    0.000 
#
# Total GULP energy -347243.583306 kJ/mol
# GULP energy per Si atom -12401.556547 kJ/mol
# Density = 1.875162 g / cm^3
# Si number density = 18.794401 Si / 1000 Ang^3
#
#
#
# Elastic Constant Matrix: (Units=GPa)
#
#
# Indices 1 2 3 4 5 6 
#
# 1 133.0987 14.5923 66.5180 0.0000 1.5032 0.0000
# 2 14.5923 9.4630 16.6066 0.0000 0.1026 0.0000
# 3 66.5180 16.6066 173.4462 0.0000 0.5606 0.0000
# 4 0.0000 0.0000 0.0000 34.3141 0.0000 0.6511
# 5 1.5032 0.1026 0.5606 0.0000 47.9277 0.0000
# 6 0.0000 0.0000 0.0000 0.6511 0.0000 21.5983
#
#
#
# Elastic Compliance Matrix: (Units=1/GPa)
#
#
# Indices 1 2 3 4 5 6 
#
# 1 0.010104 -0.010553 -0.002864 0.000000 -0.000261 0.000000
# 2 -0.010553 0.138038 -0.009170 0.000000 0.000143 0.000000
# 3 -0.002864 -0.009170 0.007742 0.000000 0.000019 0.000000
# 4 0.000000 0.000000 0.000000 0.029159 0.000000 -0.000879
# 5 -0.000261 0.000143 0.000019 0.000000 0.020872 0.000000
# 6 0.000000 0.000000 0.000000 -0.000879 0.000000 0.046326
#
#
# Mechanical properties :
#
#
# Convention : Reuss Voigt Hill
#
# Bulk Modulus (GPa) = 9.03248 56.82685 32.92967
# Shear Modulus (GPa) = 14.95577 35.32075 25.13826
#
# Velocity S-wave (km/s) = 2.82398 4.33982 3.66121
# Velocity P-wave (km/s) = 3.93058 7.44404 5.95245
#
# Compressibility (1/GPa) = 0.11071152
#
# Stress axis : x y z
#
# Youngs Moduli (GPa) = 98.96698 7.24437 129.17025
#
# Poissons Ratio (x) = 0.07645 0.36993
# Poissons Ratio (y) = 1.04436 1.18448
# Poissons Ratio (z) = 0.28343 0.06643
#
# Static dielectric constant tensor:
#      x y z
#    x 3.749870 0.000000 -0.003570 
#    y 0.000000 2.904820 0.000000 
#    z -0.003570 0.000000 3.680200 
# 
# 
# High freq. dielectric constant tensor:
#      x y z
#    x 1.752990 0.000000 -0.000120 
#    y 0.000000 1.669910 0.000000 
#    z -0.000120 0.000000 1.750680 
# 
# From -- ./inp_files/28193.got.cif
#   From: 2010.06.25/outbox.cif.g09.slc.cpg/sg10_15_cif.got.tgz:28193.got - 2010.06.27 22:07:45.
