data_PCOD8063064
_publ_section_title
;
Structure prediction by ZEFSAII (Michael W. Deem and Ramdas Pophale) SiO2 
 PCOD8063064
Probable space group: P 2/M
;
_chemical_formula_sum "Si O2"
_cell_formula_units_Z 32
_cell_length_a 21.264442
_cell_length_b 10.527938
_cell_length_c 21.851334
_cell_angle_alpha 90.000000
_cell_angle_beta 19.803465
_cell_angle_gamma 90.000000
_cell_volume 1657.341581
_symmetry_space_group_name_H-M "P 2/M"
_symmetry_group_IT_number 10
_symmetry_cell_setting 'monoclinic'
loop_
_space_group_symop_operation_xyz
x,y,z
-x,y,-z
-x,-y,-z
x,-y,z
loop_
_atom_site_type_symbol
_atom_site_label
_atom_site_fract_x
_atom_site_fract_y
_atom_site_fract_z
Si Si1 0.748323 0.361166 0.391589
Si Si2 0.055988 0.146027 0.284576
Si Si3 0.107017 0.360857 0.138348
Si Si4 0.789682 0.853800 0.263730
Si Si5 0.546950 0.288106 0.247635
Si Si6 0.220783 0.855784 0.864487
Si Si7 0.434240 0.853283 0.996543
Si Si8 0.639917 0.852178 0.690716
O O1 0.741998 0.500000 0.364485
O O2 0.688451 0.246597 0.401236
O O3 0.611796 0.370855 0.574853
O O4 0.955016 0.333073 0.225902
O O5 0.103866 0.243089 0.187030
O O6 0.858166 0.180236 0.494994
O O7 0.057745 0.000000 0.257666
O O8 0.212260 0.162583 0.193572
O O9 0.069917 0.500000 0.203319
O O10 0.308590 0.372145 0.922610
O O11 0.707872 0.835258 0.270496
O O12 0.756736 0.000000 0.315847
O O13 0.005910 0.817914 0.065424
O O14 0.656413 0.220920 0.201484
O O15 0.444469 0.192789 0.295735
O O16 0.244183 0.000000 0.862439
O O17 0.538940 0.789265 0.842357
O O18 0.493299 0.000000 0.944653
O O19 0.500000 0.787814 0.000000
O O20 0.600964 0.000000 0.728138
#
# Coordination Sequence:
#
# PCOD8063064 Si02
#       8
#     4   4   4   4   4   4   4   4
#     4  11  24  40  57  84 115 147 191 238 288 345
#     4  10  20  36  58  86 117 151 190 231 280 335
#     4  11  23  39  57  82 116 152 189 236 292 336
#     4   9  19  39  60  82 111 149 191 234 289 346
#     4  12  21  36  58  84 110 148 193 236 285 343
#     4   9  19  35  59  86 113 145 188 240 290 339
#     4   9  18  33  55  86 124 157 186 228 278 330
#     4  10  20  32  53  88 120 147 188 235 281 334
#
# _framework density 19.308029000000001
#
# number of rings (size 3 to 8) (size 9 to 14) (size 15 to 20)
#    0.000    1.875    3.750    1.500    0.000    3.000 
#    0.000    6.875    0.000    0.375    0.000    0.875 
#    0.000    0.000    0.000    0.000    0.000    0.000 
#
# Total GULP energy -396623.633169 kJ/mol
# GULP energy per Si atom -12394.488537 kJ/mol
# Density = 1.926408 g / cm^3
# Si number density = 19.308029 Si / 1000 Ang^3
#
#
#
# Elastic Constant Matrix: (Units=GPa)
#
#
# Indices 1 2 3 4 5 6 
#
# 1 113.3431 51.4889 33.4857 0.0000 -3.4424 0.0000
# 2 51.4889 80.0443 26.2189 0.0000 2.5112 0.0000
# 3 33.4857 26.2189 90.6358 0.0000 -4.1093 0.0000
# 4 0.0000 0.0000 0.0000 -8.8775 0.0000 -6.2787
# 5 -3.4424 2.5112 -4.1093 0.0000 26.6310 0.0000
# 6 0.0000 0.0000 0.0000 -6.2787 0.0000 2.4903
#
#
#
# Elastic Compliance Matrix: (Units=1/GPa)
#
#
# Indices 1 2 3 4 5 6 
#
# 1 0.013118 -0.007672 -0.002535 0.000000 0.002028 0.000000
# 2 -0.007672 0.018386 -0.002626 0.000000 -0.003131 0.000000
# 3 -0.002535 -0.002626 0.012816 0.000000 0.001897 0.000000
# 4 0.000000 0.000000 0.000000 -0.040474 0.000000 -0.102043
# 5 0.002028 -0.003131 0.001897 0.000000 0.038400 0.000000
# 6 0.000000 0.000000 0.000000 -0.102043 0.000000 0.144281
#
#
# Mechanical properties :
#
#
# Convention : Reuss Voigt Hill
#
# Bulk Modulus (GPa) = 53.60918 56.26779 54.93849
# Shear Modulus (GPa) = 22.89247 15.57075 19.23161
#
# Velocity S-wave (km/s) = 3.44706 2.84287 3.15944
# Velocity P-wave (km/s) = 6.60821 6.32308 6.46721
#
# Compressibility (1/GPa) = 0.01865352
#
# Stress axis : x y z
#
# Youngs Moduli (GPa) = 76.22851 54.38805 78.02933
#
# Poissons Ratio (x) = 0.41724 0.19784
# Poissons Ratio (y) = 0.58480 0.20494
# Poissons Ratio (z) = 0.19328 0.14285
#
# Static dielectric constant tensor:
#      x y z
#    x 3.535290 0.000000 0.000110 
#    y 0.000000 3.276210 0.000000 
#    z 0.000110 0.000000 3.790020 
# 
# 
# High freq. dielectric constant tensor:
#      x y z
#    x 1.739940 0.000000 -0.010860 
#    y 0.000000 1.725610 0.000000 
#    z -0.010860 0.000000 1.765530 
# 
# From -- ./inp_files/86265.got.cif
#   From: 2010.06.25/outbox.cif.g09.slc.cpg/sg10_44_cif.got.tgz:86265.got - 2010.06.27 22:07:45.
