data_PCOD8063717
_publ_section_title
;
Structure prediction by ZEFSAII (Michael W. Deem and Ramdas Pophale) SiO2 
 PCOD8063717
Probable space group: P 2/M
;
_chemical_formula_sum "Si O2"
_cell_formula_units_Z 30
_cell_length_a 28.812098
_cell_length_b 9.475153
_cell_length_c 10.992296
_cell_angle_alpha 90.000000
_cell_angle_beta 31.777162
_cell_angle_gamma 90.000000
_cell_volume 1580.317662
_symmetry_space_group_name_H-M "P 2/M"
_symmetry_group_IT_number 10
_symmetry_cell_setting 'monoclinic'
loop_
_space_group_symop_operation_xyz
x,y,z
-x,y,-z
-x,-y,-z
x,-y,z
loop_
_atom_site_type_symbol
_atom_site_label
_atom_site_fract_x
_atom_site_fract_y
_atom_site_fract_z
Si Si1 0.000000 0.731002 0.000000
Si Si2 0.769537 0.167327 0.126393
Si Si3 0.411983 0.662397 0.852352
Si Si4 0.879518 0.343400 0.477882
Si Si5 0.914265 0.156384 0.611471
Si Si6 0.167564 0.837913 0.756838
Si Si7 0.728773 0.831420 0.706517
Si Si8 0.385661 0.662174 0.633587
O O1 0.059418 0.638553 0.777266
O O2 0.067117 0.821012 0.933823
O O3 0.811788 0.230924 0.157602
O O4 0.675991 0.239678 0.310693
O O5 0.755715 0.000000 0.164441
O O6 0.833351 0.208741 0.874006
O O7 0.387589 0.500000 0.934951
O O8 0.379978 0.703676 0.788321
O O9 0.515790 0.686112 0.634197
O O10 0.366464 0.765489 0.052318
O O11 0.846896 0.500000 0.586389
O O12 0.934648 0.271917 0.463023
O O13 0.796979 0.238916 0.648275
O O14 0.000000 0.145843 0.500000
O O15 0.895230 0.000000 0.598520
O O16 0.239231 0.783337 0.498838
O O17 0.184294 0.000000 0.738738
O O18 0.728030 0.000000 0.724697
O O19 0.357540 0.500000 0.679187
#
# Coordination Sequence:
#
# PCOD8063717 Si02
#       8
#     2   4   4   4   4   4   4   4
#     4  10  20  36  56  76 101 140 187 224 257 306
#     4  10  20  35  54  78 108 139 174 218 264 312
#     4   9  18  35  57  79 106 137 173 217 262 311
#     4  11  22  35  52  76 107 139 173 216 265 312
#     4  10  21  36  54  77 105 138 177 218 261 312
#     4   9  19  35  55  78 104 138 178 220 267 312
#     4  10  20  34  54  79 104 133 174 218 261 312
#     4   9  19  35  55  79 106 140 175 210 261 319
#
# _framework density 18.983526000000001
#
# number of rings (size 3 to 8) (size 9 to 14) (size 15 to 20)
#    0.000    2.267    0.000    3.600    0.000    6.667 
#    0.000    7.333    0.000    4.000    0.000    0.000 
#    0.000    0.000    0.000    0.000    0.000    0.000 
#
# Total GULP energy -371870.635830 kJ/mol
# GULP energy per Si atom -12395.687861 kJ/mol
# Density = 1.894032 g / cm^3
# Si number density = 18.983526 Si / 1000 Ang^3
#
#
#
# Elastic Constant Matrix: (Units=GPa)
#
#
# Indices 1 2 3 4 5 6 
#
# 1 103.4012 36.6360 35.3307 0.0000 -3.9245 0.0000
# 2 36.6360 79.3920 46.7108 0.0000 7.7441 0.0000
# 3 35.3307 46.7108 99.7335 0.0000 -3.0669 0.0000
# 4 0.0000 0.0000 0.0000 23.8569 0.0000 1.3137
# 5 -3.9245 7.7441 -3.0669 0.0000 23.4003 0.0000
# 6 0.0000 0.0000 0.0000 1.3137 0.0000 15.4190
#
#
#
# Elastic Compliance Matrix: (Units=1/GPa)
#
#
# Indices 1 2 3 4 5 6 
#
# 1 0.012166 -0.004787 -0.001964 0.000000 0.003367 0.000000
# 2 -0.004787 0.020437 -0.008141 0.000000 -0.008633 0.000000
# 3 -0.001964 -0.008141 0.014668 0.000000 0.004287 0.000000
# 4 0.000000 0.000000 0.000000 0.042114 0.000000 -0.003588
# 5 0.003367 -0.008633 0.004287 0.000000 0.046718 0.000000
# 6 0.000000 0.000000 0.000000 -0.003588 0.000000 0.065161
#
#
# Mechanical properties :
#
#
# Convention : Reuss Voigt Hill
#
# Bulk Modulus (GPa) = 57.19135 57.76463 57.47799
# Shear Modulus (GPa) = 21.10796 23.45849 22.28323
#
# Velocity S-wave (km/s) = 3.33815 3.51911 3.42982
# Velocity P-wave (km/s) = 6.71192 6.85617 6.78443
#
# Compressibility (1/GPa) = 0.01748516
#
# Stress axis : x y z
#
# Youngs Moduli (GPa) = 82.19580 48.93136 68.17778
#
# Poissons Ratio (x) = 0.23422 0.13393
# Poissons Ratio (y) = 0.39345 0.55507
# Poissons Ratio (z) = 0.16146 0.39837
#
# Static dielectric constant tensor:
#      x y z
#    x 3.540030 0.000000 0.149970 
#    y 0.000000 3.296560 0.000000 
#    z 0.149970 0.000000 3.556340 
# 
# 
# High freq. dielectric constant tensor:
#      x y z
#    x 1.727850 0.000000 0.003930 
#    y 0.000000 1.725280 0.000000 
#    z 0.003930 0.000000 1.743610 
# 
# From -- ./inp_files/57979.got.cif
#   From: 2010.06.25/outbox.cif.g09.slc.cpg/sg10_29_cif.got.tgz:57979.got - 2010.06.27 22:07:45.
