data_PCOD8063524
_publ_section_title
;
Structure prediction by ZEFSAII (Michael W. Deem and Ramdas Pophale) SiO2 
 PCOD8063524
Probable space group: P 2/M
;
_chemical_formula_sum "Si O2"
_cell_formula_units_Z 32
_cell_length_a 9.194514
_cell_length_b 14.082774
_cell_length_c 26.907603
_cell_angle_alpha 90.000000
_cell_angle_beta 31.321207
_cell_angle_gamma 90.000000
_cell_volume 1811.164093
_symmetry_space_group_name_H-M "P 2/M"
_symmetry_group_IT_number 10
_symmetry_cell_setting 'monoclinic'
loop_
_space_group_symop_operation_xyz
x,y,z
-x,y,-z
-x,-y,-z
x,-y,z
loop_
_atom_site_type_symbol
_atom_site_label
_atom_site_fract_x
_atom_site_fract_y
_atom_site_fract_z
Si Si1 0.655339 0.609302 0.770156
Si Si2 0.166538 0.252800 0.901725
Si Si3 0.239270 0.107699 0.736604
Si Si4 0.577707 0.892301 0.736604
Si Si5 0.006121 0.609302 0.229844
Si Si6 0.400132 0.246360 0.607801
Si Si7 0.824834 0.747200 0.901725
Si Si8 0.939137 0.753640 0.392199
O O1 0.647828 0.500000 0.756508
O O2 0.344070 0.651005 0.856702
O O3 0.760697 0.622738 0.795721
O O4 0.861619 0.661989 0.671422
O O5 0.373581 0.164367 0.833088
O O6 0.953299 0.266840 0.918680
O O7 0.000000 0.229473 0.000000
O O8 0.467191 0.112888 0.713123
O O9 0.382571 0.152846 0.646556
O O10 0.960977 0.164368 0.833088
O O11 0.150480 0.000000 0.750782
O O12 0.884648 0.847154 0.646556
O O13 0.595610 0.000000 0.750781
O O14 0.930369 0.500000 0.243492
O O15 0.718732 0.661990 0.328577
O O16 0.127583 0.651005 0.143297
O O17 0.220359 0.224582 0.611856
O O18 0.721687 0.267473 0.500000
O O19 0.500000 0.770527 0.000000
#
# Coordination Sequence:
#
# PCOD8063524 Si02
#       8
#     4   4   4   4   4   4   4   4
#     4   9  18  33  52  73  98 129 164 200 239 285
#     4  10  20  34  52  73  98 127 160 200 244 289
#     4   9  19  35  52  71  97 129 164 200 239 286
#     4   9  19  35  52  71  97 129 164 200 239 286
#     4   9  18  33  52  73  98 129 164 200 239 285
#     4   9  18  32  50  74 102 129 160 200 243 285
#     4  10  20  34  52  73  98 127 160 200 244 289
#     4   9  18  32  50  74 102 129 160 200 243 285
#
# _framework density 17.668195999999998
#
# number of rings (size 3 to 8) (size 9 to 14) (size 15 to 20)
#    0.000    2.750    0.000    0.750    0.000    4.500 
#    0.000    5.000    0.000    0.000    0.000    7.000 
#    0.000    0.000    0.000    0.000    0.000    0.000 
#
# Total GULP energy -396874.417211 kJ/mol
# GULP energy per Si atom -12402.325538 kJ/mol
# Density = 1.762798 g / cm^3
# Si number density = 17.668196 Si / 1000 Ang^3
#
#
#
# Elastic Constant Matrix: (Units=GPa)
#
#
# Indices 1 2 3 4 5 6 
#
# 1 52.8579 39.1985 37.9206 0.0000 1.4758 0.0000
# 2 39.1985 135.1038 40.6335 0.0000 0.0465 0.0000
# 3 37.9206 40.6335 96.3760 0.0000 -0.0624 0.0000
# 4 0.0000 0.0000 0.0000 14.0631 0.0000 -0.4480
# 5 1.4758 0.0465 -0.0624 0.0000 30.1307 0.0000
# 6 0.0000 0.0000 0.0000 -0.4480 0.0000 27.8470
#
#
#
# Elastic Compliance Matrix: (Units=1/GPa)
#
#
# Indices 1 2 3 4 5 6 
#
# 1 0.030032 -0.005908 -0.009327 0.000000 -0.001481 0.000000
# 2 -0.005908 0.009639 -0.001739 0.000000 0.000271 0.000000
# 3 -0.009327 -0.001739 0.014779 0.000000 0.000490 0.000000
# 4 0.000000 0.000000 0.000000 0.071144 0.000000 0.001144
# 5 -0.001481 0.000271 0.000490 0.000000 0.033262 0.000000
# 6 0.000000 0.000000 0.000000 0.001144 0.000000 0.035929
#
#
# Mechanical properties :
#
#
# Convention : Reuss Voigt Hill
#
# Bulk Modulus (GPa) = 48.77368 57.76033 53.26700
# Shear Modulus (GPa) = 21.22535 25.51383 23.36959
#
# Velocity S-wave (km/s) = 3.46978 3.80419 3.64083
# Velocity P-wave (km/s) = 6.61194 7.21516 6.92013
#
# Compressibility (1/GPa) = 0.02050286
#
# Stress axis : x y z
#
# Youngs Moduli (GPa) = 33.29754 103.74779 67.66190
#
# Poissons Ratio (x) = 0.61292 0.63107
# Poissons Ratio (y) = 0.19672 0.11767
# Poissons Ratio (z) = 0.31056 0.18043
#
# Static dielectric constant tensor:
#      x y z
#    x 3.272780 0.000000 0.002830 
#    y 0.000000 3.347490 0.000000 
#    z 0.002830 0.000000 3.359790 
# 
# 
# High freq. dielectric constant tensor:
#      x y z
#    x 1.682270 0.000000 0.000090 
#    y 0.000000 1.682680 0.000000 
#    z 0.000090 0.000000 1.684990 
# 
# From -- ./inp_files/37735.got.cif
#   From: 2010.06.25/outbox.cif.g09.slc.cpg/sg10_19_cif.got.tgz:37735.got - 2010.06.27 22:07:45.
