data_PCOD8063062
_publ_section_title
;
Structure prediction by ZEFSAII (Michael W. Deem and Ramdas Pophale) SiO2 
 PCOD8063062
Probable space group: P 2/M
;
_chemical_formula_sum "Si O2"
_cell_formula_units_Z 32
_cell_length_a 13.295711
_cell_length_b 14.685732
_cell_length_c 18.784366
_cell_angle_alpha 90.000000
_cell_angle_beta 27.180099
_cell_angle_gamma 90.000000
_cell_volume 1675.403107
_symmetry_space_group_name_H-M "P 2/M"
_symmetry_group_IT_number 10
_symmetry_cell_setting 'monoclinic'
loop_
_space_group_symop_operation_xyz
x,y,z
-x,y,-z
-x,-y,-z
x,-y,z
loop_
_atom_site_type_symbol
_atom_site_label
_atom_site_fract_x
_atom_site_fract_y
_atom_site_fract_z
Si Si1 0.464297 0.895219 0.303317
Si Si2 0.612370 0.103911 0.360506
Si Si3 0.642590 0.602507 0.297926
Si Si4 0.923580 0.835733 0.969422
Si Si5 0.202127 0.276747 0.425303
Si Si6 0.410992 0.600493 0.825577
Si Si7 0.028343 0.664093 0.145383
Si Si8 0.856291 0.394188 0.397999
O O1 0.503880 0.854863 0.357726
O O2 0.281700 0.827208 0.386750
O O3 0.377884 0.000000 0.355375
O O4 0.700848 0.894878 0.114372
O O5 0.500000 0.152929 0.500000
O O6 0.877217 0.108840 0.192521
O O7 0.540391 0.000000 0.406678
O O8 0.733753 0.500000 0.245880
O O9 0.668490 0.640018 0.200958
O O10 0.388524 0.607385 0.480742
O O11 0.788767 0.661988 0.258998
O O12 0.862541 0.756815 0.951654
O O13 0.000000 0.802207 0.000000
O O14 0.399060 0.333587 0.263974
O O15 0.125413 0.331445 0.543998
O O16 0.000000 0.271614 0.500000
O O17 0.514406 0.500000 0.747495
O O18 0.202991 0.588970 0.008590
O O19 0.011844 0.651933 0.240415
O O20 0.924865 0.500000 0.369946
#
# Coordination Sequence:
#
# PCOD8063062 Si02
#       8
#     4   4   4   4   4   4   4   4
#     4  10  21  40  62  86 117 149 190 236 286 345
#     4   9  19  33  55  89 123 155 185 220 274 343
#     4   9  18  31  48  77 119 160 187 215 261 327
#     4  10  20  32  53  86 123 162 192 220 268 334
#     4  11  24  43  63  82 103 141 196 254 302 342
#     4  10  20  35  56  82 113 151 194 227 271 337
#     4  12  20  30  54  86 122 156 184 224 269 334
#     4  10  23  38  55  84 120 155 192 232 284 337
#
# _framework density 19.099879999999999
#
# number of rings (size 3 to 8) (size 9 to 14) (size 15 to 20)
#    0.000    1.875    1.250    4.125    7.000    4.750 
#    0.000    0.625    0.000    1.500    0.000    0.875 
#    0.000    0.000    0.000    0.000    0.000    0.000 
#
# Total GULP energy -396573.804294 kJ/mol
# GULP energy per Si atom -12392.931384 kJ/mol
# Density = 1.905641 g / cm^3
# Si number density = 19.099880 Si / 1000 Ang^3
#
#
#
# Elastic Constant Matrix: (Units=GPa)
#
#
# Indices 1 2 3 4 5 6 
#
# 1 85.4246 42.4986 55.1945 0.0000 -5.7887 0.0000
# 2 42.4986 90.8058 27.5709 0.0000 -3.0680 0.0000
# 3 55.1945 27.5709 101.5763 0.0000 21.4218 0.0000
# 4 0.0000 0.0000 0.0000 27.2428 0.0000 3.0373
# 5 -5.7887 -3.0680 21.4218 0.0000 30.3644 0.0000
# 6 0.0000 0.0000 0.0000 3.0373 0.0000 14.0342
#
#
#
# Elastic Compliance Matrix: (Units=1/GPa)
#
#
# Indices 1 2 3 4 5 6 
#
# 1 0.026380 -0.007075 -0.015653 0.000000 0.015357 0.000000
# 2 -0.007075 0.014355 -0.000086 0.000000 0.000163 0.000000
# 3 -0.015653 -0.000086 0.022327 0.000000 -0.018744 0.000000
# 4 0.000000 0.000000 0.000000 0.037615 0.000000 -0.008141
# 5 0.015357 0.000163 -0.018744 0.000000 0.049101 0.000000
# 6 0.000000 0.000000 0.000000 -0.008141 0.000000 0.073016
#
#
# Mechanical properties :
#
#
# Convention : Reuss Voigt Hill
#
# Bulk Modulus (GPa) = 57.35941 58.70386 58.03164
# Shear Modulus (GPa) = 18.23253 24.49778 21.36516
#
# Velocity S-wave (km/s) = 3.09299 3.58525 3.34818
# Velocity P-wave (km/s) = 6.54614 6.92391 6.73768
#
# Compressibility (1/GPa) = 0.01743393
#
# Stress axis : x y z
#
# Youngs Moduli (GPa) = 37.90689 69.66003 44.78912
#
# Poissons Ratio (x) = 0.49284 0.70109
# Poissons Ratio (y) = 0.26819 0.00387
# Poissons Ratio (z) = 0.59336 0.00602
#
# Static dielectric constant tensor:
#      x y z
#    x 3.133960 0.000000 0.263050 
#    y 0.000000 3.483140 0.000000 
#    z 0.263050 0.000000 3.645060 
# 
# 
# High freq. dielectric constant tensor:
#      x y z
#    x 1.691420 0.000000 0.019870 
#    y 0.000000 1.746340 0.000000 
#    z 0.019870 0.000000 1.746840 
# 
# From -- ./inp_files/54022.got.cif
#   From: 2010.06.25/outbox.cif.g09.slc.cpg/sg10_28_cif.got.tgz:54022.got - 2010.06.27 22:07:45.
