data_PCOD8063859
_publ_section_title
;
Structure prediction by ZEFSAII (Michael W. Deem and Ramdas Pophale) SiO2 
 PCOD8063859
Probable space group: P 2/M
;
_chemical_formula_sum "Si O2"
_cell_formula_units_Z 28
_cell_length_a 9.534002
_cell_length_b 10.890765
_cell_length_c 14.171504
_cell_angle_alpha 90.000000
_cell_angle_beta 68.969731
_cell_angle_gamma 90.000000
_cell_volume 1373.450987
_symmetry_space_group_name_H-M "P 2/M"
_symmetry_group_IT_number 10
_symmetry_cell_setting 'monoclinic'
loop_
_space_group_symop_operation_xyz
x,y,z
-x,y,-z
-x,-y,-z
x,-y,z
loop_
_atom_site_type_symbol
_atom_site_label
_atom_site_fract_x
_atom_site_fract_y
_atom_site_fract_z
Si Si1 0.394446 0.743930 0.292800
Si Si2 0.418785 0.366027 0.605988
Si Si3 0.839635 0.641109 0.794909
Si Si4 0.158801 0.862247 0.486840
Si Si5 0.307724 0.136805 0.836734
Si Si6 0.857335 0.212104 0.301907
Si Si7 0.827294 0.361204 0.017662
O O1 0.484743 0.634265 0.321310
O O2 0.305057 0.691870 0.225390
O O3 0.287986 0.792409 0.401113
O O4 0.517601 0.847381 0.235460
O O5 0.500000 0.290862 0.500000
O O6 0.394676 0.500000 0.572140
O O7 0.252472 0.326417 0.671068
O O8 0.877163 0.500000 0.755688
O O9 0.974784 0.735093 0.742591
O O10 0.797400 0.645448 0.914196
O O11 0.174252 0.865284 0.596220
O O12 0.000000 0.797902 0.500000
O O13 0.160029 0.000000 0.447249
O O14 0.189781 0.132467 0.777884
O O15 0.269794 0.251770 0.913593
O O16 0.294427 0.000000 0.887368
O O17 0.783372 0.500000 0.064417
O O18 0.000000 0.335687 0.000000
#
# Coordination Sequence:
#
# PCOD8063859 Si02
#       7
#     4   4   4   4   4   4   4
#     4  11  23  41  60  92 132 167 212 259 316 382
#     4  10  20  34  55  85 123 165 205 253 306 366
#     4  11  23  41  66  95 125 165 213 267 327 390
#     4  11  22  38  59  85 123 169 212 254 312 381
#     4  11  25  43  67  98 131 168 216 272 328 381
#     4  11  21  39  61  92 124 164 213 262 313 382
#     4  10  22  44  71  97 126 165 215 270 329 393
#
# _framework density 20.386602
#
# number of rings (size 3 to 8) (size 9 to 14) (size 15 to 20)
#    0.000    1.286    4.286    1.714    0.000    3.714 
#    0.000    6.429    0.000    0.000    0.000    0.000 
#    0.000    0.000    0.000    0.000    0.000    0.000 
#
# Total GULP energy -346923.192534 kJ/mol
# GULP energy per Si atom -12390.114019 kJ/mol
# Density = 2.034020 g / cm^3
# Si number density = 20.386602 Si / 1000 Ang^3
#
#
#
# Elastic Constant Matrix: (Units=GPa)
#
#
# Indices 1 2 3 4 5 6 
#
# 1 120.3675 25.0483 27.2811 0.0000 9.3190 0.0000
# 2 25.0483 109.8950 34.9958 0.0000 -10.3178 0.0000
# 3 27.2811 34.9958 81.8709 0.0000 5.5954 0.0000
# 4 0.0000 0.0000 0.0000 17.3100 0.0000 1.0792
# 5 9.3190 -10.3178 5.5954 0.0000 39.3987 0.0000
# 6 0.0000 0.0000 0.0000 1.0792 0.0000 -10.9761
#
#
#
# Elastic Compliance Matrix: (Units=1/GPa)
#
#
# Indices 1 2 3 4 5 6 
#
# 1 0.009337 -0.001626 -0.002258 0.000000 -0.002314 0.000000
# 2 -0.001626 0.011297 -0.004560 0.000000 0.003991 0.000000
# 3 -0.002258 -0.004560 0.015108 0.000000 -0.002806 0.000000
# 4 0.000000 0.000000 0.000000 0.057418 0.000000 0.005645
# 5 -0.002314 0.003991 -0.002806 0.000000 0.027372 0.000000
# 6 0.000000 0.000000 0.000000 0.005645 0.000000 -0.090552
#
#
# Mechanical properties :
#
#
# Convention : Reuss Voigt Hill
#
# Bulk Modulus (GPa) = 53.04041 54.08709 53.56375
# Shear Modulus (GPa) = 94.06816 24.13374 59.10095
#
# Velocity S-wave (km/s) = 6.80017 3.44438 5.39009
# Velocity P-wave (km/s) = 9.36644 6.51204 8.06650
#
# Compressibility (1/GPa) = 0.01885355
#
# Stress axis : x y z
#
# Youngs Moduli (GPa) = 107.09782 88.51904 66.19200
#
# Poissons Ratio (x) = 0.14397 0.14946
# Poissons Ratio (y) = 0.17418 0.30182
# Poissons Ratio (z) = 0.24183 0.40362
#
# Static dielectric constant tensor:
#      x y z
#    x 3.981680 0.000000 0.187900 
#    y 0.000000 3.572050 0.000000 
#    z 0.187900 0.000000 3.811660 
# 
# 
# High freq. dielectric constant tensor:
#      x y z
#    x 1.805550 0.000000 0.002580 
#    y 0.000000 1.787940 0.000000 
#    z 0.002580 0.000000 1.795470 
# 
# From -- ./inp_files/28493.got.cif
#   From: 2010.06.25/outbox.cif.g09.slc.cpg/sg10_15_cif.got.tgz:28493.got - 2010.06.27 22:07:45.
