data_PCOD8063640
_publ_section_title
;
Structure prediction by ZEFSAII (Michael W. Deem and Ramdas Pophale) SiO2 
 PCOD8063640
Probable space group: P 2/M
;
_chemical_formula_sum "Si O2"
_cell_formula_units_Z 32
_cell_length_a 33.609594
_cell_length_b 8.901362
_cell_length_c 13.021245
_cell_angle_alpha 90.000000
_cell_angle_beta 25.105084
_cell_angle_gamma 90.000000
_cell_volume 1652.816232
_symmetry_space_group_name_H-M "P 2/M"
_symmetry_group_IT_number 10
_symmetry_cell_setting 'monoclinic'
loop_
_space_group_symop_operation_xyz
x,y,z
-x,y,-z
-x,-y,-z
x,-y,z
loop_
_atom_site_type_symbol
_atom_site_label
_atom_site_fract_x
_atom_site_fract_y
_atom_site_fract_z
Si Si1 0.583712 0.830249 0.179328
Si Si2 0.959675 0.825635 0.986974
Si Si3 0.141827 0.174419 0.449636
Si Si4 0.752839 0.176741 0.439297
Si Si5 0.590098 0.326374 0.478401
Si Si6 0.584803 0.674722 0.728787
Si Si7 0.278361 0.325622 0.281040
Si Si8 0.275788 0.167709 0.963794
O O1 0.477004 0.774069 0.437650
O O2 0.638122 0.826734 0.158535
O O3 0.585852 0.000000 0.129963
O O4 0.628581 0.706775 0.999843
O O5 0.030546 0.802077 0.724898
O O6 0.942327 0.000000 0.050309
O O7 0.859605 0.756229 0.186327
O O8 0.000000 0.754782 0.000000
O O9 0.187359 0.276760 0.430416
O O10 0.170830 0.000000 0.400965
O O11 0.180176 0.221766 0.246829
O O12 0.685033 0.247442 0.512859
O O13 0.709954 0.222320 0.647720
O O14 0.752489 0.000000 0.423705
O O15 0.579480 0.500000 0.475917
O O16 0.564306 0.294618 0.657130
O O17 0.696182 0.274312 0.197877
O O18 0.597392 0.500000 0.723077
O O19 0.500000 0.737548 0.000000
O O20 0.272339 0.500000 0.324988
O O21 0.259922 0.000000 0.958131
#
# Coordination Sequence:
#
# PCOD8063640 Si02
#       8
#     4   4   4   4   4   4   4   4
#     4  10  20  34  53  77 106 140 181 225 270 318
#     4   9  16  30  55  83 113 142 175 223 274 323
#     4   9  17  33  53  76 108 145 178 213 265 320
#     4  11  21  34  56  82 107 143 186 226 271 323
#     4  11  22  35  54  77 104 139 178 224 278 329
#     4  10  23  42  58  75 105 144 183 227 276 320
#     4  11  20  30  47  75 112 146 176 215 264 321
#     4   9  19  33  52  77 107 142 178 219 266 320
#
# _framework density 19.360896
#
# number of rings (size 3 to 8) (size 9 to 14) (size 15 to 20)
#    0.000    2.000    1.250    4.125    0.000    6.250 
#    0.000    1.875    0.000    0.750    0.000    5.250 
#    0.000    0.000    0.000    0.000    0.000    0.000 
#
# Total GULP energy -396549.144570 kJ/mol
# GULP energy per Si atom -12392.160768 kJ/mol
# Density = 1.931683 g / cm^3
# Si number density = 19.360896 Si / 1000 Ang^3
#
#
#
# Elastic Constant Matrix: (Units=GPa)
#
#
# Indices 1 2 3 4 5 6 
#
# 1 32.9717 21.2437 32.1856 0.0000 -3.8255 0.0000
# 2 21.2437 55.7190 33.5823 0.0000 -1.3694 0.0000
# 3 32.1856 33.5823 113.8139 0.0000 1.3959 0.0000
# 4 0.0000 0.0000 0.0000 17.8481 0.0000 8.2349
# 5 -3.8255 -1.3694 1.3959 0.0000 32.9649 0.0000
# 6 0.0000 0.0000 0.0000 8.2349 0.0000 17.9547
#
#
#
# Elastic Compliance Matrix: (Units=1/GPa)
#
#
# Indices 1 2 3 4 5 6 
#
# 1 0.048955 -0.012335 -0.010273 0.000000 0.005604 0.000000
# 2 -0.012335 0.024983 -0.003881 0.000000 -0.000229 0.000000
# 3 -0.010273 -0.003881 0.012860 0.000000 -0.001898 0.000000
# 4 0.000000 0.000000 0.000000 0.071067 0.000000 -0.032595
# 5 0.005604 -0.000229 -0.001898 0.000000 0.031056 0.000000
# 6 0.000000 0.000000 0.000000 -0.032595 0.000000 0.070645
#
#
# Mechanical properties :
#
#
# Convention : Reuss Voigt Hill
#
# Bulk Modulus (GPa) = 29.56816 41.83641 35.70229
# Shear Modulus (GPa) = 15.44073 21.45306 18.44690
#
# Velocity S-wave (km/s) = 2.82711 3.33237 3.09008
# Velocity P-wave (km/s) = 5.09529 6.03837 5.58676
#
# Compressibility (1/GPa) = 0.03382017
#
# Stress axis : x y z
#
# Youngs Moduli (GPa) = 20.42687 40.02646 77.76243
#
# Poissons Ratio (x) = 0.49375 0.79886
# Poissons Ratio (y) = 0.25198 0.30176
# Poissons Ratio (z) = 0.20985 0.15532
#
# Static dielectric constant tensor:
#      x y z
#    x 3.237470 0.000000 0.020510 
#    y 0.000000 3.360800 0.000000 
#    z 0.020510 0.000000 3.823070 
# 
# 
# High freq. dielectric constant tensor:
#      x y z
#    x 1.711450 0.000000 0.010320 
#    y 0.000000 1.737120 0.000000 
#    z 0.010320 0.000000 1.770220 
# 
# From -- ./inp_files/58084.got.cif
#   From: 2010.06.25/outbox.cif.g09.slc.cpg/sg10_30_cif.got.tgz:58084.got - 2010.06.27 22:07:45.
