data_PCOD8063843
_publ_section_title
;
Structure prediction by ZEFSAII (Michael W. Deem and Ramdas Pophale) SiO2 
 PCOD8063843
Probable space group: P 2/M
;
_chemical_formula_sum "Si O2"
_cell_formula_units_Z 28
_cell_length_a 23.075699
_cell_length_b 9.430260
_cell_length_c 20.291571
_cell_angle_alpha 90.000000
_cell_angle_beta 160.449420
_cell_angle_gamma 90.000000
_cell_volume 1477.646685
_symmetry_space_group_name_H-M "P 2/M"
_symmetry_group_IT_number 10
_symmetry_cell_setting 'monoclinic'
loop_
_space_group_symop_operation_xyz
x,y,z
-x,y,-z
-x,-y,-z
x,-y,z
loop_
_atom_site_type_symbol
_atom_site_label
_atom_site_fract_x
_atom_site_fract_y
_atom_site_fract_z
Si Si1 0.757198 0.163508 0.884868
Si Si2 0.365088 0.835958 0.493362
Si Si3 0.181168 0.152500 0.664965
Si Si4 0.700983 0.341130 0.700848
Si Si5 0.581404 0.347657 0.015020
Si Si6 0.778163 0.334924 0.418143
Si Si7 0.890791 0.836625 0.662878
O O1 0.571340 0.200083 0.720188
O O2 0.792898 0.258212 0.858773
O O3 0.757968 0.000000 0.863210
O O4 0.916484 0.195270 0.104006
O O5 0.270447 0.742793 0.336337
O O6 0.263582 0.800474 0.451633
O O7 0.340213 0.000000 0.447416
O O8 0.158566 0.258429 0.580085
O O9 0.000000 0.115245 0.500000
O O10 0.266572 0.000000 0.735633
O O11 0.282739 0.220733 0.836203
O O12 0.500000 0.348375 0.500000
O O13 0.778961 0.500000 0.778549
O O14 0.669336 0.500000 0.092397
O O15 0.430281 0.316176 0.800046
O O16 0.500000 0.357130 0.000000
O O17 0.830178 0.500000 0.470023
O O18 0.869303 0.264751 0.577871
O O19 0.876344 0.000000 0.625295
#
# Coordination Sequence:
#
# PCOD8063843 Si02
#       7
#     4   4   4   4   4   4   4
#     4   9  18  34  54  75 103 138 177 220 266 319
#     4   9  18  34  54  75 101 138 178 217 269 320
#     4  10  20  34  55  84 110 134 171 218 261 305
#     4   9  17  30  51  78 105 134 172 222 271 314
#     4   8  16  32  53  75 101 133 168 206 252 306
#     4  10  21  37  55  76 106 142 175 212 264 320
#     4  10  21  36  54  76 106 142 180 223 264 313
#
# _framework density 18.94905
#
# number of rings (size 3 to 8) (size 9 to 14) (size 15 to 20)
#    0.000    2.714    0.000    2.143    0.000    7.714 
#    2.571    2.857    0.000    0.000    0.000    0.000 
#    0.000    0.000    0.000    0.000    0.000    0.000 
#
# Total GULP energy -346978.305447 kJ/mol
# GULP energy per Si atom -12392.082337 kJ/mol
# Density = 1.890592 g / cm^3
# Si number density = 18.949050 Si / 1000 Ang^3
#
#
#
# Elastic Constant Matrix: (Units=GPa)
#
#
# Indices 1 2 3 4 5 6 
#
# 1 61.0437 48.5896 39.2598 0.0000 -10.2857 0.0000
# 2 48.5896 137.3316 60.9320 0.0000 -18.8281 0.0000
# 3 39.2598 60.9320 104.4651 0.0000 -13.9167 0.0000
# 4 0.0000 0.0000 0.0000 23.0173 0.0000 0.9099
# 5 -10.2857 -18.8281 -13.9167 0.0000 29.0264 0.0000
# 6 0.0000 0.0000 0.0000 0.9099 0.0000 -13.7453
#
#
#
# Elastic Compliance Matrix: (Units=1/GPa)
#
#
# Indices 1 2 3 4 5 6 
#
# 1 0.025257 -0.006134 -0.005610 0.000000 0.002281 0.000000
# 2 -0.006134 0.011739 -0.004077 0.000000 0.003486 0.000000
# 3 -0.005610 -0.004077 0.014359 0.000000 0.002252 0.000000
# 4 0.000000 0.000000 0.000000 0.043332 0.000000 0.002868
# 5 0.002281 0.003486 0.002252 0.000000 0.038601 0.000000
# 6 0.000000 0.000000 0.000000 0.002868 0.000000 -0.072562
#
#
# Mechanical properties :
#
#
# Convention : Reuss Voigt Hill
#
# Bulk Modulus (GPa) = 50.73152 66.71147 58.72150
# Shear Modulus (GPa) = 50.53583 17.93028 34.23305
#
# Velocity S-wave (km/s) = 5.16984 3.07943 4.25500
# Velocity P-wave (km/s) = 7.90361 6.92286 7.42944
#
# Compressibility (1/GPa) = 0.01971161
#
# Stress axis : x y z
#
# Youngs Moduli (GPa) = 39.59294 85.18606 69.64219
#
# Poissons Ratio (x) = 0.52256 0.39070
# Poissons Ratio (y) = 0.24288 0.28395
# Poissons Ratio (z) = 0.22212 0.34733
#
# Static dielectric constant tensor:
#      x y z
#    x 3.137180 0.000000 -0.055710 
#    y 0.000000 3.824010 0.000000 
#    z -0.055710 0.000000 3.661310 
# 
# 
# High freq. dielectric constant tensor:
#      x y z
#    x 1.702690 0.000000 -0.003070 
#    y 0.000000 1.749490 0.000000 
#    z -0.003070 0.000000 1.735930 
# 
# From -- ./inp_files/86485.got.cif
#   From: 2010.06.25/outbox.cif.g09.slc.cpg/sg10_44_cif.got.tgz:86485.got - 2010.06.27 22:07:45.
