data_PCOD8063716
_publ_section_title
;
Structure prediction by ZEFSAII (Michael W. Deem and Ramdas Pophale) SiO2 
 PCOD8063716
Probable space group: P 2/M
;
_chemical_formula_sum "Si O2"
_cell_formula_units_Z 28
_cell_length_a 23.955950
_cell_length_b 9.078086
_cell_length_c 26.079779
_cell_angle_alpha 90.000000
_cell_angle_beta 15.856424
_cell_angle_gamma 90.000000
_cell_volume 1549.659602
_symmetry_space_group_name_H-M "P 2/M"
_symmetry_group_IT_number 10
_symmetry_cell_setting 'monoclinic'
loop_
_space_group_symop_operation_xyz
x,y,z
-x,y,-z
-x,-y,-z
x,-y,z
loop_
_atom_site_type_symbol
_atom_site_label
_atom_site_fract_x
_atom_site_fract_y
_atom_site_fract_z
Si Si1 0.361902 0.327972 0.372485
Si Si2 0.646197 0.173906 0.416057
Si Si3 0.931193 0.327201 0.710517
Si Si4 0.506375 0.674976 0.136119
Si Si5 0.893868 0.828982 0.539791
Si Si6 0.475932 0.330729 0.664288
Si Si7 0.988500 0.332170 0.951930
O O1 0.399732 0.500000 0.342556
O O2 0.486002 0.269562 0.213092
O O3 0.450042 0.259968 0.347120
O O4 0.121669 0.290363 0.579455
O O5 0.500000 0.233888 0.500000
O O6 0.575909 0.234984 0.532097
O O7 0.873581 0.229431 0.205094
O O8 0.642944 0.000000 0.421244
O O9 0.924765 0.500000 0.703384
O O10 0.957661 0.240760 0.634108
O O11 0.724627 0.274766 0.921080
O O12 0.476696 0.500000 0.158747
O O13 0.326202 0.750290 0.262941
O O14 0.000000 0.803509 0.500000
O O15 0.861881 0.000000 0.555431
O O16 0.547118 0.500000 0.594976
O O17 0.234009 0.318074 0.875159
O O18 0.068782 0.500000 0.879137
O O19 0.000000 0.273492 0.000000
#
# Coordination Sequence:
#
# PCOD8063716 Si02
#       7
#     4   4   4   4   4   4   4
#     4   8  16  32  54  80 105 131 169 217 266 311
#     4  11  23  36  52  74 103 139 171 206 258 316
#     4   9  18  34  57  81 105 137 176 220 264 308
#     4   9  18  34  56  79 104 135 175 220 264 309
#     4  10  21  35  51  76 111 147 180 214 255 306
#     4  10  20  35  57  80 103 134 172 217 262 309
#     4  10  20  34  54  79 103 130 169 214 258 308
#
# _framework density 18.068484000000002
#
# number of rings (size 3 to 8) (size 9 to 14) (size 15 to 20)
#    0.000    2.429    1.429    1.714    0.000    4.857 
#    0.000   10.000    0.000    3.429    0.000    0.000 
#    0.000    0.000    0.000    0.000    0.000    0.000 
#
# Total GULP energy -347209.844169 kJ/mol
# GULP energy per Si atom -12400.351577 kJ/mol
# Density = 1.802736 g / cm^3
# Si number density = 18.068484 Si / 1000 Ang^3
#
#
#
# Elastic Constant Matrix: (Units=GPa)
#
#
# Indices 1 2 3 4 5 6 
#
# 1 136.2697 45.3426 66.7031 0.0000 -3.3085 0.0000
# 2 45.3426 54.4918 45.6294 0.0000 3.2471 0.0000
# 3 66.7031 45.6294 142.2686 0.0000 11.3853 0.0000
# 4 0.0000 0.0000 0.0000 18.6823 0.0000 2.1932
# 5 -3.3085 3.2471 11.3853 0.0000 22.3640 0.0000
# 6 0.0000 0.0000 0.0000 2.1932 0.0000 17.8278
#
#
#
# Elastic Compliance Matrix: (Units=1/GPa)
#
#
# Indices 1 2 3 4 5 6 
#
# 1 0.011453 -0.006836 -0.003536 0.000000 0.004487 0.000000
# 2 -0.006836 0.029175 -0.005976 0.000000 -0.002205 0.000000
# 3 -0.003536 -0.005976 0.011025 0.000000 -0.005268 0.000000
# 4 0.000000 0.000000 0.000000 0.054311 0.000000 -0.006681
# 5 0.004487 -0.002205 -0.005268 0.000000 0.048381 0.000000
# 6 0.000000 0.000000 0.000000 -0.006681 0.000000 0.056914
#
#
# Mechanical properties :
#
#
# Convention : Reuss Voigt Hill
#
# Bulk Modulus (GPa) = 52.75137 72.04227 62.39682
# Shear Modulus (GPa) = 19.97811 23.46516 21.72163
#
# Velocity S-wave (km/s) = 3.32880 3.60763 3.47101
# Velocity P-wave (km/s) = 6.63575 7.57045 7.11845
#
# Compressibility (1/GPa) = 0.01895685
#
# Stress axis : x y z
#
# Youngs Moduli (GPa) = 87.31291 34.27598 90.70225
#
# Poissons Ratio (x) = 0.23432 0.32075
# Poissons Ratio (y) = 0.59690 0.54199
# Poissons Ratio (z) = 0.30877 0.20482
#
# Static dielectric constant tensor:
#      x y z
#    x 3.475280 0.000000 0.045190 
#    y 0.000000 3.173560 0.000000 
#    z 0.045190 0.000000 3.344030 
# 
# 
# High freq. dielectric constant tensor:
#      x y z
#    x 1.703060 0.000000 0.000960 
#    y 0.000000 1.680280 0.000000 
#    z 0.000960 0.000000 1.705100 
# 
# From -- ./inp_files/90376.got.cif
#   From: 2010.06.25/outbox.cif.g09.slc.cpg/sg10_46_cif.got.tgz:90376.got - 2010.06.27 22:07:45.
