data_PCOD8063962
_publ_section_title
;
Structure prediction by ZEFSAII (Michael W. Deem and Ramdas Pophale) SiO2 
 PCOD8063962
Probable space group: P 2/M
;
_chemical_formula_sum "Si O2"
_cell_formula_units_Z 24
_cell_length_a 5.508939
_cell_length_b 9.431347
_cell_length_c 21.146173
_cell_angle_alpha 90.000000
_cell_angle_beta 74.335661
_cell_angle_gamma 90.000000
_cell_volume 1057.880484
_symmetry_space_group_name_H-M "P 2/M"
_symmetry_group_IT_number 10
_symmetry_cell_setting 'monoclinic'
loop_
_space_group_symop_operation_xyz
x,y,z
-x,y,-z
-x,-y,-z
x,-y,z
loop_
_atom_site_type_symbol
_atom_site_label
_atom_site_fract_x
_atom_site_fract_y
_atom_site_fract_z
Si Si1 0.026094 0.156630 0.752207
Si Si2 0.074005 0.667472 0.426562
Si Si3 0.378004 0.344187 0.179349
Si Si4 0.353070 0.331489 0.644920
Si Si5 0.756998 0.655209 0.952085
Si Si6 0.154535 0.845010 0.884279
O O1 0.784629 0.258805 0.756166
O O2 0.276195 0.241846 0.712568
O O3 0.018010 0.131083 0.827357
O O4 0.004138 0.000000 0.721052
O O5 0.070597 0.500000 0.430299
O O6 0.361473 0.716693 0.391586
O O7 0.000000 0.731850 0.500000
O O8 0.857365 0.716711 0.392379
O O9 0.441923 0.500000 0.203896
O O10 0.234058 0.366346 0.123778
O O11 0.618137 0.257323 0.143845
O O12 0.338384 0.500000 0.658235
O O13 0.805947 0.500000 0.980147
O O14 0.979527 0.768157 0.949446
O O15 0.500000 0.718794 0.000000
O O16 0.236945 0.000000 0.904796
#
# Coordination Sequence:
#
# PCOD8063962 Si02
#       6
#     4   4   4   4   4   4
#     4  10  22  38  54  77 111 148 186 231 284 341
#     4   9  18  34  57  86 119 152 192 243 292 339
#     4  10  20  35  57  80 105 140 182 232 282 336
#     4  10  20  34  57  88 115 151 198 243 290 344
#     4   9  19  36  55  77 105 139 182 230 280 336
#     4  10  21  36  54  77 108 146 182 226 284 342
#
# _framework density 22.686871
#
# number of rings (size 3 to 8) (size 9 to 14) (size 15 to 20)
#    0.000    2.333    0.000    2.000    2.333    5.667 
#    0.000    3.333    0.000    3.000    0.000    0.000 
#    0.000    0.000    0.000    0.000    0.000    0.000 
#
# Total GULP energy -297319.163522 kJ/mol
# GULP energy per Si atom -12388.298480 kJ/mol
# Density = 2.263523 g / cm^3
# Si number density = 22.686871 Si / 1000 Ang^3
#
#
#
# Elastic Constant Matrix: (Units=GPa)
#
#
# Indices 1 2 3 4 5 6 
#
# 1 123.3270 47.3250 29.4131 0.0000 -41.4968 0.0000
# 2 47.3250 170.0385 32.9682 0.0000 -42.0866 0.0000
# 3 29.4131 32.9682 82.3655 0.0000 -36.6456 0.0000
# 4 0.0000 0.0000 0.0000 52.9013 0.0000 -12.1196
# 5 -41.4968 -42.0866 -36.6456 0.0000 50.2447 0.0000
# 6 0.0000 0.0000 0.0000 -12.1196 0.0000 16.6990
#
#
#
# Elastic Compliance Matrix: (Units=1/GPa)
#
#
# Indices 1 2 3 4 5 6 
#
# 1 0.011381 -0.001065 0.000218 0.000000 0.008667 0.000000
# 2 -0.001065 0.007524 -0.000324 0.000000 0.005187 0.000000
# 3 0.000218 -0.000324 0.017990 0.000000 0.013030 0.000000
# 4 0.000000 0.000000 0.000000 0.022673 0.000000 0.016455
# 5 0.008667 0.005187 0.013030 0.000000 0.040908 0.000000
# 6 0.000000 0.000000 0.000000 0.016455 0.000000 0.071827
#
#
# Mechanical properties :
#
#
# Convention : Reuss Voigt Hill
#
# Bulk Modulus (GPa) = 28.94023 66.12705 47.53364
# Shear Modulus (GPa) = 26.85834 41.70399 34.28117
#
# Velocity S-wave (km/s) = 3.44448 4.29213 3.89145
# Velocity P-wave (km/s) = 5.34820 7.33308 6.41784
#
# Compressibility (1/GPa) = 0.03455398
#
# Stress axis : x y z
#
# Youngs Moduli (GPa) = 87.86324 132.90943 55.58705
#
# Poissons Ratio (x) = 0.14151 -0.01211
# Poissons Ratio (y) = 0.09355 0.01799
# Poissons Ratio (z) = -0.01914 0.04301
#
# Static dielectric constant tensor:
#      x y z
#    x 4.120020 0.000000 0.045150 
#    y 0.000000 4.463260 0.000000 
#    z 0.045150 0.000000 4.335930 
# 
# 
# High freq. dielectric constant tensor:
#      x y z
#    x 1.888250 0.000000 -0.014930 
#    y 0.000000 1.881470 0.000000 
#    z -0.014930 0.000000 1.886820 
# 
# From -- ./inp_files/12998.got.cif
#   From: 2010.06.25/outbox.cif.g09.slc.cpg/sg10_7_cif.got.tgz:12998.got - 2010.06.27 22:07:45.
