data_PCOD8063942
_publ_section_title
;
Structure prediction by ZEFSAII (Michael W. Deem and Ramdas Pophale) SiO2 
 PCOD8063942
Probable space group: P 2/M
;
_chemical_formula_sum "Si O2"
_cell_formula_units_Z 28
_cell_length_a 27.306170
_cell_length_b 9.022615
_cell_length_c 9.363888
_cell_angle_alpha 90.000000
_cell_angle_beta 38.888425
_cell_angle_gamma 90.000000
_cell_volume 1448.354142
_symmetry_space_group_name_H-M "P 2/M"
_symmetry_group_IT_number 10
_symmetry_cell_setting 'monoclinic'
loop_
_space_group_symop_operation_xyz
x,y,z
-x,y,-z
-x,-y,-z
x,-y,z
loop_
_atom_site_type_symbol
_atom_site_label
_atom_site_fract_x
_atom_site_fract_y
_atom_site_fract_z
Si Si1 0.848209 0.325632 0.186754
Si Si2 0.991279 0.324718 0.679928
Si Si3 0.855291 0.324627 0.494817
Si Si4 0.466444 0.325159 0.222489
Si Si5 0.560790 0.836564 0.236838
Si Si6 0.273445 0.175356 0.022853
Si Si7 0.293965 0.675008 0.682805
O O1 0.861050 0.500000 0.162277
O O2 0.857460 0.265604 0.326859
O O3 0.762739 0.284987 0.320457
O O4 0.914599 0.257559 0.931699
O O5 0.983154 0.500000 0.685143
O O6 0.064565 0.280619 0.610496
O O7 0.000000 0.257187 0.500000
O O8 0.839310 0.500000 0.539093
O O9 0.787082 0.238223 0.727463
O O10 0.460117 0.500000 0.228079
O O11 0.529358 0.281964 0.197066
O O12 0.380044 0.261263 0.451020
O O13 0.500000 0.258159 0.000000
O O14 0.500000 0.849377 0.500000
O O15 0.571253 0.000000 0.142848
O O16 0.641761 0.776181 0.114161
O O17 0.265059 0.000000 0.027763
O O18 0.259157 0.247327 0.901296
O O19 0.295654 0.500000 0.707683
#
# Coordination Sequence:
#
# PCOD8063942 Si02
#       7
#     4   4   4   4   4   4   4
#     4   9  18  32  54  84 116 143 178 225 269 322
#     4   9  16  29  53  85 115 143 179 221 265 320
#     4  10  20  34  57  85 112 145 180 222 276 325
#     4  10  22  36  55  84 115 142 177 227 280 328
#     4  10  21  39  58  77 105 145 189 228 270 322
#     4  11  23  38  56  79 109 144 186 232 272 321
#     4  10  20  36  56  80 109 145 183 224 274 326
#
# _framework density 19.332287999999998
#
# number of rings (size 3 to 8) (size 9 to 14) (size 15 to 20)
#    0.000    2.143    1.429    1.714    2.000    5.714 
#    0.000    0.714    0.000    5.571    0.000    0.000 
#    0.000    0.000    0.000    0.000    0.000    0.000 
#
# Total GULP energy -347196.979529 kJ/mol
# GULP energy per Si atom -12399.892126 kJ/mol
# Density = 1.928829 g / cm^3
# Si number density = 19.332288 Si / 1000 Ang^3
#
#
#
# Elastic Constant Matrix: (Units=GPa)
#
#
# Indices 1 2 3 4 5 6 
#
# 1 146.6085 28.5832 63.3391 0.0000 13.6767 0.0000
# 2 28.5832 23.1300 27.4935 0.0000 -1.2772 0.0000
# 3 63.3391 27.4935 132.1652 0.0000 15.2594 0.0000
# 4 0.0000 0.0000 0.0000 15.4567 0.0000 -10.2405
# 5 13.6767 -1.2772 15.2594 0.0000 36.7191 0.0000
# 6 0.0000 0.0000 0.0000 -10.2405 0.0000 16.3082
#
#
#
# Elastic Compliance Matrix: (Units=1/GPa)
#
#
# Indices 1 2 3 4 5 6 
#
# 1 0.010052 -0.009678 -0.002451 0.000000 -0.003062 0.000000
# 2 -0.009678 0.068688 -0.010864 0.000000 0.010509 0.000000
# 3 -0.002451 -0.010864 0.011490 0.000000 -0.004240 0.000000
# 4 0.000000 0.000000 0.000000 0.110787 0.000000 0.069567
# 5 -0.003062 0.010509 -0.004240 0.000000 0.030502 0.000000
# 6 0.000000 0.000000 0.000000 0.069567 0.000000 0.105002
#
#
# Mechanical properties :
#
#
# Convention : Reuss Voigt Hill
#
# Bulk Modulus (GPa) = 22.60156 60.08169 41.34163
# Shear Modulus (GPa) = 12.58639 25.86266 19.22452
#
# Velocity S-wave (km/s) = 2.55435 3.66156 3.15687
# Velocity P-wave (km/s) = 4.51841 7.00156 5.89228
#
# Compressibility (1/GPa) = 0.04424473
#
# Stress axis : x y z
#
# Youngs Moduli (GPa) = 99.48072 14.55868 87.03136
#
# Poissons Ratio (x) = 0.14091 0.21327
# Poissons Ratio (y) = 0.96282 0.94547
# Poissons Ratio (z) = 0.24378 0.15816
#
# Static dielectric constant tensor:
#      x y z
#    x 3.537400 0.000000 -0.015310 
#    y 0.000000 3.152480 0.000000 
#    z -0.015310 0.000000 3.826310 
# 
# 
# High freq. dielectric constant tensor:
#      x y z
#    x 1.766080 0.000000 -0.002120 
#    y 0.000000 1.707350 0.000000 
#    z -0.002120 0.000000 1.766580 
# 
# From -- ./inp_files/36920.got.cif
#   From: 2010.06.25/outbox.cif.g09.slc.cpg/sg10_19_cif.got.tgz:36920.got - 2010.06.27 22:07:45.
