data_PCOD8063851
_publ_section_title
;
Structure prediction by ZEFSAII (Michael W. Deem and Ramdas Pophale) SiO2 
 PCOD8063851
Probable space group: P 2/M
;
_chemical_formula_sum "Si O2"
_cell_formula_units_Z 28
_cell_length_a 20.209590
_cell_length_b 9.361936
_cell_length_c 23.059902
_cell_angle_alpha 90.000000
_cell_angle_beta 19.715794
_cell_angle_gamma 90.000000
_cell_volume 1471.863318
_symmetry_space_group_name_H-M "P 2/M"
_symmetry_group_IT_number 10
_symmetry_cell_setting 'monoclinic'
loop_
_space_group_symop_operation_xyz
x,y,z
-x,y,-z
-x,-y,-z
x,-y,z
loop_
_atom_site_type_symbol
_atom_site_label
_atom_site_fract_x
_atom_site_fract_y
_atom_site_fract_z
Si Si1 0.303308 0.331184 0.696444
Si Si2 0.167223 0.165787 0.608366
Si Si3 0.619536 0.163517 0.252728
Si Si4 0.999296 0.836071 0.129350
Si Si5 0.919132 0.333521 0.722052
Si Si6 0.163304 0.153581 0.320242
Si Si7 0.487525 0.653736 0.079349
O O1 0.500000 0.289197 0.500000
O O2 0.275219 0.500000 0.723983
O O3 0.309707 0.267185 0.755125
O O4 0.117699 0.265419 0.817314
O O5 0.397588 0.203768 0.419142
O O6 0.056378 0.207772 0.759269
O O7 0.079019 0.261595 0.630679
O O8 0.133580 0.000000 0.621472
O O9 0.627057 0.000000 0.268831
O O10 0.767539 0.183828 0.075816
O O11 0.935486 0.000000 0.170986
O O12 0.969811 0.500000 0.672452
O O13 0.921651 0.260240 0.657381
O O14 0.702029 0.312271 0.928690
O O15 0.336613 0.220541 0.217020
O O16 0.000000 0.117680 0.500000
O O17 0.231312 0.000000 0.236922
O O18 0.413871 0.500000 0.164350
O O19 0.500000 0.644267 0.000000
#
# Coordination Sequence:
#
# PCOD8063851 Si02
#       7
#     4   4   4   4   4   4   4
#     4  11  22  35  56  85 115 148 188 236 286 336
#     4  10  21  38  58  80 114 152 187 233 280 330
#     4  10  21  38  60  84 111 146 191 236 281 339
#     4  10  21  38  60  84 109 146 191 233 285 339
#     4  10  21  37  57  80 110 147 183 221 273 335
#     4  10  20  34  55  85 114 141 180 229 273 318
#     4   8  16  32  53  76 103 136 174 215 262 318
#
# _framework density 19.023506000000001
#
# number of rings (size 3 to 8) (size 9 to 14) (size 15 to 20)
#    0.000    2.143    1.429    2.571    0.000    8.286 
#    2.571    0.000    0.000    0.000    0.000    0.000 
#    0.000    0.000    0.000    0.000    0.000    0.000 
#
# Total GULP energy -347061.181278 kJ/mol
# GULP energy per Si atom -12395.042189 kJ/mol
# Density = 1.898021 g / cm^3
# Si number density = 19.023506 Si / 1000 Ang^3
#
#
#
# Elastic Constant Matrix: (Units=GPa)
#
#
# Indices 1 2 3 4 5 6 
#
# 1 80.6897 51.2207 41.6651 0.0000 -16.4119 0.0000
# 2 51.2207 112.4307 47.3142 0.0000 -11.8650 0.0000
# 3 41.6651 47.3142 117.7956 0.0000 -3.7317 0.0000
# 4 0.0000 0.0000 0.0000 25.2234 0.0000 -8.3608
# 5 -16.4119 -11.8650 -3.7317 0.0000 23.4223 0.0000
# 6 0.0000 0.0000 0.0000 -8.3608 0.0000 -29.1341
#
#
#
# Elastic Compliance Matrix: (Units=1/GPa)
#
#
# Indices 1 2 3 4 5 6 
#
# 1 0.021055 -0.006584 -0.004464 0.000000 0.010707 0.000000
# 2 -0.006584 0.013318 -0.002968 0.000000 0.001660 0.000000
# 3 -0.004464 -0.002968 0.011170 0.000000 -0.002852 0.000000
# 4 0.000000 0.000000 0.000000 0.036202 0.000000 -0.010389
# 5 0.010707 0.001660 -0.002852 0.000000 0.050583 0.000000
# 6 0.000000 0.000000 0.000000 -0.010389 0.000000 -0.031343
#
#
# Mechanical properties :
#
#
# Convention : Reuss Voigt Hill
#
# Bulk Modulus (GPa) = 57.10362 65.70179 61.40270
# Shear Modulus (GPa) = 37.07708 15.28339 26.18023
#
# Velocity S-wave (km/s) = 4.41955 2.83750 3.71375
# Velocity P-wave (km/s) = 7.49172 6.73404 7.12296
#
# Compressibility (1/GPa) = 0.01751203
#
# Stress axis : x y z
#
# Youngs Moduli (GPa) = 47.49456 75.08602 89.52610
#
# Poissons Ratio (x) = 0.49435 0.39961
# Poissons Ratio (y) = 0.31270 0.26572
# Poissons Ratio (z) = 0.21200 0.22286
#
# Static dielectric constant tensor:
#      x y z
#    x 3.235100 0.000000 -0.179000 
#    y 0.000000 3.682090 0.000000 
#    z -0.179000 0.000000 3.759460 
# 
# 
# High freq. dielectric constant tensor:
#      x y z
#    x 1.710760 0.000000 -0.010400 
#    y 0.000000 1.750860 0.000000 
#    z -0.010400 0.000000 1.746130 
# 
# From -- ./inp_files/86432.got.cif
#   From: 2010.06.25/outbox.cif.g09.slc.cpg/sg10_44_cif.got.tgz:86432.got - 2010.06.27 22:07:45.
