data_PCOD8063482
_publ_section_title
;
Structure prediction by ZEFSAII (Michael W. Deem and Ramdas Pophale) SiO2 
 PCOD8063482
Probable space group: P 2/M
;
_chemical_formula_sum "Si O2"
_cell_formula_units_Z 32
_cell_length_a 14.644064
_cell_length_b 8.905620
_cell_length_c 25.996851
_cell_angle_alpha 90.000000
_cell_angle_beta 31.803857
_cell_angle_gamma 90.000000
_cell_volume 1786.766730
_symmetry_space_group_name_H-M "P 2/M"
_symmetry_group_IT_number 10
_symmetry_cell_setting 'monoclinic'
loop_
_space_group_symop_operation_xyz
x,y,z
-x,y,-z
-x,-y,-z
x,-y,z
loop_
_atom_site_type_symbol
_atom_site_label
_atom_site_fract_x
_atom_site_fract_y
_atom_site_fract_z
Si Si1 0.747638 0.326484 0.436021
Si Si2 0.401446 0.671983 0.663886
Si Si3 0.751584 0.822513 0.894258
Si Si4 0.452051 0.676702 0.096819
Si Si5 0.067400 0.176334 0.561895
Si Si6 0.710793 0.671796 0.718484
Si Si7 0.362561 0.672841 0.359532
Si Si8 0.148853 0.175074 0.715776
O O1 0.796486 0.500000 0.410414
O O2 0.557351 0.299567 0.549511
O O3 0.890588 0.246384 0.402820
O O4 0.752880 0.260536 0.376660
O O5 0.340270 0.500000 0.692065
O O6 0.466618 0.719823 0.689816
O O7 0.238499 0.774694 0.726273
O O8 0.702121 0.745250 0.863924
O O9 0.947719 0.780682 0.814069
O O10 0.722192 0.000000 0.903591
O O11 0.632434 0.756583 0.996644
O O12 0.466190 0.500000 0.079078
O O13 0.414288 0.712393 0.174388
O O14 0.196956 0.231376 0.455631
O O15 0.874449 0.219959 0.638424
O O16 0.082537 0.000000 0.559698
O O17 0.775920 0.500000 0.691618
O O18 0.602161 0.696272 0.717863
O O19 0.318919 0.500000 0.394148
O O20 0.173850 0.000000 0.695191
#
# Coordination Sequence:
#
# PCOD8063482 Si02
#       8
#     4   4   4   4   4   4   4   4
#     4  10  20  34  51  72 101 137 172 205 247 296
#     4   9  19  34  51  71  97 133 172 207 245 291
#     4  10  21  36  52  73 104 135 158 191 247 305
#     4  10  20  34  55  80 100 124 162 204 245 292
#     4  11  21  31  47  75 107 136 169 206 245 293
#     4  10  20  34  53  75 100 132 169 208 250 297
#     4   9  19  36  53  70  99 137 172 207 249 292
#     4  11  22  33  50  76 102 131 167 206 249 298
#
# _framework density 17.909444000000001
#
# number of rings (size 3 to 8) (size 9 to 14) (size 15 to 20)
#    0.000    2.000    0.000    5.625    0.000   11.000 
#    0.000    0.000    0.000    0.750    0.000    5.250 
#    0.000    0.000    0.000    0.000    0.000    0.000 
#
# Total GULP energy -396878.661745 kJ/mol
# GULP energy per Si atom -12402.458180 kJ/mol
# Density = 1.786868 g / cm^3
# Si number density = 17.909444 Si / 1000 Ang^3
#
#
#
# Elastic Constant Matrix: (Units=GPa)
#
#
# Indices 1 2 3 4 5 6 
#
# 1 135.9060 51.7654 66.7782 0.0000 3.6056 0.0000
# 2 51.7654 97.3452 42.7804 0.0000 -4.4773 0.0000
# 3 66.7782 42.7804 74.0138 0.0000 1.4515 0.0000
# 4 0.0000 0.0000 0.0000 19.1416 0.0000 -10.7360
# 5 3.6056 -4.4773 1.4515 0.0000 28.0791 0.0000
# 6 0.0000 0.0000 0.0000 -10.7360 0.0000 19.3447
#
#
#
# Elastic Compliance Matrix: (Units=1/GPa)
#
#
# Indices 1 2 3 4 5 6 
#
# 1 0.013720 -0.002606 -0.010841 0.000000 -0.001617 0.000000
# 2 -0.002606 0.014460 -0.006064 0.000000 0.002954 0.000000
# 3 -0.010841 -0.006064 0.026816 0.000000 -0.000961 0.000000
# 4 0.000000 0.000000 0.000000 0.075854 0.000000 0.042098
# 5 -0.001617 0.002954 -0.000961 0.000000 0.036342 0.000000
# 6 0.000000 0.000000 0.000000 0.042098 0.000000 0.075058
#
#
# Mechanical properties :
#
#
# Convention : Reuss Voigt Hill
#
# Bulk Modulus (GPa) = 62.60439 69.99032 66.29736
# Shear Modulus (GPa) = 17.44614 23.04249 20.24431
#
# Velocity S-wave (km/s) = 3.12449 3.59083 3.36575
# Velocity P-wave (km/s) = 6.93171 7.50713 7.22515
#
# Compressibility (1/GPa) = 0.01597332
#
# Stress axis : x y z
#
# Youngs Moduli (GPa) = 72.88441 69.15867 37.29100
#
# Poissons Ratio (x) = 0.18024 0.40427
# Poissons Ratio (y) = 0.18995 0.22614
# Poissons Ratio (z) = 0.79014 0.41939
#
# Static dielectric constant tensor:
#      x y z
#    x 3.471490 0.000000 0.041400 
#    y 0.000000 3.347950 0.000000 
#    z 0.041400 0.000000 3.113290 
# 
# 
# High freq. dielectric constant tensor:
#      x y z
#    x 1.697760 0.000000 0.000760 
#    y 0.000000 1.700720 0.000000 
#    z 0.000760 0.000000 1.665820 
# 
# From -- ./inp_files/66509.got.cif
#   From: 2010.06.25/outbox.cif.g09.slc.cpg/sg10_34_cif.got.tgz:66509.got - 2010.06.27 22:07:45.
