data_PCOD8063992
_publ_section_title
;
Structure prediction by ZEFSAII (Michael W. Deem and Ramdas Pophale) SiO2 
 PCOD8063992
Probable space group: P 2/M
;
_chemical_formula_sum "Si O2"
_cell_formula_units_Z 32
_cell_length_a 17.451665
_cell_length_b 14.467913
_cell_length_c 11.460482
_cell_angle_alpha 90.000000
_cell_angle_beta 148.343854
_cell_angle_gamma 90.000000
_cell_volume 1518.644970
_symmetry_space_group_name_H-M "P 2/M"
_symmetry_group_IT_number 10
_symmetry_cell_setting 'monoclinic'
loop_
_space_group_symop_operation_xyz
x,y,z
-x,y,-z
-x,-y,-z
x,-y,z
loop_
_atom_site_type_symbol
_atom_site_label
_atom_site_fract_x
_atom_site_fract_y
_atom_site_fract_z
Si Si1 0.573672 0.222313 0.338124
Si Si2 0.777419 0.394781 0.967006
Si Si3 0.675310 0.394616 0.591839
Si Si4 0.906065 0.398404 0.707945
Si Si5 0.076315 0.109228 0.832081
Si Si6 0.799377 0.771621 0.443221
Si Si7 0.753454 0.225764 0.111021
Si Si8 0.658705 0.107851 0.654607
O O1 0.568703 0.328143 0.379073
O O2 0.643788 0.207524 0.301534
O O3 0.674171 0.161593 0.553894
O O4 0.408713 0.186837 0.118760
O O5 0.756553 0.500000 0.988004
O O6 0.777135 0.323172 0.073961
O O7 0.921082 0.387560 0.073400
O O8 0.661840 0.371089 0.713512
O O9 0.622689 0.500000 0.504119
O O10 0.839704 0.379921 0.751580
O O11 0.859024 0.500000 0.605637
O O12 0.838520 0.331864 0.525205
O O13 0.134913 0.147071 0.785386
O O14 0.920438 0.157387 0.652369
O O15 0.053121 0.000000 0.798409
O O16 0.202711 0.139050 0.087926
O O17 0.785887 0.767560 0.288245
O O18 0.500000 0.134847 0.500000
O O19 0.667850 0.000000 0.641460
#
# Coordination Sequence:
#
# PCOD8063992 Si02
#       8
#     4   4   4   4   4   4   4   4
#     4  11  24  40  65  90 125 168 205 251 313 367
#     4  10  20  34  59  93 124 160 206 259 310 361
#     4   9  19  35  57  89 129 163 200 251 313 374
#     4   9  18  35  58  87 123 164 204 252 312 367
#     4  11  24  43  68  94 122 157 200 258 318 366
#     4  11  25  42  60  90 125 168 216 255 292 359
#     4  12  24  41  61  88 128 168 212 252 302 366
#     4  10  21  41  68  96 123 152 195 253 319 378
#
# _framework density 21.071415999999999
#
# number of rings (size 3 to 8) (size 9 to 14) (size 15 to 20)
#    0.000    1.625    2.500    1.875    0.000    4.500 
#    0.000    3.750    0.000    6.000    0.000    0.000 
#    0.000    0.000    0.000    0.000    0.000    0.000 
#
# Total GULP energy -396566.286679 kJ/mol
# GULP energy per Si atom -12392.696459 kJ/mol
# Density = 2.102346 g / cm^3
# Si number density = 21.071416 Si / 1000 Ang^3
#
#
#
# Elastic Constant Matrix: (Units=GPa)
#
#
# Indices 1 2 3 4 5 6 
#
# 1 68.1041 36.5709 26.4379 0.0000 -21.6402 0.0000
# 2 36.5709 68.4167 29.5901 0.0000 -4.6034 0.0000
# 3 26.4379 29.5901 60.4588 0.0000 -12.1585 0.0000
# 4 0.0000 0.0000 0.0000 18.2934 0.0000 1.2781
# 5 -21.6402 -4.6034 -12.1585 0.0000 34.1335 0.0000
# 6 0.0000 0.0000 0.0000 1.2781 0.0000 21.4214
#
#
#
# Elastic Compliance Matrix: (Units=1/GPa)
#
#
# Indices 1 2 3 4 5 6 
#
# 1 0.026917 -0.012153 -0.002930 0.000000 0.014382 0.000000
# 2 -0.012153 0.024048 -0.007920 0.000000 -0.007283 0.000000
# 3 -0.002930 -0.007920 0.022738 0.000000 0.005174 0.000000
# 4 0.000000 0.000000 0.000000 0.054893 0.000000 -0.003275
# 5 0.014382 -0.007283 0.005174 0.000000 0.039276 0.000000
# 6 0.000000 0.000000 0.000000 -0.003275 0.000000 0.046878
#
#
# Mechanical properties :
#
#
# Convention : Reuss Voigt Hill
#
# Bulk Modulus (GPa) = 36.10511 42.46417 39.28464
# Shear Modulus (GPa) = 18.51937 21.72836 20.12386
#
# Velocity S-wave (km/s) = 2.96782 3.21468 3.09371
# Velocity P-wave (km/s) = 5.37734 5.82882 5.60762
#
# Compressibility (1/GPa) = 0.02769691
#
# Stress axis : x y z
#
# Youngs Moduli (GPa) = 37.15154 41.58388 43.97897
#
# Poissons Ratio (x) = 0.50537 0.12886
# Poissons Ratio (y) = 0.45150 0.34831
# Poissons Ratio (z) = 0.10886 0.32934
#
# Static dielectric constant tensor:
#      x y z
#    x 3.883240 0.000000 0.176040 
#    y 0.000000 3.881730 0.000000 
#    z 0.176040 0.000000 3.698820 
# 
# 
# High freq. dielectric constant tensor:
#      x y z
#    x 1.829840 0.000000 0.012350 
#    y 0.000000 1.826290 0.000000 
#    z 0.012350 0.000000 1.815990 
# 
# From -- ./inp_files/54055.got.cif
#   From: 2010.06.25/outbox.cif.g09.slc.cpg/sg10_28_cif.got.tgz:54055.got - 2010.06.27 22:07:45.
