data_PCOD8063707
_publ_section_title
;
Structure prediction by ZEFSAII (Michael W. Deem and Ramdas Pophale) SiO2 
 PCOD8063707
Probable space group: P 2/M
;
_chemical_formula_sum "Si O2"
_cell_formula_units_Z 32
_cell_length_a 14.227696
_cell_length_b 9.162002
_cell_length_c 14.238627
_cell_angle_alpha 90.000000
_cell_angle_beta 118.187877
_cell_angle_gamma 90.000000
_cell_volume 1635.941625
_symmetry_space_group_name_H-M "P 2/M"
_symmetry_group_IT_number 10
_symmetry_cell_setting 'monoclinic'
loop_
_space_group_symop_operation_xyz
x,y,z
-x,y,-z
-x,-y,-z
x,-y,z
loop_
_atom_site_type_symbol
_atom_site_label
_atom_site_fract_x
_atom_site_fract_y
_atom_site_fract_z
Si Si1 0.782356 0.170050 0.991754
Si Si2 0.042701 0.328667 0.807471
Si Si3 0.538361 0.170130 0.915096
Si Si4 0.601965 0.835364 0.614331
Si Si5 0.049838 0.672678 0.429556
Si Si6 0.479488 0.670822 0.707380
Si Si7 0.719781 0.670606 0.517485
Si Si8 0.108608 0.338985 0.109419
O O1 0.857347 0.241938 0.105184
O O2 0.805737 0.000000 0.002002
O O3 0.662521 0.207839 0.963597
O O4 0.806725 0.230145 0.898298
O O5 0.065958 0.500000 0.832623
O O6 0.028561 0.284821 0.692530
O O7 0.929479 0.288816 0.804776
O O8 0.471516 0.262896 0.807904
O O9 0.515535 0.000000 0.886426
O O10 0.500000 0.218117 0.000000
O O11 0.500000 0.835236 0.500000
O O12 0.576113 0.749627 0.697921
O O13 0.696344 0.753621 0.603945
O O14 0.636812 0.000000 0.656562
O O15 0.057848 0.500000 0.443644
O O16 0.169020 0.732652 0.469782
O O17 0.000000 0.743053 0.500000
O O18 0.504498 0.500000 0.723978
O O19 0.368182 0.702622 0.603234
O O20 0.724932 0.500000 0.544763
O O21 0.160826 0.500000 0.136250
O O22 0.000000 0.341490 0.000000
#
# Coordination Sequence:
#
# PCOD8063707 Si02
#       8
#     4   4   4   4   4   4   4   4
#     4  10  20  34  54  78 102 132 170 215 262 304
#     4   9  18  33  54  78 105 138 170 204 254 313
#     4  10  23  41  55  71 102 143 183 219 261 318
#     4   9  17  31  53  80 109 141 174 208 257 322
#     4   9  18  33  53  77 105 139 178 215 255 307
#     4  10  20  34  55  82 109 136 171 221 269 306
#     4   9  18  33  53  80 111 139 173 219 264 306
#     4   8  15  29  49  76 107 134 163 202 254 315
#
# _framework density 19.560599
#
# number of rings (size 3 to 8) (size 9 to 14) (size 15 to 20)
#    0.000    2.750    0.000    1.875    0.000    7.500 
#    0.000    3.125    0.000    1.500    0.000    0.000 
#    0.000    0.000    0.000    0.000    0.000    0.000 
#
# Total GULP energy -396770.537343 kJ/mol
# GULP energy per Si atom -12399.079292 kJ/mol
# Density = 1.951608 g / cm^3
# Si number density = 19.560599 Si / 1000 Ang^3
#
#
#
# Elastic Constant Matrix: (Units=GPa)
#
#
# Indices 1 2 3 4 5 6 
#
# 1 89.8669 27.0589 10.3479 0.0000 -13.7398 0.0000
# 2 27.0589 70.7419 22.2248 0.0000 -3.0484 0.0000
# 3 10.3479 22.2248 45.5253 0.0000 -19.5594 0.0000
# 4 0.0000 0.0000 0.0000 22.7602 0.0000 -4.4962
# 5 -13.7398 -3.0484 -19.5594 0.0000 33.1623 0.0000
# 6 0.0000 0.0000 0.0000 -4.4962 0.0000 23.8057
#
#
#
# Elastic Compliance Matrix: (Units=1/GPa)
#
#
# Indices 1 2 3 4 5 6 
#
# 1 0.013559 -0.005697 0.002528 0.000000 0.006585 0.000000
# 2 -0.005697 0.019580 -0.011391 0.000000 -0.007279 0.000000
# 3 0.002528 -0.011391 0.036100 0.000000 0.021293 0.000000
# 4 0.000000 0.000000 0.000000 0.045639 0.000000 0.008620
# 5 0.006585 -0.007279 0.021293 0.000000 0.044773 0.000000
# 6 0.000000 0.000000 0.000000 0.008620 0.000000 0.043635
#
#
# Mechanical properties :
#
#
# Convention : Reuss Voigt Hill
#
# Bulk Modulus (GPa) = 24.92529 36.15527 30.54028
# Shear Modulus (GPa) = 20.34361 25.71247 23.02804
#
# Velocity S-wave (km/s) = 3.22845 3.62954 3.43485
# Velocity P-wave (km/s) = 5.16405 6.00738 5.60161
#
# Compressibility (1/GPa) = 0.04011989
#
# Stress axis : x y z
#
# Youngs Moduli (GPa) = 73.75427 51.07261 27.70070
#
# Poissons Ratio (x) = 0.29095 -0.07004
# Poissons Ratio (y) = 0.42016 0.31554
# Poissons Ratio (z) = -0.18649 0.58177
#
# Static dielectric constant tensor:
#      x y z
#    x 3.762710 0.000000 -0.293550 
#    y 0.000000 3.441390 0.000000 
#    z -0.293550 0.000000 3.594870 
# 
# 
# High freq. dielectric constant tensor:
#      x y z
#    x 1.758580 0.000000 -0.006950 
#    y 0.000000 1.743270 0.000000 
#    z -0.006950 0.000000 1.762710 
# 
# From -- ./inp_files/66591.got.cif
#   From: 2010.06.25/outbox.cif.g09.slc.cpg/sg10_34_cif.got.tgz:66591.got - 2010.06.27 22:07:45.
