data_PCOD8063607
_publ_section_title
;
Structure prediction by ZEFSAII (Michael W. Deem and Ramdas Pophale) SiO2 
 PCOD8063607
Probable space group: P 2/M
;
_chemical_formula_sum "Si O2"
_cell_formula_units_Z 28
_cell_length_a 8.774300
_cell_length_b 10.112796
_cell_length_c 29.825637
_cell_angle_alpha 90.000000
_cell_angle_beta 35.446138
_cell_angle_gamma 90.000000
_cell_volume 1534.809757
_symmetry_space_group_name_H-M "P 2/M"
_symmetry_group_IT_number 10
_symmetry_cell_setting 'monoclinic'
loop_
_space_group_symop_operation_xyz
x,y,z
-x,y,-z
-x,-y,-z
x,-y,z
loop_
_atom_site_type_symbol
_atom_site_label
_atom_site_fract_x
_atom_site_fract_y
_atom_site_fract_z
Si Si1 0.798500 0.847826 0.750969
Si Si2 0.037173 0.761514 0.824346
Si Si3 0.817801 0.352831 0.301334
Si Si4 0.753029 0.645527 0.970535
Si Si5 0.607154 0.148032 0.698718
Si Si6 0.483225 0.852721 0.091885
Si Si7 0.243390 0.651840 0.410837
O O1 0.668113 0.813432 0.735112
O O2 0.581934 0.818346 0.841010
O O3 0.051740 0.755180 0.697501
O O4 0.893083 0.000000 0.731383
O O5 0.075455 0.655977 0.775208
O O6 0.294462 0.851836 0.766024
O O7 0.999886 0.687341 0.880699
O O8 0.782160 0.849836 0.874425
O O9 0.884080 0.500000 0.303084
O O10 0.505959 0.327249 0.377091
O O11 0.806988 0.500000 0.978248
O O12 0.500000 0.640406 0.000000
O O13 0.703567 0.749432 0.022460
O O14 0.758836 0.252727 0.631550
O O15 0.707885 0.000000 0.663575
O O16 0.602123 0.000000 0.059012
O O17 0.222428 0.500000 0.399136
O O18 0.000000 0.691871 0.500000
#
# Coordination Sequence:
#
# PCOD8063607 Si02
#       7
#     4   4   4   4   4   4   4
#     4   9  19  34  49  70 102 134 165 202 244 291
#     4   9  17  29  49  71  95 123 163 209 251 289
#     4   9  17  31  53  75  95 127 167 201 238 289
#     4   9  17  28  44  67  94 123 159 206 252 291
#     4  10  20  34  53  76 100 129 165 203 243 289
#     4   9  17  29  46  67  92 125 163 203 247 292
#     4   9  19  36  56  79 105 129 157 197 243 290
#
# _framework density 18.243303999999998
#
# number of rings (size 3 to 8) (size 9 to 14) (size 15 to 20)
#    0.000    2.857    0.000    0.857    0.000   11.429 
#    0.000    1.429    0.000    7.714    0.000    0.000 
#    0.000    0.000    0.000    0.000    0.000    0.000 
#
# Total GULP energy -347144.853614 kJ/mol
# GULP energy per Si atom -12398.030486 kJ/mol
# Density = 1.820178 g / cm^3
# Si number density = 18.243304 Si / 1000 Ang^3
#
#
#
# Elastic Constant Matrix: (Units=GPa)
#
#
# Indices 1 2 3 4 5 6 
#
# 1 68.6435 38.0794 27.9971 0.0000 16.5854 0.0000
# 2 38.0794 112.2492 48.1893 0.0000 16.0931 0.0000
# 3 27.9971 48.1893 97.3060 0.0000 8.7925 0.0000
# 4 0.0000 0.0000 0.0000 24.8787 0.0000 5.0550
# 5 16.5854 16.0931 8.7925 0.0000 17.8810 0.0000
# 6 0.0000 0.0000 0.0000 5.0550 0.0000 20.5948
#
#
#
# Elastic Compliance Matrix: (Units=1/GPa)
#
#
# Indices 1 2 3 4 5 6 
#
# 1 0.021558 -0.003907 -0.002908 0.000000 -0.015049 0.000000
# 2 -0.003907 0.013158 -0.004866 0.000000 -0.005826 0.000000
# 3 -0.002908 -0.004866 0.013483 0.000000 0.000447 0.000000
# 4 0.000000 0.000000 0.000000 0.042305 0.000000 -0.010384
# 5 -0.015049 -0.005826 0.000447 0.000000 0.074908 0.000000
# 6 0.000000 0.000000 0.000000 -0.010384 0.000000 0.051105
#
#
# Mechanical properties :
#
#
# Convention : Reuss Voigt Hill
#
# Bulk Modulus (GPa) = 40.26225 56.30336 48.28280
# Shear Modulus (GPa) = 20.14849 23.59975 21.87412
#
# Velocity S-wave (km/s) = 3.32691 3.60058 3.46645
# Velocity P-wave (km/s) = 6.07250 6.94371 6.52267
#
# Compressibility (1/GPa) = 0.02483716
#
# Stress axis : x y z
#
# Youngs Moduli (GPa) = 46.38722 75.99658 74.16804
#
# Poissons Ratio (x) = 0.29694 0.21566
# Poissons Ratio (y) = 0.18125 0.36089
# Poissons Ratio (z) = 0.13488 0.36979
#
# Static dielectric constant tensor:
#      x y z
#    x 3.092740 0.000000 0.027260 
#    y 0.000000 3.479050 0.000000 
#    z 0.027260 0.000000 3.316610 
# 
# 
# High freq. dielectric constant tensor:
#      x y z
#    x 1.677310 0.000000 0.003760 
#    y 0.000000 1.715350 0.000000 
#    z 0.003760 0.000000 1.694150 
# 
# From -- ./inp_files/79285.got.cif
#   From: 2010.06.25/outbox.cif.g09.slc.cpg/sg10_40_cif.got.tgz:79285.got - 2010.06.27 22:07:45.
