data_PCOD8063898
_publ_section_title
;
Structure prediction by ZEFSAII (Michael W. Deem and Ramdas Pophale) SiO2 
 PCOD8063898
Probable space group: P 2/M
;
_chemical_formula_sum "Si O2"
_cell_formula_units_Z 28
_cell_length_a 20.293348
_cell_length_b 14.075780
_cell_length_c 8.940679
_cell_angle_alpha 90.000000
_cell_angle_beta 33.154621
_cell_angle_gamma 90.000000
_cell_volume 1396.705541
_symmetry_space_group_name_H-M "P 2/M"
_symmetry_group_IT_number 10
_symmetry_cell_setting 'monoclinic'
loop_
_space_group_symop_operation_xyz
x,y,z
-x,y,-z
-x,-y,-z
x,-y,z
loop_
_atom_site_type_symbol
_atom_site_label
_atom_site_fract_x
_atom_site_fract_y
_atom_site_fract_z
Si Si1 0.730339 0.787607 0.911754
Si Si2 0.962690 0.301054 0.415006
Si Si3 0.559134 0.107362 0.041078
Si Si4 0.356638 0.609923 0.765967
Si Si5 0.784754 0.282613 0.218833
Si Si6 0.131131 0.396886 0.680559
Si Si7 0.331471 0.892801 0.667729
O O1 0.876527 0.789868 0.617932
O O2 0.671643 0.826084 0.870328
O O3 0.694442 0.677023 0.005572
O O4 0.685409 0.852889 0.133591
O O5 0.880151 0.369472 0.471270
O O6 0.000000 0.352249 0.500000
O O7 0.082403 0.271713 0.101753
O O8 0.470075 0.109279 0.353116
O O9 0.604869 0.000000 0.925380
O O10 0.500000 0.146520 0.000000
O O11 0.500000 0.618591 0.500000
O O12 0.316503 0.500000 0.863694
O O13 0.302432 0.649413 0.712825
O O14 0.787430 0.323080 0.381622
O O15 0.737674 0.174937 0.317693
O O16 0.193259 0.500000 0.572262
O O17 0.000000 0.401403 0.000000
O O18 0.280455 0.000000 0.756106
#
# Coordination Sequence:
#
# PCOD8063898 Si02
#       7
#     4   4   4   4   4   4   4
#     4  11  21  37  59  85 119 155 191 246 299 344
#     4  11  21  38  55  88 117 156 198 244 290 353
#     4  10  22  39  62  90 115 148 201 250 293 349
#     4  10  20  34  56  84 114 153 201 240 287 349
#     4  10  20  39  60  82 121 158 195 243 298 353
#     4   9  20  36  58  83 112 156 201 241 288 343
#     4  10  20  36  62  87 113 153 199 239 288 353
#
# _framework density 20.047176
#
# number of rings (size 3 to 8) (size 9 to 14) (size 15 to 20)
#    0.000    1.857    2.857    3.000    2.000    2.571 
#    0.000    2.143    0.000    4.286    0.000    0.000 
#    0.000    0.000    0.000    0.000    0.000    0.000 
#
# Total GULP energy -347001.443165 kJ/mol
# GULP energy per Si atom -12392.908684 kJ/mol
# Density = 2.000155 g / cm^3
# Si number density = 20.047176 Si / 1000 Ang^3
#
#
#
# Elastic Constant Matrix: (Units=GPa)
#
#
# Indices 1 2 3 4 5 6 
#
# 1 166.6642 69.5195 29.5448 0.0000 2.9894 0.0000
# 2 69.5195 147.2024 21.8708 0.0000 -6.3899 0.0000
# 3 29.5448 21.8708 65.5091 0.0000 -7.1721 0.0000
# 4 0.0000 0.0000 0.0000 16.7164 0.0000 -0.3092
# 5 2.9894 -6.3899 -7.1721 0.0000 29.2309 0.0000
# 6 0.0000 0.0000 0.0000 -0.3092 0.0000 29.2101
#
#
#
# Elastic Compliance Matrix: (Units=1/GPa)
#
#
# Indices 1 2 3 4 5 6 
#
# 1 0.007957 -0.003456 -0.002678 0.000000 -0.002226 0.000000
# 2 -0.003456 0.008678 -0.001122 0.000000 0.001975 0.000000
# 3 -0.002678 -0.001122 0.017316 0.000000 0.004277 0.000000
# 4 0.000000 0.000000 0.000000 0.059833 0.000000 0.000633
# 5 -0.002226 0.001975 0.004277 0.000000 0.035919 0.000000
# 6 0.000000 0.000000 0.000000 0.000633 0.000000 0.034241
#
#
# Mechanical properties :
#
#
# Convention : Reuss Voigt Hill
#
# Bulk Modulus (GPa) = 51.44826 69.02730 60.23778
# Shear Modulus (GPa) = 27.03619 32.26085 29.64852
#
# Velocity S-wave (km/s) = 3.67635 4.01589 3.84987
# Velocity P-wave (km/s) = 6.61363 7.48401 7.06224
#
# Compressibility (1/GPa) = 0.01943700
#
# Stress axis : x y z
#
# Youngs Moduli (GPa) = 125.68296 115.23153 57.75039
#
# Poissons Ratio (x) = 0.39828 0.15467
# Poissons Ratio (y) = 0.43441 0.06481
# Poissons Ratio (z) = 0.33661 0.12931
#
# Static dielectric constant tensor:
#      x y z
#    x 3.822350 0.000000 -0.007590 
#    y 0.000000 3.749950 0.000000 
#    z -0.007590 0.000000 3.585080 
# 
# 
# High freq. dielectric constant tensor:
#      x y z
#    x 1.789660 0.000000 0.001640 
#    y 0.000000 1.771030 0.000000 
#    z 0.001640 0.000000 1.770950 
# 
# From -- ./inp_files/35262.got.cif
#   From: 2010.06.25/outbox.cif.g09.slc.cpg/sg10_18_cif.got.tgz:35262.got - 2010.06.27 22:07:45.
