data_PCOD8063124
_publ_section_title
;
Structure prediction by ZEFSAII (Michael W. Deem and Ramdas Pophale) SiO2 
 PCOD8063124
Probable space group: P 2/M
;
_chemical_formula_sum "Si O2"
_cell_formula_units_Z 32
_cell_length_a 14.192301
_cell_length_b 9.110941
_cell_length_c 20.292859
_cell_angle_alpha 90.000000
_cell_angle_beta 135.815031
_cell_angle_gamma 90.000000
_cell_volume 1828.848519
_symmetry_space_group_name_H-M "P 2/M"
_symmetry_group_IT_number 10
_symmetry_cell_setting 'monoclinic'
loop_
_space_group_symop_operation_xyz
x,y,z
-x,y,-z
-x,-y,-z
x,-y,z
loop_
_atom_site_type_symbol
_atom_site_label
_atom_site_fract_x
_atom_site_fract_y
_atom_site_fract_z
Si Si1 0.384965 0.326166 0.493050
Si Si2 0.098649 0.672030 0.491662
Si Si3 0.091512 0.327671 0.986131
Si Si4 0.401084 0.326836 0.142128
Si Si5 0.404277 0.671184 0.649160
Si Si6 0.891535 0.173582 0.639058
Si Si7 0.404849 0.171944 0.011065
Si Si8 0.095773 0.170589 0.855689
O O1 0.500000 0.278915 0.500000
O O2 0.356578 0.500000 0.477877
O O3 0.432806 0.272294 0.589365
O O4 0.247512 0.244205 0.404829
O O5 0.082082 0.500000 0.467634
O O6 0.250377 0.708433 0.591647
O O7 0.062688 0.760915 0.407939
O O8 0.000000 0.724579 0.500000
O O9 0.071896 0.500000 0.967643
O O10 0.043426 0.254601 0.894096
O O11 0.246164 0.285441 0.079629
O O12 0.000000 0.267474 0.000000
O O13 0.420710 0.500000 0.144602
O O14 0.492064 0.257865 0.246624
O O15 0.452001 0.253864 0.100481
O O16 0.431649 0.500000 0.664369
O O17 0.006370 0.217570 0.748720
O O18 0.873771 0.000000 0.623436
O O19 0.423769 0.000000 0.032341
O O20 0.500000 0.228478 0.000000
O O21 0.250260 0.212591 0.916286
O O22 0.081089 0.000000 0.863897
#
# Coordination Sequence:
#
# PCOD8063124 Si02
#       8
#     4   4   4   4   4   4   4   4
#     4   9  18  33  53  74  96 127 164 198 236 284
#     4   9  18  33  51  70  94 126 163 200 240 289
#     4   9  18  31  48  71  95 120 155 198 238 278
#     4   9  17  30  47  67  93 121 149 188 235 280
#     4   8  15  29  47  68  94 120 149 189 236 281
#     4  10  20  33  49  71 100 130 160 199 244 289
#     4   9  18  33  50  67  91 123 158 196 235 278
#     4   9  19  34  49  68  97 131 162 194 238 288
#
# _framework density 17.497349
#
# number of rings (size 3 to 8) (size 9 to 14) (size 15 to 20)
#    0.000    3.000    0.000    1.125    0.000    4.000 
#    0.000    5.000    0.000    0.000    0.000    0.000 
#    0.000    0.000    0.000    0.000    0.000    0.000 
#
# Total GULP energy -396778.680462 kJ/mol
# GULP energy per Si atom -12399.333764 kJ/mol
# Density = 1.745752 g / cm^3
# Si number density = 17.497349 Si / 1000 Ang^3
#
#
#
# Elastic Constant Matrix: (Units=GPa)
#
#
# Indices 1 2 3 4 5 6 
#
# 1 166.7679 40.1753 71.5354 0.0000 -7.8470 0.0000
# 2 40.1753 37.3102 41.0958 0.0000 -4.7971 0.0000
# 3 71.5354 41.0958 150.2753 0.0000 -11.1278 0.0000
# 4 0.0000 0.0000 0.0000 22.8966 0.0000 -1.4299
# 5 -7.8470 -4.7971 -11.1278 0.0000 14.7290 0.0000
# 6 0.0000 0.0000 0.0000 -1.4299 0.0000 22.3448
#
#
#
# Elastic Compliance Matrix: (Units=1/GPa)
#
#
# Indices 1 2 3 4 5 6 
#
# 1 0.008597 -0.006748 -0.002193 0.000000 0.000725 0.000000
# 2 -0.006748 0.043981 -0.008496 0.000000 0.004310 0.000000
# 3 -0.002193 -0.008496 0.010307 0.000000 0.003851 0.000000
# 4 0.000000 0.000000 0.000000 0.043850 0.000000 0.002806
# 5 0.000725 0.004310 0.003851 0.000000 0.072593 0.000000
# 6 0.000000 0.000000 0.000000 0.002806 0.000000 0.044933
#
#
# Mechanical properties :
#
#
# Convention : Reuss Voigt Hill
#
# Bulk Modulus (GPa) = 35.70128 73.32959 54.51544
# Shear Modulus (GPa) = 18.62393 25.43056 22.02724
#
# Velocity S-wave (km/s) = 3.26603 3.81648 3.55193
# Velocity P-wave (km/s) = 5.88819 7.83713 6.93150
#
# Compressibility (1/GPa) = 0.02801020
#
# Stress axis : x y z
#
# Youngs Moduli (GPa) = 116.32048 22.73722 97.02026
#
# Poissons Ratio (x) = 0.15343 0.21279
# Poissons Ratio (y) = 0.78493 0.82428
# Poissons Ratio (z) = 0.25513 0.19318
#
# Static dielectric constant tensor:
#      x y z
#    x 3.373900 0.000000 -0.017120 
#    y 0.000000 3.054380 0.000000 
#    z -0.017120 0.000000 3.430510 
# 
# 
# High freq. dielectric constant tensor:
#      x y z
#    x 1.679720 0.000000 -0.002540 
#    y 0.000000 1.657480 0.000000 
#    z -0.002540 0.000000 1.679070 
# 
# From -- ./inp_files/84752.got.cif
#   From: 2010.06.25/outbox.cif.g09.slc.cpg/sg10_43_cif.got.tgz:84752.got - 2010.06.27 22:07:45.
