data_PCOD8063184
_publ_section_title
;
Structure prediction by ZEFSAII (Michael W. Deem and Ramdas Pophale) SiO2 
 PCOD8063184
Probable space group: P 2/M
;
_chemical_formula_sum "Si O2"
_cell_formula_units_Z 28
_cell_length_a 16.578681
_cell_length_b 9.649975
_cell_length_c 11.117501
_cell_angle_alpha 90.000000
_cell_angle_beta 119.898163
_cell_angle_gamma 90.000000
_cell_volume 1541.908921
_symmetry_space_group_name_H-M "P 2/M"
_symmetry_group_IT_number 10
_symmetry_cell_setting 'monoclinic'
loop_
_space_group_symop_operation_xyz
x,y,z
-x,y,-z
-x,-y,-z
x,-y,z
loop_
_atom_site_type_symbol
_atom_site_label
_atom_site_fract_x
_atom_site_fract_y
_atom_site_fract_z
Si Si1 0.740642 0.841271 0.813943
Si Si2 0.625723 0.660019 0.337821
Si Si3 0.025638 0.836284 0.388041
Si Si4 0.315479 0.341477 0.884177
Si Si5 0.782349 0.161514 0.576115
Si Si6 0.585612 0.340294 0.798367
Si Si7 0.160712 0.161343 0.871122
O O1 0.791345 0.814730 0.725571
O O2 0.647609 0.749922 0.753860
O O3 0.709254 0.000000 0.804615
O O4 0.814349 0.800603 0.972839
O O5 0.648688 0.500000 0.382636
O O6 0.633114 0.690614 0.201813
O O7 0.694361 0.756082 0.462780
O O8 0.521704 0.698012 0.301759
O O9 0.124127 0.776825 0.415017
O O10 0.000000 0.774068 0.500000
O O11 0.945807 0.795505 0.232990
O O12 0.035327 0.000000 0.404585
O O13 0.281633 0.500000 0.866132
O O14 0.225285 0.244746 0.826704
O O15 0.387902 0.307239 0.044071
O O16 0.768307 0.000000 0.535276
O O17 0.604453 0.500000 0.781543
O O18 0.176368 0.000000 0.854835
#
# Coordination Sequence:
#
# PCOD8063184 Si02
#       7
#     4   4   4   4   4   4   4
#     4   9  19  34  50  72  99 127 164 205 241 280
#     4  10  20  33  50  73  99 129 165 202 242 289
#     4   9  17  30  50  75  99 125 159 197 240 291
#     4   9  17  31  51  75 101 126 157 200 247 292
#     4  10  21  35  50  70  99 132 164 201 243 285
#     4   9  18  33  53  73  96 129 164 199 242 292
#     4   9  17  31  52  74  98 129 163 199 238 286
#
# _framework density 18.159309
#
# number of rings (size 3 to 8) (size 9 to 14) (size 15 to 20)
#    0.000    2.714    0.000    1.286    0.000    5.714 
#    0.000    6.429    0.000    6.857    0.000    5.000 
#    0.000    0.000    0.000    0.000    0.000    0.000 
#
# Total GULP energy -347216.478455 kJ/mol
# GULP energy per Si atom -12400.588516 kJ/mol
# Density = 1.811798 g / cm^3
# Si number density = 18.159309 Si / 1000 Ang^3
#
#
#
# Elastic Constant Matrix: (Units=GPa)
#
#
# Indices 1 2 3 4 5 6 
#
# 1 124.5626 44.7697 69.6721 0.0000 7.0830 0.0000
# 2 44.7697 48.3568 40.1104 0.0000 6.7021 0.0000
# 3 69.6721 40.1104 92.1423 0.0000 12.8268 0.0000
# 4 0.0000 0.0000 0.0000 22.6609 0.0000 -3.9678
# 5 7.0830 6.7021 12.8268 0.0000 32.1892 0.0000
# 6 0.0000 0.0000 0.0000 -3.9678 0.0000 19.1068
#
#
#
# Elastic Compliance Matrix: (Units=1/GPa)
#
#
# Indices 1 2 3 4 5 6 
#
# 1 0.015430 -0.007270 -0.008725 0.000000 0.001595 0.000000
# 2 -0.007270 0.035835 -0.009832 0.000000 -0.001944 0.000000
# 3 -0.008725 -0.009832 0.022421 0.000000 -0.004968 0.000000
# 4 0.000000 0.000000 0.000000 0.045794 0.000000 0.009510
# 5 0.001595 -0.001944 -0.004968 0.000000 0.033100 0.000000
# 6 0.000000 0.000000 0.000000 0.009510 0.000000 0.054312
#
#
# Mechanical properties :
#
#
# Convention : Reuss Voigt Hill
#
# Bulk Modulus (GPa) = 45.38508 63.79622 54.59065
# Shear Modulus (GPa) = 18.80485 22.15869 20.48177
#
# Velocity S-wave (km/s) = 3.22149 3.49698 3.36206
# Velocity P-wave (km/s) = 6.23573 7.17725 6.72299
#
# Compressibility (1/GPa) = 0.02203367
#
# Stress axis : x y z
#
# Youngs Moduli (GPa) = 64.80707 27.90607 44.60051
#
# Poissons Ratio (x) = 0.20287 0.38914
# Poissons Ratio (y) = 0.47114 0.43849
# Poissons Ratio (z) = 0.56544 0.27436
#
# Static dielectric constant tensor:
#      x y z
#    x 3.443060 0.000000 0.008930 
#    y 0.000000 3.243980 0.000000 
#    z 0.008930 0.000000 3.417980 
# 
# 
# High freq. dielectric constant tensor:
#      x y z
#    x 1.702860 0.000000 -0.000530 
#    y 0.000000 1.682420 0.000000 
#    z -0.000530 0.000000 1.707990 
# 
# From -- ./inp_files/49578.got.cif
#   From: 2010.06.25/outbox.cif.g09.slc.cpg/sg10_25_cif.got.tgz:49578.got - 2010.06.27 22:07:45.
