data_PCOD8063099
_publ_section_title
;
Structure prediction by ZEFSAII (Michael W. Deem and Ramdas Pophale) SiO2 
 PCOD8063099
Probable space group: P 2/M
;
_chemical_formula_sum "Si O2"
_cell_formula_units_Z 28
_cell_length_a 9.411378
_cell_length_b 9.518040
_cell_length_c 26.599097
_cell_angle_alpha 90.000000
_cell_angle_beta 140.039035
_cell_angle_gamma 90.000000
_cell_volume 1530.320063
_symmetry_space_group_name_H-M "P 2/M"
_symmetry_group_IT_number 10
_symmetry_cell_setting 'monoclinic'
loop_
_space_group_symop_operation_xyz
x,y,z
-x,y,-z
-x,-y,-z
x,-y,z
loop_
_atom_site_type_symbol
_atom_site_label
_atom_site_fract_x
_atom_site_fract_y
_atom_site_fract_z
Si Si1 0.814545 0.657790 0.800338
Si Si2 0.732138 0.836706 0.684438
Si Si3 0.697804 0.662790 0.089573
Si Si4 0.972495 0.662441 0.435130
Si Si5 0.219063 0.165826 0.788807
Si Si6 0.641122 0.842459 0.488640
Si Si7 0.606460 0.340202 0.256394
O O1 0.784582 0.500000 0.771371
O O2 0.725049 0.763707 0.735468
O O3 0.658370 0.678814 0.806765
O O4 0.075018 0.686618 0.880629
O O5 0.520545 0.779303 0.597488
O O6 0.956831 0.805480 0.714603
O O7 0.709970 0.000000 0.688594
O O8 0.672722 0.500000 0.099058
O O9 0.685648 0.759027 0.135700
O O10 0.500000 0.710818 0.000000
O O11 0.036111 0.500000 0.451742
O O12 0.734521 0.689377 0.344192
O O13 0.000000 0.719720 0.500000
O O14 0.147422 0.744045 0.447957
O O15 0.326384 0.231344 0.768264
O O16 0.273843 0.000000 0.806072
O O17 0.500000 0.844800 0.500000
O O18 0.721517 0.000000 0.497359
O O19 0.658157 0.500000 0.252770
#
# Coordination Sequence:
#
# PCOD8063099 Si02
#       7
#     4   4   4   4   4   4   4
#     4   9  18  33  54  76  98 129 166 203 246 297
#     4   9  18  32  49  70  96 128 168 211 253 298
#     4   9  18  35  59  84 107 131 163 204 250 302
#     4  10  21  35  50  71 100 134 173 217 261 302
#     4  10  20  34  54  78 104 136 171 208 251 299
#     4  10  20  33  48  68  96 129 167 212 258 302
#     4  10  20  34  51  73 103 136 171 211 254 302
#
# _framework density 18.296825999999999
#
# number of rings (size 3 to 8) (size 9 to 14) (size 15 to 20)
#    0.000    2.429    0.000    2.143    0.000    5.429 
#    0.000    0.714    0.000    4.286    0.000    0.000 
#    0.000    0.000    0.000    0.000    0.000    0.000 
#
# Total GULP energy -347081.324185 kJ/mol
# GULP energy per Si atom -12395.761578 kJ/mol
# Density = 1.825518 g / cm^3
# Si number density = 18.296826 Si / 1000 Ang^3
#
#
#
# Elastic Constant Matrix: (Units=GPa)
#
#
# Indices 1 2 3 4 5 6 
#
# 1 87.6028 40.6117 36.9561 0.0000 5.8944 0.0000
# 2 40.6117 58.3029 41.1776 0.0000 0.4218 0.0000
# 3 36.9561 41.1776 91.9869 0.0000 8.6174 0.0000
# 4 0.0000 0.0000 0.0000 21.4308 0.0000 -1.9875
# 5 5.8944 0.4218 8.6174 0.0000 21.7974 0.0000
# 6 0.0000 0.0000 0.0000 -1.9875 0.0000 31.3831
#
#
#
# Elastic Compliance Matrix: (Units=1/GPa)
#
#
# Indices 1 2 3 4 5 6 
#
# 1 0.017469 -0.010873 -0.001794 0.000000 -0.003804 0.000000
# 2 -0.010873 0.032208 -0.010661 0.000000 0.006532 0.000000
# 3 -0.001794 -0.010661 0.016927 0.000000 -0.006000 0.000000
# 4 0.000000 0.000000 0.000000 0.046938 0.000000 0.002973
# 5 -0.003804 0.006532 -0.006000 0.000000 0.049152 0.000000
# 6 0.000000 0.000000 0.000000 0.002973 0.000000 0.032053
#
#
# Mechanical properties :
#
#
# Convention : Reuss Voigt Hill
#
# Bulk Modulus (GPa) = 50.13654 52.82037 51.47846
# Shear Modulus (GPa) = 20.15702 22.86538 21.51120
#
# Velocity S-wave (km/s) = 3.32274 3.53893 3.43254
# Velocity P-wave (km/s) = 6.49477 6.75500 6.62616
#
# Compressibility (1/GPa) = 0.01994553
#
# Stress axis : x y z
#
# Youngs Moduli (GPa) = 57.24473 31.04781 59.07821
#
# Poissons Ratio (x) = 0.33759 0.10601
# Poissons Ratio (y) = 0.62244 0.62986
# Poissons Ratio (z) = 0.10272 0.33102
#
# Static dielectric constant tensor:
#      x y z
#    x 3.379350 0.000000 -0.073930 
#    y 0.000000 3.396140 0.000000 
#    z -0.073930 0.000000 3.965400 
# 
# 
# High freq. dielectric constant tensor:
#      x y z
#    x 1.704430 0.000000 0.012110 
#    y 0.000000 1.710230 0.000000 
#    z 0.012110 0.000000 1.698450 
# 
# From -- ./inp_files/34659.got.cif
#   From: 2010.06.25/outbox.cif.g09.slc.cpg/sg10_18_cif.got.tgz:34659.got - 2010.06.27 22:07:45.
