data_PCOD8063825
_publ_section_title
;
Structure prediction by ZEFSAII (Michael W. Deem and Ramdas Pophale) SiO2 
 PCOD8063825
Probable space group: P 2/M
;
_chemical_formula_sum "Si O2"
_cell_formula_units_Z 32
_cell_length_a 17.604484
_cell_length_b 13.425743
_cell_length_c 8.905908
_cell_angle_alpha 90.000000
_cell_angle_beta 119.663712
_cell_angle_gamma 90.000000
_cell_volume 1829.077852
_symmetry_space_group_name_H-M "P 2/M"
_symmetry_group_IT_number 10
_symmetry_cell_setting 'monoclinic'
loop_
_space_group_symop_operation_xyz
x,y,z
-x,y,-z
-x,-y,-z
x,-y,z
loop_
_atom_site_type_symbol
_atom_site_label
_atom_site_fract_x
_atom_site_fract_y
_atom_site_fract_z
Si Si1 0.915878 0.882331 0.501457
Si Si2 0.580670 0.802875 0.177120
Si Si3 0.259027 0.116505 0.837595
Si Si4 0.906270 0.884298 0.833362
Si Si5 0.744657 0.200403 0.837997
Si Si6 0.585514 0.885383 0.505549
Si Si7 0.456668 0.386944 0.687796
Si Si8 0.361727 0.613380 0.285136
O O1 0.831746 0.849703 0.324979
O O2 0.909932 0.844083 0.666512
O O3 0.000000 0.835213 0.500000
O O4 0.926124 0.000000 0.516037
O O5 0.668096 0.816891 0.168887
O O6 0.581242 0.871056 0.324258
O O7 0.571859 0.685997 0.206860
O O8 0.500000 0.840699 0.000000
O O9 0.277606 0.000000 0.829020
O O10 0.257486 0.138232 0.011779
O O11 0.839298 0.813809 0.856733
O O12 0.875639 0.000000 0.811187
O O13 0.000000 0.871511 0.000000
O O14 0.673009 0.161653 0.652895
O O15 0.720598 0.316812 0.840073
O O16 0.500000 0.835577 0.500000
O O17 0.587949 0.000000 0.549798
O O18 0.440661 0.500000 0.725017
O O19 0.558786 0.369621 0.752621
O O20 0.397150 0.361713 0.485823
O O21 0.328327 0.500000 0.244271
#
# Coordination Sequence:
#
# PCOD8063825 Si02
#       8
#     4   4   4   4   4   4   4   4
#     4   9  18  34  53  74 105 140 172 216 268 308
#     4  12  23  34  49  72 107 144 178 218 267 320
#     4  11  23  35  49  75 111 148 180 215 266 320
#     4  10  20  34  55  83 111 143 185 225 259 311
#     4  12  21  35  57  78 105 139 186 226 269 323
#     4  11  22  34  49  70 100 141 185 220 255 313
#     4   9  18  35  56  77 102 135 179 230 281 323
#     4   9  18  34  58  81 102 132 176 234 284 322
#
# _framework density 17.495156000000001
#
# number of rings (size 3 to 8) (size 9 to 14) (size 15 to 20)
#    0.000    1.625    1.250    6.000    0.000    5.250 
#    0.000    0.625    0.000    0.375    0.000    0.000 
#    0.000    2.500    0.000    0.000    0.000    0.000 
#
# Total GULP energy -396867.304052 kJ/mol
# GULP energy per Si atom -12402.103252 kJ/mol
# Density = 1.745534 g / cm^3
# Si number density = 17.495156 Si / 1000 Ang^3
#
#
#
# Elastic Constant Matrix: (Units=GPa)
#
#
# Indices 1 2 3 4 5 6 
#
# 1 135.9607 42.7833 44.2901 0.0000 -0.5452 0.0000
# 2 42.7833 72.6664 29.7531 0.0000 8.0960 0.0000
# 3 44.2901 29.7531 96.4281 0.0000 -1.4818 0.0000
# 4 0.0000 0.0000 0.0000 27.6053 0.0000 -7.5971
# 5 -0.5452 8.0960 -1.4818 0.0000 29.3501 0.0000
# 6 0.0000 0.0000 0.0000 -7.5971 0.0000 13.8655
#
#
#
# Elastic Compliance Matrix: (Units=1/GPa)
#
#
# Indices 1 2 3 4 5 6 
#
# 1 0.009828 -0.004685 -0.003048 0.000000 0.001321 0.000000
# 2 -0.004685 0.018630 -0.003679 0.000000 -0.005412 0.000000
# 3 -0.003048 -0.003679 0.012930 0.000000 0.001611 0.000000
# 4 0.000000 0.000000 0.000000 0.042657 0.000000 0.023372
# 5 0.001321 -0.005412 0.001611 0.000000 0.035670 0.000000
# 6 0.000000 0.000000 0.000000 0.023372 0.000000 0.084928
#
#
# Mechanical properties :
#
#
# Convention : Reuss Voigt Hill
#
# Bulk Modulus (GPa) = 53.87261 59.85646 56.86454
# Shear Modulus (GPa) = 21.39906 26.71275 24.05591
#
# Velocity S-wave (km/s) = 3.50114 3.91175 3.71213
# Velocity P-wave (km/s) = 6.87049 7.39526 7.13770
#
# Compressibility (1/GPa) = 0.01856231
#
# Stress axis : x y z
#
# Youngs Moduli (GPa) = 101.75426 53.67830 77.33740
#
# Poissons Ratio (x) = 0.25150 0.23572
# Poissons Ratio (y) = 0.47676 0.28455
# Poissons Ratio (z) = 0.31014 0.19750
#
# Static dielectric constant tensor:
#      x y z
#    x 3.267470 0.000000 -0.013820 
#    y 0.000000 3.164080 0.000000 
#    z -0.013820 0.000000 3.288380 
# 
# 
# High freq. dielectric constant tensor:
#      x y z
#    x 1.673000 0.000000 -0.008090 
#    y 0.000000 1.652840 0.000000 
#    z -0.008090 0.000000 1.682770 
# 
# From -- ./inp_files/29547.got.cif
#   From: 2010.06.25/outbox.cif.g09.slc.cpg/sg10_15_cif.got.tgz:29547.got - 2010.06.27 22:07:45.
