data_PCOD8063411
_publ_section_title
;
Structure prediction by ZEFSAII (Michael W. Deem and Ramdas Pophale) SiO2 
 PCOD8063411
Probable space group: P 2/M
;
_chemical_formula_sum "Si O2"
_cell_formula_units_Z 32
_cell_length_a 12.036682
_cell_length_b 8.766263
_cell_length_c 29.691849
_cell_angle_alpha 90.000000
_cell_angle_beta 152.559212
_cell_angle_gamma 90.000000
_cell_volume 1443.779474
_symmetry_space_group_name_H-M "P 2/M"
_symmetry_group_IT_number 10
_symmetry_cell_setting 'monoclinic'
loop_
_space_group_symop_operation_xyz
x,y,z
-x,y,-z
-x,-y,-z
x,-y,z
loop_
_atom_site_type_symbol
_atom_site_label
_atom_site_fract_x
_atom_site_fract_y
_atom_site_fract_z
Si Si1 0.913333 0.177949 0.384717
Si Si2 0.604348 0.323394 0.810756
Si Si3 0.618986 0.678639 0.587030
Si Si4 0.633514 0.680427 0.415533
Si Si5 0.958883 0.173109 0.299693
Si Si6 0.302927 0.822463 0.966817
Si Si7 0.231502 0.175522 0.213096
Si Si8 0.464439 0.323906 0.113605
O O1 0.666532 0.270715 0.298698
O O2 0.027759 0.206922 0.376419
O O3 0.102348 0.241050 0.490030
O O4 0.860786 0.000000 0.374292
O O5 0.628199 0.500000 0.806798
O O6 0.793164 0.228000 0.848115
O O7 0.672646 0.297286 0.888050
O O8 0.500000 0.754530 0.500000
O O9 0.578777 0.500000 0.573116
O O10 0.503677 0.747248 0.590196
O O11 0.899357 0.720134 0.684372
O O12 0.670906 0.500000 0.429062
O O13 0.459668 0.727348 0.312436
O O14 0.683103 0.207298 0.191753
O O15 0.012712 0.000000 0.305988
O O16 0.021810 0.797446 0.850989
O O17 0.347708 0.000000 0.994350
O O18 0.500000 0.769186 0.000000
O O19 0.313143 0.719660 0.015248
O O20 0.304187 0.000000 0.241850
O O21 0.548106 0.500000 0.140873
#
# Coordination Sequence:
#
# PCOD8063411 Si02
#       8
#     4   4   4   4   4   4   4   4
#     4  10  20  36  59  90 125 162 208 255 305 364
#     4  10  22  42  67  95 128 163 207 259 312 370
#     4  10  20  34  53  81 120 165 211 258 307 367
#     4  11  23  38  58  86 125 170 212 257 313 370
#     4  10  20  33  55  86 122 161 204 254 306 366
#     4  10  24  46  68  94 128 165 204 253 313 376
#     4  11  25  44  65  91 125 163 211 263 312 371
#     4  10  22  40  66  96 124 160 204 256 314 372
#
# _framework density 22.16405
#
# number of rings (size 3 to 8) (size 9 to 14) (size 15 to 20)
#    0.000    1.750    1.250    2.250    1.750    6.000 
#    0.000    5.000    0.000    0.000    0.000    0.000 
#    0.000    0.000    0.000    0.000    0.000    0.000 
#
# Total GULP energy -396657.256442 kJ/mol
# GULP energy per Si atom -12395.539264 kJ/mol
# Density = 2.211360 g / cm^3
# Si number density = 22.164050 Si / 1000 Ang^3
#
#
#
# Elastic Constant Matrix: (Units=GPa)
#
#
# Indices 1 2 3 4 5 6 
#
# 1 95.2109 22.4752 17.3209 0.0000 1.0962 0.0000
# 2 22.4752 57.0853 16.1228 0.0000 -2.4171 0.0000
# 3 17.3209 16.1228 68.5900 0.0000 -8.2350 0.0000
# 4 0.0000 0.0000 0.0000 32.9117 0.0000 -0.2273
# 5 1.0962 -2.4171 -8.2350 0.0000 26.8166 0.0000
# 6 0.0000 0.0000 0.0000 -0.2273 0.0000 29.9321
#
#
#
# Elastic Compliance Matrix: (Units=1/GPa)
#
#
# Indices 1 2 3 4 5 6 
#
# 1 0.011898 -0.004122 -0.002220 0.000000 -0.001540 0.000000
# 2 -0.004122 0.020195 -0.003600 0.000000 0.000883 0.000000
# 3 -0.002220 -0.003600 0.016569 0.000000 0.004854 0.000000
# 4 0.000000 0.000000 0.000000 0.030386 0.000000 0.000231
# 5 -0.001540 0.000883 0.004854 0.000000 0.038924 0.000000
# 6 0.000000 0.000000 0.000000 0.000231 0.000000 0.033411
#
#
# Mechanical properties :
#
#
# Convention : Reuss Voigt Hill
#
# Bulk Modulus (GPa) = 34.75082 36.96934 35.86008
# Shear Modulus (GPa) = 27.64578 28.92991 28.28784
#
# Velocity S-wave (km/s) = 3.53558 3.61676 3.57640
# Velocity P-wave (km/s) = 5.69035 5.84443 5.76790
#
# Compressibility (1/GPa) = 0.02877630
#
# Stress axis : x y z
#
# Youngs Moduli (GPa) = 84.04931 49.51764 60.35321
#
# Poissons Ratio (x) = 0.20413 0.13401
# Poissons Ratio (y) = 0.34648 0.21727
# Poissons Ratio (z) = 0.18662 0.17826
#
# Static dielectric constant tensor:
#      x y z
#    x 4.214970 0.000000 -0.071450 
#    y 0.000000 3.773540 0.000000 
#    z -0.071450 0.000000 3.803080 
# 
# 
# High freq. dielectric constant tensor:
#      x y z
#    x 1.879150 0.000000 0.004120 
#    y 0.000000 1.867730 0.000000 
#    z 0.004120 0.000000 1.861130 
# 
# From -- ./inp_files/95095.got.cif
#   From: 2010.06.25/outbox.cif.g09.slc.cpg/sg10_48_cif.got.tgz:95095.got - 2010.06.27 22:07:45.
