data_PCOD8063033
_publ_section_title
;
Structure prediction by ZEFSAII (Michael W. Deem and Ramdas Pophale) SiO2 
 PCOD8063033
Probable space group: P 2/M
;
_chemical_formula_sum "Si O2"
_cell_formula_units_Z 28
_cell_length_a 24.293249
_cell_length_b 9.192118
_cell_length_c 21.749349
_cell_angle_alpha 90.000000
_cell_angle_beta 161.870827
_cell_angle_gamma 90.000000
_cell_volume 1511.234007
_symmetry_space_group_name_H-M "P 2/M"
_symmetry_group_IT_number 10
_symmetry_cell_setting 'monoclinic'
loop_
_space_group_symop_operation_xyz
x,y,z
-x,y,-z
-x,-y,-z
x,-y,z
loop_
_atom_site_type_symbol
_atom_site_label
_atom_site_fract_x
_atom_site_fract_y
_atom_site_fract_z
Si Si1 0.672719 0.327107 0.516248
Si Si2 0.745168 0.165683 0.123201
Si Si3 0.588860 0.327052 0.656377
Si Si4 0.394068 0.829559 0.681336
Si Si5 0.299458 0.671269 0.799962
Si Si6 0.022223 0.327058 0.954721
Si Si7 0.864006 0.165876 0.484844
O O1 0.669486 0.500000 0.506796
O O2 0.519690 0.270946 0.399911
O O3 0.639744 0.258993 0.415602
O O4 0.862008 0.271112 0.742250
O O5 0.759757 0.266505 0.197870
O O6 0.927628 0.179555 0.278790
O O7 0.712721 0.000000 0.110712
O O8 0.585977 0.216568 0.910520
O O9 0.500000 0.264453 0.500000
O O10 0.581796 0.500000 0.646382
O O11 0.791644 0.271949 0.876011
O O12 0.245827 0.780332 0.572922
O O13 0.383033 0.000000 0.655157
O O14 0.272607 0.500000 0.772533
O O15 0.176572 0.735843 0.616779
O O16 0.500000 0.717337 0.000000
O O17 0.018323 0.500000 0.953811
O O18 0.000000 0.264395 0.000000
O O19 0.811487 0.000000 0.413146
#
# Coordination Sequence:
#
# PCOD8063033 Si02
#       7
#     4   4   4   4   4   4   4
#     4  10  20  32  51  79 106 134 173 218 262 313
#     4  10  21  38  60  81 103 141 190 226 260 316
#     4   9  15  26  47  76 105 131 164 210 260 309
#     4  10  22  39  55  74 107 146 180 220 264 312
#     4  11  22  35  56  87 117 142 171 220 281 323
#     4   9  15  26  47  76 105 131 164 210 260 309
#     4  10  21  38  60  81 103 141 190 226 260 316
#
# _framework density 18.527906000000002
#
# number of rings (size 3 to 8) (size 9 to 14) (size 15 to 20)
#    0.000    2.143    2.857    0.857    0.000    5.143 
#    0.000    0.000    0.000    0.857    0.000    0.000 
#    0.000    0.000    0.000    0.000    0.000    0.000 
#
# Total GULP energy -347227.633377 kJ/mol
# GULP energy per Si atom -12400.986906 kJ/mol
# Density = 1.848574 g / cm^3
# Si number density = 18.527906 Si / 1000 Ang^3
#
#
#
# Elastic Constant Matrix: (Units=GPa)
#
#
# Indices 1 2 3 4 5 6 
#
# 1 112.5646 35.2024 112.3044 0.0000 -15.0564 0.0000
# 2 35.2024 35.0262 34.6721 0.0000 -4.1663 0.0000
# 3 112.3044 34.6721 155.9982 0.0000 15.8108 0.0000
# 4 0.0000 0.0000 0.0000 29.3584 0.0000 -24.3471
# 5 -15.0564 -4.1663 15.8108 0.0000 32.8219 0.0000
# 6 0.0000 0.0000 0.0000 -24.3471 0.0000 58.3884
#
#
#
# Elastic Compliance Matrix: (Units=1/GPa)
#
#
# Indices 1 2 3 4 5 6 
#
# 1 0.113943 -0.016745 -0.087669 0.000000 0.092375 0.000000
# 2 -0.016745 0.041784 0.003164 0.000000 -0.003902 0.000000
# 3 -0.087669 0.003164 0.076596 0.000000 -0.076712 0.000000
# 4 0.000000 0.000000 0.000000 0.052067 0.000000 0.021711
# 5 0.092375 -0.003902 -0.076712 0.000000 0.109301 0.000000
# 6 0.000000 0.000000 0.000000 0.021711 0.000000 0.026180
#
#
# Mechanical properties :
#
#
# Convention : Reuss Voigt Hill
#
# Bulk Modulus (GPa) = 33.53333 74.21630 53.87482
# Shear Modulus (GPa) = 7.90748 32.20776 20.05762
#
# Velocity S-wave (km/s) = 2.06812 4.17386 3.29380
# Velocity P-wave (km/s) = 4.88272 7.96063 6.60351
#
# Compressibility (1/GPa) = 0.02982107
#
# Stress axis : x y z
#
# Youngs Moduli (GPa) = 8.77631 23.93276 13.05552
#
# Poissons Ratio (x) = 0.40077 1.14457
# Poissons Ratio (y) = 0.14696 -0.04131
# Poissons Ratio (z) = 0.76941 -0.07572
#
# Static dielectric constant tensor:
#      x y z
#    x 3.433560 0.000000 0.245620 
#    y 0.000000 3.023180 0.000000 
#    z 0.245620 0.000000 3.701030 
# 
# 
# High freq. dielectric constant tensor:
#      x y z
#    x 1.719790 0.000000 0.013220 
#    y 0.000000 1.679330 0.000000 
#    z 0.013220 0.000000 1.734710 
# 
# From -- ./inp_files/86525.got.cif
#   From: 2010.06.25/outbox.cif.g09.slc.cpg/sg10_44_cif.got.tgz:86525.got - 2010.06.27 22:07:45.
