data_PCOD8063858
_publ_section_title
;
Structure prediction by ZEFSAII (Michael W. Deem and Ramdas Pophale) SiO2 
 PCOD8063858
Probable space group: P 2/M
;
_chemical_formula_sum "Si O2"
_cell_formula_units_Z 32
_cell_length_a 15.093759
_cell_length_b 9.012093
_cell_length_c 22.516917
_cell_angle_alpha 90.000000
_cell_angle_beta 31.121183
_cell_angle_gamma 90.000000
_cell_volume 1583.056487
_symmetry_space_group_name_H-M "P 2/M"
_symmetry_group_IT_number 10
_symmetry_cell_setting 'monoclinic'
loop_
_space_group_symop_operation_xyz
x,y,z
-x,y,-z
-x,-y,-z
x,-y,z
loop_
_atom_site_type_symbol
_atom_site_label
_atom_site_fract_x
_atom_site_fract_y
_atom_site_fract_z
Si Si1 0.136302 0.175793 0.271518
Si Si2 0.832717 0.174569 0.130051
Si Si3 0.049362 0.831619 0.810141
Si Si4 0.568552 0.328812 0.831962
Si Si5 0.779642 0.328828 0.491114
Si Si6 0.770828 0.329282 0.903954
Si Si7 0.516669 0.670570 0.250206
Si Si8 0.346466 0.830730 0.547477
O O1 0.269607 0.228589 0.244650
O O2 0.192141 0.234931 0.175499
O O3 0.950444 0.232359 0.397600
O O4 0.131389 0.000000 0.271188
O O5 0.849144 0.221726 0.189602
O O6 0.660630 0.240095 0.202129
O O7 0.817856 0.000000 0.131162
O O8 0.000000 0.235823 0.000000
O O9 0.169204 0.820624 0.684195
O O10 0.886810 0.726674 0.892205
O O11 0.984160 0.000000 0.856921
O O12 0.627744 0.500000 0.793934
O O13 0.495567 0.274289 0.810643
O O14 0.425984 0.309095 0.964591
O O15 0.829416 0.500000 0.452930
O O16 0.669605 0.305123 0.613667
O O17 0.662257 0.274796 0.504079
O O18 0.813944 0.500000 0.865779
O O19 0.572034 0.500000 0.221117
O O20 0.500000 0.771119 0.500000
O O21 0.383808 0.000000 0.505860
#
# Coordination Sequence:
#
# PCOD8063858 Si02
#       8
#     4   4   4   4   4   4   4   4
#     4  12  25  41  63  91 122 157 199 251 310 364
#     4  10  21  37  59  89 125 165 206 248 297 355
#     4  10  20  34  55  85 121 160 198 242 296 353
#     4  10  23  43  64  88 120 158 201 249 307 365
#     4  11  23  40  62  88 121 160 204 251 299 357
#     4  11  22  38  63  92 122 157 198 249 304 365
#     4  10  23  42  63  89 122 162 205 252 303 355
#     4  10  20  35  56  83 117 158 198 242 297 351
#
# _framework density 20.214061000000001
#
# number of rings (size 3 to 8) (size 9 to 14) (size 15 to 20)
#    0.000    1.500    1.250    3.750    0.000    6.500 
#    0.000    2.500    0.000    0.000    0.000    0.000 
#    0.000    0.000    0.000    0.000    0.000    0.000 
#
# Total GULP energy -396969.333857 kJ/mol
# GULP energy per Si atom -12405.291683 kJ/mol
# Density = 2.016805 g / cm^3
# Si number density = 20.214061 Si / 1000 Ang^3
#
#
#
# Elastic Constant Matrix: (Units=GPa)
#
#
# Indices 1 2 3 4 5 6 
#
# 1 104.4682 47.4304 27.0832 0.0000 -9.6872 0.0000
# 2 47.4304 103.7665 39.0041 0.0000 -9.8198 0.0000
# 3 27.0832 39.0041 74.3879 0.0000 -5.0122 0.0000
# 4 0.0000 0.0000 0.0000 24.7236 0.0000 0.9009
# 5 -9.6872 -9.8198 -5.0122 0.0000 38.2505 0.0000
# 6 0.0000 0.0000 0.0000 0.9009 0.0000 -9.2787
#
#
#
# Elastic Compliance Matrix: (Units=1/GPa)
#
#
# Indices 1 2 3 4 5 6 
#
# 1 0.012394 -0.004800 -0.001884 0.000000 0.001660 0.000000
# 2 -0.004800 0.014061 -0.005513 0.000000 0.001672 0.000000
# 3 -0.001884 -0.005513 0.017042 0.000000 0.000341 0.000000
# 4 0.000000 0.000000 0.000000 0.040305 0.000000 0.003913
# 5 0.001660 0.001672 0.000341 0.000000 0.027038 0.000000
# 6 0.000000 0.000000 0.000000 0.003913 0.000000 -0.107393
#
#
# Mechanical properties :
#
#
# Convention : Reuss Voigt Hill
#
# Bulk Modulus (GPa) = 52.34271 56.62866 54.48569
# Shear Modulus (GPa) = 146.16768 22.01273 84.09020
#
# Velocity S-wave (km/s) = 8.51275 3.30355 6.45679
# Velocity P-wave (km/s) = 11.07127 6.52890 9.08844
#
# Compressibility (1/GPa) = 0.01910486
#
# Stress axis : x y z
#
# Youngs Moduli (GPa) = 80.68546 71.11707 58.67756
#
# Poissons Ratio (x) = 0.34136 0.11053
# Poissons Ratio (y) = 0.38728 0.32347
# Poissons Ratio (z) = 0.15199 0.39204
#
# Static dielectric constant tensor:
#      x y z
#    x 3.757900 0.000000 0.016700 
#    y 0.000000 3.666130 0.000000 
#    z 0.016700 0.000000 3.722130 
# 
# 
# High freq. dielectric constant tensor:
#      x y z
#    x 1.798560 0.000000 -0.001880 
#    y 0.000000 1.782800 0.000000 
#    z -0.001880 0.000000 1.796190 
# 
# From -- ./inp_files/89522.got.cif
#   From: 2010.06.25/outbox.cif.g09.slc.cpg/sg10_45_cif.got.tgz:89522.got - 2010.06.27 22:07:45.
