data_PCOD8063022
_publ_section_title
;
Structure prediction by ZEFSAII (Michael W. Deem and Ramdas Pophale) SiO2 
 PCOD8063022
Probable space group: P 2/M
;
_chemical_formula_sum "Si O2"
_cell_formula_units_Z 24
_cell_length_a 20.162772
_cell_length_b 14.338835
_cell_length_c 11.618354
_cell_angle_alpha 90.000000
_cell_angle_beta 20.156874
_cell_angle_gamma 90.000000
_cell_volume 1157.480097
_symmetry_space_group_name_H-M "P 2/M"
_symmetry_group_IT_number 10
_symmetry_cell_setting 'monoclinic'
loop_
_space_group_symop_operation_xyz
x,y,z
-x,y,-z
-x,-y,-z
x,-y,z
loop_
_atom_site_type_symbol
_atom_site_label
_atom_site_fract_x
_atom_site_fract_y
_atom_site_fract_z
Si Si1 0.193555 0.736228 0.751827
Si Si2 0.496436 0.389844 0.370594
Si Si3 0.208114 0.739306 0.213621
Si Si4 0.669057 0.896018 0.636811
Si Si5 0.016978 0.164149 0.716683
Si Si6 0.325738 0.103269 0.867921
O O1 0.319676 0.647043 0.580910
O O2 0.315636 0.814366 0.483030
O O3 0.000000 0.704906 0.000000
O O4 0.141099 0.776493 0.960260
O O5 0.500000 0.356682 0.500000
O O6 0.489396 0.500000 0.377847
O O7 0.685127 0.356331 0.992702
O O8 0.173303 0.764698 0.404016
O O9 0.000000 0.731891 0.500000
O O10 0.336783 0.823711 0.953475
O O11 0.869234 0.902012 0.381109
O O12 0.638604 0.000000 0.631638
O O13 0.500000 0.870609 0.000000
O O14 0.889858 0.104368 0.834871
O O15 0.500000 0.129752 0.500000
O O16 0.358795 0.000000 0.864487
#
# Coordination Sequence:
#
# PCOD8063022 Si02
#       6
#     4   4   4   4   4   4
#     4  10  22  40  61  86 119 154 192 237 290 346
#     4  11  23  41  65  89 114 148 194 247 301 353
#     4  10  20  35  56  83 118 153 192 239 290 345
#     4  10  21  36  57  85 117 156 198 236 278 336
#     4  10  20  34  55  80 116 155 191 233 280 340
#     4  10  20  32  50  79 115 154 192 232 281 337
#
# _framework density 20.734698000000002
#
# number of rings (size 3 to 8) (size 9 to 14) (size 15 to 20)
#    0.000    1.833    0.000    5.000    0.000    8.000 
#    0.000    5.000    0.000   10.000    0.000    0.000 
#    0.000    0.000    0.000    0.000    0.000    0.000 
#
# Total GULP energy -297411.429284 kJ/mol
# GULP energy per Si atom -12392.142887 kJ/mol
# Density = 2.068751 g / cm^3
# Si number density = 20.734698 Si / 1000 Ang^3
#
#
#
# Elastic Constant Matrix: (Units=GPa)
#
#
# Indices 1 2 3 4 5 6 
#
# 1 73.7981 45.5359 27.7223 0.0000 6.3874 0.0000
# 2 45.5359 116.3234 56.9887 0.0000 7.9114 0.0000
# 3 27.7223 56.9887 122.8363 0.0000 16.3198 0.0000
# 4 0.0000 0.0000 0.0000 15.5847 0.0000 -12.1171
# 5 6.3874 7.9114 16.3198 0.0000 39.3459 0.0000
# 6 0.0000 0.0000 0.0000 -12.1171 0.0000 16.7775
#
#
#
# Elastic Compliance Matrix: (Units=1/GPa)
#
#
# Indices 1 2 3 4 5 6 
#
# 1 0.018023 -0.006547 -0.000864 0.000000 -0.001251 0.000000
# 2 -0.006547 0.013504 -0.004834 0.000000 0.000353 0.000000
# 3 -0.000864 -0.004834 0.011039 0.000000 -0.003467 0.000000
# 4 0.000000 0.000000 0.000000 0.146339 0.000000 0.105689
# 5 -0.001251 0.000353 -0.003467 0.000000 0.026986 0.000000
# 6 0.000000 0.000000 0.000000 0.105689 0.000000 0.135935
#
#
# Mechanical properties :
#
#
# Convention : Reuss Voigt Hill
#
# Bulk Modulus (GPa) = 55.32238 63.71685 59.51961
# Shear Modulus (GPa) = 13.07732 26.52235 19.79984
#
# Velocity S-wave (km/s) = 2.51409 3.58037 3.09352
# Velocity P-wave (km/s) = 5.93014 6.92014 6.44418
#
# Compressibility (1/GPa) = 0.01807587
#
# Stress axis : x y z
#
# Youngs Moduli (GPa) = 55.48468 74.05193 90.58538
#
# Poissons Ratio (x) = 0.48481 0.07826
# Poissons Ratio (y) = 0.36326 0.43792
# Poissons Ratio (z) = 0.04793 0.35800
#
# Static dielectric constant tensor:
#      x y z
#    x 3.875250 0.000000 0.195630 
#    y 0.000000 3.454030 0.000000 
#    z 0.195630 0.000000 4.106010 
# 
# 
# High freq. dielectric constant tensor:
#      x y z
#    x 1.807450 0.000000 -0.004350 
#    y 0.000000 1.781270 0.000000 
#    z -0.004350 0.000000 1.834860 
# 
# From -- ./inp_files/56025.got.cif
#   From: 2010.06.25/outbox.cif.g09.slc.cpg/sg10_29_cif.got.tgz:56025.got - 2010.06.27 22:07:45.
