data_PCOD8063788
_publ_section_title
;
Structure prediction by ZEFSAII (Michael W. Deem and Ramdas Pophale) SiO2 
 PCOD8063788
Probable space group: P 2/M
;
_chemical_formula_sum "Si O2"
_cell_formula_units_Z 32
_cell_length_a 19.000768
_cell_length_b 9.086310
_cell_length_c 10.822583
_cell_angle_alpha 90.000000
_cell_angle_beta 121.322861
_cell_angle_gamma 90.000000
_cell_volume 1596.156118
_symmetry_space_group_name_H-M "P 2/M"
_symmetry_group_IT_number 10
_symmetry_cell_setting 'monoclinic'
loop_
_space_group_symop_operation_xyz
x,y,z
-x,y,-z
-x,-y,-z
x,-y,z
loop_
_atom_site_type_symbol
_atom_site_label
_atom_site_fract_x
_atom_site_fract_y
_atom_site_fract_z
Si Si1 0.125357 0.833778 0.161122
Si Si2 0.461204 0.175737 0.592171
Si Si3 0.127472 0.672903 0.922213
Si Si4 0.979682 0.168349 0.688125
Si Si5 0.547875 0.174918 0.922040
Si Si6 0.736234 0.825663 0.085385
Si Si7 0.178440 0.825268 0.587861
Si Si8 0.720876 0.827768 0.546533
O O1 0.067616 0.814503 0.226047
O O2 0.220071 0.799244 0.282832
O O3 0.117202 0.000000 0.101822
O O4 0.096821 0.720728 0.029996
O O5 0.500000 0.236836 0.500000
O O6 0.508186 0.233826 0.757861
O O7 0.368774 0.241031 0.511609
O O8 0.463076 0.000000 0.592377
O O9 0.134236 0.500000 0.917278
O O10 0.217579 0.745820 0.985237
O O11 0.061315 0.732047 0.761594
O O12 0.916924 0.221947 0.522546
O O13 0.007527 0.000000 0.691350
O O14 0.543986 0.000000 0.921634
O O15 0.500000 0.236575 0.000000
O O16 0.642427 0.229142 0.011836
O O17 0.787706 0.771374 0.251008
O O18 0.739581 0.000000 0.068728
O O19 0.238276 0.756067 0.538172
O O20 0.182208 0.000000 0.578306
O O21 0.709487 0.000000 0.512978
#
# Coordination Sequence:
#
# PCOD8063788 Si02
#       8
#     4   4   4   4   4   4   4   4
#     4   9  18  33  56  79 101 135 176 215 257 314
#     4   9  16  23  37  69 111 142 162 200 261 317
#     4  12  25  36  48  72 108 142 174 216 264 310
#     4   9  18  35  57  79 101 130 173 218 263 315
#     4   9  17  29  48  77 110 139 171 215 265 315
#     4  10  20  34  55  78 105 139 175 213 258 311
#     4   8  15  30  52  76  98 129 171 215 257 304
#     4   8  14  26  47  75 107 133 162 208 261 312
#
# _framework density 20.048165000000001
#
# number of rings (size 3 to 8) (size 9 to 14) (size 15 to 20)
#    0.000    2.750    0.000    3.750    1.750    5.500 
#    0.000    3.125    0.000    1.125    0.000    1.750 
#    0.000    0.000    0.000    0.000    0.000    0.000 
#
# Total GULP energy -396650.281284 kJ/mol
# GULP energy per Si atom -12395.321290 kJ/mol
# Density = 2.000253 g / cm^3
# Si number density = 20.048165 Si / 1000 Ang^3
#
#
#
# Elastic Constant Matrix: (Units=GPa)
#
#
# Indices 1 2 3 4 5 6 
#
# 1 80.5593 22.2509 38.4366 0.0000 21.6277 0.0000
# 2 22.2509 45.4238 22.0405 0.0000 7.9162 0.0000
# 3 38.4366 22.0405 109.1111 0.0000 13.3133 0.0000
# 4 0.0000 0.0000 0.0000 0.5550 0.0000 0.7536
# 5 21.6277 7.9162 13.3133 0.0000 37.7378 0.0000
# 6 0.0000 0.0000 0.0000 0.7536 0.0000 3.6104
#
#
#
# Elastic Compliance Matrix: (Units=1/GPa)
#
#
# Indices 1 2 3 4 5 6 
#
# 1 0.018027 -0.005395 -0.004324 0.000000 -0.007674 0.000000
# 2 -0.005395 0.026481 -0.003290 0.000000 -0.001302 0.000000
# 3 -0.004324 -0.003290 0.011459 0.000000 -0.000874 0.000000
# 4 0.000000 0.000000 0.000000 2.514152 0.000000 -0.524756
# 5 -0.007674 -0.001302 -0.000874 0.000000 0.031478 0.000000
# 6 0.000000 0.000000 0.000000 -0.524756 0.000000 0.386507
#
#
# Mechanical properties :
#
#
# Convention : Reuss Voigt Hill
#
# Bulk Modulus (GPa) = 33.38964 44.50559 38.94761
# Shear Modulus (GPa) = 1.65338 18.53839 10.09589
#
# Velocity S-wave (km/s) = 0.90912 3.04417 2.24650
# Velocity P-wave (km/s) = 4.21816 5.88248 5.11842
#
# Compressibility (1/GPa) = 0.02994941
#
# Stress axis : x y z
#
# Youngs Moduli (GPa) = 55.47335 37.76323 87.26404
#
# Poissons Ratio (x) = 0.20373 0.37734
# Poissons Ratio (y) = 0.29927 0.28708
# Poissons Ratio (z) = 0.23988 0.12423
#
# Static dielectric constant tensor:
#      x y z
#    x 3.887670 0.000000 0.130540 
#    y 0.000000 2.845910 0.000000 
#    z 0.130540 0.000000 3.944320 
# 
# 
# High freq. dielectric constant tensor:
#      x y z
#    x 1.795540 0.000000 0.005850 
#    y 0.000000 1.693750 0.000000 
#    z 0.005850 0.000000 1.795820 
# 
# From -- ./inp_files/55357.got.cif
#   From: 2010.06.25/outbox.cif.g09.slc.cpg/sg10_28_cif.got.tgz:55357.got - 2010.06.27 22:07:45.
