data_PCOD8063921
_publ_section_title
;
Structure prediction by ZEFSAII (Michael W. Deem and Ramdas Pophale) SiO2 
 PCOD8063921
Probable space group: P 2/M
;
_chemical_formula_sum "Si O2"
_cell_formula_units_Z 32
_cell_length_a 17.284383
_cell_length_b 13.587587
_cell_length_c 13.703662
_cell_angle_alpha 90.000000
_cell_angle_beta 29.797360
_cell_angle_gamma 90.000000
_cell_volume 1599.305935
_symmetry_space_group_name_H-M "P 2/M"
_symmetry_group_IT_number 10
_symmetry_cell_setting 'monoclinic'
loop_
_space_group_symop_operation_xyz
x,y,z
-x,y,-z
-x,-y,-z
x,-y,z
loop_
_atom_site_type_symbol
_atom_site_label
_atom_site_fract_x
_atom_site_fract_y
_atom_site_fract_z
Si Si1 0.839623 0.111091 0.928684
Si Si2 0.102252 0.732603 0.290755
Si Si3 0.657142 0.391394 0.872479
Si Si4 0.681142 0.708994 0.488667
Si Si5 0.852861 0.391215 0.469369
Si Si6 0.613885 0.244796 0.283589
Si Si7 0.103131 0.111567 0.793582
Si Si8 0.829023 0.387926 0.157318
O O1 0.701697 0.148161 0.150441
O O2 0.797783 0.000000 0.947939
O O3 0.855090 0.165968 0.808476
O O4 0.002861 0.119469 0.805552
O O5 0.267816 0.681085 0.130926
O O6 0.000000 0.753057 0.500000
O O7 0.016328 0.664031 0.304817
O O8 0.619938 0.500000 0.958584
O O9 0.783717 0.405910 0.650876
O O10 0.500000 0.344355 0.000000
O O11 0.736270 0.677320 0.535135
O O12 0.493984 0.717898 0.688318
O O13 0.755055 0.812053 0.370399
O O14 0.726701 0.620378 0.366514
O O15 0.879624 0.500000 0.392571
O O16 0.500000 0.222540 0.500000
O O17 0.748796 0.324303 0.159710
O O18 0.168621 0.000000 0.734036
O O19 0.000000 0.140260 0.000000
O O20 0.837525 0.500000 0.111533
O O21 0.000000 0.347679 0.000000
#
# Coordination Sequence:
#
# PCOD8063921 Si02
#       8
#     4   4   4   4   4   4   4   4
#     4  11  23  40  62  88 117 154 206 252 296 355
#     4  10  21  39  62  86 119 156 191 245 296 353
#     4   9  19  36  59  87 117 151 191 237 291 352
#     4  11  20  34  56  82 119 150 190 240 294 354
#     4  10  20  34  56  87 117 151 189 233 288 351
#     4  10  23  38  57  84 120 161 193 245 296 354
#     4  10  20  36  60  84 112 152 200 251 294 343
#     4  10  21  37  56  80 115 159 200 239 285 352
#
# _framework density 20.008679000000001
#
# number of rings (size 3 to 8) (size 9 to 14) (size 15 to 20)
#    0.000    1.875    1.250    3.375    1.750    5.250 
#    0.000    0.625    0.000    0.375    0.000    0.000 
#    0.000    0.000    0.000    0.000    0.000    0.000 
#
# Total GULP energy -396701.242570 kJ/mol
# GULP energy per Si atom -12396.913830 kJ/mol
# Density = 1.996314 g / cm^3
# Si number density = 20.008679 Si / 1000 Ang^3
#
#
#
# Elastic Constant Matrix: (Units=GPa)
#
#
# Indices 1 2 3 4 5 6 
#
# 1 122.8954 66.6052 31.5588 0.0000 -30.1456 0.0000
# 2 66.6052 138.3239 46.2123 0.0000 -13.2015 0.0000
# 3 31.5588 46.2123 64.2041 0.0000 -19.6153 0.0000
# 4 0.0000 0.0000 0.0000 19.5380 0.0000 7.8445
# 5 -30.1456 -13.2015 -19.6153 0.0000 41.7285 0.0000
# 6 0.0000 0.0000 0.0000 7.8445 0.0000 29.7537
#
#
#
# Elastic Compliance Matrix: (Units=1/GPa)
#
#
# Indices 1 2 3 4 5 6 
#
# 1 0.013015 -0.005503 -0.000112 0.000000 0.007609 0.000000
# 2 -0.005503 0.011847 -0.006880 0.000000 -0.003462 0.000000
# 3 -0.000112 -0.006880 0.023228 0.000000 0.008662 0.000000
# 4 0.000000 0.000000 0.000000 0.057241 0.000000 -0.015092
# 5 0.007609 -0.003462 0.008662 0.000000 0.032438 0.000000
# 6 0.000000 0.000000 0.000000 -0.015092 0.000000 0.037588
#
#
# Mechanical properties :
#
#
# Convention : Reuss Voigt Hill
#
# Bulk Modulus (GPa) = 43.28836 68.24181 55.76508
# Shear Modulus (GPa) = 24.03295 30.27385 27.15340
#
# Velocity S-wave (km/s) = 3.46949 3.89400 3.68785
# Velocity P-wave (km/s) = 6.14260 7.37548 6.78709
#
# Compressibility (1/GPa) = 0.02310090
#
# Stress axis : x y z
#
# Youngs Moduli (GPa) = 76.83675 84.40604 43.05064
#
# Poissons Ratio (x) = 0.46451 0.00480
# Poissons Ratio (y) = 0.42286 0.29619
# Poissons Ratio (z) = 0.00857 0.58071
#
# Static dielectric constant tensor:
#      x y z
#    x 3.742900 0.000000 -0.253500 
#    y 0.000000 3.668800 0.000000 
#    z -0.253500 0.000000 3.462460 
# 
# 
# High freq. dielectric constant tensor:
#      x y z
#    x 1.785610 0.000000 -0.014220 
#    y 0.000000 1.774760 0.000000 
#    z -0.014220 0.000000 1.766020 
# 
# From -- ./inp_files/69150.got.cif
#   From: 2010.06.25/outbox.cif.g09.slc.cpg/sg10_35_cif.got.tgz:69150.got - 2010.06.27 22:07:45.
