data_PCOD8063878
_publ_section_title
;
Structure prediction by ZEFSAII (Michael W. Deem and Ramdas Pophale) SiO2 
 PCOD8063878
Probable space group: P 2/M
;
_chemical_formula_sum "Si O2"
_cell_formula_units_Z 32
_cell_length_a 5.378107
_cell_length_b 9.539697
_cell_length_c 29.617076
_cell_angle_alpha 90.000000
_cell_angle_beta 79.627182
_cell_angle_gamma 90.000000
_cell_volume 1494.685724
_symmetry_space_group_name_H-M "P 2/M"
_symmetry_group_IT_number 10
_symmetry_cell_setting 'monoclinic'
loop_
_space_group_symop_operation_xyz
x,y,z
-x,y,-z
-x,-y,-z
x,-y,z
loop_
_atom_site_type_symbol
_atom_site_label
_atom_site_fract_x
_atom_site_fract_y
_atom_site_fract_z
Si Si1 0.278440 0.654510 0.752387
Si Si2 0.777157 0.335939 0.972861
Si Si3 0.005024 0.154137 0.295539
Si Si4 0.629306 0.151903 0.386900
Si Si5 0.569717 0.837511 0.174954
Si Si6 0.359699 0.347517 0.340027
Si Si7 0.773910 0.162988 0.477962
Si Si8 0.126067 0.161978 0.119296
O O1 0.195328 0.500000 0.774051
O O2 0.043874 0.759510 0.749423
O O3 0.465457 0.735131 0.780818
O O4 0.401621 0.627421 0.699934
O O5 0.789854 0.500000 0.961836
O O6 0.822027 0.254422 0.925652
O O7 0.500000 0.293588 0.000000
O O8 0.000000 0.292264 0.000000
O O9 0.759814 0.132825 0.334311
O O10 0.189601 0.237551 0.320788
O O11 0.111135 0.000000 0.278135
O O12 0.431205 0.278740 0.386175
O O13 0.814699 0.189873 0.422736
O O14 0.497980 0.000000 0.402475
O O15 0.343401 0.800745 0.148353
O O16 0.845801 0.801259 0.145843
O O17 0.557966 0.000000 0.190299
O O18 0.230578 0.500000 0.352933
O O19 0.500000 0.227855 0.500000
O O20 0.000000 0.234120 0.500000
O O21 0.772257 0.000000 0.490111
O O22 0.144064 0.000000 0.104776
#
# Coordination Sequence:
#
# PCOD8063878 Si02
#       8
#     4   4   4   4   4   4   4   4
#     4  10  22  38  55  80 111 148 194 238 286 345
#     4  10  21  37  59  87 118 151 192 241 292 347
#     4  10  20  34  56  82 109 142 186 236 286 340
#     4   9  19  34  54  81 108 141 185 231 285 340
#     4  10  22  39  58  84 118 155 195 241 288 344
#     4  10  21  36  55  80 111 145 187 236 286 341
#     4   9  18  31  52  82 114 143 179 232 287 340
#     4  10  22  39  59  86 118 153 196 240 289 346
#
# _framework density 21.409182999999999
#
# number of rings (size 3 to 8) (size 9 to 14) (size 15 to 20)
#    0.000    2.250    0.000    1.875    3.500    3.500 
#    0.000    0.000    0.000    0.750    0.000    0.000 
#    0.000    0.000    0.000    0.000    0.000    0.000 
#
# Total GULP energy -396469.891788 kJ/mol
# GULP energy per Si atom -12389.684118 kJ/mol
# Density = 2.136046 g / cm^3
# Si number density = 21.409183 Si / 1000 Ang^3
#
#
#
# Elastic Constant Matrix: (Units=GPa)
#
#
# Indices 1 2 3 4 5 6 
#
# 1 114.4815 31.6097 29.1836 0.0000 29.9683 0.0000
# 2 31.6097 134.8817 40.2190 0.0000 32.1872 0.0000
# 3 29.1836 40.2190 93.9874 0.0000 29.9080 0.0000
# 4 0.0000 0.0000 0.0000 47.4751 0.0000 12.7947
# 5 29.9683 32.1872 29.9080 0.0000 38.1221 0.0000
# 6 0.0000 0.0000 0.0000 12.7947 0.0000 17.0821
#
#
#
# Elastic Compliance Matrix: (Units=1/GPa)
#
#
# Indices 1 2 3 4 5 6 
#
# 1 0.011084 -0.000541 -0.000777 0.000000 -0.007647 0.000000
# 2 -0.000541 0.009593 -0.001992 0.000000 -0.006111 0.000000
# 3 -0.000777 -0.001992 0.014665 0.000000 -0.009212 0.000000
# 4 0.000000 0.000000 0.000000 0.026391 0.000000 -0.019767
# 5 -0.007647 -0.006111 -0.009212 0.000000 0.044630 0.000000
# 6 0.000000 0.000000 0.000000 -0.019767 0.000000 0.073347
#
#
# Mechanical properties :
#
#
# Convention : Reuss Voigt Hill
#
# Bulk Modulus (GPa) = 34.81660 60.59722 47.70691
# Shear Modulus (GPa) = 25.52260 36.69176 31.10718
#
# Velocity S-wave (km/s) = 3.45647 4.14434 3.81594
# Velocity P-wave (km/s) = 5.67692 7.16006 6.46119
#
# Compressibility (1/GPa) = 0.02872193
#
# Stress axis : x y z
#
# Youngs Moduli (GPa) = 90.21759 104.24122 68.18973
#
# Poissons Ratio (x) = 0.05641 0.05296
# Poissons Ratio (y) = 0.04882 0.13586
# Poissons Ratio (z) = 0.07007 0.20769
#
# Static dielectric constant tensor:
#      x y z
#    x 4.127410 0.000000 0.030780 
#    y 0.000000 4.318190 0.000000 
#    z 0.030780 0.000000 3.912150 
# 
# 
# High freq. dielectric constant tensor:
#      x y z
#    x 1.835470 0.000000 0.018270 
#    y 0.000000 1.831950 0.000000 
#    z 0.018270 0.000000 1.830920 
# 
# From -- ./inp_files/94341.got.cif
#   From: 2010.06.25/outbox.cif.g09.slc.cpg/sg10_48_cif.got.tgz:94341.got - 2010.06.27 22:07:45.
