data_PCOD8063777
_publ_section_title
;
Structure prediction by ZEFSAII (Michael W. Deem and Ramdas Pophale) SiO2 
 PCOD8063777
Probable space group: P 2/M
;
_chemical_formula_sum "Si O2"
_cell_formula_units_Z 28
_cell_length_a 14.808444
_cell_length_b 8.982267
_cell_length_c 11.728022
_cell_angle_alpha 90.000000
_cell_angle_beta 119.018462
_cell_angle_gamma 90.000000
_cell_volume 1364.149032
_symmetry_space_group_name_H-M "P 2/M"
_symmetry_group_IT_number 10
_symmetry_cell_setting 'monoclinic'
loop_
_space_group_symop_operation_xyz
x,y,z
-x,y,-z
-x,-y,-z
x,-y,z
loop_
_atom_site_type_symbol
_atom_site_label
_atom_site_fract_x
_atom_site_fract_y
_atom_site_fract_z
Si Si1 0.796340 0.668400 0.735429
Si Si2 0.799691 0.174175 0.139032
Si Si3 0.994951 0.163157 0.863448
Si Si4 0.269724 0.169270 0.509097
Si Si5 0.499653 0.171272 0.369019
Si Si6 0.325558 0.670975 0.119632
Si Si7 0.119811 0.675971 0.586149
O O1 0.776376 0.500000 0.683140
O O2 0.725547 0.781913 0.620710
O O3 0.770825 0.688834 0.852891
O O4 0.914487 0.709735 0.780293
O O5 0.896207 0.212350 0.119044
O O6 0.820953 0.247694 0.273269
O O7 0.779990 0.000000 0.144960
O O8 0.700009 0.242952 0.013682
O O9 0.962951 0.000000 0.794057
O O10 0.000000 0.149623 0.000000
O O11 0.387798 0.186341 0.622011
O O12 0.186692 0.276705 0.517949
O O13 0.231815 0.000000 0.499439
O O14 0.500000 0.231534 0.500000
O O15 0.426475 0.266464 0.243096
O O16 0.462646 0.000000 0.346967
O O17 0.345907 0.500000 0.100941
O O18 0.123382 0.500000 0.604219
O O19 0.000000 0.729432 0.500000
#
# Coordination Sequence:
#
# PCOD8063777 Si02
#       7
#     4   4   4   4   4   4   4
#     4  11  22  34  54  87 125 162 199 248 308 367
#     4  11  23  40  63  88 122 165 210 259 307 366
#     4  10  20  34  54  83 117 156 200 246 301 365
#     4  11  23  40  65  92 121 161 210 258 306 365
#     4  10  21  39  63  92 126 164 206 256 311 369
#     4  11  23  37  58  90 127 164 202 250 310 371
#     4  11  25  45  67  92 126 165 207 257 311 369
#
# _framework density 20.525614000000001
#
# number of rings (size 3 to 8) (size 9 to 14) (size 15 to 20)
#    0.000    1.286    2.857    3.000    0.000    7.429 
#    0.000    0.714    0.000    4.286    0.000    0.000 
#    0.000    0.000    0.000    0.000    0.000    0.000 
#
# Total GULP energy -347170.494078 kJ/mol
# GULP energy per Si atom -12398.946217 kJ/mol
# Density = 2.047890 g / cm^3
# Si number density = 20.525614 Si / 1000 Ang^3
#
#
#
# Elastic Constant Matrix: (Units=GPa)
#
#
# Indices 1 2 3 4 5 6 
#
# 1 61.8049 32.5812 18.5004 0.0000 9.7917 0.0000
# 2 32.5812 108.7044 57.8091 0.0000 13.3887 0.0000
# 3 18.5004 57.8091 127.6748 0.0000 12.9279 0.0000
# 4 0.0000 0.0000 0.0000 40.6487 0.0000 0.6379
# 5 9.7917 13.3887 12.9279 0.0000 29.0725 0.0000
# 6 0.0000 0.0000 0.0000 0.6379 0.0000 24.1697
#
#
#
# Elastic Compliance Matrix: (Units=1/GPa)
#
#
# Indices 1 2 3 4 5 6 
#
# 1 0.019677 -0.005392 0.000010 0.000000 -0.004149 0.000000
# 2 -0.005392 0.013902 -0.005287 0.000000 -0.002235 0.000000
# 3 0.000010 -0.005287 0.010449 0.000000 -0.002215 0.000000
# 4 0.000000 0.000000 0.000000 0.024611 0.000000 -0.000650
# 5 -0.004149 -0.002235 -0.002215 0.000000 0.037808 0.000000
# 6 0.000000 0.000000 0.000000 -0.000650 0.000000 0.041391
#
#
# Mechanical properties :
#
#
# Convention : Reuss Voigt Hill
#
# Bulk Modulus (GPa) = 44.07155 57.32951 50.70053
# Shear Modulus (GPa) = 28.29011 31.39773 29.84392
#
# Velocity S-wave (km/s) = 3.71655 3.91536 3.81725
# Velocity P-wave (km/s) = 6.31942 6.95927 6.64705
#
# Compressibility (1/GPa) = 0.02269038
#
# Stress axis : x y z
#
# Youngs Moduli (GPa) = 50.82185 71.93010 95.70181
#
# Poissons Ratio (x) = 0.38785 -0.00099
# Poissons Ratio (y) = 0.27403 0.50599
# Poissons Ratio (z) = -0.00052 0.38030
#
# Static dielectric constant tensor:
#      x y z
#    x 3.845290 0.000000 -0.003070 
#    y 0.000000 3.739840 0.000000 
#    z -0.003070 0.000000 3.725320 
# 
# 
# High freq. dielectric constant tensor:
#      x y z
#    x 1.789050 0.000000 0.007970 
#    y 0.000000 1.808190 0.000000 
#    z 0.007970 0.000000 1.802380 
# 
# From -- ./inp_files/49576.got.cif
#   From: 2010.06.25/outbox.cif.g09.slc.cpg/sg10_25_cif.got.tgz:49576.got - 2010.06.27 22:07:45.
