data_PCOD8063351
_publ_section_title
;
Structure prediction by ZEFSAII (Michael W. Deem and Ramdas Pophale) SiO2 
 PCOD8063351
Probable space group: P 2/M
;
_chemical_formula_sum "Si O2"
_cell_formula_units_Z 28
_cell_length_a 16.824516
_cell_length_b 9.331590
_cell_length_c 20.153434
_cell_angle_alpha 90.000000
_cell_angle_beta 151.438978
_cell_angle_gamma 90.000000
_cell_volume 1512.728529
_symmetry_space_group_name_H-M "P 2/M"
_symmetry_group_IT_number 10
_symmetry_cell_setting 'monoclinic'
loop_
_space_group_symop_operation_xyz
x,y,z
-x,y,-z
-x,-y,-z
x,-y,z
loop_
_atom_site_type_symbol
_atom_site_label
_atom_site_fract_x
_atom_site_fract_y
_atom_site_fract_z
Si Si1 0.311231 0.332868 0.875216
Si Si2 0.821591 0.168366 0.341904
Si Si3 0.378622 0.833792 0.548424
Si Si4 0.625643 0.657462 0.652813
Si Si5 0.753556 0.332127 0.022532
Si Si6 0.448239 0.165620 0.749388
Si Si7 0.128081 0.668343 0.273423
O O1 0.279431 0.500000 0.840380
O O2 0.195051 0.246262 0.740332
O O3 0.264467 0.284157 0.914632
O O4 0.500000 0.289644 0.000000
O O5 0.681080 0.222006 0.290298
O O6 0.000000 0.212787 0.500000
O O7 0.807912 0.000000 0.319987
O O8 0.557336 0.770925 0.655866
O O9 0.363739 0.810635 0.616059
O O10 0.224223 0.753992 0.401333
O O11 0.372792 0.000000 0.524303
O O12 0.500000 0.647109 0.500000
O O13 0.642495 0.500000 0.698895
O O14 0.800811 0.705491 0.748062
O O15 0.721392 0.500000 0.991027
O O16 0.936003 0.286785 0.131776
O O17 0.619403 0.252276 0.878996
O O18 0.490685 0.000000 0.791987
O O19 0.150827 0.500000 0.305947
#
# Coordination Sequence:
#
# PCOD8063351 Si02
#       7
#     4   4   4   4   4   4   4
#     4  10  20  36  56  80 107 135 173 219 263 307
#     4  10  22  38  56  77 105 141 179 215 255 310
#     4  10  20  33  53  80 109 138 172 216 263 309
#     4   8  15  31  53  76 104 136 173 214 256 307
#     4  10  21  37  56  78 106 139 176 217 261 311
#     4  10  22  38  52  75 109 141 175 215 259 310
#     4   9  19  35  55  80 106 135 175 218 257 309
#
# _framework density 18.509599999999999
#
# number of rings (size 3 to 8) (size 9 to 14) (size 15 to 20)
#    0.000    2.429    1.429    1.286    2.000    5.429 
#    0.000    0.714    0.000    4.286    0.000    0.000 
#    0.000    0.000    0.000    0.000    0.000    0.000 
#
# Total GULP energy -347215.777987 kJ/mol
# GULP energy per Si atom -12400.563500 kJ/mol
# Density = 1.846747 g / cm^3
# Si number density = 18.509600 Si / 1000 Ang^3
#
#
#
# Elastic Constant Matrix: (Units=GPa)
#
#
# Indices 1 2 3 4 5 6 
#
# 1 58.4753 18.8591 19.4510 0.0000 19.3532 0.0000
# 2 18.8591 57.2393 38.7110 0.0000 1.1010 0.0000
# 3 19.4510 38.7110 86.9699 0.0000 14.0639 0.0000
# 4 0.0000 0.0000 0.0000 -93.6888 0.0000 -23.4902
# 5 19.3532 1.1010 14.0639 0.0000 33.2523 0.0000
# 6 0.0000 0.0000 0.0000 -23.4902 0.0000 22.1275
#
#
#
# Elastic Compliance Matrix: (Units=1/GPa)
#
#
# Indices 1 2 3 4 5 6 
#
# 1 0.024158 -0.007961 0.000399 0.000000 -0.013965 0.000000
# 2 -0.007961 0.028166 -0.012189 0.000000 0.008856 0.000000
# 3 0.000399 -0.012189 0.018040 0.000000 -0.007459 0.000000
# 4 0.000000 0.000000 0.000000 -0.008430 0.000000 -0.008949
# 5 -0.013965 0.008856 -0.007459 0.000000 0.041062 0.000000
# 6 0.000000 0.000000 0.000000 -0.008949 0.000000 0.035692
#
#
# Mechanical properties :
#
#
# Convention : Reuss Voigt Hill
#
# Bulk Modulus (GPa) = 32.40068 39.63631 36.01849
# Shear Modulus (GPa) = 26.52820 0.71576 13.62198
#
# Velocity S-wave (km/s) = 3.78989 0.62253 2.71577
# Velocity P-wave (km/s) = 6.05754 4.68798 5.41622
#
# Compressibility (1/GPa) = 0.03086355
#
# Stress axis : x y z
#
# Youngs Moduli (GPa) = 41.39416 35.50352 55.43084
#
# Poissons Ratio (x) = 0.28263 -0.02210
# Poissons Ratio (y) = 0.32952 0.67563
# Poissons Ratio (z) = -0.01650 0.43274
#
# Static dielectric constant tensor:
#      x y z
#    x 3.766290 0.000000 0.237540 
#    y 0.000000 3.343390 0.000000 
#    z 0.237540 0.000000 3.226390 
# 
# 
# High freq. dielectric constant tensor:
#      x y z
#    x 1.726810 0.000000 0.009910 
#    y 0.000000 1.711710 0.000000 
#    z 0.009910 0.000000 1.703330 
# 
# From -- ./inp_files/36927.got.cif
#   From: 2010.06.25/outbox.cif.g09.slc.cpg/sg10_19_cif.got.tgz:36927.got - 2010.06.27 22:07:45.
