data_PCOD8063453
_publ_section_title
;
Structure prediction by ZEFSAII (Michael W. Deem and Ramdas Pophale) SiO2 
 PCOD8063453
Probable space group: P 2/M
;
_chemical_formula_sum "Si O2"
_cell_formula_units_Z 32
_cell_length_a 23.210354
_cell_length_b 9.045848
_cell_length_c 16.999686
_cell_angle_alpha 90.000000
_cell_angle_beta 149.105591
_cell_angle_gamma 90.000000
_cell_volume 1832.637071
_symmetry_space_group_name_H-M "P 2/M"
_symmetry_group_IT_number 10
_symmetry_cell_setting 'monoclinic'
loop_
_space_group_symop_operation_xyz
x,y,z
-x,y,-z
-x,-y,-z
x,-y,z
loop_
_atom_site_type_symbol
_atom_site_label
_atom_site_fract_x
_atom_site_fract_y
_atom_site_fract_z
Si Si1 0.334885 0.331445 0.837981
Si Si2 0.122819 0.824227 0.974492
Si Si3 0.327147 0.674074 0.647500
Si Si4 0.887388 0.330532 0.330047
Si Si5 0.136320 0.824316 0.329451
Si Si6 0.872434 0.825720 0.851457
Si Si7 0.767787 0.825441 0.054410
Si Si8 0.451450 0.174679 0.112293
O O1 0.376327 0.500000 0.898191
O O2 0.339693 0.283497 0.753403
O O3 0.207749 0.311961 0.716184
O O4 0.416415 0.227675 0.984125
O O5 0.174670 0.765349 0.119393
O O6 0.124118 0.000000 0.976936
O O7 0.203096 0.764745 0.998760
O O8 0.993290 0.774734 0.810528
O O9 0.326795 0.500000 0.632754
O O10 0.210986 0.740894 0.480656
O O11 0.432731 0.747601 0.726146
O O12 0.903554 0.500000 0.323486
O O13 0.861069 0.238722 0.221572
O O14 0.000000 0.265445 0.500000
O O15 0.180870 0.772410 0.294023
O O16 0.149213 0.000000 0.355361
O O17 0.863512 0.000000 0.841539
O O18 0.000000 0.774569 0.000000
O O19 0.778095 0.000000 0.070522
O O20 0.643215 0.775531 0.935205
O O21 0.468235 0.000000 0.131263
#
# Coordination Sequence:
#
# PCOD8063453 Si02
#       8
#     4   4   4   4   4   4   4   4
#     4   9  19  34  48  65  89 122 161 195 232 275
#     4   8  14  27  49  75 100 123 149 185 231 281
#     4  11  22  33  48  68  94 125 157 196 236 276
#     4   9  18  31  46  63  91 128 157 185 224 273
#     4   9  17  29  48  75 100 122 151 187 230 278
#     4   7  11  23  45  71  97 123 149 180 223 277
#     4   9  18  31  48  71  94 119 153 194 233 271
#     4  10  20  34  50  68  91 120 160 202 236 271
#
# _framework density 17.461175999999998
#
# number of rings (size 3 to 8) (size 9 to 14) (size 15 to 20)
#    0.000    3.000    0.000    2.625    1.750    3.250 
#    0.000    0.000    0.000    4.875    0.000    5.250 
#    0.000    0.000    0.000    0.000    0.000    0.000 
#
# Total GULP energy -396494.831080 kJ/mol
# GULP energy per Si atom -12390.463471 kJ/mol
# Density = 1.742143 g / cm^3
# Si number density = 17.461176 Si / 1000 Ang^3
#
#
#
# Elastic Constant Matrix: (Units=GPa)
#
#
# Indices 1 2 3 4 5 6 
#
# 1 121.0268 25.8649 32.1417 0.0000 -11.3971 0.0000
# 2 25.8649 36.4569 21.0218 0.0000 -2.4768 0.0000
# 3 32.1417 21.0218 49.5631 0.0000 4.6013 0.0000
# 4 0.0000 0.0000 0.0000 -1.7733 0.0000 10.6489
# 5 -11.3971 -2.4768 4.6013 0.0000 15.9839 0.0000
# 6 0.0000 0.0000 0.0000 10.6489 0.0000 10.8112
#
#
#
# Elastic Compliance Matrix: (Units=1/GPa)
#
#
# Indices 1 2 3 4 5 6 
#
# 1 0.011853 -0.003671 -0.007050 0.000000 0.009912 0.000000
# 2 -0.003671 0.039188 -0.014962 0.000000 0.007762 0.000000
# 3 -0.007050 -0.014962 0.032648 0.000000 -0.016744 0.000000
# 4 0.000000 0.000000 0.000000 -0.081550 0.000000 0.080326
# 5 0.009912 0.007762 -0.016744 0.000000 0.075653 0.000000
# 6 0.000000 0.000000 0.000000 0.080326 0.000000 0.013376
#
#
# Mechanical properties :
#
#
# Convention : Reuss Voigt Hill
#
# Bulk Modulus (GPa) = 30.93549 40.56704 35.75127
# Shear Modulus (GPa) = 32.61391 13.53891 23.07641
#
# Velocity S-wave (km/s) = 4.32649 2.78757 3.63930
# Velocity P-wave (km/s) = 6.53553 5.80033 6.17888
#
# Compressibility (1/GPa) = 0.03232534
#
# Stress axis : x y z
#
# Youngs Moduli (GPa) = 84.36828 25.51773 30.62932
#
# Poissons Ratio (x) = 0.09367 0.21593
# Poissons Ratio (y) = 0.30969 0.45827
# Poissons Ratio (z) = 0.59479 0.38179
#
# Static dielectric constant tensor:
#      x y z
#    x 3.745760 0.000000 -0.115100 
#    y 0.000000 2.967370 0.000000 
#    z -0.115100 0.000000 3.191350 
# 
# 
# High freq. dielectric constant tensor:
#      x y z
#    x 1.680930 0.000000 -0.003840 
#    y 0.000000 1.646910 0.000000 
#    z -0.003840 0.000000 1.656750 
# 
# From -- ./inp_files/79968.got.cif
#   From: 2010.06.25/outbox.cif.g09.slc.cpg/sg10_40_cif.got.tgz:79968.got - 2010.06.27 22:07:45.
