data_PCOD8063417
_publ_section_title
;
Structure prediction by ZEFSAII (Michael W. Deem and Ramdas Pophale) SiO2 
 PCOD8063417
Probable space group: P 2/M
;
_chemical_formula_sum "Si O2"
_cell_formula_units_Z 18
_cell_length_a 16.923175
_cell_length_b 10.231972
_cell_length_c 8.010387
_cell_angle_alpha 90.000000
_cell_angle_beta 40.321317
_cell_angle_gamma 90.000000
_cell_volume 897.528591
_symmetry_space_group_name_H-M "P 2/M"
_symmetry_group_IT_number 10
_symmetry_cell_setting 'monoclinic'
loop_
_space_group_symop_operation_xyz
x,y,z
-x,y,-z
-x,-y,-z
x,-y,z
loop_
_atom_site_type_symbol
_atom_site_label
_atom_site_fract_x
_atom_site_fract_y
_atom_site_fract_z
Si Si1 0.023018 0.848250 0.782551
Si Si2 0.734687 0.848003 0.766220
Si Si3 0.500000 0.733247 0.000000
Si Si4 0.757730 0.848488 0.097649
Si Si5 0.411502 0.354137 0.488541
O O1 0.142158 0.781245 0.506524
O O2 0.053192 0.000000 0.761899
O O3 0.000000 0.782352 0.000000
O O4 0.903631 0.829205 0.861424
O O5 0.619099 0.821888 0.835581
O O6 0.760021 0.000000 0.740105
O O7 0.710529 0.798908 0.993514
O O8 0.520088 0.648146 0.800732
O O9 0.694779 0.755714 0.337312
O O10 0.723548 0.000000 0.192200
O O11 0.500000 0.321706 0.500000
O O12 0.356714 0.500000 0.598641
#
# Coordination Sequence:
#
# PCOD8063417 Si02
#       5
#     4   4   2   4   4
#     4   9  17  31  53  83 119 155 191 236 292 346
#     4  10  20  33  55  90 124 155 192 241 294 344
#     4  12  22  38  60  86 115 160 199 242 281 356
#     4  10  20  37  61  88 118 153 196 244 291 345
#     4  11  24  42  61  84 118 157 196 242 295 352
#
# _framework density 20.055071000000002
#
# number of rings (size 3 to 8) (size 9 to 14) (size 15 to 20)
#    0.000    1.778    2.222    2.667    0.000    6.667 
#    0.000    0.000    0.000   10.000    0.000    0.000 
#    0.000    0.000    0.000    0.000    0.000    0.000 
#
# Total GULP energy -223124.909564 kJ/mol
# GULP energy per Si atom -12395.828309 kJ/mol
# Density = 2.000942 g / cm^3
# Si number density = 20.055071 Si / 1000 Ang^3
#
#
#
# Elastic Constant Matrix: (Units=GPa)
#
#
# Indices 1 2 3 4 5 6 
#
# 1 109.3323 19.1121 43.7846 0.0000 6.5678 0.0000
# 2 19.1121 60.5524 51.7566 0.0000 1.9531 0.0000
# 3 43.7846 51.7566 134.1042 0.0000 3.4523 0.0000
# 4 0.0000 0.0000 0.0000 11.0787 0.0000 4.2135
# 5 6.5678 1.9531 3.4523 0.0000 34.9434 0.0000
# 6 0.0000 0.0000 0.0000 4.2135 0.0000 10.3578
#
#
#
# Elastic Compliance Matrix: (Units=1/GPa)
#
#
# Indices 1 2 3 4 5 6 
#
# 1 0.010630 -0.000555 -0.003214 0.000000 -0.001649 0.000000
# 2 -0.000555 0.024680 -0.009335 0.000000 -0.000353 0.000000
# 3 -0.003214 -0.009335 0.012111 0.000000 -0.000071 0.000000
# 4 0.000000 0.000000 0.000000 0.106784 0.000000 -0.043439
# 5 -0.001649 -0.000353 -0.000071 0.000000 0.028954 0.000000
# 6 0.000000 0.000000 0.000000 -0.043439 0.000000 0.114216
#
#
# Mechanical properties :
#
#
# Convention : Reuss Voigt Hill
#
# Bulk Modulus (GPa) = 47.14030 59.25504 53.19767
# Shear Modulus (GPa) = 15.12161 23.89836 19.50998
#
# Velocity S-wave (km/s) = 2.74889 3.45575 3.12239
# Velocity P-wave (km/s) = 5.79928 6.74784 6.29146
#
# Compressibility (1/GPa) = 0.02121327
#
# Stress axis : x y z
#
# Youngs Moduli (GPa) = 94.07698 40.51865 82.57091
#
# Poissons Ratio (x) = 0.02247 0.26538
# Poissons Ratio (y) = 0.05218 0.77079
# Poissons Ratio (z) = 0.30236 0.37824
#
# Static dielectric constant tensor:
#      x y z
#    x 3.699650 0.000000 0.223000 
#    y 0.000000 3.125330 0.000000 
#    z 0.223000 0.000000 3.851500 
# 
# 
# High freq. dielectric constant tensor:
#      x y z
#    x 1.796170 0.000000 0.008180 
#    y 0.000000 1.725290 0.000000 
#    z 0.008180 0.000000 1.793090 
# 
# From -- ./inp_files/22042.got.cif
#   From: 2010.06.25/outbox.cif.g09.slc.cpg/sg10_12_cif.got.tgz:22042.got - 2010.06.27 22:07:45.
