data_PCOD8063070
_publ_section_title
;
Structure prediction by ZEFSAII (Michael W. Deem and Ramdas Pophale) SiO2 
 PCOD8063070
Probable space group: P 2/M
;
_chemical_formula_sum "Si O2"
_cell_formula_units_Z 12
_cell_length_a 13.630830
_cell_length_b 10.735924
_cell_length_c 5.111925
_cell_angle_alpha 90.000000
_cell_angle_beta 138.049570
_cell_angle_gamma 90.000000
_cell_volume 500.079947
_symmetry_space_group_name_H-M "P 2/M"
_symmetry_group_IT_number 10
_symmetry_cell_setting 'monoclinic'
loop_
_space_group_symop_operation_xyz
x,y,z
-x,y,-z
-x,-y,-z
x,-y,z
loop_
_atom_site_type_symbol
_atom_site_label
_atom_site_fract_x
_atom_site_fract_y
_atom_site_fract_z
Si Si1 0.398552 0.000000 0.044509
Si Si2 0.095544 0.858676 0.948867
Si Si3 0.329842 0.248501 0.091527
Si Si4 0.603300 0.500000 0.953779
O O1 0.500000 0.000000 0.500000
O O2 0.297311 0.125168 0.846640
O O3 0.500000 0.000000 0.000000
O O4 0.000000 0.856806 0.500000
O O5 0.151480 0.000000 0.121478
O O6 0.233821 0.766735 0.166211
O O7 0.000000 0.805228 0.000000
O O8 0.500000 0.250569 0.500000
O O9 0.294469 0.375678 0.860722
O O10 0.500000 0.500000 0.500000
O O11 0.500000 0.500000 0.000000
#
# Coordination Sequence:
#
# PCOD8063070 Si02
#       4
#     2   4   4   2
#     4  10  20  32  54  86 112 140 191 242 281 334
#     4  10  22  39  58  86 122 156 191 244 303 350
#     4  10  21  40  62  90 117 158 200 246 292 353
#     4  10  22  38  58  88 124 154 191 248 303 342
#
# _framework density 23.996164
#
# number of rings (size 3 to 8) (size 9 to 14) (size 15 to 20)
#    0.000    2.000    1.667    1.000    0.000   10.667 
#    0.000    1.667    0.000    0.000    0.000    0.000 
#    0.000    0.000    0.000    0.000    0.000    0.000 
#
# Total GULP energy -148726.792023 kJ/mol
# GULP energy per Si atom -12393.899335 kJ/mol
# Density = 2.394155 g / cm^3
# Si number density = 23.996164 Si / 1000 Ang^3
#
#
#
# Elastic Constant Matrix: (Units=GPa)
#
#
# Indices 1 2 3 4 5 6 
#
# 1 288.3354 105.4722 31.4314 0.0000 5.2548 0.0000
# 2 105.4722 238.9577 3.4913 0.0000 4.4762 0.0000
# 3 31.4314 3.4913 17.0379 0.0000 5.4578 0.0000
# 4 0.0000 0.0000 0.0000 5.7927 0.0000 -5.7569
# 5 5.2548 4.4762 5.4578 0.0000 43.4330 0.0000
# 6 0.0000 0.0000 0.0000 -5.7569 0.0000 36.9359
#
#
#
# Elastic Compliance Matrix: (Units=1/GPa)
#
#
# Indices 1 2 3 4 5 6 
#
# 1 0.005312 -0.002219 -0.009598 0.000000 0.000792 0.000000
# 2 -0.002219 0.005129 0.003257 0.000000 -0.000669 0.000000
# 3 -0.009598 0.003257 0.078633 0.000000 -0.009055 0.000000
# 4 0.000000 0.000000 0.000000 0.204272 0.000000 0.031838
# 5 0.000792 -0.000669 -0.009055 0.000000 0.024135 0.000000
# 6 0.000000 0.000000 0.000000 0.031838 0.000000 0.032036
#
#
# Mechanical properties :
#
#
# Convention : Reuss Voigt Hill
#
# Bulk Modulus (GPa) = 13.89787 91.68008 52.78897
# Shear Modulus (GPa) = 12.80013 44.16140 28.48076
#
# Velocity S-wave (km/s) = 2.31210 4.29459 3.44886
# Velocity P-wave (km/s) = 3.59611 7.92972 6.15680
#
# Compressibility (1/GPa) = 0.07195348
#
# Stress axis : x y z
#
# Youngs Moduli (GPa) = 188.26015 194.95885 12.71738
#
# Poissons Ratio (x) = 0.43264 0.12206
# Poissons Ratio (y) = 0.41778 -0.04142
# Poissons Ratio (z) = 1.80695 -0.63503
#
# Static dielectric constant tensor:
#      x y z
#    x 4.679570 0.000000 0.184780 
#    y 0.000000 16.513670 0.000000 
#    z 0.184780 0.000000 3.726240 
# 
# 
# High freq. dielectric constant tensor:
#      x y z
#    x 1.972270 0.000000 -0.006680 
#    y 0.000000 1.945410 0.000000 
#    z -0.006680 0.000000 1.916590 
# 
# From -- ./inp_files/2674.got.cif
#   From: 2010.06.25/outbox.cif.g09.slc.cpg/sg10_2_cif.got.tgz:2674.got - 2010.06.27 22:07:45.
