data_PCOD8063227
_publ_section_title
;
Structure prediction by ZEFSAII (Michael W. Deem and Ramdas Pophale) SiO2 
 PCOD8063227
Probable space group: P 2/M
;
_chemical_formula_sum "Si O2"
_cell_formula_units_Z 28
_cell_length_a 16.891823
_cell_length_b 9.062234
_cell_length_c 14.946132
_cell_angle_alpha 90.000000
_cell_angle_beta 134.315991
_cell_angle_gamma 90.000000
_cell_volume 1637.000828
_symmetry_space_group_name_H-M "P 2/M"
_symmetry_group_IT_number 10
_symmetry_cell_setting 'monoclinic'
loop_
_space_group_symop_operation_xyz
x,y,z
-x,y,-z
-x,-y,-z
x,-y,z
loop_
_atom_site_type_symbol
_atom_site_label
_atom_site_fract_x
_atom_site_fract_y
_atom_site_fract_z
Si Si1 0.837607 0.325605 0.430900
Si Si2 0.740458 0.328811 0.821540
Si Si3 0.925360 0.674207 0.317422
Si Si4 0.088623 0.670936 0.892213
Si Si5 0.288123 0.172782 0.522871
Si Si6 0.133896 0.824927 0.239355
Si Si7 0.518313 0.172369 0.617535
O O1 0.823279 0.500000 0.427527
O O2 0.841545 0.272438 0.329806
O O3 0.735095 0.250593 0.400672
O O4 0.950573 0.268252 0.566625
O O5 0.738076 0.500000 0.792418
O O6 0.803885 0.238227 0.796726
O O7 0.617221 0.267941 0.736260
O O8 0.800952 0.304753 0.963908
O O9 0.929602 0.500000 0.327194
O O10 0.885561 0.727597 0.188313
O O11 0.051729 0.500000 0.862605
O O12 0.990101 0.764272 0.857588
O O13 0.199220 0.226942 0.379285
O O14 0.409912 0.217642 0.586990
O O15 0.278723 0.000000 0.529567
O O16 0.132103 0.000000 0.229281
O O17 0.500000 0.214065 0.500000
O O18 0.546691 0.000000 0.649362
#
# Coordination Sequence:
#
# PCOD8063227 Si02
#       7
#     4   4   4   4   4   4   4
#     4   9  16  29  52  77  99 130 168 203 248 303
#     4  11  23  35  51  76 103 134 173 213 251 294
#     4   8  15  29  50  75 102 132 164 200 249 302
#     4  10  20  35  52  74 107 138 166 207 254 298
#     4  10  20  33  51  75 103 132 164 208 257 296
#     4  11  21  34  51  74 105 140 172 201 246 307
#     4  10  20  38  56  70  97 136 173 211 255 298
#
# _framework density 17.10445
#
# number of rings (size 3 to 8) (size 9 to 14) (size 15 to 20)
#    0.000    2.143    2.857    2.143    0.000    4.286 
#    0.000    2.143    0.000    0.857    0.000    6.000 
#    0.000    0.000    0.000    0.000    0.000    0.000 
#
# Total GULP energy -347182.570187 kJ/mol
# GULP energy per Si atom -12399.377507 kJ/mol
# Density = 1.706552 g / cm^3
# Si number density = 17.104450 Si / 1000 Ang^3
#
#
#
# Elastic Constant Matrix: (Units=GPa)
#
#
# Indices 1 2 3 4 5 6 
#
# 1 141.4899 40.4605 50.0948 0.0000 -4.6907 0.0000
# 2 40.4605 49.4611 35.6421 0.0000 3.7236 0.0000
# 3 50.0948 35.6421 75.6947 0.0000 12.3751 0.0000
# 4 0.0000 0.0000 0.0000 18.4341 0.0000 7.1493
# 5 -4.6907 3.7236 12.3751 0.0000 20.8420 0.0000
# 6 0.0000 0.0000 0.0000 7.1493 0.0000 25.7222
#
#
#
# Elastic Compliance Matrix: (Units=1/GPa)
#
#
# Indices 1 2 3 4 5 6 
#
# 1 0.010848 -0.005160 -0.005869 0.000000 0.006848 0.000000
# 2 -0.005160 0.033278 -0.012285 0.000000 0.000187 0.000000
# 3 -0.005869 -0.012285 0.025181 0.000000 -0.014078 0.000000
# 4 0.000000 0.000000 0.000000 0.060801 0.000000 -0.016899
# 5 0.006848 0.000187 -0.014078 0.000000 0.057846 0.000000
# 6 0.000000 0.000000 0.000000 -0.016899 0.000000 0.043574
#
#
# Mechanical properties :
#
#
# Convention : Reuss Voigt Hill
#
# Bulk Modulus (GPa) = 44.09486 57.67117 50.88301
# Shear Modulus (GPa) = 17.49981 22.36288 19.93135
#
# Velocity S-wave (km/s) = 3.20209 3.61976 3.41731
# Velocity P-wave (km/s) = 6.28545 7.15964 6.73674
#
# Compressibility (1/GPa) = 0.02267838
#
# Stress axis : x y z
#
# Youngs Moduli (GPa) = 92.17987 30.05011 39.71213
#
# Poissons Ratio (x) = 0.15507 0.23308
# Poissons Ratio (y) = 0.47569 0.48786
# Poissons Ratio (z) = 0.54102 0.36916
#
# Static dielectric constant tensor:
#      x y z
#    x 3.442610 0.000000 -0.143740 
#    y 0.000000 3.053230 0.000000 
#    z -0.143740 0.000000 3.246830 
# 
# 
# High freq. dielectric constant tensor:
#      x y z
#    x 1.664440 0.000000 -0.009540 
#    y 0.000000 1.648540 0.000000 
#    z -0.009540 0.000000 1.642170 
# 
# From -- ./inp_files/49067.got.cif
#   From: 2010.06.25/outbox.cif.g09.slc.cpg/sg10_25_cif.got.tgz:49067.got - 2010.06.27 22:07:45.
