data_PCOD8063860
_publ_section_title
;
Structure prediction by ZEFSAII (Michael W. Deem and Ramdas Pophale) SiO2 
 PCOD8063860
Probable space group: P 2/M
;
_chemical_formula_sum "Si O2"
_cell_formula_units_Z 32
_cell_length_a 13.952397
_cell_length_b 9.166298
_cell_length_c 13.982171
_cell_angle_alpha 90.000000
_cell_angle_beta 61.581383
_cell_angle_gamma 90.000000
_cell_volume 1572.715906
_symmetry_space_group_name_H-M "P 2/M"
_symmetry_group_IT_number 10
_symmetry_cell_setting 'monoclinic'
loop_
_space_group_symop_operation_xyz
x,y,z
-x,y,-z
-x,-y,-z
x,-y,z
loop_
_atom_site_type_symbol
_atom_site_label
_atom_site_fract_x
_atom_site_fract_y
_atom_site_fract_z
Si Si1 0.830179 0.831076 0.820119
Si Si2 0.709370 0.835452 0.561783
Si Si3 0.891932 0.168672 0.999312
Si Si4 0.617537 0.833620 0.406945
Si Si5 0.454716 0.660277 0.258089
Si Si6 0.883856 0.669751 0.601741
Si Si7 0.383239 0.335253 0.084731
Si Si8 0.309220 0.332288 0.813718
O O1 0.881196 0.747293 0.706057
O O2 0.712404 0.768325 0.906363
O O3 0.818151 0.000000 0.798176
O O4 0.905386 0.809582 0.878347
O O5 0.708689 0.825665 0.447533
O O6 0.588135 0.785563 0.651252
O O7 0.797464 0.730160 0.566971
O O8 0.731006 0.000000 0.586778
O O9 0.788593 0.252920 0.087967
O O10 0.874071 0.000000 0.033206
O O11 0.000000 0.229060 0.000000
O O12 0.500000 0.777322 0.500000
O O13 0.664010 0.731669 0.302652
O O14 0.605982 0.000000 0.375660
O O15 0.444686 0.500000 0.311601
O O16 0.378243 0.663013 0.201625
O O17 0.582078 0.687733 0.172544
O O18 0.860269 0.500000 0.629931
O O19 0.000000 0.698965 0.500000
O O20 0.368918 0.500000 0.050121
O O21 0.500000 0.269547 0.000000
O O22 0.276373 0.500000 0.816792
#
# Coordination Sequence:
#
# PCOD8063860 Si02
#       8
#     4   4   4   4   4   4   4   4
#     4  11  23  40  65  94 121 157 207 258 305 362
#     4  11  22  37  61  89 119 160 207 253 302 360
#     4  10  24  46  67  88 121 165 209 258 312 364
#     4  10  21  38  59  87 126 169 208 252 311 370
#     4  10  20  34  55  85 124 163 196 243 307 365
#     4  11  25  44  65  90 125 166 204 252 314 372
#     4  10  20  35  57  86 123 165 201 241 303 370
#     4  11  23  38  62  95 126 163 210 258 308 367
#
# _framework density 20.346965999999998
#
# number of rings (size 3 to 8) (size 9 to 14) (size 15 to 20)
#    0.000    1.500    2.500    2.250    0.000    6.250 
#    0.000    3.750    0.000    0.000    0.000    0.000 
#    0.000    0.000    0.000    0.000    0.000    0.000 
#
# Total GULP energy -396824.467629 kJ/mol
# GULP energy per Si atom -12400.764613 kJ/mol
# Density = 2.030066 g / cm^3
# Si number density = 20.346966 Si / 1000 Ang^3
#
#
#
# Elastic Constant Matrix: (Units=GPa)
#
#
# Indices 1 2 3 4 5 6 
#
# 1 112.6697 54.1119 37.4526 0.0000 3.0980 0.0000
# 2 54.1119 110.4885 50.5764 0.0000 -5.1973 0.0000
# 3 37.4526 50.5764 78.4549 0.0000 -2.9702 0.0000
# 4 0.0000 0.0000 0.0000 33.8825 0.0000 -3.0198
# 5 3.0980 -5.1973 -2.9702 0.0000 30.6024 0.0000
# 6 0.0000 0.0000 0.0000 -3.0198 0.0000 21.6684
#
#
#
# Elastic Compliance Matrix: (Units=1/GPa)
#
#
# Indices 1 2 3 4 5 6 
#
# 1 0.012171 -0.004781 -0.002816 0.000000 -0.002317 0.000000
# 2 -0.004781 0.014776 -0.007156 0.000000 0.002299 0.000000
# 3 -0.002816 -0.007156 0.018737 0.000000 0.000888 0.000000
# 4 0.000000 0.000000 0.000000 0.029885 0.000000 0.004165
# 5 -0.002317 0.002299 0.000888 0.000000 0.033388 0.000000
# 6 0.000000 0.000000 0.000000 0.004165 0.000000 0.046731
#
#
# Mechanical properties :
#
#
# Convention : Reuss Voigt Hill
#
# Bulk Modulus (GPa) = 61.80989 65.09943 63.45466
# Shear Modulus (GPa) = 26.23458 27.86212 27.04835
#
# Velocity S-wave (km/s) = 3.59466 3.70449 3.64999
# Velocity P-wave (km/s) = 6.90454 7.09660 7.00123
#
# Compressibility (1/GPa) = 0.01617864
#
# Stress axis : x y z
#
# Youngs Moduli (GPa) = 82.15944 67.67700 53.36923
#
# Poissons Ratio (x) = 0.32356 0.15029
# Poissons Ratio (y) = 0.39280 0.38192
# Poissons Ratio (z) = 0.23137 0.48431
#
# Static dielectric constant tensor:
#      x y z
#    x 3.792110 0.000000 0.093590 
#    y 0.000000 3.719130 0.000000 
#    z 0.093590 0.000000 3.623040 
# 
# 
# High freq. dielectric constant tensor:
#      x y z
#    x 1.798060 0.000000 0.008950 
#    y 0.000000 1.796820 0.000000 
#    z 0.008950 0.000000 1.792690 
# 
# From -- ./inp_files/66537.got.cif
#   From: 2010.06.25/outbox.cif.g09.slc.cpg/sg10_34_cif.got.tgz:66537.got - 2010.06.27 22:07:45.
