data_PCOD8063751
_publ_section_title
;
Structure prediction by ZEFSAII (Michael W. Deem and Ramdas Pophale) SiO2 
 PCOD8063751
Probable space group: P 2/M
;
_chemical_formula_sum "Si O2"
_cell_formula_units_Z 28
_cell_length_a 8.893709
_cell_length_b 8.948991
_cell_length_c 28.667840
_cell_angle_alpha 90.000000
_cell_angle_beta 140.855080
_cell_angle_gamma 90.000000
_cell_volume 1440.378948
_symmetry_space_group_name_H-M "P 2/M"
_symmetry_group_IT_number 10
_symmetry_cell_setting 'monoclinic'
loop_
_space_group_symop_operation_xyz
x,y,z
-x,y,-z
-x,-y,-z
x,-y,z
loop_
_atom_site_type_symbol
_atom_site_label
_atom_site_fract_x
_atom_site_fract_y
_atom_site_fract_z
Si Si1 0.517178 0.325338 0.277041
Si Si2 0.399075 0.322467 0.427261
Si Si3 0.131927 0.674662 0.722979
Si Si4 0.978630 0.824516 0.860988
Si Si5 0.326405 0.175486 0.860996
Si Si6 0.177515 0.328782 0.999999
Si Si7 0.737226 0.322445 0.427235
O O1 0.452938 0.500000 0.264093
O O2 0.682744 0.289155 0.273078
O O3 0.278120 0.232109 0.215896
O O4 0.652733 0.270983 0.355971
O O5 0.500000 0.256498 0.500000
O O6 0.415496 0.500000 0.432100
O O7 0.556081 0.258214 0.422423
O O8 0.127190 0.271214 0.355993
O O9 0.132770 0.500000 0.736072
O O10 0.198241 0.768338 0.783980
O O11 0.165555 0.780604 0.866208
O O12 0.968251 0.000000 0.866804
O O13 0.058150 0.748594 0.927482
O O14 0.578843 0.252163 0.927243
O O15 0.366801 0.000000 0.867167
O O16 0.228515 0.500000 0.999777
O O17 0.000000 0.313038 0.000000
O O18 0.744909 0.500000 0.431972
O O19 0.000000 0.256554 0.500000
#
# Coordination Sequence:
#
# PCOD8063751 Si02
#       7
#     4   4   4   4   4   4   4
#     4  10  20  34  54  81 111 144 185 230 275 326
#     4   9  16  27  46  74 108 144 182 227 277 325
#     4  10  20  34  54  81 111 144 185 230 275 326
#     4  11  24  40  58  82 112 146 184 224 269 324
#     4  11  24  40  58  82 112 146 184 224 269 324
#     4  11  24  41  62  88 114 141 178 223 270 322
#     4   9  16  27  46  74 108 144 182 227 277 325
#
# _framework density 19.439326999999999
#
# number of rings (size 3 to 8) (size 9 to 14) (size 15 to 20)
#    0.000    1.857    0.000    4.286    0.000   13.714 
#    0.000    0.000    0.000    0.857    0.000    0.000 
#    0.000    0.000    0.000    0.000    0.000    0.000 
#
# Total GULP energy -347304.312560 kJ/mol
# GULP energy per Si atom -12403.725449 kJ/mol
# Density = 1.939508 g / cm^3
# Si number density = 19.439327 Si / 1000 Ang^3
#
#
#
# Elastic Constant Matrix: (Units=GPa)
#
#
# Indices 1 2 3 4 5 6 
#
# 1 -151.3658 60.6876 -76.6414 0.0000 7.6069 0.0000
# 2 60.6876 52.7853 51.0143 0.0000 -0.8444 0.0000
# 3 -76.6414 51.0143 92.3811 0.0000 2.1896 0.0000
# 4 0.0000 0.0000 0.0000 -41.0095 0.0000 -3.3405
# 5 7.6069 -0.8444 2.1896 0.0000 51.5151 0.0000
# 6 0.0000 0.0000 0.0000 -3.3405 0.0000 24.3678
#
#
#
# Elastic Compliance Matrix: (Units=1/GPa)
#
#
# Indices 1 2 3 4 5 6 
#
# 1 -0.001533 0.006460 -0.004852 0.000000 0.000538 0.000000
# 2 0.006460 0.013539 -0.002102 0.000000 -0.000643 0.000000
# 3 -0.004852 -0.002102 0.007952 0.000000 0.000344 0.000000
# 4 0.000000 0.000000 0.000000 -0.024115 0.000000 -0.003306
# 5 0.000538 -0.000643 0.000344 0.000000 0.019307 0.000000
# 6 0.000000 0.000000 0.000000 -0.003306 0.000000 0.040585
#
#
# Mechanical properties :
#
#
# Convention : Reuss Voigt Hill
#
# Bulk Modulus (GPa) = 52.71280 7.10239 29.90760
# Shear Modulus (GPa) = 79.30886 4.22402 41.76644
#
# Velocity S-wave (km/s) = 6.39427 1.47568 4.64028
# Velocity P-wave (km/s) = 9.03831 2.56224 6.64290
#
# Compressibility (1/GPa) = 0.01897072
#
# Stress axis : x y z
#
# Youngs Moduli (GPa) = -652.36982 73.86320 125.75378
#
# Poissons Ratio (x) = -0.47715 0.61012
# Poissons Ratio (y) = 4.21425 0.26429
# Poissons Ratio (z) = -3.16512 0.15524
#
# Static dielectric constant tensor:
#      x y z
#    x 3.801730 0.000000 -0.012130 
#    y 0.000000 3.305360 0.000000 
#    z -0.012130 0.000000 3.586160 
# 
# 
# High freq. dielectric constant tensor:
#      x y z
#    x 1.777950 0.000000 0.000040 
#    y 0.000000 1.723930 0.000000 
#    z 0.000040 0.000000 1.778680 
# 
# From -- ./inp_files/91935.got.cif
#   From: 2010.06.25/outbox.cif.g09.slc.cpg/sg10_46_cif.got.tgz:91935.got - 2010.06.27 22:07:45.
