data_PCOD8063458
_publ_section_title
;
Structure prediction by ZEFSAII (Michael W. Deem and Ramdas Pophale) SiO2 
 PCOD8063458
Probable space group: P 2/M
;
_chemical_formula_sum "Si O2"
_cell_formula_units_Z 28
_cell_length_a 14.564294
_cell_length_b 15.268629
_cell_length_c 14.564287
_cell_angle_alpha 90.000000
_cell_angle_beta 31.585112
_cell_angle_gamma 90.000000
_cell_volume 1696.347515
_symmetry_space_group_name_H-M "P 2/M"
_symmetry_group_IT_number 10
_symmetry_cell_setting 'monoclinic'
loop_
_space_group_symop_operation_xyz
x,y,z
-x,y,-z
-x,-y,-z
x,-y,z
loop_
_atom_site_type_symbol
_atom_site_label
_atom_site_fract_x
_atom_site_fract_y
_atom_site_fract_z
Si Si1 0.928002 0.101079 0.305297
Si Si2 0.553245 0.896098 0.553246
Si Si3 0.495902 0.777437 0.113122
Si Si4 0.886878 0.777437 0.504098
Si Si5 0.001485 0.594341 0.607007
Si Si6 0.694704 0.101079 0.071998
Si Si7 0.607006 0.405659 0.001486
O O1 0.749763 0.136599 0.409942
O O2 0.968967 0.155090 0.362293
O O3 0.905061 0.000000 0.353121
O O4 0.094753 0.112466 0.094754
O O5 0.500000 0.855883 0.500000
O O6 0.409941 0.863401 0.749764
O O7 0.550277 0.000000 0.550278
O O8 0.308387 0.808565 0.308387
O O9 0.637707 0.844910 0.031034
O O10 0.500000 0.778475 0.000000
O O11 0.536099 0.678855 0.117129
O O12 0.882872 0.678855 0.463900
O O13 0.000000 0.778475 0.500000
O O14 0.072209 0.500000 0.586004
O O15 0.000000 0.586366 0.500000
O O16 0.808002 0.612855 0.808002
O O17 0.646879 0.000000 0.094939
O O18 0.586002 0.500000 0.072210
O O19 0.500000 0.413634 0.000000
#
# Coordination Sequence:
#
# PCOD8063458 Si02
#       7
#     4   4   4   4   4   4   4
#     4  10  20  34  50  70  98 127 159 199 238 283
#     4   9  18  34  54  74  95 121 157 201 249 291
#     4  11  20  30  45  65  94 131 167 199 233 281
#     4  11  20  30  45  65  94 131 167 199 233 281
#     4   9  16  26  40  59  85 118 158 200 237 275
#     4  10  20  34  50  70  98 127 159 199 238 283
#     4   9  16  26  40  59  85 118 158 200 237 275
#
# _framework density 16.506052
#
# number of rings (size 3 to 8) (size 9 to 14) (size 15 to 20)
#    0.000    2.143    1.429    5.143    0.000    2.857 
#    0.000    2.857    0.000    0.000    0.000    0.000 
#    0.000    2.286    0.000    6.000    0.000    0.286 
#
# Total GULP energy -346957.556692 kJ/mol
# GULP energy per Si atom -12391.341310 kJ/mol
# Density = 1.646848 g / cm^3
# Si number density = 16.506052 Si / 1000 Ang^3
#
#
#
# Elastic Constant Matrix: (Units=GPa)
#
#
# Indices 1 2 3 4 5 6 
#
# 1 67.6396 35.7127 35.7950 0.0000 -0.8348 0.0000
# 2 35.7127 77.3502 29.3690 0.0000 1.8308 0.0000
# 3 35.7950 29.3690 104.2984 0.0000 -9.7474 0.0000
# 4 0.0000 0.0000 0.0000 22.7265 0.0000 -5.7281
# 5 -0.8348 1.8308 -9.7474 0.0000 19.9410 0.0000
# 6 0.0000 0.0000 0.0000 -5.7281 0.0000 2.8831
#
#
#
# Elastic Compliance Matrix: (Units=1/GPa)
#
#
# Indices 1 2 3 4 5 6 
#
# 1 0.021830 -0.008038 -0.005317 0.000000 -0.000947 0.000000
# 2 -0.008038 0.017670 -0.002515 0.000000 -0.003188 0.000000
# 3 -0.005317 -0.002515 0.012702 0.000000 0.006217 0.000000
# 4 0.000000 0.000000 0.000000 0.088138 0.000000 0.175113
# 5 -0.000947 -0.003188 0.006217 0.000000 0.053440 0.000000
# 6 0.000000 0.000000 0.000000 0.175113 0.000000 0.694766
#
#
# Mechanical properties :
#
#
# Convention : Reuss Voigt Hill
#
# Bulk Modulus (GPa) = 48.87136 50.11575 49.49355
# Shear Modulus (GPa) = 5.39312 19.00422 12.19867
#
# Velocity S-wave (km/s) = 1.80955 3.39683 2.72148
# Velocity P-wave (km/s) = 5.83424 6.76850 6.31866
#
# Compressibility (1/GPa) = 0.02046188
#
# Stress axis : x y z
#
# Youngs Moduli (GPa) = 45.80796 56.59444 78.72789
#
# Poissons Ratio (x) = 0.45489 0.41862
# Poissons Ratio (y) = 0.36819 0.19800
# Poissons Ratio (z) = 0.24358 0.14233
#
# Static dielectric constant tensor:
#      x y z
#    x 2.805130 0.000000 -0.165700 
#    y 0.000000 3.534250 0.000000 
#    z -0.165700 0.000000 3.379090 
# 
# 
# High freq. dielectric constant tensor:
#      x y z
#    x 1.577020 0.000000 -0.021880 
#    y 0.000000 1.633360 0.000000 
#    z -0.021880 0.000000 1.652810 
# 
# From -- ./inp_files/51813.got.cif
#   From: 2010.06.25/outbox.cif.g09.slc.cpg/sg10_26_cif.got.tgz:51813.got - 2010.06.27 22:07:45.
