data_PCOD8063499
_publ_section_title
;
Structure prediction by ZEFSAII (Michael W. Deem and Ramdas Pophale) SiO2 
 PCOD8063499
Probable space group: P 2/M
;
_chemical_formula_sum "Si O2"
_cell_formula_units_Z 28
_cell_length_a 28.292394
_cell_length_b 9.035423
_cell_length_c 9.538596
_cell_angle_alpha 90.000000
_cell_angle_beta 39.576017
_cell_angle_gamma 90.000000
_cell_volume 1553.499824
_symmetry_space_group_name_H-M "P 2/M"
_symmetry_group_IT_number 10
_symmetry_cell_setting 'monoclinic'
loop_
_space_group_symop_operation_xyz
x,y,z
-x,y,-z
-x,-y,-z
x,-y,z
loop_
_atom_site_type_symbol
_atom_site_label
_atom_site_fract_x
_atom_site_fract_y
_atom_site_fract_z
Si Si1 0.941147 0.168991 0.826441
Si Si2 0.919335 0.674378 0.144097
Si Si3 0.643112 0.824414 0.006042
Si Si4 0.796672 0.674826 0.644325
Si Si5 0.514229 0.325561 0.128524
Si Si6 0.423278 0.337401 0.594456
Si Si7 0.894868 0.830075 0.625316
O O1 0.893672 0.186373 0.794732
O O2 0.025529 0.225583 0.613447
O O3 0.943011 0.000000 0.871259
O O4 0.898728 0.266350 0.037951
O O5 0.922086 0.500000 0.134779
O O6 0.856690 0.729140 0.393563
O O7 0.000000 0.740230 0.000000
O O8 0.721244 0.758204 0.780045
O O9 0.644172 0.000000 0.996832
O O10 0.583510 0.764325 0.031229
O O11 0.627976 0.777027 0.202984
O O12 0.782995 0.500000 0.674954
O O13 0.829094 0.726233 0.719602
O O14 0.532245 0.500000 0.097241
O O15 0.441643 0.288421 0.391494
O O16 0.500000 0.277345 0.000000
O O17 0.500000 0.348640 0.500000
O O18 0.384857 0.500000 0.682525
O O19 0.880616 0.000000 0.614163
#
# Coordination Sequence:
#
# PCOD8063499 Si02
#       7
#     4   4   4   4   4   4   4
#     4   9  18  32  52  75 101 131 166 213 267 322
#     4  10  20  34  51  76 104 134 180 229 271 319
#     4  11  22  35  53  79 111 144 180 221 263 314
#     4  11  22  36  54  75 104 141 180 225 273 321
#     4   9  18  35  60  87 113 142 176 214 257 310
#     4   8  15  31  55  80 106 138 175 209 248 305
#     4   9  18  33  51  75 102 130 168 213 263 319
#
# _framework density 18.023820000000001
#
# number of rings (size 3 to 8) (size 9 to 14) (size 15 to 20)
#    0.000    2.429    1.429    3.429    0.000    4.857 
#    0.000    2.857    0.000    1.714    0.000    0.000 
#    0.000    0.000    0.000    0.000    0.000    0.000 
#
# Total GULP energy -347111.586091 kJ/mol
# GULP energy per Si atom -12396.842360 kJ/mol
# Density = 1.798280 g / cm^3
# Si number density = 18.023820 Si / 1000 Ang^3
#
#
#
# Elastic Constant Matrix: (Units=GPa)
#
#
# Indices 1 2 3 4 5 6 
#
# 1 83.2422 44.5079 57.9597 0.0000 6.5073 0.0000
# 2 44.5079 75.4816 54.7417 0.0000 -4.5512 0.0000
# 3 57.9597 54.7417 120.3432 0.0000 8.2354 0.0000
# 4 0.0000 0.0000 0.0000 24.9007 0.0000 -0.8397
# 5 6.5073 -4.5512 8.2354 0.0000 30.5793 0.0000
# 6 0.0000 0.0000 0.0000 -0.8397 0.0000 29.6091
#
#
#
# Elastic Compliance Matrix: (Units=1/GPa)
#
#
# Indices 1 2 3 4 5 6 
#
# 1 0.020939 -0.008172 -0.006091 0.000000 -0.004032 0.000000
# 2 -0.008172 0.023899 -0.007435 0.000000 0.007298 0.000000
# 3 -0.006091 -0.007435 0.014887 0.000000 -0.003819 0.000000
# 4 0.000000 0.000000 0.000000 0.040198 0.000000 0.001140
# 5 -0.004032 0.007298 -0.003819 0.000000 0.035675 0.000000
# 6 0.000000 0.000000 0.000000 0.001140 0.000000 0.033806
#
#
# Mechanical properties :
#
#
# Convention : Reuss Voigt Hill
#
# Bulk Modulus (GPa) = 61.24440 65.94284 63.59362
# Shear Modulus (GPa) = 22.91030 25.14166 24.02598
#
# Velocity S-wave (km/s) = 3.56913 3.73891 3.65501
# Velocity P-wave (km/s) = 7.14412 7.43674 7.29190
#
# Compressibility (1/GPa) = 0.01632802
#
# Stress axis : x y z
#
# Youngs Moduli (GPa) = 47.75740 41.84282 67.17445
#
# Poissons Ratio (x) = 0.34195 0.40919
# Poissons Ratio (y) = 0.39028 0.49942
# Poissons Ratio (z) = 0.29091 0.31109
#
# Static dielectric constant tensor:
#      x y z
#    x 3.179020 0.000000 0.192570 
#    y 0.000000 3.212360 0.000000 
#    z 0.192570 0.000000 3.530560 
# 
# 
# High freq. dielectric constant tensor:
#      x y z
#    x 1.677860 0.000000 0.014250 
#    y 0.000000 1.692760 0.000000 
#    z 0.014250 0.000000 1.695910 
# 
# From -- ./inp_files/37905.got.cif
#   From: 2010.06.25/outbox.cif.g09.slc.cpg/sg10_19_cif.got.tgz:37905.got - 2010.06.27 22:07:45.
