data_PCOD8063298
_publ_section_title
;
Structure prediction by ZEFSAII (Michael W. Deem and Ramdas Pophale) SiO2 
 PCOD8063298
Probable space group: P 2/M
;
_chemical_formula_sum "Si O2"
_cell_formula_units_Z 28
_cell_length_a 14.619602
_cell_length_b 9.136866
_cell_length_c 18.767271
_cell_angle_alpha 90.000000
_cell_angle_beta 140.968288
_cell_angle_gamma 90.000000
_cell_volume 1578.710154
_symmetry_space_group_name_H-M "P 2/M"
_symmetry_group_IT_number 10
_symmetry_cell_setting 'monoclinic'
loop_
_space_group_symop_operation_xyz
x,y,z
-x,y,-z
-x,-y,-z
x,-y,z
loop_
_atom_site_type_symbol
_atom_site_label
_atom_site_fract_x
_atom_site_fract_y
_atom_site_fract_z
Si Si1 0.818771 0.326738 0.785484
Si Si2 0.890755 0.829946 0.080747
Si Si3 0.067642 0.671012 0.465370
Si Si4 0.323775 0.168738 0.171096
Si Si5 0.356669 0.829459 0.600655
Si Si6 0.721119 0.838869 0.596928
Si Si7 0.958479 0.161157 0.272031
O O1 0.825066 0.500000 0.788153
O O2 0.756455 0.273297 0.822412
O O3 0.712459 0.272918 0.657434
O O4 0.980609 0.265008 0.875110
O O5 0.859313 0.786204 0.144779
O O6 0.939380 0.000000 0.106848
O O7 0.743876 0.802717 0.947730
O O8 0.084375 0.500000 0.463824
O O9 0.227242 0.740117 0.558469
O O10 0.000000 0.711920 0.500000
O O11 0.956262 0.729636 0.337518
O O12 0.493985 0.208257 0.268684
O O13 0.302888 0.000000 0.182389
O O14 0.378754 0.787446 0.530115
O O15 0.315159 0.000000 0.581293
O O16 0.881607 0.845316 0.663098
O O17 0.673231 0.000000 0.595312
O O18 0.909889 0.000000 0.269285
#
# Coordination Sequence:
#
# PCOD8063298 Si02
#       7
#     4   4   4   4   4   4   4
#     4  11  21  30  44  69  97 127 168 208 238 273
#     4   9  18  33  51  69  93 127 165 202 238 276
#     4  10  20  33  52  78 103 124 147 182 233 290
#     4  10  20  34  50  67  93 129 164 200 242 281
#     4   9  19  34  52  73  94 122 160 197 237 286
#     4   8  15  30  48  66  92 124 159 199 241 281
#     4   8  15  29  50  74  95 120 157 196 233 274
#
# _framework density 17.735997000000001
#
# number of rings (size 3 to 8) (size 9 to 14) (size 15 to 20)
#    0.000    2.714    0.000    3.857    0.000    9.714 
#    0.000    2.857    0.000    0.857    0.000    6.000 
#    0.000    0.000    0.000    0.000    0.000    0.000 
#
# Total GULP energy -347062.912907 kJ/mol
# GULP energy per Si atom -12395.104032 kJ/mol
# Density = 1.769563 g / cm^3
# Si number density = 17.735997 Si / 1000 Ang^3
#
#
#
# Elastic Constant Matrix: (Units=GPa)
#
#
# Indices 1 2 3 4 5 6 
#
# 1 61.7925 48.9010 66.9129 0.0000 -18.6476 0.0000
# 2 48.9010 95.5338 62.0955 0.0000 -12.9777 0.0000
# 3 66.9129 62.0955 156.2113 0.0000 -18.0304 0.0000
# 4 0.0000 0.0000 0.0000 -37.4479 0.0000 19.3596
# 5 -18.6476 -12.9777 -18.0304 0.0000 22.5532 0.0000
# 6 0.0000 0.0000 0.0000 19.3596 0.0000 8.1810
#
#
#
# Elastic Compliance Matrix: (Units=1/GPa)
#
#
# Indices 1 2 3 4 5 6 
#
# 1 0.045511 -0.012628 -0.012085 0.000000 0.020701 0.000000
# 2 -0.012628 0.017955 -0.001917 0.000000 -0.001643 0.000000
# 3 -0.012085 -0.001917 0.012184 0.000000 -0.001355 0.000000
# 4 0.000000 0.000000 0.000000 -0.012010 0.000000 0.028422
# 5 0.020701 -0.001643 -0.001355 0.000000 0.059427 0.000000
# 6 0.000000 0.000000 0.000000 0.028422 0.000000 0.054977
#
#
# Mechanical properties :
#
#
# Convention : Reuss Voigt Hill
#
# Bulk Modulus (GPa) = 44.66765 74.37293 59.52029
# Shear Modulus (GPa) = 20.94089 7.69914 14.32002
#
# Velocity S-wave (km/s) = 3.43986 2.08576 2.84456
# Velocity P-wave (km/s) = 6.40439 6.91555 6.66488
#
# Compressibility (1/GPa) = 0.02238756
#
# Stress axis : x y z
#
# Youngs Moduli (GPa) = 21.97290 55.69552 82.07447
#
# Poissons Ratio (x) = 0.70334 0.99188
# Poissons Ratio (y) = 0.27748 0.15738
# Poissons Ratio (z) = 0.26555 0.10680
#
# Static dielectric constant tensor:
#      x y z
#    x 2.935660 0.000000 -0.334880 
#    y 0.000000 3.209740 0.000000 
#    z -0.334880 0.000000 3.972260 
# 
# 
# High freq. dielectric constant tensor:
#      x y z
#    x 1.644480 0.000000 -0.019370 
#    y 0.000000 1.677150 0.000000 
#    z -0.019370 0.000000 1.697240 
# 
# From -- ./inp_files/77790.got.cif
#   From: 2010.06.25/outbox.cif.g09.slc.cpg/sg10_39_cif.got.tgz:77790.got - 2010.06.27 22:07:45.
