data_PCOD8063096
_publ_section_title
;
Structure prediction by ZEFSAII (Michael W. Deem and Ramdas Pophale) SiO2 
 PCOD8063096
Probable space group: P 2/M
;
_chemical_formula_sum "Si O2"
_cell_formula_units_Z 32
_cell_length_a 16.081157
_cell_length_b 9.173481
_cell_length_c 25.857785
_cell_angle_alpha 90.000000
_cell_angle_beta 28.894595
_cell_angle_gamma 90.000000
_cell_volume 1843.187508
_symmetry_space_group_name_H-M "P 2/M"
_symmetry_group_IT_number 10
_symmetry_cell_setting 'monoclinic'
loop_
_space_group_symop_operation_xyz
x,y,z
-x,y,-z
-x,-y,-z
x,-y,z
loop_
_atom_site_type_symbol
_atom_site_label
_atom_site_fract_x
_atom_site_fract_y
_atom_site_fract_z
Si Si1 0.964839 0.825982 0.776839
Si Si2 0.854311 0.669971 0.040110
Si Si3 0.342210 0.828363 0.554177
Si Si4 0.097207 0.172198 0.302277
Si Si5 0.779160 0.170774 0.979903
Si Si6 0.466816 0.329484 0.277265
Si Si7 0.288390 0.830005 0.466587
Si Si8 0.392867 0.828611 0.215805
O O1 0.884709 0.767359 0.766311
O O2 0.160846 0.767312 0.674636
O O3 0.964381 0.000000 0.775975
O O4 0.854294 0.766981 0.885171
O O5 0.876770 0.500000 0.016510
O O6 0.878021 0.752581 0.973088
O O7 0.669466 0.705814 0.165467
O O8 0.000000 0.727000 0.000000
O O9 0.500000 0.755970 0.500000
O O10 0.362879 0.792636 0.482496
O O11 0.342484 0.000000 0.562606
O O12 0.248810 0.235861 0.255517
O O13 0.912475 0.214114 0.426819
O O14 0.115291 0.000000 0.290267
O O15 0.577233 0.207658 0.090416
O O16 0.813547 0.000000 0.966554
O O17 0.429868 0.500000 0.293812
O O18 0.394388 0.268065 0.369777
O O19 0.369731 0.251969 0.282796
O O20 0.313238 0.000000 0.439673
O O21 0.369667 0.000000 0.238328
#
# Coordination Sequence:
#
# PCOD8063096 Si02
#       8
#     4   4   4   4   4   4   4   4
#     4   8  14  25  41  65  94 117 143 181 223 264
#     4   9  19  35  50  63  86 122 155 180 217 273
#     4   8  14  25  42  65  92 119 145 177 221 269
#     4   8  15  28  46  67  92 122 151 180 217 267
#     4   9  17  28  46  72  95 114 143 189 231 259
#     4  10  20  33  48  66  90 118 148 187 230 265
#     4   9  17  30  48  68  90 119 154 186 217 261
#     4   9  17  30  47  67  91 119 152 185 220 265
#
# _framework density 17.361229000000002
#
# number of rings (size 3 to 8) (size 9 to 14) (size 15 to 20)
#    0.000    3.250    0.000    1.875    0.000    2.750 
#    0.000    6.875    0.000    4.125    0.000    3.500 
#    0.000    0.000    0.000    0.000    0.000    0.000 
#
# Total GULP energy -396697.096697 kJ/mol
# GULP energy per Si atom -12396.784272 kJ/mol
# Density = 1.732171 g / cm^3
# Si number density = 17.361229 Si / 1000 Ang^3
#
#
#
# Elastic Constant Matrix: (Units=GPa)
#
#
# Indices 1 2 3 4 5 6 
#
# 1 159.2291 33.7381 75.4484 0.0000 -11.0809 0.0000
# 2 33.7381 29.7897 29.6565 0.0000 4.7081 0.0000
# 3 75.4484 29.6565 97.0190 0.0000 13.4629 0.0000
# 4 0.0000 0.0000 0.0000 12.7301 0.0000 -6.0632
# 5 -11.0809 4.7081 13.4629 0.0000 30.3231 0.0000
# 6 0.0000 0.0000 0.0000 -6.0632 0.0000 6.1487
#
#
#
# Elastic Compliance Matrix: (Units=1/GPa)
#
#
# Indices 1 2 3 4 5 6 
#
# 1 0.012778 -0.006863 -0.009202 0.000000 0.009821 0.000000
# 2 -0.006863 0.051967 -0.009677 0.000000 -0.006280 0.000000
# 3 -0.009202 -0.009677 0.022037 0.000000 -0.011644 0.000000
# 4 0.000000 0.000000 0.000000 0.148122 0.000000 0.146062
# 5 0.009821 -0.006280 -0.011644 0.000000 0.042712 0.000000
# 6 0.000000 0.000000 0.000000 0.146062 0.000000 0.306667
#
#
# Mechanical properties :
#
#
# Convention : Reuss Voigt Hill
#
# Bulk Modulus (GPa) = 28.32920 62.63597 45.48259
# Shear Modulus (GPa) = 7.72162 19.65337 13.68749
#
# Velocity S-wave (km/s) = 2.11123 3.36821 2.81088
# Velocity P-wave (km/s) = 4.72186 7.16120 6.06543
#
# Compressibility (1/GPa) = 0.03529926
#
# Stress axis : x y z
#
# Youngs Moduli (GPa) = 78.25913 19.24292 45.37810
#
# Poissons Ratio (x) = 0.13206 0.41757
# Poissons Ratio (y) = 0.53709 0.43910
# Poissons Ratio (z) = 0.72014 0.18621
#
# Static dielectric constant tensor:
#      x y z
#    x 3.627340 0.000000 -0.111140 
#    y 0.000000 2.811310 0.000000 
#    z -0.111140 0.000000 3.348050 
# 
# 
# High freq. dielectric constant tensor:
#      x y z
#    x 1.679770 0.000000 0.000800 
#    y 0.000000 1.625520 0.000000 
#    z 0.000800 0.000000 1.672120 
# 
# From -- ./inp_files/89541.got.cif
#   From: 2010.06.25/outbox.cif.g09.slc.cpg/sg10_45_cif.got.tgz:89541.got - 2010.06.27 22:07:45.
