data_PCOD8063479
_publ_section_title
;
Structure prediction by ZEFSAII (Michael W. Deem and Ramdas Pophale) SiO2 
 PCOD8063479
Probable space group: P 2/M
;
_chemical_formula_sum "Si O2"
_cell_formula_units_Z 28
_cell_length_a 9.572434
_cell_length_b 8.929800
_cell_length_c 26.295472
_cell_angle_alpha 90.000000
_cell_angle_beta 39.719564
_cell_angle_gamma 90.000000
_cell_volume 1436.371132
_symmetry_space_group_name_H-M "P 2/M"
_symmetry_group_IT_number 10
_symmetry_cell_setting 'monoclinic'
loop_
_space_group_symop_operation_xyz
x,y,z
-x,y,-z
-x,-y,-z
x,-y,z
loop_
_atom_site_type_symbol
_atom_site_label
_atom_site_fract_x
_atom_site_fract_y
_atom_site_fract_z
Si Si1 0.574443 0.177857 0.745198
Si Si2 0.081285 0.677344 0.421229
Si Si3 0.266695 0.176127 0.086867
Si Si4 0.633679 0.675778 0.508215
Si Si5 0.744228 0.673256 0.316575
Si Si6 0.838969 0.176112 0.769711
Si Si7 0.159541 0.676806 0.823734
O O1 0.704438 0.238777 0.659256
O O2 0.687869 0.234081 0.765729
O O3 0.328943 0.245222 0.815020
O O4 0.561349 0.000000 0.745734
O O5 0.127950 0.500000 0.406236
O O6 0.000000 0.724253 0.500000
O O7 0.881610 0.733092 0.441270
O O8 0.258499 0.226916 0.148286
O O9 0.085935 0.259367 0.102550
O O10 0.226335 0.000000 0.092684
O O11 0.500000 0.225271 0.000000
O O12 0.500000 0.754019 0.500000
O O13 0.645995 0.500000 0.495274
O O14 0.502635 0.709729 0.596931
O O15 0.801151 0.500000 0.306403
O O16 0.758469 0.725508 0.254862
O O17 0.918110 0.757317 0.303844
O O18 0.857775 0.000000 0.761354
O O19 0.159134 0.500000 0.833323
#
# Coordination Sequence:
#
# PCOD8063479 Si02
#       7
#     4   4   4   4   4   4   4
#     4  11  22  35  51  74 107 142 176 214 258 312
#     4  10  20  34  51  70  97 135 178 223 265 304
#     4   9  18  36  61  84 106 134 169 210 258 312
#     4   9  16  26  43  67  92 120 159 207 255 299
#     4   9  17  31  51  73  96 128 172 216 258 306
#     4   9  19  34  52  77 106 136 171 212 259 311
#     4  10  20  34  54  78 104 136 174 213 254 306
#
# _framework density 19.493569000000001
#
# number of rings (size 3 to 8) (size 9 to 14) (size 15 to 20)
#    0.000    2.429    0.000    2.571    0.000    5.714 
#    0.000    1.429    0.000    6.857    0.000    0.000 
#    0.000    0.000    0.000    0.000    0.000    0.000 
#
# Total GULP energy -347093.202623 kJ/mol
# GULP energy per Si atom -12396.185808 kJ/mol
# Density = 1.944920 g / cm^3
# Si number density = 19.493569 Si / 1000 Ang^3
#
#
#
# Elastic Constant Matrix: (Units=GPa)
#
#
# Indices 1 2 3 4 5 6 
#
# 1 100.3875 31.5373 23.3753 0.0000 -22.0160 0.0000
# 2 31.5373 43.6542 19.9616 0.0000 -9.5533 0.0000
# 3 23.3753 19.9616 69.6519 0.0000 -21.0431 0.0000
# 4 0.0000 0.0000 0.0000 24.9132 0.0000 -7.3774
# 5 -22.0160 -9.5533 -21.0431 0.0000 31.2990 0.0000
# 6 0.0000 0.0000 0.0000 -7.3774 0.0000 26.6604
#
#
#
# Elastic Compliance Matrix: (Units=1/GPa)
#
#
# Indices 1 2 3 4 5 6 
#
# 1 0.014331 -0.008700 -0.000092 0.000000 0.007363 0.000000
# 2 -0.008700 0.031994 -0.006460 0.000000 -0.000697 0.000000
# 3 -0.000092 -0.006460 0.019607 0.000000 0.011146 0.000000
# 4 0.000000 0.000000 0.000000 0.043722 0.000000 0.012099
# 5 0.007363 -0.000697 0.011146 0.000000 0.044410 0.000000
# 6 0.000000 0.000000 0.000000 0.012099 0.000000 0.040857
#
#
# Mechanical properties :
#
#
# Convention : Reuss Voigt Hill
#
# Bulk Modulus (GPa) = 28.22612 40.38242 34.30427
# Shear Modulus (GPa) = 21.07641 25.82914 23.45277
#
# Velocity S-wave (km/s) = 3.29173 3.64402 3.47234
# Velocity P-wave (km/s) = 5.38130 6.20209 5.80622
#
# Compressibility (1/GPa) = 0.03542818
#
# Stress axis : x y z
#
# Youngs Moduli (GPa) = 69.78064 31.25619 51.00318
#
# Poissons Ratio (x) = 0.27192 0.00467
# Poissons Ratio (y) = 0.60707 0.32949
# Poissons Ratio (z) = 0.00639 0.20192
#
# Static dielectric constant tensor:
#      x y z
#    x 3.935590 0.000000 -0.118960 
#    y 0.000000 3.258810 0.000000 
#    z -0.118960 0.000000 3.543130 
# 
# 
# High freq. dielectric constant tensor:
#      x y z
#    x 1.769140 0.000000 -0.013320 
#    y 0.000000 1.733740 0.000000 
#    z -0.013320 0.000000 1.747080 
# 
# From -- ./inp_files/37945.got.cif
#   From: 2010.06.25/outbox.cif.g09.slc.cpg/sg10_19_cif.got.tgz:37945.got - 2010.06.27 22:07:45.
