data_PCOD8063747
_publ_section_title
;
Structure prediction by ZEFSAII (Michael W. Deem and Ramdas Pophale) SiO2 
 PCOD8063747
Probable space group: P 2/M
;
_chemical_formula_sum "Si O2"
_cell_formula_units_Z 24
_cell_length_a 20.765970
_cell_length_b 8.816681
_cell_length_c 8.011667
_cell_angle_alpha 90.000000
_cell_angle_beta 55.804773
_cell_angle_gamma 90.000000
_cell_volume 1213.256552
_symmetry_space_group_name_H-M "P 2/M"
_symmetry_group_IT_number 10
_symmetry_cell_setting 'monoclinic'
loop_
_space_group_symop_operation_xyz
x,y,z
-x,y,-z
-x,-y,-z
x,-y,z
loop_
_atom_site_type_symbol
_atom_site_label
_atom_site_fract_x
_atom_site_fract_y
_atom_site_fract_z
Si Si1 0.171692 0.677463 0.736082
Si Si2 0.917387 0.680312 0.794886
Si Si3 0.520902 0.660803 0.653609
Si Si4 0.420175 0.836226 0.013323
Si Si5 0.086674 0.181249 0.545573
Si Si6 0.331311 0.824083 0.457468
O O1 0.159830 0.500000 0.718173
O O2 0.138741 0.771204 0.627428
O O3 0.262219 0.718092 0.622259
O O4 0.132658 0.723631 0.968995
O O5 0.924632 0.500000 0.762815
O O6 0.880457 0.750841 0.678239
O O7 0.001415 0.752841 0.702076
O O8 0.500000 0.623759 0.500000
O O9 0.545911 0.500000 0.703304
O O10 0.436966 0.713861 0.847898
O O11 0.589547 0.783573 0.561034
O O12 0.402755 0.000000 0.957349
O O13 0.500000 0.844026 0.000000
O O14 0.347633 0.791818 0.237291
O O15 0.084506 0.000000 0.535747
O O16 0.311439 0.000000 0.518437
#
# Coordination Sequence:
#
# PCOD8063747 Si02
#       6
#     4   4   4   4   4   4
#     4  11  23  39  60  86 119 158 196 240 295 350
#     4  10  21  39  62  87 118 156 199 244 288 343
#     4  10  20  34  54  81 109 142 185 228 275 336
#     4   8  16  32  53  75 100 133 175 220 268 323
#     4  11  22  37  61  90 119 154 197 242 291 348
#     4  10  21  37  56  80 110 144 184 233 285 340
#
# _framework density 19.781471
#
# number of rings (size 3 to 8) (size 9 to 14) (size 15 to 20)
#    0.000    2.000    0.000    6.000    0.000    9.667 
#    3.000    0.000    0.000    0.000    0.000    0.000 
#    0.000    0.000    0.000    0.000    0.000    0.000 
#
# Total GULP energy -297379.576775 kJ/mol
# GULP energy per Si atom -12390.815699 kJ/mol
# Density = 1.973645 g / cm^3
# Si number density = 19.781471 Si / 1000 Ang^3
#
#
#
# Elastic Constant Matrix: (Units=GPa)
#
#
# Indices 1 2 3 4 5 6 
#
# 1 49.5909 27.2777 45.8349 0.0000 3.9412 0.0000
# 2 27.2777 117.5861 63.1744 0.0000 6.1182 0.0000
# 3 45.8349 63.1744 138.6940 0.0000 3.5144 0.0000
# 4 0.0000 0.0000 0.0000 27.9983 0.0000 -2.7226
# 5 3.9412 6.1182 3.5144 0.0000 27.3003 0.0000
# 6 0.0000 0.0000 0.0000 -2.7226 0.0000 28.8351
#
#
#
# Elastic Compliance Matrix: (Units=1/GPa)
#
#
# Indices 1 2 3 4 5 6 
#
# 1 0.029622 -0.001998 -0.008811 0.000000 -0.002694 0.000000
# 2 -0.001998 0.011491 -0.004531 0.000000 -0.001703 0.000000
# 3 -0.008811 -0.004531 0.012167 0.000000 0.000721 0.000000
# 4 0.000000 0.000000 0.000000 0.036047 0.000000 0.003404
# 5 -0.002694 -0.001703 0.000721 0.000000 0.037308 0.000000
# 6 0.000000 0.000000 0.000000 0.003404 0.000000 0.035001
#
#
# Mechanical properties :
#
#
# Convention : Reuss Voigt Hill
#
# Bulk Modulus (GPa) = 44.24571 64.27165 54.25868
# Shear Modulus (GPa) = 25.01905 28.13236 26.57570
#
# Velocity S-wave (km/s) = 3.56022 3.77524 3.66931
# Velocity P-wave (km/s) = 6.27025 7.18085 6.74094
#
# Compressibility (1/GPa) = 0.02260106
#
# Stress axis : x y z
#
# Youngs Moduli (GPa) = 33.75917 87.02810 82.18756
#
# Poissons Ratio (x) = 0.17385 0.72415
# Poissons Ratio (y) = 0.06744 0.37235
# Poissons Ratio (z) = 0.29745 0.39428
#
# Static dielectric constant tensor:
#      x y z
#    x 3.259950 0.000000 0.029360 
#    y 0.000000 3.831440 0.000000 
#    z 0.029360 0.000000 4.158430 
# 
# 
# High freq. dielectric constant tensor:
#      x y z
#    x 1.737150 0.000000 0.002680 
#    y 0.000000 1.789210 0.000000 
#    z 0.002680 0.000000 1.782510 
# 
# From -- ./inp_files/33442.got.cif
#   From: 2010.06.25/outbox.cif.g09.slc.cpg/sg10_17_cif.got.tgz:33442.got - 2010.06.27 22:07:45.
