data_PCOD8063097
_publ_section_title
;
Structure prediction by ZEFSAII (Michael W. Deem and Ramdas Pophale) SiO2 
 PCOD8063097
Probable space group: P 2/M
;
_chemical_formula_sum "Si O2"
_cell_formula_units_Z 28
_cell_length_a 18.673965
_cell_length_b 9.163917
_cell_length_c 14.753204
_cell_angle_alpha 90.000000
_cell_angle_beta 141.352132
_cell_angle_gamma 90.000000
_cell_volume 1576.735849
_symmetry_space_group_name_H-M "P 2/M"
_symmetry_group_IT_number 10
_symmetry_cell_setting 'monoclinic'
loop_
_space_group_symop_operation_xyz
x,y,z
-x,y,-z
-x,-y,-z
x,-y,z
loop_
_atom_site_type_symbol
_atom_site_label
_atom_site_fract_x
_atom_site_fract_y
_atom_site_fract_z
Si Si1 0.608647 0.331712 0.481020
Si Si2 0.159404 0.671453 0.005312
Si Si3 0.215480 0.167986 0.240556
Si Si4 0.479248 0.832385 0.880504
Si Si5 0.722741 0.835077 0.438688
Si Si6 0.055109 0.836585 0.255990
Si Si7 0.399202 0.330906 0.160905
O O1 0.629274 0.500000 0.526204
O O2 0.658884 0.236635 0.613627
O O3 0.674604 0.291154 0.454719
O O4 0.474891 0.299643 0.326694
O O5 0.154884 0.500000 0.018198
O O6 0.157106 0.751639 0.099040
O O7 0.270285 0.716385 0.056740
O O8 0.047852 0.721904 0.838906
O O9 0.132086 0.191068 0.243186
O O10 0.232535 0.000000 0.232291
O O11 0.342892 0.817133 0.722082
O O12 0.558789 0.757571 0.884409
O O13 0.517749 0.000000 0.920368
O O14 0.500000 0.761401 0.000000
O O15 0.861230 0.816077 0.573009
O O16 0.697158 0.000000 0.452372
O O17 0.003663 0.000000 0.202859
O O18 0.408278 0.500000 0.143894
#
# Coordination Sequence:
#
# PCOD8063097 Si02
#       7
#     4   4   4   4   4   4   4
#     4   9  16  29  48  67  91 123 159 196 234 279
#     4  11  22  33  46  66  94 128 166 204 236 272
#     4  10  20  33  48  68  94 124 162 205 245 280
#     4   9  17  31  55  83 102 118 148 190 233 284
#     4   8  15  29  48  71  99 124 148 188 238 280
#     4   9  18  32  48  66  92 127 163 197 235 278
#     4   9  20  35  48  68  99 130 156 189 239 289
#
# _framework density 17.758206000000001
#
# number of rings (size 3 to 8) (size 9 to 14) (size 15 to 20)
#    0.000    2.714    0.000    2.571    0.000    7.143 
#    0.000    2.857    0.000    0.857    0.000    6.000 
#    0.000    0.000    0.000    0.000    0.000    0.000 
#
# Total GULP energy -346996.921631 kJ/mol
# GULP energy per Si atom -12392.747201 kJ/mol
# Density = 1.771779 g / cm^3
# Si number density = 17.758206 Si / 1000 Ang^3
#
#
#
# Elastic Constant Matrix: (Units=GPa)
#
#
# Indices 1 2 3 4 5 6 
#
# 1 41.5978 30.2951 47.2971 0.0000 14.5146 0.0000
# 2 30.2951 77.3003 51.1498 0.0000 12.4864 0.0000
# 3 47.2971 51.1498 142.3037 0.0000 11.8182 0.0000
# 4 0.0000 0.0000 0.0000 29.0869 0.0000 4.1604
# 5 14.5146 12.4864 11.8182 0.0000 19.4257 0.0000
# 6 0.0000 0.0000 0.0000 4.1604 0.0000 17.9472
#
#
#
# Elastic Compliance Matrix: (Units=1/GPa)
#
#
# Indices 1 2 3 4 5 6 
#
# 1 0.054134 -0.008395 -0.012706 0.000000 -0.027322 0.000000
# 2 -0.008395 0.019406 -0.003865 0.000000 -0.003850 0.000000
# 3 -0.012706 -0.003865 0.012264 0.000000 0.004517 0.000000
# 4 0.000000 0.000000 0.000000 0.035559 0.000000 -0.008243
# 5 -0.027322 -0.003850 0.004517 0.000000 0.071619 0.000000
# 6 0.000000 0.000000 0.000000 -0.008243 0.000000 0.057630
#
#
# Mechanical properties :
#
#
# Convention : Reuss Voigt Hill
#
# Bulk Modulus (GPa) = 27.87692 57.63176 42.75434
# Shear Modulus (GPa) = 15.99991 22.12262 19.06126
#
# Velocity S-wave (km/s) = 3.00490 3.53337 3.27980
# Velocity P-wave (km/s) = 5.26985 7.01216 6.20249
#
# Compressibility (1/GPa) = 0.03587197
#
# Stress axis : x y z
#
# Youngs Moduli (GPa) = 18.47284 51.52956 81.53629
#
# Poissons Ratio (x) = 0.43259 1.03597
# Poissons Ratio (y) = 0.15508 0.31518
# Poissons Ratio (z) = 0.23471 0.19919
#
# Static dielectric constant tensor:
#      x y z
#    x 2.834240 0.000000 0.103990 
#    y 0.000000 3.329220 0.000000 
#    z 0.103990 0.000000 3.762650 
# 
# 
# High freq. dielectric constant tensor:
#      x y z
#    x 1.630550 0.000000 0.011590 
#    y 0.000000 1.692390 0.000000 
#    z 0.011590 0.000000 1.703030 
# 
# From -- ./inp_files/54654.got.cif
#   From: 2010.06.25/outbox.cif.g09.slc.cpg/sg10_28_cif.got.tgz:54654.got - 2010.06.27 22:07:45.
