data_PCOD8063611
_publ_section_title
;
Structure prediction by ZEFSAII (Michael W. Deem and Ramdas Pophale) SiO2 
 PCOD8063611
Probable space group: P 2/M
;
_chemical_formula_sum "Si O2"
_cell_formula_units_Z 28
_cell_length_a 9.333571
_cell_length_b 9.402045
_cell_length_c 29.153715
_cell_angle_alpha 90.000000
_cell_angle_beta 36.753841
_cell_angle_gamma 90.000000
_cell_volume 1530.875633
_symmetry_space_group_name_H-M "P 2/M"
_symmetry_group_IT_number 10
_symmetry_cell_setting 'monoclinic'
loop_
_space_group_symop_operation_xyz
x,y,z
-x,y,-z
-x,-y,-z
x,-y,z
loop_
_atom_site_type_symbol
_atom_site_label
_atom_site_fract_x
_atom_site_fract_y
_atom_site_fract_z
Si Si1 0.276154 0.334045 0.931135
Si Si2 0.111510 0.164900 0.799832
Si Si3 0.441426 0.163303 0.374617
Si Si4 0.690787 0.836558 0.489356
Si Si5 0.840031 0.333789 0.624216
Si Si6 0.571605 0.833849 0.930300
Si Si7 0.388626 0.664073 0.800563
O O1 0.302415 0.500000 0.935420
O O2 0.406874 0.249636 0.937433
O O3 0.396818 0.293433 0.851706
O O4 0.000000 0.288341 0.000000
O O5 0.293634 0.200770 0.711729
O O6 0.183539 0.248295 0.827226
O O7 0.847752 0.210253 0.851175
O O8 0.116127 0.000000 0.812051
O O9 0.435663 0.195181 0.429824
O O10 0.243218 0.261712 0.401723
O O11 0.375565 0.000000 0.380479
O O12 0.500000 0.798043 0.500000
O O13 0.913567 0.734865 0.422919
O O14 0.775836 0.000000 0.464310
O O15 0.875195 0.500000 0.606242
O O16 0.648400 0.302064 0.713146
O O17 0.530279 0.000000 0.932274
O O18 0.500000 0.790532 0.000000
O O19 0.318596 0.500000 0.812383
#
# Coordination Sequence:
#
# PCOD8063611 Si02
#       7
#     4   4   4   4   4   4   4
#     4  10  21  36  54  76 102 135 174 210 246 295
#     4   9  18  33  53  76 101 132 169 206 249 302
#     4   9  18  34  54  74  99 132 170 210 248 294
#     4  10  21  35  51  73 101 133 170 211 252 296
#     4  10  20  34  53  76 102 132 166 206 254 305
#     4  10  21  35  52  78 109 136 166 208 254 298
#     4   9  19  35  53  76 104 131 165 210 253 296
#
# _framework density 18.290185000000001
#
# number of rings (size 3 to 8) (size 9 to 14) (size 15 to 20)
#    0.000    2.429    0.000    1.714    0.000    6.000 
#    0.000    1.429    0.000    0.000    0.000    0.000 
#    0.000    0.000    0.000    0.000    0.000    0.000 
#
# Total GULP energy -347299.627538 kJ/mol
# GULP energy per Si atom -12403.558126 kJ/mol
# Density = 1.824856 g / cm^3
# Si number density = 18.290185 Si / 1000 Ang^3
#
#
#
# Elastic Constant Matrix: (Units=GPa)
#
#
# Indices 1 2 3 4 5 6 
#
# 1 167.9086 80.2899 83.6281 0.0000 -0.0116 0.0000
# 2 80.2899 79.5252 54.8594 0.0000 -3.1374 0.0000
# 3 83.6281 54.8594 103.1234 0.0000 -0.3264 0.0000
# 4 0.0000 0.0000 0.0000 25.2989 0.0000 1.1844
# 5 -0.0116 -3.1374 -0.3264 0.0000 31.0718 0.0000
# 6 0.0000 0.0000 0.0000 1.1844 0.0000 18.7063
#
#
#
# Elastic Compliance Matrix: (Units=1/GPa)
#
#
# Indices 1 2 3 4 5 6 
#
# 1 0.013432 -0.009613 -0.005782 0.000000 -0.001026 0.000000
# 2 -0.009613 0.026856 -0.006483 0.000000 0.002640 0.000000
# 3 -0.005782 -0.006483 0.017833 0.000000 -0.000469 0.000000
# 4 0.000000 0.000000 0.000000 0.039645 0.000000 -0.002510
# 5 -0.001026 0.002640 -0.000469 0.000000 0.032445 0.000000
# 6 0.000000 0.000000 0.000000 -0.002510 0.000000 0.053617
#
#
# Mechanical properties :
#
#
# Convention : Reuss Voigt Hill
#
# Bulk Modulus (GPa) = 69.60999 87.56801 78.58900
# Shear Modulus (GPa) = 21.51709 23.80073 22.65891
#
# Velocity S-wave (km/s) = 3.43363 3.61125 3.52356
# Velocity P-wave (km/s) = 7.33901 8.08512 7.72108
#
# Compressibility (1/GPa) = 0.01436575
#
# Stress axis : x y z
#
# Youngs Moduli (GPa) = 74.44848 37.23494 56.07437
#
# Poissons Ratio (x) = 0.35794 0.32423
# Poissons Ratio (y) = 0.71568 0.36353
# Poissons Ratio (z) = 0.43047 0.24139
#
# Static dielectric constant tensor:
#      x y z
#    x 3.251270 0.000000 -0.014630 
#    y 0.000000 3.352770 0.000000 
#    z -0.014630 0.000000 3.587610 
# 
# 
# High freq. dielectric constant tensor:
#      x y z
#    x 1.702620 0.000000 -0.000640 
#    y 0.000000 1.705720 0.000000 
#    z -0.000640 0.000000 1.723150 
# 
# From -- ./inp_files/36702.got.cif
#   From: 2010.06.25/outbox.cif.g09.slc.cpg/sg10_19_cif.got.tgz:36702.got - 2010.06.27 22:07:45.
