data_PCOD8063604
_publ_section_title
;
Structure prediction by ZEFSAII (Michael W. Deem and Ramdas Pophale) SiO2 
 PCOD8063604
Probable space group: P 2/M
;
_chemical_formula_sum "Si O2"
_cell_formula_units_Z 32
_cell_length_a 19.784808
_cell_length_b 9.207995
_cell_length_c 12.075664
_cell_angle_alpha 90.000000
_cell_angle_beta 122.901788
_cell_angle_gamma 90.000000
_cell_volume 1847.063696
_symmetry_space_group_name_H-M "P 2/M"
_symmetry_group_IT_number 10
_symmetry_cell_setting 'monoclinic'
loop_
_space_group_symop_operation_xyz
x,y,z
-x,y,-z
-x,-y,-z
x,-y,z
loop_
_atom_site_type_symbol
_atom_site_label
_atom_site_fract_x
_atom_site_fract_y
_atom_site_fract_z
Si Si1 0.072552 0.830128 0.419843
Si Si2 0.207317 0.663672 0.436236
Si Si3 0.454858 0.172992 0.687169
Si Si4 0.260614 0.331965 0.894357
Si Si5 0.648479 0.669780 0.581662
Si Si6 0.662356 0.666127 0.262827
Si Si7 0.616722 0.667591 0.806034
Si Si8 0.105229 0.170559 0.696502
O O1 0.126396 0.757925 0.372019
O O2 0.100709 0.774479 0.565721
O O3 0.978906 0.790572 0.317691
O O4 0.085945 0.000000 0.423946
O O5 0.178885 0.500000 0.392106
O O6 0.262977 0.715521 0.383160
O O7 0.257585 0.681012 0.593395
O O8 0.419333 0.238695 0.542120
O O9 0.406719 0.229566 0.751387
O O10 0.546014 0.226163 0.780624
O O11 0.451073 0.000000 0.679163
O O12 0.239800 0.500000 0.859767
O O13 0.316352 0.280238 0.841590
O O14 0.176796 0.247480 0.825585
O O15 0.306977 0.300707 0.049049
O O16 0.632994 0.500000 0.540834
O O17 0.643971 0.705092 0.706349
O O18 0.630632 0.500000 0.235736
O O19 0.588568 0.500000 0.791063
O O20 0.120665 0.000000 0.712810
#
# Coordination Sequence:
#
# PCOD8063604 Si02
#       8
#     4   4   4   4   4   4   4   4
#     4   9  17  29  47  73 103 134 164 193 240 300
#     4   9  16  28  49  75 100 125 159 206 250 288
#     4  11  22  34  52  77 101 126 165 213 251 292
#     4  10  20  34  53  75  99 131 172 207 240 294
#     4   9  19  36  55  74  99 130 165 207 256 297
#     4   9  18  33  50  72 103 133 162 201 251 299
#     4  10  21  37  55  72  96 134 170 204 251 301
#     4   9  18  31  47  71 105 137 161 194 245 298
#
# _framework density 17.324795000000002
#
# number of rings (size 3 to 8) (size 9 to 14) (size 15 to 20)
#    0.000    2.500    1.250    3.000    0.000    6.000 
#    0.000    3.750    0.000    0.750    0.000    5.250 
#    0.000    0.000    0.000    0.000    0.000    0.000 
#
# Total GULP energy -396805.444043 kJ/mol
# GULP energy per Si atom -12400.170126 kJ/mol
# Density = 1.728536 g / cm^3
# Si number density = 17.324795 Si / 1000 Ang^3
#
#
#
# Elastic Constant Matrix: (Units=GPa)
#
#
# Indices 1 2 3 4 5 6 
#
# 1 100.3913 47.7960 42.4060 0.0000 21.3922 0.0000
# 2 47.7960 70.2460 34.2563 0.0000 15.5348 0.0000
# 3 42.4060 34.2563 74.3672 0.0000 11.2659 0.0000
# 4 0.0000 0.0000 0.0000 18.1036 0.0000 9.1068
# 5 21.3922 15.5348 11.2659 0.0000 19.3185 0.0000
# 6 0.0000 0.0000 0.0000 9.1068 0.0000 22.4261
#
#
#
# Elastic Compliance Matrix: (Units=1/GPa)
#
#
# Indices 1 2 3 4 5 6 
#
# 1 0.017968 -0.007230 -0.005245 0.000000 -0.011024 0.000000
# 2 -0.007230 0.023575 -0.005570 0.000000 -0.007703 0.000000
# 3 -0.005245 -0.005570 0.019136 0.000000 -0.000872 0.000000
# 4 0.000000 0.000000 0.000000 0.069418 0.000000 -0.028189
# 5 -0.011024 -0.007703 -0.000872 0.000000 0.070674 0.000000
# 6 0.000000 0.000000 0.000000 -0.028189 0.000000 0.056038
#
#
# Mechanical properties :
#
#
# Convention : Reuss Voigt Hill
#
# Bulk Modulus (GPa) = 40.66978 54.88014 47.77496
# Shear Modulus (GPa) = 16.60613 20.00605 18.30609
#
# Velocity S-wave (km/s) = 3.09935 3.40187 3.25413
# Velocity P-wave (km/s) = 6.02776 6.86850 6.46182
#
# Compressibility (1/GPa) = 0.02458828
#
# Stress axis : x y z
#
# Youngs Moduli (GPa) = 55.65524 42.41866 52.25853
#
# Poissons Ratio (x) = 0.30667 0.27412
# Poissons Ratio (y) = 0.40236 0.29107
# Poissons Ratio (z) = 0.29194 0.23627
#
# Static dielectric constant tensor:
#      x y z
#    x 3.313990 0.000000 -0.026400 
#    y 0.000000 3.106280 0.000000 
#    z -0.026400 0.000000 2.984260 
# 
# 
# High freq. dielectric constant tensor:
#      x y z
#    x 1.677280 0.000000 0.003200 
#    y 0.000000 1.659930 0.000000 
#    z 0.003200 0.000000 1.639310 
# 
# From -- ./inp_files/55345.got.cif
#   From: 2010.06.25/outbox.cif.g09.slc.cpg/sg10_28_cif.got.tgz:55345.got - 2010.06.27 22:07:45.
