data_PCOD8063207
_publ_section_title
;
Structure prediction by ZEFSAII (Michael W. Deem and Ramdas Pophale) SiO2 
 PCOD8063207
Probable space group: P 2/M
;
_chemical_formula_sum "Si O2"
_cell_formula_units_Z 32
_cell_length_a 20.619944
_cell_length_b 9.281435
_cell_length_c 25.254839
_cell_angle_alpha 90.000000
_cell_angle_beta 157.782012
_cell_angle_gamma 90.000000
_cell_volume 1827.637278
_symmetry_space_group_name_H-M "P 2/M"
_symmetry_group_IT_number 10
_symmetry_cell_setting 'monoclinic'
loop_
_space_group_symop_operation_xyz
x,y,z
-x,y,-z
-x,-y,-z
x,-y,z
loop_
_atom_site_type_symbol
_atom_site_label
_atom_site_fract_x
_atom_site_fract_y
_atom_site_fract_z
Si Si1 0.419549 0.169311 0.596103
Si Si2 0.150645 0.331956 0.844597
Si Si3 0.131918 0.667683 0.553967
Si Si4 0.515973 0.331834 0.850222
Si Si5 0.342906 0.332154 0.152193
Si Si6 0.912759 0.829402 0.588197
Si Si7 0.012702 0.664467 0.165840
Si Si8 0.348467 0.830064 0.423550
O O1 0.590845 0.246432 0.746622
O O2 0.257726 0.216502 0.509255
O O3 0.388196 0.223238 0.512865
O O4 0.450515 0.000000 0.621545
O O5 0.140038 0.500000 0.820753
O O6 0.077098 0.236531 0.741720
O O7 0.046894 0.300001 0.819768
O O8 0.347939 0.278257 0.002752
O O9 0.118469 0.500000 0.527479
O O10 0.321725 0.703264 0.720145
O O11 0.091908 0.765881 0.473866
O O12 0.000000 0.708667 0.500000
O O13 0.554098 0.500000 0.872910
O O14 0.555628 0.267379 0.822097
O O15 0.382838 0.500000 0.190941
O O16 0.140721 0.304793 0.991413
O O17 0.933703 0.000000 0.600993
O O18 0.071979 0.500000 0.206804
O O19 0.171389 0.763043 0.269215
O O20 0.500000 0.776551 0.500000
O O21 0.326270 0.000000 0.404575
#
# Coordination Sequence:
#
# PCOD8063207 Si02
#       8
#     4   4   4   4   4   4   4   4
#     4  10  20  33  50  77 104 130 172 215 252 302
#     4   9  17  31  53  77 101 132 169 213 258 300
#     4  10  20  35  56  79 104 138 176 212 257 313
#     4   8  15  30  51  76 103 129 167 213 252 299
#     4   9  17  31  53  78 103 132 166 212 263 304
#     4  11  21  33  51  78 108 135 170 217 258 300
#     4   9  18  32  52  79 105 131 169 214 260 306
#     4  10  21  37  54  73 104 143 176 210 256 310
#
# _framework density 17.508944
#
# number of rings (size 3 to 8) (size 9 to 14) (size 15 to 20)
#    0.000    2.500    2.500    1.875    0.000    2.000 
#    0.000    3.750    0.000    7.500    0.000    0.000 
#    0.000    0.000    0.000    0.000    0.000    0.000 
#
# Total GULP energy -396776.846814 kJ/mol
# GULP energy per Si atom -12399.276463 kJ/mol
# Density = 1.746909 g / cm^3
# Si number density = 17.508944 Si / 1000 Ang^3
#
#
#
# Elastic Constant Matrix: (Units=GPa)
#
#
# Indices 1 2 3 4 5 6 
#
# 1 91.1900 37.5477 62.2059 0.0000 2.8712 0.0000
# 2 37.5477 47.3732 50.2953 0.0000 -3.7756 0.0000
# 3 62.2059 50.2953 142.3638 0.0000 -2.2031 0.0000
# 4 0.0000 0.0000 0.0000 21.1126 0.0000 -3.4489
# 5 2.8712 -3.7756 -2.2031 0.0000 28.4267 0.0000
# 6 0.0000 0.0000 0.0000 -3.4489 0.0000 22.8744
#
#
#
# Elastic Compliance Matrix: (Units=1/GPa)
#
#
# Indices 1 2 3 4 5 6 
#
# 1 0.018256 -0.009958 -0.004513 0.000000 -0.003516 0.000000
# 2 -0.009958 0.039575 -0.009545 0.000000 0.005522 0.000000
# 3 -0.004513 -0.009545 0.012371 0.000000 0.000147 0.000000
# 4 0.000000 0.000000 0.000000 0.048561 0.000000 0.007322
# 5 -0.003516 0.005522 0.000147 0.000000 0.036278 0.000000
# 6 0.000000 0.000000 0.000000 0.007322 0.000000 0.044821
#
#
# Mechanical properties :
#
#
# Convention : Reuss Voigt Hill
#
# Bulk Modulus (GPa) = 45.10683 64.55831 54.83257
# Shear Modulus (GPa) = 19.58600 23.20794 21.39697
#
# Velocity S-wave (km/s) = 3.34822 3.64468 3.49959
# Velocity P-wave (km/s) = 6.38479 7.39346 6.90756
#
# Compressibility (1/GPa) = 0.02216959
#
# Stress axis : x y z
#
# Youngs Moduli (GPa) = 54.77708 25.26825 80.83635
#
# Poissons Ratio (x) = 0.25162 0.36484
# Poissons Ratio (y) = 0.54547 0.77157
# Poissons Ratio (z) = 0.24722 0.24118
#
# Static dielectric constant tensor:
#      x y z
#    x 3.049730 0.000000 -0.043680 
#    y 0.000000 3.022810 0.000000 
#    z -0.043680 0.000000 3.410470 
# 
# 
# High freq. dielectric constant tensor:
#      x y z
#    x 1.651280 0.000000 -0.008080 
#    y 0.000000 1.659430 0.000000 
#    z -0.008080 0.000000 1.690110 
# 
# From -- ./inp_files/93577.got.cif
#   From: 2010.06.25/outbox.cif.g09.slc.cpg/sg10_47_cif.got.tgz:93577.got - 2010.06.27 22:07:45.
