data_PCOD8063042
_publ_section_title
;
Structure prediction by ZEFSAII (Michael W. Deem and Ramdas Pophale) SiO2 
 PCOD8063042
Probable space group: P 2/M
;
_chemical_formula_sum "Si O2"
_cell_formula_units_Z 32
_cell_length_a 27.102646
_cell_length_b 9.547213
_cell_length_c 11.004354
_cell_angle_alpha 90.000000
_cell_angle_beta 36.397737
_cell_angle_gamma 90.000000
_cell_volume 1689.627442
_symmetry_space_group_name_H-M "P 2/M"
_symmetry_group_IT_number 10
_symmetry_cell_setting 'monoclinic'
loop_
_space_group_symop_operation_xyz
x,y,z
-x,y,-z
-x,-y,-z
x,-y,z
loop_
_atom_site_type_symbol
_atom_site_label
_atom_site_fract_x
_atom_site_fract_y
_atom_site_fract_z
Si Si1 0.785625 0.840333 0.233952
Si Si2 0.053675 0.166039 0.513046
Si Si3 0.032602 0.165703 0.064681
Si Si4 0.361142 0.340745 0.087899
Si Si5 0.624864 0.838898 0.706046
Si Si6 0.220009 0.659969 0.187557
Si Si7 0.695640 0.658676 0.225456
Si Si8 0.460548 0.340976 0.320618
O O1 0.717892 0.822313 0.472368
O O2 0.762129 0.752821 0.162986
O O3 0.794703 0.000000 0.172216
O O4 0.872319 0.784926 0.115247
O O5 0.143256 0.236892 0.324282
O O6 0.000000 0.209783 0.500000
O O7 0.013841 0.218986 0.720140
O O8 0.066047 0.000000 0.489916
O O9 0.023542 0.000000 0.077823
O O10 0.000000 0.228951 0.000000
O O11 0.357351 0.500000 0.145686
O O12 0.375990 0.229395 0.161918
O O13 0.273566 0.303040 0.199952
O O14 0.441812 0.326393 0.838112
O O15 0.558499 0.761135 0.753542
O O16 0.597790 0.000000 0.769008
O O17 0.187173 0.500000 0.255057
O O18 0.288243 0.681796 0.947494
O O19 0.713394 0.500000 0.230086
O O20 0.599769 0.699699 0.446817
O O21 0.441309 0.500000 0.317112
#
# Coordination Sequence:
#
# PCOD8063042 Si02
#       8
#     4   4   4   4   4   4   4   4
#     4   9  18  33  54  78 102 132 172 217 262 310
#     4  10  21  37  59  83 106 140 185 226 267 325
#     4   9  18  32  53  78 105 136 174 220 265 316
#     4  10  21  35  51  74 107 143 178 216 261 314
#     4  10  20  32  52  80 108 138 175 218 265 317
#     4  10  22  37  54  79 109 140 174 219 270 317
#     4   9  18  34  55  77 101 134 176 217 261 311
#     4   9  18  34  55  76 101 139 181 219 260 310
#
# _framework density 18.939086
#
# number of rings (size 3 to 8) (size 9 to 14) (size 15 to 20)
#    0.000    2.500    0.000    1.500    1.750    5.250 
#    0.000    3.125    0.000    0.750    0.000    5.250 
#    0.000    0.000    0.000    0.000    0.000    0.000 
#
# Total GULP energy -396621.298886 kJ/mol
# GULP energy per Si atom -12394.415590 kJ/mol
# Density = 1.889598 g / cm^3
# Si number density = 18.939086 Si / 1000 Ang^3
#
#
#
# Elastic Constant Matrix: (Units=GPa)
#
#
# Indices 1 2 3 4 5 6 
#
# 1 76.8636 29.1770 54.5875 0.0000 -4.8367 0.0000
# 2 29.1770 58.0138 33.4773 0.0000 -5.7292 0.0000
# 3 54.5875 33.4773 79.6572 0.0000 -5.0193 0.0000
# 4 0.0000 0.0000 0.0000 22.7731 0.0000 -4.1654
# 5 -4.8367 -5.7292 -5.0193 0.0000 33.2432 0.0000
# 6 0.0000 0.0000 0.0000 -4.1654 0.0000 17.9068
#
#
#
# Elastic Compliance Matrix: (Units=1/GPa)
#
#
# Indices 1 2 3 4 5 6 
#
# 1 0.025942 -0.003623 -0.016211 0.000000 0.000702 0.000000
# 2 -0.003623 0.023470 -0.007228 0.000000 0.002426 0.000000
# 3 -0.016211 -0.007228 0.026727 0.000000 0.000431 0.000000
# 4 0.000000 0.000000 0.000000 0.045863 0.000000 0.010668
# 5 0.000702 0.002426 0.000431 0.000000 0.030667 0.000000
# 6 0.000000 0.000000 0.000000 0.010668 0.000000 0.058326
#
#
# Mechanical properties :
#
#
# Convention : Reuss Voigt Hill
#
# Bulk Modulus (GPa) = 45.42129 49.89092 47.65610
# Shear Modulus (GPa) = 18.35146 21.27081 19.81113
#
# Velocity S-wave (km/s) = 3.11621 3.35493 3.23777
# Velocity P-wave (km/s) = 6.08133 6.43486 6.26059
#
# Compressibility (1/GPa) = 0.02201611
#
# Stress axis : x y z
#
# Youngs Moduli (GPa) = 38.54721 42.60742 37.41480
#
# Poissons Ratio (x) = 0.15438 0.60652
# Poissons Ratio (y) = 0.13967 0.27043
# Poissons Ratio (z) = 0.62487 0.30796
#
# Static dielectric constant tensor:
#      x y z
#    x 3.482570 0.000000 -0.038700 
#    y 0.000000 3.358470 0.000000 
#    z -0.038700 0.000000 3.659580 
# 
# 
# High freq. dielectric constant tensor:
#      x y z
#    x 1.726300 0.000000 -0.005430 
#    y 0.000000 1.718630 0.000000 
#    z -0.005430 0.000000 1.750380 
# 
# From -- ./inp_files/58141.got.cif
#   From: 2010.06.25/outbox.cif.g09.slc.cpg/sg10_30_cif.got.tgz:58141.got - 2010.06.27 22:07:45.
