data_PCOD8063376
_publ_section_title
;
Structure prediction by ZEFSAII (Michael W. Deem and Ramdas Pophale) SiO2 
 PCOD8063376
Probable space group: P 2/M
;
_chemical_formula_sum "Si O2"
_cell_formula_units_Z 28
_cell_length_a 13.422301
_cell_length_b 8.911459
_cell_length_c 13.422291
_cell_angle_alpha 90.000000
_cell_angle_beta 62.970311
_cell_angle_gamma 90.000000
_cell_volume 1430.107173
_symmetry_space_group_name_H-M "P 2/M"
_symmetry_group_IT_number 10
_symmetry_cell_setting 'monoclinic'
loop_
_space_group_symop_operation_xyz
x,y,z
-x,y,-z
-x,-y,-z
x,-y,z
loop_
_atom_site_type_symbol
_atom_site_label
_atom_site_fract_x
_atom_site_fract_y
_atom_site_fract_z
Si Si1 0.609716 0.677694 0.390284
Si Si2 0.598234 0.822426 0.180964
Si Si3 0.875055 0.837062 0.590834
Si Si4 0.819035 0.177574 0.401767
Si Si5 0.260496 0.328193 0.049316
Si Si6 0.049315 0.328193 0.260496
Si Si7 0.409166 0.837062 0.124945
O O1 0.500000 0.731916 0.500000
O O2 0.616940 0.500000 0.383059
O O3 0.607535 0.740061 0.280538
O O4 0.719461 0.740061 0.392466
O O5 0.475993 0.778814 0.192135
O O6 0.610082 0.000000 0.189598
O O7 0.698665 0.770492 0.062185
O O8 0.807865 0.778814 0.524008
O O9 0.871908 0.719434 0.682037
O O10 0.000000 0.861765 0.500000
O O11 0.827809 0.000000 0.646937
O O12 0.937815 0.229508 0.301335
O O13 0.810401 0.000000 0.389918
O O14 0.292262 0.500000 0.013423
O O15 0.126578 0.309249 0.126578
O O16 0.317962 0.280566 0.128093
O O17 0.013421 0.500000 0.292262
O O18 0.353064 0.000000 0.172192
O O19 0.500000 0.861764 0.000000
#
# Coordination Sequence:
#
# PCOD8063376 Si02
#       7
#     4   4   4   4   4   4   4
#     4  11  25  43  62  83 108 141 181 228 282 335
#     4  10  21  38  59  82 111 148 189 233 277 324
#     4   8  16  31  51  77 108 143 182 223 269 319
#     4  10  21  38  59  82 111 148 189 233 277 324
#     4  10  20  33  53  84 119 152 185 225 276 332
#     4  10  20  33  53  84 119 152 185 225 276 332
#     4   8  16  31  51  77 108 143 182 223 269 319
#
# _framework density 19.578952000000001
#
# number of rings (size 3 to 8) (size 9 to 14) (size 15 to 20)
#    0.000    2.429    0.000    3.857    0.000   10.857 
#    0.000    6.429    0.000    4.286    0.000    0.000 
#    0.000    0.000    0.000    0.000    0.000    0.000 
#
# Total GULP energy -346990.587482 kJ/mol
# GULP energy per Si atom -12392.520981 kJ/mol
# Density = 1.953439 g / cm^3
# Si number density = 19.578952 Si / 1000 Ang^3
#
#
#
# Elastic Constant Matrix: (Units=GPa)
#
#
# Indices 1 2 3 4 5 6 
#
# 1 113.3771 39.6887 60.2661 0.0000 13.8543 0.0000
# 2 39.6887 89.2214 40.5850 0.0000 -0.5969 0.0000
# 3 60.2661 40.5850 100.3266 0.0000 -5.1675 0.0000
# 4 0.0000 0.0000 0.0000 29.4714 0.0000 1.1754
# 5 13.8543 -0.5969 -5.1675 0.0000 28.8129 0.0000
# 6 0.0000 0.0000 0.0000 1.1754 0.0000 31.2399
#
#
#
# Elastic Compliance Matrix: (Units=1/GPa)
#
#
# Indices 1 2 3 4 5 6 
#
# 1 0.015566 -0.003087 -0.008570 0.000000 -0.009086 0.000000
# 2 -0.003087 0.014363 -0.003900 0.000000 0.001082 0.000000
# 3 -0.008570 -0.003900 0.017059 0.000000 0.007099 0.000000
# 4 0.000000 0.000000 0.000000 0.033982 0.000000 -0.001279
# 5 -0.009086 0.001082 0.007099 0.000000 0.040371 0.000000
# 6 0.000000 0.000000 0.000000 -0.001279 0.000000 0.032058
#
#
# Mechanical properties :
#
#
# Convention : Reuss Voigt Hill
#
# Bulk Modulus (GPa) = 62.99650 64.88943 63.94296
# Shear Modulus (GPa) = 26.34290 28.73051 27.53671
#
# Velocity S-wave (km/s) = 3.67204 3.83485 3.75433
# Velocity P-wave (km/s) = 7.08689 7.26791 7.17797
#
# Compressibility (1/GPa) = 0.01587390
#
# Stress axis : x y z
#
# Youngs Moduli (GPa) = 64.24096 69.62564 58.62108
#
# Poissons Ratio (x) = 0.21493 0.50238
# Poissons Ratio (y) = 0.19831 0.22862
# Poissons Ratio (z) = 0.55054 0.27154
#
# Static dielectric constant tensor:
#      x y z
#    x 3.787010 0.000000 0.070160 
#    y 0.000000 3.632240 0.000000 
#    z 0.070160 0.000000 3.681630 
# 
# 
# High freq. dielectric constant tensor:
#      x y z
#    x 1.750050 0.000000 -0.007380 
#    y 0.000000 1.768830 0.000000 
#    z -0.007380 0.000000 1.761140 
# 
# From -- ./inp_files/63655.got.cif
#   From: 2010.06.25/outbox.cif.g09.slc.cpg/sg10_32_cif.got.tgz:63655.got - 2010.06.27 22:07:45.
