data_PCOD8063275
_publ_section_title
;
Structure prediction by ZEFSAII (Michael W. Deem and Ramdas Pophale) SiO2 
 PCOD8063275
Probable space group: P 2/M
;
_chemical_formula_sum "Si O2"
_cell_formula_units_Z 28
_cell_length_a 8.788960
_cell_length_b 13.457348
_cell_length_c 17.629891
_cell_angle_alpha 90.000000
_cell_angle_beta 39.724714
_cell_angle_gamma 90.000000
_cell_volume 1332.647121
_symmetry_space_group_name_H-M "P 2/M"
_symmetry_group_IT_number 10
_symmetry_cell_setting 'monoclinic'
loop_
_space_group_symop_operation_xyz
x,y,z
-x,y,-z
-x,-y,-z
x,-y,z
loop_
_atom_site_type_symbol
_atom_site_label
_atom_site_fract_x
_atom_site_fract_y
_atom_site_fract_z
Si Si1 0.872358 0.610574 0.696057
Si Si2 0.673265 0.612972 0.073820
Si Si3 0.657006 0.114521 0.842495
Si Si4 0.814667 0.792997 0.935514
Si Si5 0.188890 0.199486 0.367993
Si Si6 0.695419 0.385155 0.365825
Si Si7 0.305045 0.261617 0.785024
O O1 0.927254 0.500000 0.642607
O O2 0.608597 0.617115 0.830437
O O3 0.899443 0.688858 0.617367
O O4 0.045553 0.636256 0.698893
O O5 0.769337 0.500000 0.035618
O O6 0.745784 0.665075 0.125038
O O7 0.785545 0.673944 0.960425
O O8 0.777746 0.179417 0.862198
O O9 0.808050 0.132237 0.708741
O O10 0.664785 0.000000 0.863162
O O11 0.381416 0.149238 0.937636
O O12 0.084810 0.816251 0.859055
O O13 0.454998 0.197902 0.299007
O O14 0.000000 0.153622 0.500000
O O15 0.500000 0.345734 0.500000
O O16 0.651595 0.500000 0.364476
O O17 0.664106 0.327109 0.300863
#
# Coordination Sequence:
#
# PCOD8063275 Si02
#       7
#     4   4   4   4   4   4   4
#     4   9  18  35  57  86 126 172 217 249 294 369
#     4  10  21  37  59  92 135 174 203 244 305 371
#     4  11  25  47  70  91 119 163 211 266 331 382
#     4  11  22  41  66  92 124 165 211 255 309 376
#     4  11  23  42  66  94 126 164 205 257 319 379
#     4  10  20  33  51  81 123 176 226 258 290 348
#     4  11  22  35  61  92 133 162 207 257 311 365
#
# _framework density 21.010814
#
# number of rings (size 3 to 8) (size 9 to 14) (size 15 to 20)
#    0.000    1.571    2.857    3.429    2.000    2.857 
#    0.000    4.286    0.000    0.857    0.000    0.000 
#    0.000    0.000    0.000    0.000    0.000    0.000 
#
# Total GULP energy -347193.251667 kJ/mol
# GULP energy per Si atom -12399.758988 kJ/mol
# Density = 2.096299 g / cm^3
# Si number density = 21.010814 Si / 1000 Ang^3
#
#
#
# Elastic Constant Matrix: (Units=GPa)
#
#
# Indices 1 2 3 4 5 6 
#
# 1 127.4060 49.0393 56.0055 0.0000 -1.8655 0.0000
# 2 49.0393 84.8354 43.9818 0.0000 3.8770 0.0000
# 3 56.0055 43.9818 120.8614 0.0000 14.7767 0.0000
# 4 0.0000 0.0000 0.0000 14.1621 0.0000 0.3321
# 5 -1.8655 3.8770 14.7767 0.0000 29.9191 0.0000
# 6 0.0000 0.0000 0.0000 0.3321 0.0000 11.0074
#
#
#
# Elastic Compliance Matrix: (Units=1/GPa)
#
#
# Indices 1 2 3 4 5 6 
#
# 1 0.011469 -0.004703 -0.004007 0.000000 0.003304 0.000000
# 2 -0.004703 0.016474 -0.003745 0.000000 -0.000578 0.000000
# 3 -0.004007 -0.003745 0.012201 0.000000 -0.005791 0.000000
# 4 0.000000 0.000000 0.000000 0.070661 0.000000 -0.002132
# 5 0.003304 -0.000578 -0.005791 0.000000 0.036564 0.000000
# 6 0.000000 0.000000 0.000000 -0.002132 0.000000 0.090913
#
#
# Mechanical properties :
#
#
# Convention : Reuss Voigt Hill
#
# Bulk Modulus (GPa) = 65.64054 70.12845 67.88449
# Shear Modulus (GPa) = 18.63786 23.28945 20.96366
#
# Velocity S-wave (km/s) = 2.98159 3.33295 3.16215
# Velocity P-wave (km/s) = 6.56980 6.94703 6.76105
#
# Compressibility (1/GPa) = 0.01523449
#
# Stress axis : x y z
#
# Youngs Moduli (GPa) = 87.19151 60.70097 81.95760
#
# Poissons Ratio (x) = 0.28550 0.32840
# Poissons Ratio (y) = 0.41009 0.30692
# Poissons Ratio (z) = 0.34937 0.22731
#
# Static dielectric constant tensor:
#      x y z
#    x 3.938390 0.000000 -0.190530 
#    y 0.000000 3.623420 0.000000 
#    z -0.190530 0.000000 3.812970 
# 
# 
# High freq. dielectric constant tensor:
#      x y z
#    x 1.832600 0.000000 -0.005780 
#    y 0.000000 1.790240 0.000000 
#    z -0.005780 0.000000 1.824790 
# 
# From -- ./inp_files/75291.got.cif
#   From: 2010.06.25/outbox.cif.g09.slc.cpg/sg10_38_cif.got.tgz:75291.got - 2010.06.27 22:07:45.
