data_PCOD8063714
_publ_section_title
;
Structure prediction by ZEFSAII (Michael W. Deem and Ramdas Pophale) SiO2 
 PCOD8063714
Probable space group: P 2/M
;
_chemical_formula_sum "Si O2"
_cell_formula_units_Z 28
_cell_length_a 22.466049
_cell_length_b 9.331940
_cell_length_c 16.117458
_cell_angle_alpha 90.000000
_cell_angle_beta 25.984977
_cell_angle_gamma 90.000000
_cell_volume 1480.483589
_symmetry_space_group_name_H-M "P 2/M"
_symmetry_group_IT_number 10
_symmetry_cell_setting 'monoclinic'
loop_
_space_group_symop_operation_xyz
x,y,z
-x,y,-z
-x,-y,-z
x,-y,z
loop_
_atom_site_type_symbol
_atom_site_label
_atom_site_fract_x
_atom_site_fract_y
_atom_site_fract_z
Si Si1 0.153917 0.336716 0.806809
Si Si2 0.334129 0.831252 0.292348
Si Si3 0.370469 0.830952 0.060566
Si Si4 0.345356 0.834287 0.689656
Si Si5 0.888070 0.829320 0.706350
Si Si6 0.876332 0.662829 0.339713
Si Si7 0.115647 0.833899 0.100040
O O1 0.153592 0.500000 0.841340
O O2 0.260834 0.245271 0.724479
O O3 0.198777 0.330140 0.654590
O O4 0.000000 0.275351 0.000000
O O5 0.476657 0.790040 0.158774
O O6 0.212139 0.746043 0.483632
O O7 0.304212 0.000000 0.336244
O O8 0.340879 0.776052 0.189883
O O9 0.357828 0.000000 0.079389
O O10 0.258703 0.767928 0.137877
O O11 0.500000 0.773872 0.500000
O O12 0.349559 0.000000 0.658233
O O13 0.270670 0.814636 0.872659
O O14 0.906436 0.776428 0.778053
O O15 0.000000 0.771184 0.500000
O O16 0.890543 0.000000 0.702489
O O17 0.897114 0.500000 0.342421
O O18 0.023312 0.739662 0.154017
O O19 0.072575 0.000000 0.147981
#
# Coordination Sequence:
#
# PCOD8063714 Si02
#       7
#     4   4   4   4   4   4   4
#     4  10  21  39  59  78 105 146 191 228 268 329
#     4   9  17  31  53  79 105 138 179 220 265 320
#     4   8  15  29  50  77 108 140 177 217 259 316
#     4  10  22  38  57  86 118 143 176 230 292 341
#     4   9  16  27  48  77 106 136 172 214 256 308
#     4  11  22  35  54  79 106 136 180 230 274 319
#     4  10  20  34  54  78 105 140 180 221 271 330
#
# _framework density 18.912739999999999
#
# number of rings (size 3 to 8) (size 9 to 14) (size 15 to 20)
#    0.000    2.429    1.429    2.143    0.000    5.143 
#    0.000    4.286    0.000    4.714    0.000    0.000 
#    0.000    0.000    0.000    0.000    0.000    0.000 
#
# Total GULP energy -347020.582231 kJ/mol
# GULP energy per Si atom -12393.592223 kJ/mol
# Density = 1.886969 g / cm^3
# Si number density = 18.912740 Si / 1000 Ang^3
#
#
#
# Elastic Constant Matrix: (Units=GPa)
#
#
# Indices 1 2 3 4 5 6 
#
# 1 108.4335 35.6303 42.5816 0.0000 -15.0509 0.0000
# 2 35.6303 58.4428 38.4550 0.0000 -5.9153 0.0000
# 3 42.5816 38.4550 112.4929 0.0000 -11.0383 0.0000
# 4 0.0000 0.0000 0.0000 7.2207 0.0000 -2.3958
# 5 -15.0509 -5.9153 -11.0383 0.0000 34.0521 0.0000
# 6 0.0000 0.0000 0.0000 -2.3958 0.0000 18.3200
#
#
#
# Elastic Compliance Matrix: (Units=1/GPa)
#
#
# Indices 1 2 3 4 5 6 
#
# 1 0.012572 -0.005670 -0.002450 0.000000 0.003778 0.000000
# 2 -0.005670 0.024702 -0.006324 0.000000 -0.000265 0.000000
# 3 -0.002450 -0.006324 0.012151 0.000000 0.001758 0.000000
# 4 0.000000 0.000000 0.000000 0.144772 0.000000 0.018932
# 5 0.003778 -0.000265 0.001758 0.000000 0.031560 0.000000
# 6 0.000000 0.000000 0.000000 0.018932 0.000000 0.057061
#
#
# Mechanical properties :
#
#
# Convention : Reuss Voigt Hill
#
# Bulk Modulus (GPa) = 48.69278 56.96701 52.82990
# Shear Modulus (GPa) = 15.69609 22.76539 19.23074
#
# Velocity S-wave (km/s) = 2.88396 3.47321 3.19221
# Velocity P-wave (km/s) = 6.07384 6.80225 6.44834
#
# Compressibility (1/GPa) = 0.02053692
#
# Stress axis : x y z
#
# Youngs Moduli (GPa) = 79.54325 40.48269 82.29795
#
# Poissons Ratio (x) = 0.22955 0.20161
# Poissons Ratio (y) = 0.45103 0.52044
# Poissons Ratio (z) = 0.19486 0.25601
#
# Static dielectric constant tensor:
#      x y z
#    x 3.702880 0.000000 -0.122860 
#    y 0.000000 3.087680 0.000000 
#    z -0.122860 0.000000 3.646380 
# 
# 
# High freq. dielectric constant tensor:
#      x y z
#    x 1.734830 0.000000 -0.001270 
#    y 0.000000 1.691870 0.000000 
#    z -0.001270 0.000000 1.744950 
# 
# From -- ./inp_files/70197.got.cif
#   From: 2010.06.25/outbox.cif.g09.slc.cpg/sg10_36_cif.got.tgz:70197.got - 2010.06.27 22:07:45.
