data_PCOD8063477
_publ_section_title
;
Structure prediction by ZEFSAII (Michael W. Deem and Ramdas Pophale) SiO2 
 PCOD8063477
Probable space group: P 2/M
;
_chemical_formula_sum "Si O2"
_cell_formula_units_Z 28
_cell_length_a 23.616512
_cell_length_b 9.126179
_cell_length_c 9.631654
_cell_angle_alpha 90.000000
_cell_angle_beta 47.746711
_cell_angle_gamma 90.000000
_cell_volume 1536.535793
_symmetry_space_group_name_H-M "P 2/M"
_symmetry_group_IT_number 10
_symmetry_cell_setting 'monoclinic'
loop_
_space_group_symop_operation_xyz
x,y,z
-x,y,-z
-x,-y,-z
x,-y,z
loop_
_atom_site_type_symbol
_atom_site_label
_atom_site_fract_x
_atom_site_fract_y
_atom_site_fract_z
Si Si1 0.184297 0.830575 0.669679
Si Si2 0.089956 0.841185 0.348646
Si Si3 0.063365 0.828522 0.094934
Si Si4 0.425845 0.333325 0.026895
Si Si5 0.356200 0.831363 0.383767
Si Si6 0.905447 0.671427 0.396088
Si Si7 0.503879 0.173043 0.655690
O O1 0.270496 0.804957 0.581924
O O2 0.168194 0.729861 0.563934
O O3 0.171514 0.000000 0.652128
O O4 0.122885 0.776097 0.882524
O O5 0.109431 0.792004 0.160456
O O6 0.114233 0.714159 0.413333
O O7 0.000000 0.863257 0.500000
O O8 0.127918 0.000000 0.322978
O O9 0.983490 0.743969 0.211003
O O10 0.043345 0.000000 0.117498
O O11 0.401184 0.500000 0.035884
O O12 0.362425 0.254722 0.227102
O O13 0.500000 0.326055 0.000000
O O14 0.439016 0.252441 0.856857
O O15 0.414028 0.782753 0.411951
O O16 0.372042 0.000000 0.321226
O O17 0.914419 0.500000 0.367345
O O18 0.500000 0.225177 0.500000
O O19 0.488929 0.000000 0.687820
#
# Coordination Sequence:
#
# PCOD8063477 Si02
#       7
#     4   4   4   4   4   4   4
#     4  10  20  34  51  70  95 129 167 207 249 293
#     4   8  15  30  50  69  90 119 158 203 247 291
#     4   9  18  33  52  71  93 126 169 212 251 293
#     4   9  17  30  50  74 100 131 163 193 231 285
#     4   9  18  33  52  73  98 130 166 202 244 292
#     4  11  21  31  47  72  99 128 165 207 251 300
#     4   9  17  31  53  80 106 129 160 204 246 286
#
# _framework density 18.222811
#
# number of rings (size 3 to 8) (size 9 to 14) (size 15 to 20)
#    0.000    2.714    0.000    3.000    0.000    7.429 
#    0.000    1.429    0.000    5.143    0.000    0.000 
#    0.000    0.000    0.000    0.000    0.000    0.000 
#
# Total GULP energy -346989.106316 kJ/mol
# GULP energy per Si atom -12392.468083 kJ/mol
# Density = 1.818133 g / cm^3
# Si number density = 18.222811 Si / 1000 Ang^3
#
#
#
# Elastic Constant Matrix: (Units=GPa)
#
#
# Indices 1 2 3 4 5 6 
#
# 1 85.1519 38.7595 48.5979 0.0000 12.3100 0.0000
# 2 38.7595 78.6083 33.9401 0.0000 6.9008 0.0000
# 3 48.5979 33.9401 65.0616 0.0000 18.5521 0.0000
# 4 0.0000 0.0000 0.0000 17.9972 0.0000 3.5498
# 5 12.3100 6.9008 18.5521 0.0000 27.4743 0.0000
# 6 0.0000 0.0000 0.0000 3.5498 0.0000 12.1726
#
#
#
# Elastic Compliance Matrix: (Units=1/GPa)
#
#
# Indices 1 2 3 4 5 6 
#
# 1 0.021805 -0.004758 -0.014069 0.000000 0.000925 0.000000
# 2 -0.004758 0.017552 -0.006134 0.000000 0.001865 0.000000
# 3 -0.014069 -0.006134 0.033243 0.000000 -0.014603 0.000000
# 4 0.000000 0.000000 0.000000 0.058955 0.000000 -0.017193
# 5 0.000925 0.001865 -0.014603 0.000000 0.045375 0.000000
# 6 0.000000 0.000000 0.000000 -0.017193 0.000000 0.087166
#
#
# Mechanical properties :
#
#
# Convention : Reuss Voigt Hill
#
# Bulk Modulus (GPa) = 44.09663 52.37965 48.23814
# Shear Modulus (GPa) = 15.54829 18.69710 17.12270
#
# Velocity S-wave (km/s) = 2.92418 3.20664 3.06866
# Velocity P-wave (km/s) = 5.97095 6.52047 6.25175
#
# Compressibility (1/GPa) = 0.02267747
#
# Stress axis : x y z
#
# Youngs Moduli (GPa) = 45.86014 56.97319 30.08161
#
# Poissons Ratio (x) = 0.27109 0.42323
# Poissons Ratio (y) = 0.21822 0.18452
# Poissons Ratio (z) = 0.64522 0.34947
#
# Static dielectric constant tensor:
#      x y z
#    x 3.455710 0.000000 0.486210 
#    y 0.000000 3.268000 0.000000 
#    z 0.486210 0.000000 3.806350 
# 
# 
# High freq. dielectric constant tensor:
#      x y z
#    x 1.684330 0.000000 0.017640 
#    y 0.000000 1.695480 0.000000 
#    z 0.017640 0.000000 1.700030 
# 
# From -- ./inp_files/36680.got.cif
#   From: 2010.06.25/outbox.cif.g09.slc.cpg/sg10_19_cif.got.tgz:36680.got - 2010.06.27 22:07:45.
