data_PCOD8063738
_publ_section_title
;
Structure prediction by ZEFSAII (Michael W. Deem and Ramdas Pophale) SiO2 
 PCOD8063738
Probable space group: P 2/M
;
_chemical_formula_sum "Si O2"
_cell_formula_units_Z 32
_cell_length_a 14.670209
_cell_length_b 24.341229
_cell_length_c 8.906092
_cell_angle_alpha 90.000000
_cell_angle_beta 149.522633
_cell_angle_gamma 90.000000
_cell_volume 1613.033847
_symmetry_space_group_name_H-M "P 2/M"
_symmetry_group_IT_number 10
_symmetry_cell_setting 'monoclinic'
loop_
_space_group_symop_operation_xyz
x,y,z
-x,y,-z
-x,-y,-z
x,-y,z
loop_
_atom_site_type_symbol
_atom_site_label
_atom_site_fract_x
_atom_site_fract_y
_atom_site_fract_z
Si Si1 0.485387 0.938714 0.157243
Si Si2 0.521960 0.438309 0.353037
Si Si3 0.807045 0.145018 0.303604
Si Si4 0.805648 0.252253 0.166287
Si Si5 0.810375 0.628692 0.150874
Si Si6 0.191390 0.353758 0.197606
Si Si7 0.308768 0.763878 0.306718
Si Si8 0.808295 0.864767 0.660562
O O1 0.661316 0.912152 0.484569
O O2 0.460860 0.000000 0.188772
O O3 0.500000 0.940785 0.000000
O O4 0.308982 0.902618 0.940374
O O5 0.500000 0.435890 0.500000
O O6 0.559195 0.500000 0.348621
O O7 0.690867 0.399887 0.548865
O O8 0.337266 0.416954 0.013769
O O9 0.710871 0.203666 0.127848
O O10 0.825073 0.140868 0.506391
O O11 0.000000 0.143757 0.500000
O O12 0.714085 0.312135 0.052348
O O13 0.000000 0.264731 0.500000
O O14 0.831075 0.232733 0.029468
O O15 0.000000 0.616188 0.500000
O O16 0.846533 0.627792 0.025356
O O17 0.301094 0.296552 0.368185
O O18 0.000000 0.346183 0.000000
O O19 0.500000 0.775020 0.500000
O O20 0.258931 0.808167 0.361859
O O21 0.000000 0.883211 0.000000
#
# Coordination Sequence:
#
# PCOD8063738 Si02
#       8
#     4   4   4   4   4   4   4   4
#     4   9  20  38  56  76 107 147 187 225 267 319
#     4   9  18  34  54  75 103 142 185 223 266 323
#     4  10  20  36  58  83 112 145 181 221 271 331
#     4   9  17  31  52  76 108 140 168 209 265 325
#     4   9  18  33  54  79 105 140 180 220 269 321
#     4  10  20  34  54  80 108 141 179 219 270 328
#     4  11  21  35  56  81 112 143 177 224 272 321
#     4  11  22  35  57  86 112 141 181 225 271 320
#
# _framework density 19.838394000000001
#
# number of rings (size 3 to 8) (size 9 to 14) (size 15 to 20)
#    0.000    2.250    0.000    4.500    0.000    4.000 
#    0.000    0.625    0.000   15.375    0.000    0.000 
#    0.000    0.000    0.000    0.000    0.000    0.000 
#
# Total GULP energy -396527.527249 kJ/mol
# GULP energy per Si atom -12391.485227 kJ/mol
# Density = 1.979324 g / cm^3
# Si number density = 19.838394 Si / 1000 Ang^3
#
#
#
# Elastic Constant Matrix: (Units=GPa)
#
#
# Indices 1 2 3 4 5 6 
#
# 1 57.2024 22.7694 36.5029 0.0000 7.1193 0.0000
# 2 22.7694 141.4198 70.1245 0.0000 -0.5372 0.0000
# 3 36.5029 70.1245 131.1916 0.0000 7.8897 0.0000
# 4 0.0000 0.0000 0.0000 29.6872 0.0000 3.2340
# 5 7.1193 -0.5372 7.8897 0.0000 25.3069 0.0000
# 6 0.0000 0.0000 0.0000 3.2340 0.0000 22.4732
#
#
#
# Elastic Compliance Matrix: (Units=1/GPa)
#
#
# Indices 1 2 3 4 5 6 
#
# 1 0.021787 -0.000888 -0.005317 0.000000 -0.004490 0.000000
# 2 -0.000888 0.009742 -0.005083 0.000000 0.002041 0.000000
# 3 -0.005317 -0.005083 0.011960 0.000000 -0.002341 0.000000
# 4 0.000000 0.000000 0.000000 0.034221 0.000000 -0.004925
# 5 -0.004490 0.002041 -0.002341 0.000000 0.041551 0.000000
# 6 0.000000 0.000000 0.000000 -0.004925 0.000000 0.045206
#
#
# Mechanical properties :
#
#
# Convention : Reuss Voigt Hill
#
# Bulk Modulus (GPa) = 47.81924 65.40084 56.61004
# Shear Modulus (GPa) = 25.77108 28.85461 27.31284
#
# Velocity S-wave (km/s) = 3.60814 3.81791 3.71451
# Velocity P-wave (km/s) = 6.44321 7.24386 6.85524
#
# Compressibility (1/GPa) = 0.02091208
#
# Stress axis : x y z
#
# Youngs Moduli (GPa) = 45.89814 102.64355 83.61400
#
# Poissons Ratio (x) = 0.09118 0.44460
# Poissons Ratio (y) = 0.04077 0.42502
# Poissons Ratio (z) = 0.24405 0.52175
#
# Static dielectric constant tensor:
#      x y z
#    x 3.139920 0.000000 0.051120 
#    y 0.000000 4.103110 0.000000 
#    z 0.051120 0.000000 3.777710 
# 
# 
# High freq. dielectric constant tensor:
#      x y z
#    x 1.736990 0.000000 0.002450 
#    y 0.000000 1.779080 0.000000 
#    z 0.002450 0.000000 1.786620 
# 
# From -- ./inp_files/30604.got.cif
#   From: 2010.06.25/outbox.cif.g09.slc.cpg/sg10_16_cif.got.tgz:30604.got - 2010.06.27 22:07:45.
