data_PCOD8063396
_publ_section_title
;
Structure prediction by ZEFSAII (Michael W. Deem and Ramdas Pophale) SiO2 
 PCOD8063396
Probable space group: P 2/M
;
_chemical_formula_sum "Si O2"
_cell_formula_units_Z 28
_cell_length_a 9.085914
_cell_length_b 11.863439
_cell_length_c 16.086807
_cell_angle_alpha 90.000000
_cell_angle_beta 117.229743
_cell_angle_gamma 90.000000
_cell_volume 1541.836265
_symmetry_space_group_name_H-M "P 2/M"
_symmetry_group_IT_number 10
_symmetry_cell_setting 'monoclinic'
loop_
_space_group_symop_operation_xyz
x,y,z
-x,y,-z
-x,-y,-z
x,-y,z
loop_
_atom_site_type_symbol
_atom_site_label
_atom_site_fract_x
_atom_site_fract_y
_atom_site_fract_z
Si Si1 0.650209 0.794649 0.275425
Si Si2 0.020210 0.130711 0.914272
Si Si3 0.677211 0.230208 0.552004
Si Si4 0.127142 0.000000 0.640557
Si Si5 0.193454 0.624775 0.553584
Si Si6 0.772434 0.000000 0.519374
Si Si7 0.309050 0.130652 0.272302
Si Si8 0.343982 0.867191 0.899829
O O1 0.791538 0.887967 0.304698
O O2 0.726229 0.689253 0.346245
O O3 0.481522 0.835212 0.274793
O O4 0.618824 0.781276 0.168225
O O5 0.176184 0.177827 0.901980
O O6 0.843619 0.151995 0.826995
O O7 0.059355 0.000000 0.936346
O O8 0.000000 0.187988 0.000000
O O9 0.500000 0.288806 0.500000
O O10 0.792917 0.312264 0.530972
O O11 0.660876 0.109932 0.501056
O O12 0.731656 0.211511 0.660562
O O13 0.144922 0.000000 0.547591
O O14 0.934829 0.000000 0.621826
O O15 0.274768 0.500000 0.574773
O O16 0.000000 0.612629 0.500000
O O17 0.322256 0.000000 0.304011
O O18 0.327693 0.000000 0.868364
O O19 0.500000 0.853331 0.000000
#
# Coordination Sequence:
#
# PCOD8063396 Si02
#       8
#     4   4   4   2   4   2   4   4
#     4  12  21  36  56  81 114 150 193 230 279 333
#     4   9  19  33  49  74 116 157 183 217 268 331
#     4  12  22  35  54  81 114 147 182 228 279 338
#     4  11  20  30  51  82 109 150 181 228 271 338
#     4  11  26  44  59  77 109 151 197 242 285 333
#     4  11  21  30  50  80 116 146 182 227 281 330
#     4  11  21  32  50  83 119 150 185 226 278 337
#     4  10  20  33  54  84 118 153 186 222 272 338
#
# _framework density 18.160163000000001
#
# number of rings (size 3 to 8) (size 9 to 14) (size 15 to 20)
#    0.000    1.143    5.000    1.929    4.000    2.571 
#    0.000    0.000    0.000    0.429    0.000    0.000 
#    0.000    2.857    0.000    0.000    0.000    0.000 
#
# Total GULP energy -346889.470539 kJ/mol
# GULP energy per Si atom -12388.909662 kJ/mol
# Density = 1.811883 g / cm^3
# Si number density = 18.160163 Si / 1000 Ang^3
#
#
#
# Elastic Constant Matrix: (Units=GPa)
#
#
# Indices 1 2 3 4 5 6 
#
# 1 74.7145 25.3077 35.3086 0.0000 -7.6124 0.0000
# 2 25.3077 78.5898 41.1477 0.0000 -6.1436 0.0000
# 3 35.3086 41.1477 118.6202 0.0000 -17.8090 0.0000
# 4 0.0000 0.0000 0.0000 167.8625 0.0000 -29.9309
# 5 -7.6124 -6.1436 -17.8090 0.0000 35.6384 0.0000
# 6 0.0000 0.0000 0.0000 -29.9309 0.0000 17.2020
#
#
#
# Elastic Compliance Matrix: (Units=1/GPa)
#
#
# Indices 1 2 3 4 5 6 
#
# 1 0.016289 -0.003308 -0.003529 0.000000 0.001146 0.000000
# 2 -0.003308 0.016220 -0.004679 0.000000 -0.000249 0.000000
# 3 -0.003529 -0.004679 0.011751 0.000000 0.004312 0.000000
# 4 0.000000 0.000000 0.000000 0.008637 0.000000 0.015028
# 5 0.001146 -0.000249 0.004312 0.000000 0.030416 0.000000
# 6 0.000000 0.000000 0.000000 0.015028 0.000000 0.084280
#
#
# Mechanical properties :
#
#
# Convention : Reuss Voigt Hill
#
# Bulk Modulus (GPa) = 47.10830 52.82805 49.96817
# Shear Modulus (GPa) = 25.29048 55.48462 40.38755
#
# Velocity S-wave (km/s) = 3.73585 5.53347 4.72101
# Velocity P-wave (km/s) = 6.67874 8.36534 7.56916
#
# Compressibility (1/GPa) = 0.02122768
#
# Stress axis : x y z
#
# Youngs Moduli (GPa) = 61.38972 61.65209 85.09751
#
# Poissons Ratio (x) = 0.20396 0.30032
# Poissons Ratio (y) = 0.20309 0.39818
# Poissons Ratio (z) = 0.21665 0.28848
#
# Static dielectric constant tensor:
#      x y z
#    x 3.658120 0.000000 0.015850 
#    y 0.000000 3.041310 0.000000 
#    z 0.015850 0.000000 3.738630 
# 
# 
# High freq. dielectric constant tensor:
#      x y z
#    x 1.729600 0.000000 -0.001680 
#    y 0.000000 1.635700 0.000000 
#    z -0.001680 0.000000 1.715870 
# 
# From -- ./inp_files/61051.got.cif
#   From: 2010.06.25/outbox.cif.g09.slc.cpg/sg10_31_cif.got.tgz:61051.got - 2010.06.27 22:07:45.
