data_PCOD8063221
_publ_section_title
;
Structure prediction by ZEFSAII (Michael W. Deem and Ramdas Pophale) SiO2 
 PCOD8063221
Probable space group: P 2/M
;
_chemical_formula_sum "Si O2"
_cell_formula_units_Z 28
_cell_length_a 15.784584
_cell_length_b 15.807384
_cell_length_c 9.255599
_cell_angle_alpha 90.000000
_cell_angle_beta 147.266724
_cell_angle_gamma 90.000000
_cell_volume 1248.755181
_symmetry_space_group_name_H-M "P 2/M"
_symmetry_group_IT_number 10
_symmetry_cell_setting 'monoclinic'
loop_
_space_group_symop_operation_xyz
x,y,z
-x,y,-z
-x,-y,-z
x,-y,z
loop_
_atom_site_type_symbol
_atom_site_label
_atom_site_fract_x
_atom_site_fract_y
_atom_site_fract_z
Si Si1 0.350608 0.353649 0.218188
Si Si2 0.851649 0.404935 0.712615
Si Si3 0.022371 0.835385 0.693725
Si Si4 0.161325 0.904551 0.315884
Si Si5 0.019355 0.365943 0.687259
Si Si6 0.330509 0.164953 0.296454
Si Si7 0.488377 0.601344 0.818878
O O1 0.500000 0.405151 0.500000
O O2 0.344240 0.264079 0.287520
O O3 0.379607 0.350310 0.085488
O O4 0.182462 0.399315 0.995944
O O5 0.852679 0.500000 0.771681
O O6 0.678736 0.367851 0.491618
O O7 0.876183 0.401654 0.574749
O O8 0.000000 0.354679 0.000000
O O9 0.027739 0.734666 0.697181
O O10 0.000000 0.871824 0.500000
O O11 0.872993 0.862757 0.576973
O O12 0.187655 0.871849 0.993383
O O13 0.290913 0.852743 0.408884
O O14 0.222938 0.000000 0.426039
O O15 0.000000 0.903195 0.000000
O O16 0.000000 0.403695 0.500000
O O17 0.500000 0.122840 0.500000
O O18 0.506070 0.500000 0.836431
O O19 0.500000 0.632990 0.000000
#
# Coordination Sequence:
#
# PCOD8063221 Si02
#       7
#     4   4   4   4   4   4   4
#     4  10  20  34  52  76 103 135 175 216 262 310
#     4  10  21  35  51  73  99 130 172 219 260 301
#     4   9  19  35  55  81 109 138 175 216 259 311
#     4   9  18  34  57  81 107 143 178 209 256 317
#     4  10  20  33  51  75 102 132 167 211 259 306
#     4   9  19  35  53  79 109 139 177 217 260 309
#     4  10  21  36  52  72 102 139 176 216 266 321
#
# _framework density 22.422329000000001
#
# number of rings (size 3 to 8) (size 9 to 14) (size 15 to 20)
#    0.000    2.429    0.000    1.714    0.000    6.857 
#    0.000    0.714    0.000    0.857    0.000    0.000 
#    0.000    0.000    0.000    0.000    0.000    0.000 
#
# Total GULP energy -346900.862688 kJ/mol
# GULP energy per Si atom -12389.316525 kJ/mol
# Density = 2.237130 g / cm^3
# Si number density = 22.422329 Si / 1000 Ang^3
#
#
#
# Elastic Constant Matrix: (Units=GPa)
#
#
# Indices 1 2 3 4 5 6 
#
# 1 165.2521 27.4672 23.8799 0.0000 3.7599 0.0000
# 2 27.4672 40.3123 15.0487 0.0000 -3.0670 0.0000
# 3 23.8799 15.0487 73.9672 0.0000 9.5599 0.0000
# 4 0.0000 0.0000 0.0000 0.1929 0.0000 -8.6632
# 5 3.7599 -3.0670 9.5599 0.0000 41.8013 0.0000
# 6 0.0000 0.0000 0.0000 -8.6632 0.0000 -3.3738
#
#
#
# Elastic Compliance Matrix: (Units=1/GPa)
#
#
# Indices 1 2 3 4 5 6 
#
# 1 0.006970 -0.004318 -0.001288 0.000000 -0.000649 0.000000
# 2 -0.004318 0.029974 -0.005192 0.000000 0.003775 0.000000
# 3 -0.001288 -0.005192 0.015484 0.000000 -0.003806 0.000000
# 4 0.000000 0.000000 0.000000 0.044567 0.000000 -0.114439
# 5 -0.000649 0.003775 -0.003806 0.000000 0.025129 0.000000
# 6 0.000000 0.000000 0.000000 -0.114439 0.000000 -0.002548
#
#
# Mechanical properties :
#
#
# Convention : Reuss Voigt Hill
#
# Bulk Modulus (GPa) = 32.43403 45.81370 39.12387
# Shear Modulus (GPa) = 33.01483 21.93314 27.47399
#
# Velocity S-wave (km/s) = 3.84136 3.13098 3.50422
# Velocity P-wave (km/s) = 5.84561 5.79200 5.81887
#
# Compressibility (1/GPa) = 0.03083181
#
# Stress axis : x y z
#
# Youngs Moduli (GPa) = 143.47438 33.36265 64.58461
#
# Poissons Ratio (x) = 0.14405 0.08318
# Poissons Ratio (y) = 0.61947 0.33533
# Poissons Ratio (z) = 0.18477 0.17322
#
# Static dielectric constant tensor:
#      x y z
#    x 4.447100 0.000000 0.142940 
#    y 0.000000 3.471510 0.000000 
#    z 0.142940 0.000000 4.512550 
# 
# 
# High freq. dielectric constant tensor:
#      x y z
#    x 1.911040 0.000000 0.002130 
#    y 0.000000 1.827300 0.000000 
#    z 0.002130 0.000000 1.876470 
# 
# From -- ./inp_files/30158.got.cif
#   From: 2010.06.25/outbox.cif.g09.slc.cpg/sg10_16_cif.got.tgz:30158.got - 2010.06.27 22:07:45.
