data_PCOD8063619
_publ_section_title
;
Structure prediction by ZEFSAII (Michael W. Deem and Ramdas Pophale) SiO2 
 PCOD8063619
Probable space group: P 2/M
;
_chemical_formula_sum "Si O2"
_cell_formula_units_Z 20
_cell_length_a 9.438580
_cell_length_b 9.080052
_cell_length_c 26.556357
_cell_angle_alpha 90.000000
_cell_angle_beta 151.002395
_cell_angle_gamma 90.000000
_cell_volume 1103.321223
_symmetry_space_group_name_H-M "P 2/M"
_symmetry_group_IT_number 10
_symmetry_cell_setting 'monoclinic'
loop_
_space_group_symop_operation_xyz
x,y,z
-x,y,-z
-x,-y,-z
x,-y,z
loop_
_atom_site_type_symbol
_atom_site_label
_atom_site_fract_x
_atom_site_fract_y
_atom_site_fract_z
Si Si1 0.985141 0.330325 0.716614
Si Si2 0.407758 0.829366 0.560847
Si Si3 0.147460 0.330822 0.654772
Si Si4 0.210869 0.827864 0.881444
Si Si5 0.592926 0.167790 0.730825
O O1 0.930326 0.500000 0.712915
O O2 0.671083 0.252647 0.614446
O O3 0.152717 0.310680 0.716264
O O4 0.189163 0.258945 0.822469
O O5 0.429599 0.806338 0.627301
O O6 0.101903 0.766189 0.448052
O O7 0.428207 0.000000 0.552646
O O8 0.097469 0.500000 0.624140
O O9 0.459064 0.275509 0.730996
O O10 0.934363 0.792782 0.830991
O O11 0.220232 0.000000 0.870839
O O12 0.500000 0.774977 0.000000
O O13 0.552888 0.000000 0.736404
#
# Coordination Sequence:
#
# PCOD8063619 Si02
#       5
#     4   4   4   4   4
#     4  10  21  35  51  76 107 137 172 210 251 304
#     4  10  20  34  53  76 103 139 179 213 249 298
#     4  11  22  33  48  75 110 142 171 207 251 301
#     4   9  19  38  61  80  98 126 169 217 261 307
#     4   9  19  34  52  76 103 132 170 212 254 304
#
# _framework density 18.127087
#
# number of rings (size 3 to 8) (size 9 to 14) (size 15 to 20)
#    0.000    2.200    0.000    4.200    0.000   12.400 
#    0.000    1.000    0.000    6.000    0.000    0.000 
#    0.000    0.000    0.000    0.000    0.000    0.000 
#
# Total GULP energy -248083.712339 kJ/mol
# GULP energy per Si atom -12404.185617 kJ/mol
# Density = 1.808583 g / cm^3
# Si number density = 18.127087 Si / 1000 Ang^3
#
#
#
# Elastic Constant Matrix: (Units=GPa)
#
#
# Indices 1 2 3 4 5 6 
#
# 1 109.0436 65.3705 49.7490 0.0000 9.8207 0.0000
# 2 65.3705 110.4273 52.2384 0.0000 2.4596 0.0000
# 3 49.7490 52.2384 123.9662 0.0000 7.8432 0.0000
# 4 0.0000 0.0000 0.0000 9.6528 0.0000 4.1464
# 5 9.8207 2.4596 7.8432 0.0000 9.9841 0.0000
# 6 0.0000 0.0000 0.0000 4.1464 0.0000 33.2478
#
#
#
# Elastic Compliance Matrix: (Units=1/GPa)
#
#
# Indices 1 2 3 4 5 6 
#
# 1 0.016270 -0.008288 -0.002266 0.000000 -0.012182 0.000000
# 2 -0.008288 0.015542 -0.003680 0.000000 0.007214 0.000000
# 3 -0.002266 -0.003680 0.010868 0.000000 -0.005402 0.000000
# 4 0.000000 0.000000 0.000000 0.109461 0.000000 -0.013651
# 5 -0.012182 0.007214 -0.005402 0.000000 0.114608 0.000000
# 6 0.000000 0.000000 0.000000 -0.013651 0.000000 0.031780
#
#
# Mechanical properties :
#
#
# Convention : Reuss Voigt Hill
#
# Bulk Modulus (GPa) = 70.35821 75.35031 72.85426
# Shear Modulus (GPa) = 15.07221 22.31556 18.69388
#
# Velocity S-wave (km/s) = 2.88666 3.51245 3.21482
# Velocity P-wave (km/s) = 7.07167 7.62285 7.35243
#
# Compressibility (1/GPa) = 0.01421298
#
# Stress axis : x y z
#
# Youngs Moduli (GPa) = 61.46103 64.34069 92.00906
#
# Poissons Ratio (x) = 0.53328 0.20850
# Poissons Ratio (y) = 0.50942 0.33856
# Poissons Ratio (z) = 0.13928 0.23675
#
# Static dielectric constant tensor:
#      x y z
#    x 3.321100 0.000000 0.076430 
#    y 0.000000 3.454560 0.000000 
#    z 0.076430 0.000000 3.228260 
# 
# 
# High freq. dielectric constant tensor:
#      x y z
#    x 1.702420 0.000000 0.006170 
#    y 0.000000 1.712120 0.000000 
#    z 0.006170 0.000000 1.686440 
# 
# From -- ./inp_files/22148.got.cif
#   From: 2010.06.25/outbox.cif.g09.slc.cpg/sg10_12_cif.got.tgz:22148.got - 2010.06.27 22:07:45.
