data_PCOD8063125
_publ_section_title
;
Structure prediction by ZEFSAII (Michael W. Deem and Ramdas Pophale) SiO2 
 PCOD8063125
Probable space group: P 2/M
;
_chemical_formula_sum "Si O2"
_cell_formula_units_Z 32
_cell_length_a 27.639257
_cell_length_b 8.993474
_cell_length_c 22.713952
_cell_angle_alpha 90.000000
_cell_angle_beta 17.545872
_cell_angle_gamma 90.000000
_cell_volume 1702.117724
_symmetry_space_group_name_H-M "P 2/M"
_symmetry_group_IT_number 10
_symmetry_cell_setting 'monoclinic'
loop_
_space_group_symop_operation_xyz
x,y,z
-x,y,-z
-x,-y,-z
x,-y,z
loop_
_atom_site_type_symbol
_atom_site_label
_atom_site_fract_x
_atom_site_fract_y
_atom_site_fract_z
Si Si1 0.919938 0.830009 0.334392
Si Si2 0.428749 0.830004 0.316958
Si Si3 0.951473 0.332162 0.922017
Si Si4 0.043715 0.673557 0.584344
Si Si5 0.825166 0.167690 0.674854
Si Si6 0.824543 0.831902 0.175439
Si Si7 0.301629 0.667832 0.571896
Si Si8 0.700309 0.326444 0.927788
O O1 0.740996 0.818759 0.517909
O O2 0.929223 0.740297 0.383420
O O3 0.043930 0.757323 0.144467
O O4 0.971361 0.000000 0.285186
O O5 0.420814 0.757362 0.390843
O O6 0.484598 0.000000 0.258897
O O7 0.554723 0.740290 0.132693
O O8 0.892554 0.500000 0.978342
O O9 0.125062 0.333118 0.749932
O O10 0.826262 0.251989 0.110872
O O11 0.081301 0.500000 0.541948
O O12 0.170086 0.748843 0.393113
O O13 0.862692 0.707051 0.774712
O O14 0.703549 0.251151 0.859704
O O15 0.000000 0.170106 0.500000
O O16 0.763704 0.000000 0.736319
O O17 0.700526 0.748009 0.362291
O O18 0.764480 0.000000 0.235501
O O19 0.000000 0.831598 0.000000
O O20 0.365733 0.500000 0.505205
O O21 0.672342 0.500000 0.950941
#
# Coordination Sequence:
#
# PCOD8063125 Si02
#       8
#     4   4   4   4   4   4   4   4
#     4  10  20  33  49  71 100 132 164 200 244 291
#     4  10  20  33  49  71 100 132 164 200 244 291
#     4   9  16  26  41  62  90 124 160 198 241 287
#     4  10  20  34  53  76 100 127 161 200 241 287
#     4   9  17  31  52  75  98 125 158 198 242 285
#     4   9  15  23  37  59  88 121 158 199 240 283
#     4   9  16  26  41  62  90 124 160 198 241 287
#     4  10  20  34  53  76 100 127 161 200 241 287
#
# _framework density 18.800108000000002
#
# number of rings (size 3 to 8) (size 9 to 14) (size 15 to 20)
#    0.000    2.500    0.000    3.000    0.000    9.000 
#    0.000    0.625    0.000    3.750    0.000    0.875 
#    0.000    7.000    0.000    0.000    0.000    0.000 
#
# Total GULP energy -396834.724141 kJ/mol
# GULP energy per Si atom -12401.085129 kJ/mol
# Density = 1.875732 g / cm^3
# Si number density = 18.800108 Si / 1000 Ang^3
#
#
#
# Elastic Constant Matrix: (Units=GPa)
#
#
# Indices 1 2 3 4 5 6 
#
# 1 128.4782 31.4436 -29.5469 0.0000 43.5004 0.0000
# 2 31.4436 111.2047 34.0048 0.0000 20.1116 0.0000
# 3 -29.5469 34.0048 138.7686 0.0000 36.8273 0.0000
# 4 0.0000 0.0000 0.0000 34.4717 0.0000 14.4051
# 5 43.5004 20.1116 36.8273 0.0000 36.8092 0.0000
# 6 0.0000 0.0000 0.0000 14.4051 0.0000 32.4519
#
#
#
# Elastic Compliance Matrix: (Units=1/GPa)
#
#
# Indices 1 2 3 4 5 6 
#
# 1 0.046453 -0.008329 0.034437 0.000000 -0.084800 0.000000
# 2 -0.008329 0.011664 -0.007560 0.000000 0.011033 0.000000
# 3 0.034437 -0.007560 0.035529 0.000000 -0.072112 0.000000
# 4 0.000000 0.000000 0.000000 0.035616 0.000000 -0.015810
# 5 -0.084800 0.011033 -0.072112 0.000000 0.193501 0.000000
# 6 0.000000 0.000000 0.000000 -0.015810 0.000000 0.037833
#
#
# Mechanical properties :
#
#
# Convention : Reuss Voigt Hill
#
# Bulk Modulus (GPa) = 7.64865 50.02828 28.83847
# Shear Modulus (GPa) = 13.62104 43.58325 28.60214
#
# Velocity S-wave (km/s) = 2.69461 4.82004 3.90472
# Velocity P-wave (km/s) = 3.70924 7.59246 5.97511
#
# Compressibility (1/GPa) = 0.13074204
#
# Stress axis : x y z
#
# Youngs Moduli (GPa) = 21.52703 85.73666 28.14637
#
# Poissons Ratio (x) = 0.71408 -0.96927
# Poissons Ratio (y) = 0.17929 0.21278
# Poissons Ratio (z) = -0.74132 0.64813
#
# Static dielectric constant tensor:
#      x y z
#    x 3.235070 0.000000 0.430990 
#    y 0.000000 3.738330 0.000000 
#    z 0.430990 0.000000 3.295150 
# 
# 
# High freq. dielectric constant tensor:
#      x y z
#    x 1.703100 0.000000 0.045150 
#    y 0.000000 1.753030 0.000000 
#    z 0.045150 0.000000 1.709410 
# 
# From -- ./inp_files/52811.got.cif
#   From: 2010.06.25/outbox.cif.g09.slc.cpg/sg10_27_cif.got.tgz:52811.got - 2010.06.27 22:07:45.
