data_PCOD8063162
_publ_section_title
;
Structure prediction by ZEFSAII (Michael W. Deem and Ramdas Pophale) SiO2 
 PCOD8063162
Probable space group: P 2/M
;
_chemical_formula_sum "Si O2"
_cell_formula_units_Z 28
_cell_length_a 17.818956
_cell_length_b 9.130524
_cell_length_c 22.922198
_cell_angle_alpha 90.000000
_cell_angle_beta 23.066567
_cell_angle_gamma 90.000000
_cell_volume 1461.164133
_symmetry_space_group_name_H-M "P 2/M"
_symmetry_group_IT_number 10
_symmetry_cell_setting 'monoclinic'
loop_
_space_group_symop_operation_xyz
x,y,z
-x,y,-z
-x,-y,-z
x,-y,z
loop_
_atom_site_type_symbol
_atom_site_label
_atom_site_fract_x
_atom_site_fract_y
_atom_site_fract_z
Si Si1 0.303852 0.166377 0.885716
Si Si2 0.132700 0.834732 0.817967
Si Si3 0.419126 0.327741 0.695253
Si Si4 0.280505 0.340103 0.139755
Si Si5 0.688532 0.660264 0.403985
Si Si6 0.177927 0.325054 0.335155
Si Si7 0.599956 0.324850 0.066953
O O1 0.440767 0.249718 0.742207
O O2 0.304608 0.249051 0.946288
O O3 0.374468 0.000000 0.843477
O O4 0.092466 0.170434 0.009322
O O5 0.237288 0.733143 0.789856
O O6 0.168825 0.778809 0.725746
O O7 0.211495 0.000000 0.767433
O O8 0.386611 0.500000 0.727079
O O9 0.618568 0.294595 0.518817
O O10 0.185990 0.500000 0.199731
O O11 0.172232 0.261054 0.272015
O O12 0.500000 0.360122 0.000000
O O13 0.281718 0.264055 0.074801
O O14 0.500000 0.650069 0.500000
O O15 0.788900 0.500000 0.333535
O O16 0.167588 0.500000 0.338653
O O17 0.376489 0.277972 0.223697
O O18 0.000000 0.261807 0.500000
O O19 0.618038 0.500000 0.058296
#
# Coordination Sequence:
#
# PCOD8063162 Si02
#       7
#     4   4   4   4   4   4   4
#     4  11  23  35  47  68 101 136 169 207 249 295
#     4  10  20  33  50  72  97 130 171 208 248 300
#     4  10  20  34  53  75  97 125 166 213 257 299
#     4   7  11  22  42  67  92 118 147 180 224 279
#     4   8  16  31  50  72  94 116 151 202 251 294
#     4   8  13  24  47  77 101 119 150 199 244 284
#     4   9  17  30  48  69  95 128 162 196 242 294
#
# _framework density 19.162803
#
# number of rings (size 3 to 8) (size 9 to 14) (size 15 to 20)
#    0.000    3.000    0.000    4.286    0.000    7.143 
#    0.000    1.429    0.000    7.714    0.000    0.000 
#    0.000    0.000    0.000    0.000    0.000    0.000 
#
# Total GULP energy -346888.462707 kJ/mol
# GULP energy per Si atom -12388.873668 kJ/mol
# Density = 1.911919 g / cm^3
# Si number density = 19.162803 Si / 1000 Ang^3
#
#
#
# Elastic Constant Matrix: (Units=GPa)
#
#
# Indices 1 2 3 4 5 6 
#
# 1 90.7456 28.0267 24.3150 0.0000 34.5008 0.0000
# 2 28.0267 69.8441 21.0021 0.0000 15.8265 0.0000
# 3 24.3150 21.0021 72.5289 0.0000 32.8221 0.0000
# 4 0.0000 0.0000 0.0000 16.5008 0.0000 -2.9682
# 5 34.5008 15.8265 32.8221 0.0000 36.8448 0.0000
# 6 0.0000 0.0000 0.0000 -2.9682 0.0000 -0.8291
#
#
#
# Elastic Compliance Matrix: (Units=1/GPa)
#
#
# Indices 1 2 3 4 5 6 
#
# 1 0.018444 -0.004237 0.003410 0.000000 -0.018488 0.000000
# 2 -0.004237 0.017117 -0.003358 0.000000 -0.000394 0.000000
# 3 0.003410 -0.003358 0.024141 0.000000 -0.023256 0.000000
# 4 0.000000 0.000000 0.000000 0.036864 0.000000 -0.131974
# 5 -0.018488 -0.000394 -0.023256 0.000000 0.065339 0.000000
# 6 0.000000 0.000000 0.000000 -0.131974 0.000000 -0.733673
#
#
# Mechanical properties :
#
#
# Convention : Reuss Voigt Hill
#
# Bulk Modulus (GPa) = 19.48083 42.20070 30.84077
# Shear Modulus (GPa) = -9.15268 21.15495 6.00114
#
# Velocity S-wave (km/s) = -2.18784 3.32619 1.77157
# Velocity P-wave (km/s) = 1.95086 6.06807 4.50706
#
# Compressibility (1/GPa) = 0.05133251
#
# Stress axis : x y z
#
# Youngs Moduli (GPa) = 54.21879 58.42232 41.42330
#
# Poissons Ratio (x) = 0.24754 -0.14127
# Poissons Ratio (y) = 0.22973 0.13909
# Poissons Ratio (z) = -0.18491 0.19617
#
# Static dielectric constant tensor:
#      x y z
#    x 3.551430 0.000000 0.591750 
#    y 0.000000 3.232210 0.000000 
#    z 0.591750 0.000000 3.740320 
# 
# 
# High freq. dielectric constant tensor:
#      x y z
#    x 1.733880 0.000000 0.037120 
#    y 0.000000 1.708600 0.000000 
#    z 0.037120 0.000000 1.734800 
# 
# From -- ./inp_files/84894.got.cif
#   From: 2010.06.25/outbox.cif.g09.slc.cpg/sg10_43_cif.got.tgz:84894.got - 2010.06.27 22:07:45.
