data_PCOD8063864
_publ_section_title
;
Structure prediction by ZEFSAII (Michael W. Deem and Ramdas Pophale) SiO2 
 PCOD8063864
Probable space group: P 2/M
;
_chemical_formula_sum "Si O2"
_cell_formula_units_Z 24
_cell_length_a 13.954032
_cell_length_b 12.427264
_cell_length_c 13.953998
_cell_angle_alpha 90.000000
_cell_angle_beta 31.954612
_cell_angle_gamma 90.000000
_cell_volume 1280.656170
_symmetry_space_group_name_H-M "P 2/M"
_symmetry_group_IT_number 10
_symmetry_cell_setting 'monoclinic'
loop_
_space_group_symop_operation_xyz
x,y,z
-x,y,-z
-x,-y,-z
x,-y,z
loop_
_atom_site_type_symbol
_atom_site_label
_atom_site_fract_x
_atom_site_fract_y
_atom_site_fract_z
Si Si1 0.491403 0.377884 0.898783
Si Si2 0.558413 0.873560 0.558406
Si Si3 0.927528 0.192725 0.325269
Si Si4 0.395739 0.000000 0.990217
Si Si5 0.325275 0.192725 0.927523
Si Si6 0.990220 0.000000 0.395737
Si Si7 0.101214 0.377884 0.508600
O O1 0.417488 0.500000 0.962962
O O2 0.354802 0.308952 0.950236
O O3 0.686035 0.370547 0.686032
O O4 0.500000 0.332891 0.000000
O O5 0.500000 0.853890 0.500000
O O6 0.752885 0.815295 0.405325
O O7 0.405333 0.815296 0.752879
O O8 0.571621 0.000000 0.571614
O O9 0.950239 0.308952 0.354798
O O10 0.891510 0.106683 0.440962
O O11 0.109352 0.168736 0.109347
O O12 0.186617 0.000000 0.186615
O O13 0.500000 0.000000 0.000000
O O14 0.440966 0.106684 0.891507
O O15 0.000000 0.000000 0.500000
O O16 0.037034 0.500000 0.582515
O O17 0.000000 0.332892 0.500000
#
# Coordination Sequence:
#
# PCOD8063864 Si02
#       7
#     4   4   4   2   4   2   4
#     4  10  20  34  55  86 123 163 202 237 283 351
#     4  11  24  42  65  87 115 155 200 251 305 356
#     4  11  22  38  58  85 119 152 194 244 297 349
#     4  10  22  32  50  83 115 152 188 226 283 352
#     4  11  22  38  58  85 119 152 194 244 297 349
#     4  10  22  32  50  83 115 152 188 226 283 352
#     4  10  20  34  55  86 123 163 202 237 283 351
#
# _framework density 18.740393999999998
#
# number of rings (size 3 to 8) (size 9 to 14) (size 15 to 20)
#    0.000    1.500    3.333    2.000    2.333    5.333 
#    0.000    1.667    0.000    2.000    0.000    2.333 
#    0.000    0.000    0.000    0.000    0.000    0.000 
#
# Total GULP energy -297634.984562 kJ/mol
# GULP energy per Si atom -12401.457690 kJ/mol
# Density = 1.869774 g / cm^3
# Si number density = 18.740394 Si / 1000 Ang^3
#
#
#
# Elastic Constant Matrix: (Units=GPa)
#
#
# Indices 1 2 3 4 5 6 
#
# 1 115.7578 45.8132 49.2873 0.0000 1.3900 0.0000
# 2 45.8132 86.8823 27.3748 0.0000 5.3226 0.0000
# 3 49.2873 27.3748 103.6039 0.0000 2.1175 0.0000
# 4 0.0000 0.0000 0.0000 24.3518 0.0000 0.1719
# 5 1.3900 5.3226 2.1175 0.0000 30.6164 0.0000
# 6 0.0000 0.0000 0.0000 0.1719 0.0000 24.9485
#
#
#
# Elastic Compliance Matrix: (Units=1/GPa)
#
#
# Indices 1 2 3 4 5 6 
#
# 1 0.012702 -0.005269 -0.004664 0.000000 0.000662 0.000000
# 2 -0.005269 0.014859 -0.001374 0.000000 -0.002249 0.000000
# 3 -0.004664 -0.001374 0.012242 0.000000 -0.000396 0.000000
# 4 0.000000 0.000000 0.000000 0.041067 0.000000 -0.000283
# 5 0.000662 -0.002249 -0.000396 0.000000 0.033051 0.000000
# 6 0.000000 0.000000 0.000000 -0.000283 0.000000 0.040085
#
#
# Mechanical properties :
#
#
# Convention : Reuss Voigt Hill
#
# Bulk Modulus (GPa) = 58.17410 61.24384 59.70897
# Shear Modulus (GPa) = 27.42028 28.23457 27.82742
#
# Velocity S-wave (km/s) = 3.82928 3.88573 3.85761
# Velocity P-wave (km/s) = 7.11763 7.27206 7.19526
#
# Compressibility (1/GPa) = 0.01718978
#
# Stress axis : x y z
#
# Youngs Moduli (GPa) = 78.72899 67.30114 81.68619
#
# Poissons Ratio (x) = 0.35459 0.38098
# Poissons Ratio (y) = 0.41480 0.11220
# Poissons Ratio (z) = 0.36719 0.09244
#
# Static dielectric constant tensor:
#      x y z
#    x 3.136790 0.000000 -0.199120 
#    y 0.000000 3.616360 0.000000 
#    z -0.199120 0.000000 3.826550 
# 
# 
# High freq. dielectric constant tensor:
#      x y z
#    x 1.700580 0.000000 -0.010770 
#    y 0.000000 1.727170 0.000000 
#    z -0.010770 0.000000 1.737870 
# 
# From -- ./inp_files/67269.got.cif
#   From: 2010.06.25/outbox.cif.g09.slc.cpg/sg10_34_cif.got.tgz:67269.got - 2010.06.27 22:07:45.
