data_PCOD8063154
_publ_section_title
;
Structure prediction by ZEFSAII (Michael W. Deem and Ramdas Pophale) SiO2 
 PCOD8063154
Probable space group: P 2/M
;
_chemical_formula_sum "Si O2"
_cell_formula_units_Z 32
_cell_length_a 21.374061
_cell_length_b 8.636026
_cell_length_c 15.416775
_cell_angle_alpha 90.000000
_cell_angle_beta 35.421495
_cell_angle_gamma 90.000000
_cell_volume 1649.351068
_symmetry_space_group_name_H-M "P 2/M"
_symmetry_group_IT_number 10
_symmetry_cell_setting 'monoclinic'
loop_
_space_group_symop_operation_xyz
x,y,z
-x,y,-z
-x,-y,-z
x,-y,z
loop_
_atom_site_type_symbol
_atom_site_label
_atom_site_fract_x
_atom_site_fract_y
_atom_site_fract_z
Si Si1 0.579479 0.677881 0.100734
Si Si2 0.706639 0.826316 0.806652
Si Si3 0.858287 0.682352 0.406482
Si Si4 0.921140 0.678711 0.519277
Si Si5 0.897895 0.317656 0.168518
Si Si6 0.440987 0.682178 0.685636
Si Si7 0.667051 0.684074 0.364653
Si Si8 0.365916 0.824481 0.298771
O O1 0.607625 0.500000 0.048112
O O2 0.611523 0.724566 0.162643
O O3 0.451890 0.703342 0.237670
O O4 0.641003 0.791535 0.967277
O O5 0.801414 0.702931 0.689976
O O6 0.629756 0.811731 0.810394
O O7 0.754207 0.000000 0.758979
O O8 0.832096 0.500000 0.444606
O O9 0.930311 0.738456 0.408513
O O10 0.916943 0.719644 0.249187
O O11 0.748134 0.777424 0.532406
O O12 0.950795 0.500000 0.484336
O O13 0.000000 0.763270 0.500000
O O14 0.894977 0.500000 0.155960
O O15 0.782450 0.246414 0.266711
O O16 0.000000 0.246495 0.000000
O O17 0.453257 0.500000 0.660894
O O18 0.564421 0.746994 0.536855
O O19 0.358314 0.741307 0.705068
O O20 0.675522 0.500000 0.361389
O O21 0.392804 0.000000 0.297063
#
# Coordination Sequence:
#
# PCOD8063154 Si02
#       8
#     4   4   4   4   4   4   4   4
#     4  11  20  30  47  75 104 129 160 199 249 298
#     4  10  21  35  49  69  99 133 168 203 242 294
#     4   9  17  31  51  75 100 128 165 206 249 296
#     4   9  18  34  53  74 100 130 165 209 254 294
#     4   9  16  26  43  72 103 128 157 202 257 299
#     4   8  15  26  42  66  93 127 162 195 241 293
#     4   8  13  25  42  62  95 128 158 197 240 294
#     4  10  20  33  50  71  97 131 168 204 242 291
#
# _framework density 19.40157
#
# number of rings (size 3 to 8) (size 9 to 14) (size 15 to 20)
#    0.000    2.750    0.000    3.000    0.000    5.250 
#    2.250    0.000    0.000    0.375    0.000   16.625 
#    0.000    0.000    0.000    0.000    0.000    0.000 
#
# Total GULP energy -396512.890783 kJ/mol
# GULP energy per Si atom -12391.027837 kJ/mol
# Density = 1.935741 g / cm^3
# Si number density = 19.401570 Si / 1000 Ang^3
#
#
#
# Elastic Constant Matrix: (Units=GPa)
#
#
# Indices 1 2 3 4 5 6 
#
# 1 123.3175 11.8666 54.9113 0.0000 7.6114 0.0000
# 2 11.8666 17.3183 9.7498 0.0000 8.7652 0.0000
# 3 54.9113 9.7498 100.3172 0.0000 21.6035 0.0000
# 4 0.0000 0.0000 0.0000 10.0822 0.0000 1.0235
# 5 7.6114 8.7652 21.6035 0.0000 30.4610 0.0000
# 6 0.0000 0.0000 0.0000 1.0235 0.0000 7.8421
#
#
#
# Elastic Compliance Matrix: (Units=1/GPa)
#
#
# Indices 1 2 3 4 5 6 
#
# 1 0.011285 -0.005869 -0.006330 0.000000 0.003358 0.000000
# 2 -0.005869 0.071315 0.000454 0.000000 -0.019377 0.000000
# 3 -0.006330 0.000454 0.015434 0.000000 -0.009495 0.000000
# 4 0.000000 0.000000 0.000000 0.100517 0.000000 -0.013119
# 5 0.003358 -0.019377 -0.009495 0.000000 0.044299 0.000000
# 6 0.000000 0.000000 0.000000 -0.013119 0.000000 0.129229
#
#
# Mechanical properties :
#
#
# Convention : Reuss Voigt Hill
#
# Bulk Modulus (GPa) = 13.41477 43.77872 28.59674
# Shear Modulus (GPa) = 11.89296 20.63875 16.26586
#
# Velocity S-wave (km/s) = 2.47855 3.26508 2.89862
# Velocity P-wave (km/s) = 3.88847 6.06860 5.09647
#
# Compressibility (1/GPa) = 0.07454468
#
# Stress axis : x y z
#
# Youngs Moduli (GPa) = 88.61068 14.02230 64.79215
#
# Poissons Ratio (x) = 0.08229 0.41014
# Poissons Ratio (y) = 0.52004 -0.02942
# Poissons Ratio (z) = 0.56092 -0.00637
#
# Static dielectric constant tensor:
#      x y z
#    x 4.016140 0.000000 0.196080 
#    y 0.000000 3.070470 0.000000 
#    z 0.196080 0.000000 3.497110 
# 
# 
# High freq. dielectric constant tensor:
#      x y z
#    x 1.762560 0.000000 0.017750 
#    y 0.000000 1.708840 0.000000 
#    z 0.017750 0.000000 1.743230 
# 
# From -- ./inp_files/69954.got.cif
#   From: 2010.06.25/outbox.cif.g09.slc.cpg/sg10_35_cif.got.tgz:69954.got - 2010.06.27 22:07:45.
