data_PCOD8063930
_publ_section_title
;
Structure prediction by ZEFSAII (Michael W. Deem and Ramdas Pophale) SiO2 
 PCOD8063930
Probable space group: P 2/M
;
_chemical_formula_sum "Si O2"
_cell_formula_units_Z 32
_cell_length_a 8.530266
_cell_length_b 20.029143
_cell_length_c 13.693852
_cell_angle_alpha 90.000000
_cell_angle_beta 134.732543
_cell_angle_gamma 90.000000
_cell_volume 1662.085758
_symmetry_space_group_name_H-M "P 2/M"
_symmetry_group_IT_number 10
_symmetry_cell_setting 'monoclinic'
loop_
_space_group_symop_operation_xyz
x,y,z
-x,y,-z
-x,-y,-z
x,-y,z
loop_
_atom_site_type_symbol
_atom_site_label
_atom_site_fract_x
_atom_site_fract_y
_atom_site_fract_z
Si Si1 0.254861 0.422867 0.589553
Si Si2 0.740126 0.670641 0.573086
Si Si3 0.502753 0.323039 0.166721
Si Si4 0.842740 0.804451 0.521922
Si Si5 0.998721 0.167447 0.201073
Si Si6 0.833612 0.692777 0.137965
Si Si7 0.403346 0.814847 0.234711
Si Si8 0.787499 0.926558 0.973621
O O1 0.314364 0.500000 0.627483
O O2 0.288210 0.400505 0.491972
O O3 0.431128 0.382969 0.732506
O O4 0.000000 0.408049 0.500000
O O5 0.500000 0.696699 0.500000
O O6 0.835401 0.725082 0.538933
O O7 0.914796 0.665037 0.739567
O O8 0.708005 0.316338 0.184465
O O9 0.453640 0.256043 0.205783
O O10 0.286555 0.342517 0.006908
O O11 0.919711 0.842924 0.652896
O O12 0.605370 0.834328 0.392545
O O13 0.000000 0.818477 0.500000
O O14 0.189820 0.188147 0.209055
O O15 0.827711 0.228195 0.116479
O O16 0.871461 0.100184 0.115367
O O17 0.383982 0.873570 0.146203
O O18 0.677949 0.000000 0.938384
O O19 0.000000 0.932886 0.000000
#
# Coordination Sequence:
#
# PCOD8063930 Si02
#       8
#     4   4   4   4   4   4   4   4
#     4  11  23  41  61  84 118 161 203 240 296 365
#     4  11  21  37  59  87 114 151 196 244 296 351
#     4  11  21  36  59  85 119 151 195 249 295 353
#     4  11  21  34  56  85 118 147 193 248 295 343
#     4  10  20  34  56  90 116 148 197 240 299 339
#     4  10  21  35  55  88 118 149 194 243 298 345
#     4  11  19  34  59  89 115 152 194 248 289 344
#     4   9  19  36  57  85 123 158 193 235 290 355
#
# _framework density 19.252917
#
# number of rings (size 3 to 8) (size 9 to 14) (size 15 to 20)
#    0.000    1.500    3.750    3.750    0.000    0.250 
#    0.000    2.500    0.000   10.500    0.000    0.000 
#    0.000    0.000    0.000    0.000    0.000    0.000 
#
# Total GULP energy -396643.223702 kJ/mol
# GULP energy per Si atom -12395.100741 kJ/mol
# Density = 1.920910 g / cm^3
# Si number density = 19.252917 Si / 1000 Ang^3
#
#
#
# Elastic Constant Matrix: (Units=GPa)
#
#
# Indices 1 2 3 4 5 6 
#
# 1 33.9529 20.3553 33.9169 0.0000 -13.9051 0.0000
# 2 20.3553 127.1835 72.5089 0.0000 -12.9526 0.0000
# 3 33.9169 72.5089 168.6514 0.0000 -8.7324 0.0000
# 4 0.0000 0.0000 0.0000 29.2612 0.0000 0.7507
# 5 -13.9051 -12.9526 -8.7324 0.0000 29.4770 0.0000
# 6 0.0000 0.0000 0.0000 0.7507 0.0000 10.3014
#
#
#
# Elastic Compliance Matrix: (Units=1/GPa)
#
#
# Indices 1 2 3 4 5 6 
#
# 1 0.045440 -0.000939 -0.007765 0.000000 0.018722 0.000000
# 2 -0.000939 0.010761 -0.004282 0.000000 0.003017 0.000000
# 3 -0.007765 -0.004282 0.009186 0.000000 -0.002823 0.000000
# 4 0.000000 0.000000 0.000000 0.034239 0.000000 -0.002495
# 5 0.018722 0.003017 -0.002823 0.000000 0.043246 0.000000
# 6 0.000000 0.000000 0.000000 -0.002495 0.000000 0.097256
#
#
# Mechanical properties :
#
#
# Convention : Reuss Voigt Hill
#
# Bulk Modulus (GPa) = 25.37059 64.81665 45.09362
# Shear Modulus (GPa) = 17.90591 27.34169 22.62380
#
# Velocity S-wave (km/s) = 3.05296 3.77255 3.43167
# Velocity P-wave (km/s) = 5.06296 7.26052 6.25894
#
# Compressibility (1/GPa) = 0.03941572
#
# Stress axis : x y z
#
# Youngs Moduli (GPa) = 22.00703 92.92668 108.86544
#
# Poissons Ratio (x) = 0.08723 0.84537
# Poissons Ratio (y) = 0.02066 0.46612
# Poissons Ratio (z) = 0.17089 0.39787
#
# Static dielectric constant tensor:
#      x y z
#    x 3.445280 0.000000 -0.048530 
#    y 0.000000 3.372240 0.000000 
#    z -0.048530 0.000000 3.937020 
# 
# 
# High freq. dielectric constant tensor:
#      x y z
#    x 1.743160 0.000000 -0.003650 
#    y 0.000000 1.713120 0.000000 
#    z -0.003650 0.000000 1.769840 
# 
# From -- ./inp_files/62512.got.cif
#   From: 2010.06.25/outbox.cif.g09.slc.cpg/sg10_32_cif.got.tgz:62512.got - 2010.06.27 22:07:45.
