data_PCOD8063654
_publ_section_title
;
Structure prediction by ZEFSAII (Michael W. Deem and Ramdas Pophale) SiO2 
 PCOD8063654
Probable space group: P 2/M
;
_chemical_formula_sum "Si O2"
_cell_formula_units_Z 32
_cell_length_a 15.761602
_cell_length_b 23.419459
_cell_length_c 9.064104
_cell_angle_alpha 90.000000
_cell_angle_beta 151.480495
_cell_angle_gamma 90.000000
_cell_volume 1597.486451
_symmetry_space_group_name_H-M "P 2/M"
_symmetry_group_IT_number 10
_symmetry_cell_setting 'monoclinic'
loop_
_space_group_symop_operation_xyz
x,y,z
-x,y,-z
-x,-y,-z
x,-y,z
loop_
_atom_site_type_symbol
_atom_site_label
_atom_site_fract_x
_atom_site_fract_y
_atom_site_fract_z
Si Si1 0.187292 0.064463 0.211269
Si Si2 0.189143 0.760633 0.356885
Si Si3 0.842675 0.565506 0.364516
Si Si4 0.480382 0.434613 0.636736
Si Si5 0.037710 0.935588 0.397824
Si Si6 0.310841 0.843312 0.779871
Si Si7 0.457945 0.835689 0.607198
Si Si8 0.821818 0.373398 0.643678
O O1 0.346541 0.108056 0.487415
O O2 0.243039 0.000000 0.344766
O O3 0.000000 0.081763 0.000000
O O4 0.146286 0.066708 0.973721
O O5 0.216249 0.788975 0.559527
O O6 0.341193 0.780788 0.474728
O O7 0.205097 0.693836 0.406474
O O8 0.000000 0.778352 0.000000
O O9 0.877550 0.500000 0.464493
O O10 0.829425 0.602831 0.490502
O O11 0.000000 0.588273 0.500000
O O12 0.665217 0.571912 0.000923
O O13 0.500000 0.411115 0.500000
O O14 0.414995 0.500000 0.533143
O O15 0.339832 0.398363 0.511685
O O16 0.191729 0.898093 0.560151
O O17 0.000000 0.909444 0.500000
O O18 0.110820 0.000000 0.519925
O O19 0.500000 0.855661 0.000000
O O20 0.351685 0.833838 0.016619
O O21 0.500000 0.834210 0.500000
O O22 0.000000 0.390749 0.000000
#
# Coordination Sequence:
#
# PCOD8063654 Si02
#       8
#     4   4   4   4   4   4   4   4
#     4  10  20  35  56  79 108 148 184 219 276 347
#     4  10  23  43  60  77 108 149 193 234 278 339
#     4  10  21  38  61  91 126 160 196 239 288 347
#     4  10  21  37  60  91 125 161 197 237 288 344
#     4  10  20  34  53  78 107 139 176 218 269 331
#     4  10  21  36  56  80 106 140 180 225 278 328
#     4  11  22  36  57  84 112 142 182 235 290 336
#     4  11  23  39  61  87 116 156 200 246 298 347
#
# _framework density 20.031469000000001
#
# number of rings (size 3 to 8) (size 9 to 14) (size 15 to 20)
#    0.000    1.750    0.000    4.875    0.000    7.500 
#    0.000    3.125    0.000    0.000    0.000    0.000 
#    0.000    0.000    0.000    0.000    0.000    0.000 
#
# Total GULP energy -396784.408264 kJ/mol
# GULP energy per Si atom -12399.512758 kJ/mol
# Density = 1.998588 g / cm^3
# Si number density = 20.031469 Si / 1000 Ang^3
#
#
#
# Elastic Constant Matrix: (Units=GPa)
#
#
# Indices 1 2 3 4 5 6 
#
# 1 121.3636 51.7749 43.1887 0.0000 -15.0981 0.0000
# 2 51.7749 93.1847 54.4363 0.0000 -0.3714 0.0000
# 3 43.1887 54.4363 111.8751 0.0000 -9.0649 0.0000
# 4 0.0000 0.0000 0.0000 28.5328 0.0000 -9.5059
# 5 -15.0981 -0.3714 -9.0649 0.0000 34.3220 0.0000
# 6 0.0000 0.0000 0.0000 -9.5059 0.0000 14.1354
#
#
#
# Elastic Compliance Matrix: (Units=1/GPa)
#
#
# Indices 1 2 3 4 5 6 
#
# 1 0.011755 -0.005709 -0.001376 0.000000 0.004746 0.000000
# 2 -0.005709 0.017876 -0.006828 0.000000 -0.004121 0.000000
# 3 -0.001376 -0.006828 0.013015 0.000000 0.002759 0.000000
# 4 0.000000 0.000000 0.000000 0.045167 0.000000 0.030374
# 5 0.004746 -0.004121 0.002759 0.000000 0.031907 0.000000
# 6 0.000000 0.000000 0.000000 0.030374 0.000000 0.091171
#
#
# Mechanical properties :
#
#
# Convention : Reuss Voigt Hill
#
# Bulk Modulus (GPa) = 67.47047 69.46923 68.46985
# Shear Modulus (GPa) = 20.52069 27.19960 23.86014
#
# Velocity S-wave (km/s) = 3.20413 3.68889 3.45502
# Velocity P-wave (km/s) = 6.88796 7.27318 7.08319
#
# Compressibility (1/GPa) = 0.01482130
#
# Stress axis : x y z
#
# Youngs Moduli (GPa) = 85.06964 55.94215 76.83150
#
# Poissons Ratio (x) = 0.31936 0.10569
# Poissons Ratio (y) = 0.48564 0.52461
# Poissons Ratio (z) = 0.11703 0.38197
#
# Static dielectric constant tensor:
#      x y z
#    x 3.782690 0.000000 -0.313700 
#    y 0.000000 3.553410 0.000000 
#    z -0.313700 0.000000 4.096040 
# 
# 
# High freq. dielectric constant tensor:
#      x y z
#    x 1.787190 0.000000 -0.014540 
#    y 0.000000 1.771890 0.000000 
#    z -0.014540 0.000000 1.795450 
# 
# From -- ./inp_files/30634.got.cif
#   From: 2010.06.25/outbox.cif.g09.slc.cpg/sg10_16_cif.got.tgz:30634.got - 2010.06.27 22:07:45.
