data_PCOD8063918
_publ_section_title
;
Structure prediction by ZEFSAII (Michael W. Deem and Ramdas Pophale) SiO2 
 PCOD8063918
Probable space group: P 2/M
;
_chemical_formula_sum "Si O2"
_cell_formula_units_Z 28
_cell_length_a 9.598893
_cell_length_b 8.685355
_cell_length_c 27.617228
_cell_angle_alpha 90.000000
_cell_angle_beta 138.878099
_cell_angle_gamma 90.000000
_cell_volume 1514.231861
_symmetry_space_group_name_H-M "P 2/M"
_symmetry_group_IT_number 10
_symmetry_cell_setting 'monoclinic'
loop_
_space_group_symop_operation_xyz
x,y,z
-x,y,-z
-x,-y,-z
x,-y,z
loop_
_atom_site_type_symbol
_atom_site_label
_atom_site_fract_x
_atom_site_fract_y
_atom_site_fract_z
Si Si1 0.347554 0.678220 0.415843
Si Si2 0.815894 0.818415 0.988379
Si Si3 0.641823 0.681328 0.143766
Si Si4 0.321920 0.817522 0.559662
Si Si5 0.106147 0.819733 0.598334
Si Si6 0.751145 0.671026 0.070376
Si Si7 0.897712 0.179235 0.296541
O O1 0.500000 0.723545 0.500000
O O2 0.279579 0.500000 0.399085
O O3 0.472447 0.719357 0.399745
O O4 0.145733 0.787502 0.362522
O O5 0.589166 0.756466 0.911662
O O6 0.809503 0.000000 0.984533
O O7 0.859811 0.770119 0.055991
O O8 0.000000 0.756718 0.000000
O O9 0.605646 0.500000 0.129091
O O10 0.778562 0.739118 0.132330
O O11 0.776596 0.718289 0.226201
O O12 0.280580 0.772204 0.604711
O O13 0.125622 0.753083 0.475908
O O14 0.360297 0.000000 0.562945
O O15 0.187710 0.770593 0.672723
O O16 0.070134 0.000000 0.586315
O O17 0.848483 0.500000 0.091469
O O18 0.500000 0.665759 0.000000
O O19 0.857551 0.000000 0.274927
#
# Coordination Sequence:
#
# PCOD8063918 Si02
#       7
#     4   4   4   4   4   4   4
#     4  11  22  34  49  75 107 137 174 222 268 316
#     4  10  20  34  56  87 115 140 177 220 255 302
#     4  10  21  37  55  79 111 144 178 217 266 321
#     4   9  16  32  54  74  97 129 173 221 269 318
#     4   8  16  30  52  77  99 128 171 221 268 317
#     4   8  16  32  54  78 106 141 177 212 255 309
#     4  11  21  35  56  79 104 139 180 223 272 321
#
# _framework density 18.491225
#
# number of rings (size 3 to 8) (size 9 to 14) (size 15 to 20)
#    0.000    2.429    1.429    3.429    0.000    4.857 
#    0.000    4.286    0.000    1.714    0.000    0.000 
#    0.000    0.000    0.000    0.000    0.000    0.000 
#
# Total GULP energy -346994.143038 kJ/mol
# GULP energy per Si atom -12392.647966 kJ/mol
# Density = 1.844914 g / cm^3
# Si number density = 18.491225 Si / 1000 Ang^3
#
#
#
# Elastic Constant Matrix: (Units=GPa)
#
#
# Indices 1 2 3 4 5 6 
#
# 1 138.8106 32.5179 47.1445 0.0000 -16.0916 0.0000
# 2 32.5179 43.6285 18.5244 0.0000 -5.2552 0.0000
# 3 47.1445 18.5244 80.1537 0.0000 -20.7062 0.0000
# 4 0.0000 0.0000 0.0000 18.0597 0.0000 -10.3753
# 5 -16.0916 -5.2552 -20.7062 0.0000 27.3978 0.0000
# 6 0.0000 0.0000 0.0000 -10.3753 0.0000 15.5225
#
#
#
# Elastic Compliance Matrix: (Units=1/GPa)
#
#
# Indices 1 2 3 4 5 6 
#
# 1 0.010143 -0.005554 -0.004248 0.000000 0.001682 0.000000
# 2 -0.005554 0.028462 -0.003409 0.000000 -0.000379 0.000000
# 3 -0.004248 -0.003409 0.018576 0.000000 0.010890 0.000000
# 4 0.000000 0.000000 0.000000 0.089890 0.000000 0.060083
# 5 0.001682 -0.000379 0.010890 0.000000 0.045644 0.000000
# 6 0.000000 0.000000 0.000000 0.060083 0.000000 0.104582
#
#
# Mechanical properties :
#
#
# Convention : Reuss Voigt Hill
#
# Bulk Modulus (GPa) = 32.51087 50.99627 41.75357
# Shear Modulus (GPa) = 14.97137 23.15638 19.06388
#
# Velocity S-wave (km/s) = 2.84852 3.54261 3.21435
# Velocity P-wave (km/s) = 5.33279 6.66123 6.03368
#
# Compressibility (1/GPa) = 0.03075895
#
# Stress axis : x y z
#
# Youngs Moduli (GPa) = 98.59339 35.13454 53.83399
#
# Poissons Ratio (x) = 0.19512 0.22868
# Poissons Ratio (y) = 0.54754 0.18354
# Poissons Ratio (z) = 0.41880 0.11979
#
# Static dielectric constant tensor:
#      x y z
#    x -1.192660 0.000000 3.721090 
#    y 0.000000 3.211210 0.000000 
#    z 3.721090 0.000000 -0.074770 
# 
# 
# High freq. dielectric constant tensor:
#      x y z
#    x 1.729650 0.000000 -0.019930 
#    y 0.000000 1.704950 0.000000 
#    z -0.019930 0.000000 1.688790 
# 
# From -- ./inp_files/85649.got.cif
#   From: 2010.06.25/outbox.cif.g09.slc.cpg/sg10_43_cif.got.tgz:85649.got - 2010.06.27 22:07:45.
