data_PCOD8063043
_publ_section_title
;
Structure prediction by ZEFSAII (Michael W. Deem and Ramdas Pophale) SiO2 
 PCOD8063043
Probable space group: P 2/M
;
_chemical_formula_sum "Si O2"
_cell_formula_units_Z 28
_cell_length_a 9.146495
_cell_length_b 12.128189
_cell_length_c 13.824449
_cell_angle_alpha 90.000000
_cell_angle_beta 62.022233
_cell_angle_gamma 90.000000
_cell_volume 1354.325259
_symmetry_space_group_name_H-M "P 2/M"
_symmetry_group_IT_number 10
_symmetry_cell_setting 'monoclinic'
loop_
_space_group_symop_operation_xyz
x,y,z
-x,y,-z
-x,-y,-z
x,-y,z
loop_
_atom_site_type_symbol
_atom_site_label
_atom_site_fract_x
_atom_site_fract_y
_atom_site_fract_z
Si Si1 0.403317 0.713963 0.941262
Si Si2 0.711579 0.376428 0.747881
Si Si3 0.681805 0.120138 0.410521
Si Si4 0.246064 0.500000 0.524557
Si Si5 0.175281 0.272409 0.470917
Si Si6 0.608867 0.500000 0.321195
Si Si7 0.268494 0.727548 0.787708
Si Si8 0.921579 0.374654 0.862380
O O1 0.545757 0.630283 0.862430
O O2 0.335104 0.782154 0.868525
O O3 0.500000 0.780620 0.000000
O O4 0.241879 0.648427 0.024804
O O5 0.717956 0.500000 0.700742
O O6 0.713155 0.286899 0.660598
O O7 0.873476 0.356695 0.764806
O O8 0.500000 0.095094 0.500000
O O9 0.750669 0.189145 0.477093
O O10 0.687841 0.187781 0.309823
O O11 0.770624 0.000000 0.369614
O O12 0.144764 0.391894 0.527506
O O13 0.429328 0.500000 0.424114
O O14 0.252173 0.500000 0.638957
O O15 0.000000 0.220394 0.500000
O O16 0.631841 0.611821 0.252705
O O17 0.070698 0.706057 0.847790
O O18 0.978071 0.500000 0.864809
#
# Coordination Sequence:
#
# PCOD8063043 Si02
#       8
#     4   4   4   2   4   2   4   4
#     4  10  22  37  54  81 122 162 196 237 289 359
#     4  10  20  32  52  80 123 169 199 228 279 349
#     4  11  25  45  65  86 116 157 206 254 301 359
#     4  11  21  34  52  86 129 165 194 239 286 352
#     4  12  23  36  59  92 128 161 200 244 296 355
#     4  11  22  32  56  86 122 160 205 238 283 360
#     4  12  22  36  60  86 116 155 198 244 297 356
#     4  10  21  35  52  84 123 160 198 237 286 344
#
# _framework density 20.674502
#
# number of rings (size 3 to 8) (size 9 to 14) (size 15 to 20)
#    0.000    1.143    2.857    4.500    2.000    2.571 
#    0.000    0.000    0.000    2.143    0.000    2.000 
#    0.000    0.000    0.000    0.000    0.000    0.000 
#
# Total GULP energy -346930.007202 kJ/mol
# GULP energy per Si atom -12390.357400 kJ/mol
# Density = 2.062745 g / cm^3
# Si number density = 20.674502 Si / 1000 Ang^3
#
#
#
# Elastic Constant Matrix: (Units=GPa)
#
#
# Indices 1 2 3 4 5 6 
#
# 1 103.7017 35.4865 52.3804 0.0000 23.7796 0.0000
# 2 35.4865 98.7849 43.2613 0.0000 11.7127 0.0000
# 3 52.3804 43.2613 118.3627 0.0000 21.9254 0.0000
# 4 0.0000 0.0000 0.0000 35.7400 0.0000 40.5441
# 5 23.7796 11.7127 21.9254 0.0000 40.8965 0.0000
# 6 0.0000 0.0000 0.0000 40.5441 0.0000 85.7066
#
#
#
# Elastic Compliance Matrix: (Units=1/GPa)
#
#
# Indices 1 2 3 4 5 6 
#
# 1 0.013804 -0.002495 -0.004266 0.000000 -0.005025 0.000000
# 2 -0.002495 0.012557 -0.003429 0.000000 -0.000308 0.000000
# 3 -0.004266 -0.003429 0.012155 0.000000 -0.003054 0.000000
# 4 0.000000 0.000000 0.000000 0.060385 0.000000 -0.028566
# 5 -0.005025 -0.000308 -0.003054 0.000000 0.029099 0.000000
# 6 0.000000 0.000000 0.000000 -0.028566 0.000000 0.025181
#
#
# Mechanical properties :
#
#
# Convention : Reuss Voigt Hill
#
# Bulk Modulus (GPa) = 55.13448 64.78953 59.96201
# Shear Modulus (GPa) = 27.83864 45.11670 36.47767
#
# Velocity S-wave (km/s) = 3.67348 4.67651 4.20501
# Velocity P-wave (km/s) = 6.68718 7.78239 7.25548
#
# Compressibility (1/GPa) = 0.01813747
#
# Stress axis : x y z
#
# Youngs Moduli (GPa) = 72.44394 79.63590 82.26734
#
# Poissons Ratio (x) = 0.19866 0.35097
# Poissons Ratio (y) = 0.18072 0.28206
# Poissons Ratio (z) = 0.30906 0.27304
#
# Static dielectric constant tensor:
#      x y z
#    x 4.122530 0.000000 0.356170 
#    y 0.000000 3.253300 0.000000 
#    z 0.356170 0.000000 4.052280 
# 
# 
# High freq. dielectric constant tensor:
#      x y z
#    x 1.840710 0.000000 0.011070 
#    y 0.000000 1.732260 0.000000 
#    z 0.011070 0.000000 1.829780 
# 
# From -- ./inp_files/60947.got.cif
#   From: 2010.06.25/outbox.cif.g09.slc.cpg/sg10_31_cif.got.tgz:60947.got - 2010.06.27 22:07:45.
