data_PCOD8063919
_publ_section_title
;
Structure prediction by ZEFSAII (Michael W. Deem and Ramdas Pophale) SiO2 
 PCOD8063919
Probable space group: P 2/M
;
_chemical_formula_sum "Si O2"
_cell_formula_units_Z 28
_cell_length_a 28.817744
_cell_length_b 8.703424
_cell_length_c 9.605586
_cell_angle_alpha 90.000000
_cell_angle_beta 140.771561
_cell_angle_gamma 90.000000
_cell_volume 1523.615466
_symmetry_space_group_name_H-M "P 2/M"
_symmetry_group_IT_number 10
_symmetry_cell_setting 'monoclinic'
loop_
_space_group_symop_operation_xyz
x,y,z
-x,y,-z
-x,-y,-z
x,-y,z
loop_
_atom_site_type_symbol
_atom_site_label
_atom_site_fract_x
_atom_site_fract_y
_atom_site_fract_z
Si Si1 0.930055 0.829278 0.936433
Si Si2 0.856268 0.181450 0.496599
Si Si3 0.583647 0.821983 0.663207
Si Si4 0.598457 0.680057 0.121129
Si Si5 0.297648 0.679497 0.868865
Si Si6 0.559674 0.681801 0.330527
Si Si7 0.012011 0.681305 0.368578
O O1 0.868538 0.761167 0.686441
O O2 0.908989 0.000000 0.939189
O O3 0.000000 0.835842 0.000000
O O4 0.944457 0.729670 0.109273
O O5 0.774735 0.226139 0.261311
O O6 0.912154 0.253157 0.515089
O O7 0.868073 0.000000 0.518095
O O8 0.500000 0.774624 0.500000
O O9 0.599335 0.781620 0.539773
O O10 0.599162 0.000000 0.731479
O O11 0.638243 0.714233 0.874185
O O12 0.588979 0.500000 0.082737
O O13 0.671027 0.735440 0.208392
O O14 0.605766 0.723298 0.299357
O O15 0.523421 0.746327 0.880191
O O16 0.278378 0.500000 0.826535
O O17 0.562145 0.500000 0.369266
O O18 0.017006 0.500000 0.379479
O O19 0.000000 0.740631 0.500000
#
# Coordination Sequence:
#
# PCOD8063919 Si02
#       7
#     4   4   4   4   4   4   4
#     4   8  16  32  54  78 105 140 178 212 255 311
#     4  10  21  37  55  79 111 144 179 220 269 324
#     4  11  22  34  49  75 108 142 181 225 273 326
#     4   8  16  30  52  77  98 126 169 220 269 317
#     4  11  21  35  56  79 104 139 181 225 276 325
#     4   9  16  32  54  74  97 128 173 222 267 318
#     4  10  20  34  56  87 116 143 181 222 258 305
#
# _framework density 18.377341999999999
#
# number of rings (size 3 to 8) (size 9 to 14) (size 15 to 20)
#    0.000    2.429    1.429    3.429    0.000    4.857 
#    0.000    4.286    0.000    5.143    0.000    0.000 
#    0.000    0.000    0.000    0.000    0.000    0.000 
#
# Total GULP energy -346997.221993 kJ/mol
# GULP energy per Si atom -12392.757928 kJ/mol
# Density = 1.833551 g / cm^3
# Si number density = 18.377342 Si / 1000 Ang^3
#
#
#
# Elastic Constant Matrix: (Units=GPa)
#
#
# Indices 1 2 3 4 5 6 
#
# 1 104.7121 31.3445 56.2234 0.0000 -13.9004 0.0000
# 2 31.3445 48.0569 25.7384 0.0000 -6.3464 0.0000
# 3 56.2234 25.7384 94.9155 0.0000 -11.6301 0.0000
# 4 0.0000 0.0000 0.0000 15.2572 0.0000 0.1581
# 5 -13.9004 -6.3464 -11.6301 0.0000 31.8723 0.0000
# 6 0.0000 0.0000 0.0000 0.1581 0.0000 15.6698
#
#
#
# Elastic Compliance Matrix: (Units=1/GPa)
#
#
# Indices 1 2 3 4 5 6 
#
# 1 0.015625 -0.005892 -0.007293 0.000000 0.002980 0.000000
# 2 -0.005892 0.026766 -0.003591 0.000000 0.001450 0.000000
# 3 -0.007293 -0.003591 0.016070 0.000000 0.001969 0.000000
# 4 0.000000 0.000000 0.000000 0.065550 0.000000 -0.000661
# 5 0.002980 0.001450 0.001969 0.000000 0.033682 0.000000
# 6 0.000000 0.000000 0.000000 -0.000661 0.000000 0.063824
#
#
# Mechanical properties :
#
#
# Convention : Reuss Voigt Hill
#
# Bulk Modulus (GPa) = 40.14223 52.69970 46.42096
# Shear Modulus (GPa) = 18.98470 21.51841 20.25156
#
# Velocity S-wave (km/s) = 3.21760 3.42558 3.32322
# Velocity P-wave (km/s) = 5.97450 6.66220 6.32770
#
# Compressibility (1/GPa) = 0.02491142
#
# Stress axis : x y z
#
# Youngs Moduli (GPa) = 64.00045 37.36087 62.22649
#
# Poissons Ratio (x) = 0.22012 0.45379
# Poissons Ratio (y) = 0.37708 0.22343
# Poissons Ratio (z) = 0.46673 0.13414
#
# Static dielectric constant tensor:
#      x y z
#    x 4.264720 0.000000 -0.168090 
#    y 0.000000 3.196140 0.000000 
#    z -0.168090 0.000000 3.594110 
# 
# 
# High freq. dielectric constant tensor:
#      x y z
#    x 1.697130 0.000000 -0.016420 
#    y 0.000000 1.701060 0.000000 
#    z -0.016420 0.000000 1.709360 
# 
# From -- ./inp_files/38064.got.cif
#   From: 2010.06.25/outbox.cif.g09.slc.cpg/sg10_20_cif.got.tgz:38064.got - 2010.06.27 22:07:45.
