data_PCOD8063564
_publ_section_title
;
Structure prediction by ZEFSAII (Michael W. Deem and Ramdas Pophale) SiO2 
 PCOD8063564
Probable space group: P 2/M
;
_chemical_formula_sum "Si O2"
_cell_formula_units_Z 32
_cell_length_a 24.793468
_cell_length_b 13.127336
_cell_length_c 9.562605
_cell_angle_alpha 90.000000
_cell_angle_beta 148.507742
_cell_angle_gamma 90.000000
_cell_volume 1625.846053
_symmetry_space_group_name_H-M "P 2/M"
_symmetry_group_IT_number 10
_symmetry_cell_setting 'monoclinic'
loop_
_space_group_symop_operation_xyz
x,y,z
-x,y,-z
-x,-y,-z
x,-y,z
loop_
_atom_site_type_symbol
_atom_site_label
_atom_site_fract_x
_atom_site_fract_y
_atom_site_fract_z
Si Si1 0.766908 0.118313 0.022469
Si Si2 0.947201 0.119847 0.617429
Si Si3 0.306392 0.384300 0.409507
Si Si4 0.170490 0.797265 0.119416
Si Si5 0.492240 0.688794 0.643199
Si Si6 0.608207 0.884831 0.892374
Si Si7 0.783082 0.817870 0.467653
Si Si8 0.675717 0.613494 0.234976
O O1 0.874715 0.155655 0.328911
O O2 0.759906 0.000000 0.036749
O O3 0.763879 0.143994 0.853375
O O4 0.668316 0.162378 0.889221
O O5 0.889932 0.146120 0.635350
O O6 0.975654 0.000000 0.673311
O O7 0.049302 0.187302 0.831495
O O8 0.280573 0.500000 0.312302
O O9 0.198173 0.322467 0.169199
O O10 0.380204 0.335895 0.455988
O O11 0.358432 0.375459 0.677941
O O12 0.208408 0.842773 0.350076
O O13 0.500000 0.652334 0.500000
O O14 0.511194 0.810719 0.701183
O O15 0.576019 0.627239 0.918281
O O16 0.566643 0.000000 0.780378
O O17 0.687242 0.883185 0.197308
O O18 0.763133 0.697566 0.393069
O O19 0.721635 0.500000 0.310899
#
# Coordination Sequence:
#
# PCOD8063564 Si02
#       8
#     4   4   4   4   4   4   4   4
#     4   9  18  33  53  76 104 139 172 203 247 302
#     4  10  20  34  52  76 108 142 170 203 253 305
#     4  10  22  39  55  73 102 137 170 210 262 310
#     4  11  20  32  53  78 102 132 177 219 247 291
#     4  11  21  34  56  82 103 129 172 217 252 300
#     4   9  19  36  53  72 106 143 167 200 256 310
#     4   9  19  33  53  79 105 133 170 213 255 298
#     4   9  19  37  58  77 101 134 169 209 260 310
#
# _framework density 19.68206
#
# number of rings (size 3 to 8) (size 9 to 14) (size 15 to 20)
#    0.000    2.250    0.000    3.750    0.000    5.750 
#    0.000    1.875    0.000   15.000    0.000    0.000 
#    0.000    0.000    0.000    0.000    0.000    0.000 
#
# Total GULP energy -396749.139659 kJ/mol
# GULP energy per Si atom -12398.410614 kJ/mol
# Density = 1.963726 g / cm^3
# Si number density = 19.682060 Si / 1000 Ang^3
#
#
#
# Elastic Constant Matrix: (Units=GPa)
#
#
# Indices 1 2 3 4 5 6 
#
# 1 101.3606 47.7733 37.2461 0.0000 -14.4241 0.0000
# 2 47.7733 98.6312 40.2730 0.0000 8.7196 0.0000
# 3 37.2461 40.2730 52.6740 0.0000 -0.7224 0.0000
# 4 0.0000 0.0000 0.0000 18.7014 0.0000 4.2982
# 5 -14.4241 8.7196 -0.7224 0.0000 32.5180 0.0000
# 6 0.0000 0.0000 0.0000 4.2982 0.0000 26.1118
#
#
#
# Elastic Compliance Matrix: (Units=1/GPa)
#
#
# Indices 1 2 3 4 5 6 
#
# 1 0.016456 -0.005872 -0.007027 0.000000 0.008718 0.000000
# 2 -0.005872 0.017434 -0.009280 0.000000 -0.007486 0.000000
# 3 -0.007027 -0.009280 0.031050 0.000000 0.000061 0.000000
# 4 0.000000 0.000000 0.000000 0.055575 0.000000 -0.009148
# 5 0.008718 -0.007486 0.000061 0.000000 0.036628 0.000000
# 6 0.000000 0.000000 0.000000 -0.009148 0.000000 0.039803
#
#
# Mechanical properties :
#
#
# Convention : Reuss Voigt Hill
#
# Bulk Modulus (GPa) = 48.58736 55.91673 52.25204
# Shear Modulus (GPa) = 20.14797 23.95778 22.05288
#
# Velocity S-wave (km/s) = 3.20296 3.49268 3.35095
# Velocity P-wave (km/s) = 6.19825 6.68856 6.44806
#
# Compressibility (1/GPa) = 0.02058149
#
# Stress axis : x y z
#
# Youngs Moduli (GPa) = 60.76721 57.35904 32.20658
#
# Poissons Ratio (x) = 0.33683 0.22632
# Poissons Ratio (y) = 0.35684 0.29887
# Poissons Ratio (z) = 0.42701 0.53229
#
# Static dielectric constant tensor:
#      x y z
#    x 3.613970 0.000000 -0.177170 
#    y 0.000000 3.586280 0.000000 
#    z -0.177170 0.000000 3.541030 
# 
# 
# High freq. dielectric constant tensor:
#      x y z
#    x 1.766400 0.000000 -0.015940 
#    y 0.000000 1.758750 0.000000 
#    z -0.015940 0.000000 1.762260 
# 
# From -- ./inp_files/36381.got.cif
#   From: 2010.06.25/outbox.cif.g09.slc.cpg/sg10_19_cif.got.tgz:36381.got - 2010.06.27 22:07:45.
