data_PCOD8063805
_publ_section_title
;
Structure prediction by ZEFSAII (Michael W. Deem and Ramdas Pophale) SiO2 
 PCOD8063805
Probable space group: P 2/M
;
_chemical_formula_sum "Si O2"
_cell_formula_units_Z 32
_cell_length_a 28.666490
_cell_length_b 8.969877
_cell_length_c 17.370291
_cell_angle_alpha 90.000000
_cell_angle_beta 22.393511
_cell_angle_gamma 90.000000
_cell_volume 1701.586135
_symmetry_space_group_name_H-M "P 2/M"
_symmetry_group_IT_number 10
_symmetry_cell_setting 'monoclinic'
loop_
_space_group_symop_operation_xyz
x,y,z
-x,y,-z
-x,-y,-z
x,-y,z
loop_
_atom_site_type_symbol
_atom_site_label
_atom_site_fract_x
_atom_site_fract_y
_atom_site_fract_z
Si Si1 0.158714 0.326511 0.130507
Si Si2 0.211674 0.172053 0.203991
Si Si3 0.076672 0.824456 0.565506
Si Si4 0.489248 0.827395 0.750248
Si Si5 0.890343 0.324680 0.332182
Si Si6 0.087856 0.167347 0.938641
Si Si7 0.719835 0.324857 0.450905
Si Si8 0.436053 0.673262 0.676455
O O1 0.126295 0.500000 0.177808
O O2 0.151844 0.271420 0.228902
O O3 0.061064 0.237409 0.228790
O O4 0.291491 0.293026 0.891501
O O5 0.151903 0.221228 0.375113
O O6 0.183273 0.000000 0.227722
O O7 0.356206 0.201094 0.989392
O O8 0.146634 0.748910 0.530438
O O9 0.073380 0.000000 0.583076
O O10 0.582661 0.738564 0.662574
O O11 0.496682 0.767899 0.651902
O O12 0.524889 0.000000 0.695762
O O13 0.905319 0.500000 0.318452
O O14 0.785180 0.283045 0.431389
O O15 0.021784 0.258326 0.107031
O O16 0.212509 0.250176 0.725162
O O17 0.117492 0.000000 0.921852
O O18 0.000000 0.164121 0.000000
O O19 0.719554 0.500000 0.437695
O O20 0.500000 0.723450 0.500000
O O21 0.459916 0.500000 0.657817
#
# Coordination Sequence:
#
# PCOD8063805 Si02
#       8
#     4   4   4   4   4   4   4   4
#     4  10  20  34  55  81 106 136 175 217 264 321
#     4   9  20  38  56  76 103 137 177 221 270 321
#     4  11  22  36  55  77 105 140 176 220 273 323
#     4  10  20  35  56  79 104 137 180 224 263 313
#     4  10  21  36  53  77 109 141 176 220 266 313
#     4   9  17  31  52  76 102 134 172 212 254 303
#     4  10  20  35  55  78 107 143 179 216 262 316
#     4   9  19  36  55  77 109 144 174 209 257 313
#
# _framework density 18.805983999999999
#
# number of rings (size 3 to 8) (size 9 to 14) (size 15 to 20)
#    0.000    2.250    0.000    2.625    0.000    7.750 
#    0.000    4.375    0.000    3.750    0.000    0.000 
#    0.000    0.000    0.000    0.000    0.000    0.000 
#
# Total GULP energy -396925.024182 kJ/mol
# GULP energy per Si atom -12403.907006 kJ/mol
# Density = 1.876318 g / cm^3
# Si number density = 18.805984 Si / 1000 Ang^3
#
#
#
# Elastic Constant Matrix: (Units=GPa)
#
#
# Indices 1 2 3 4 5 6 
#
# 1 96.3463 51.6176 55.0238 0.0000 3.9305 0.0000
# 2 51.6176 95.9040 40.5846 0.0000 -0.1633 0.0000
# 3 55.0238 40.5846 85.5329 0.0000 6.1273 0.0000
# 4 0.0000 0.0000 0.0000 29.8528 0.0000 0.1409
# 5 3.9305 -0.1633 6.1273 0.0000 31.7119 0.0000
# 6 0.0000 0.0000 0.0000 0.1409 0.0000 35.3865
#
#
#
# Elastic Compliance Matrix: (Units=1/GPa)
#
#
# Indices 1 2 3 4 5 6 
#
# 1 0.019074 -0.006373 -0.009202 0.000000 -0.000619 0.000000
# 2 -0.006373 0.015228 -0.003233 0.000000 0.001493 0.000000
# 3 -0.009202 -0.003233 0.019332 0.000000 -0.002611 0.000000
# 4 0.000000 0.000000 0.000000 0.033498 0.000000 -0.000133
# 5 -0.000619 0.001493 -0.002611 0.000000 0.032123 0.000000
# 6 0.000000 0.000000 0.000000 -0.000133 0.000000 0.028260
#
#
# Mechanical properties :
#
#
# Convention : Reuss Voigt Hill
#
# Bulk Modulus (GPa) = 62.42818 63.58166 63.00492
# Shear Modulus (GPa) = 26.25077 28.09405 27.17241
#
# Velocity S-wave (km/s) = 3.74019 3.86928 3.80528
# Velocity P-wave (km/s) = 7.20556 7.33788 7.27202
#
# Compressibility (1/GPa) = 0.01601841
#
# Stress axis : x y z
#
# Youngs Moduli (GPa) = 52.42650 65.66990 51.72715
#
# Poissons Ratio (x) = 0.41852 0.47601
# Poissons Ratio (y) = 0.33412 0.16721
# Poissons Ratio (z) = 0.48245 0.21228
#
# Static dielectric constant tensor:
#      x y z
#    x 3.342240 0.000000 0.004450 
#    y 0.000000 3.533800 0.000000 
#    z 0.004450 0.000000 3.471950 
# 
# 
# High freq. dielectric constant tensor:
#      x y z
#    x 1.720190 0.000000 -0.001330 
#    y 0.000000 1.742100 0.000000 
#    z -0.001330 0.000000 1.726610 
# 
# From -- ./inp_files/71560.got.cif
#   From: 2010.06.25/outbox.cif.g09.slc.cpg/sg10_36_cif.got.tgz:71560.got - 2010.06.27 22:07:45.
