data_PCOD8063354
_publ_section_title
;
Structure prediction by ZEFSAII (Michael W. Deem and Ramdas Pophale) SiO2 
 PCOD8063354
Probable space group: P 2/M
;
_chemical_formula_sum "Si O2"
_cell_formula_units_Z 24
_cell_length_a 19.216008
_cell_length_b 16.405970
_cell_length_c 12.631017
_cell_angle_alpha 90.000000
_cell_angle_beta 19.234665
_cell_angle_gamma 90.000000
_cell_volume 1311.828411
_symmetry_space_group_name_H-M "P 2/M"
_symmetry_group_IT_number 10
_symmetry_cell_setting 'monoclinic'
loop_
_space_group_symop_operation_xyz
x,y,z
-x,y,-z
-x,-y,-z
x,-y,z
loop_
_atom_site_type_symbol
_atom_site_label
_atom_site_fract_x
_atom_site_fract_y
_atom_site_fract_z
Si Si1 0.745249 0.500000 0.134271
Si Si2 0.788967 0.798482 0.748496
Si Si3 0.180114 0.758086 0.542278
Si Si4 0.247538 0.500000 0.121165
Si Si5 0.571011 0.089507 0.778401
Si Si6 0.505939 0.662712 0.211160
Si Si7 0.854726 0.350007 0.112185
O O1 0.500000 0.500000 0.500000
O O2 0.853036 0.420667 0.028653
O O3 0.781014 0.500000 0.961108
O O4 0.818905 0.765791 0.585586
O O5 0.000000 0.829171 0.500000
O O6 0.633055 0.874778 0.987347
O O7 0.699698 0.724374 0.946203
O O8 0.234413 0.847135 0.513447
O O9 0.356785 0.691885 0.326966
O O10 0.952301 0.730587 0.915350
O O11 0.000000 0.500000 0.500000
O O12 0.386135 0.575543 0.965569
O O13 0.633466 0.000000 0.643245
O O14 0.500000 0.081090 0.000000
O O15 0.378083 0.665780 0.505950
O O16 0.000000 0.379871 0.000000
#
# Coordination Sequence:
#
# PCOD8063354 Si02
#       7
#     2   4   4   2   4   4   4
#     4  12  23  38  55  77 109 143 187 224 273 311
#     4  10  20  33  53  80 113 140 179 224 267 321
#     4   9  20  35  57  82 103 145 182 218 273 319
#     4  12  26  38  53  83 109 144 184 231 273 312
#     4   8  15  32  55  81 111 140 175 218 264 324
#     4  10  20  38  54  73 109 140 182 224 270 320
#     4  10  21  37  58  75 105 141 187 225 265 321
#
# _framework density 18.295075000000001
#
# number of rings (size 3 to 8) (size 9 to 14) (size 15 to 20)
#    0.000    2.167    1.667    2.250    4.667    2.333 
#    0.000    1.667    0.000   12.500    0.000    0.000 
#    0.000   27.333    0.000    0.000    0.000    0.000 
#
# Total GULP energy -297375.990786 kJ/mol
# GULP energy per Si atom -12390.666283 kJ/mol
# Density = 1.825343 g / cm^3
# Si number density = 18.295075 Si / 1000 Ang^3
#
#
#
# Elastic Constant Matrix: (Units=GPa)
#
#
# Indices 1 2 3 4 5 6 
#
# 1 81.2626 41.0075 20.2270 0.0000 -2.7926 0.0000
# 2 41.0075 163.3670 60.5878 0.0000 -10.1256 0.0000
# 3 20.2270 60.5878 106.7810 0.0000 -1.0899 0.0000
# 4 0.0000 0.0000 0.0000 17.4431 0.0000 -1.2496
# 5 -2.7926 -10.1256 -1.0899 0.0000 21.4883 0.0000
# 6 0.0000 0.0000 0.0000 -1.2496 0.0000 14.2109
#
#
#
# Elastic Compliance Matrix: (Units=1/GPa)
#
#
# Indices 1 2 3 4 5 6 
#
# 1 0.014152 -0.003219 -0.000851 0.000000 0.000279 0.000000
# 2 -0.003219 0.008746 -0.004317 0.000000 0.003484 0.000000
# 3 -0.000851 -0.004317 0.011960 0.000000 -0.001538 0.000000
# 4 0.000000 0.000000 0.000000 0.057693 0.000000 0.005073
# 5 0.000279 0.003484 -0.001538 0.000000 0.048137 0.000000
# 6 0.000000 0.000000 0.000000 0.005073 0.000000 0.070814
#
#
# Mechanical properties :
#
#
# Convention : Reuss Voigt Hill
#
# Bulk Modulus (GPa) = 55.30169 66.11724 60.70946
# Shear Modulus (GPa) = 21.33964 25.93435 23.63699
#
# Velocity S-wave (km/s) = 3.41899 3.76913 3.59832
# Velocity P-wave (km/s) = 6.77342 7.42695 7.10770
#
# Compressibility (1/GPa) = 0.01808263
#
# Stress axis : x y z
#
# Youngs Moduli (GPa) = 70.66230 114.33269 83.61083
#
# Poissons Ratio (x) = 0.36808 0.07117
# Poissons Ratio (y) = 0.22749 0.36098
# Poissons Ratio (z) = 0.06015 0.49361
#
# Static dielectric constant tensor:
#      x y z
#    x 3.243940 0.000000 -0.055030 
#    y 0.000000 3.736550 0.000000 
#    z -0.055030 0.000000 3.519590 
# 
# 
# High freq. dielectric constant tensor:
#      x y z
#    x 1.696880 0.000000 -0.006610 
#    y 0.000000 1.704360 0.000000 
#    z -0.006610 0.000000 1.708210 
# 
# From -- ./inp_files/19324.got.cif
#   From: 2010.06.25/outbox.cif.g09.slc.cpg/sg10_10_cif.got.tgz:19324.got - 2010.06.27 22:07:45.
