data_PCOD8063530
_publ_section_title
;
Structure prediction by ZEFSAII (Michael W. Deem and Ramdas Pophale) SiO2 
 PCOD8063530
Probable space group: P 2/M
;
_chemical_formula_sum "Si O2"
_cell_formula_units_Z 24
_cell_length_a 17.859403
_cell_length_b 9.269114
_cell_length_c 24.334571
_cell_angle_alpha 90.000000
_cell_angle_beta 19.322036
_cell_angle_gamma 90.000000
_cell_volume 1332.894882
_symmetry_space_group_name_H-M "P 2/M"
_symmetry_group_IT_number 10
_symmetry_cell_setting 'monoclinic'
loop_
_space_group_symop_operation_xyz
x,y,z
-x,y,-z
-x,-y,-z
x,-y,z
loop_
_atom_site_type_symbol
_atom_site_label
_atom_site_fract_x
_atom_site_fract_y
_atom_site_fract_z
Si Si1 0.847939 0.168035 0.382636
Si Si2 0.552918 0.669041 0.672742
Si Si3 0.089588 0.169588 0.998644
Si Si4 0.251627 0.831971 0.179708
Si Si5 0.752583 0.169925 0.326440
Si Si6 0.970178 0.664907 0.457865
O O1 0.656460 0.260488 0.545964
O O2 0.861852 0.211688 0.309212
O O3 0.095521 0.202826 0.235198
O O4 0.782350 0.000000 0.435443
O O5 0.515522 0.500000 0.687633
O O6 0.318711 0.743821 0.850514
O O7 0.718279 0.697266 0.609982
O O8 0.137519 0.000000 0.973282
O O9 0.000000 0.203847 0.000000
O O10 0.906967 0.228645 0.169569
O O11 0.152295 0.762544 0.302475
O O12 0.267329 0.000000 0.180301
O O13 0.500000 0.765051 0.000000
O O14 0.500000 0.237497 0.500000
O O15 0.734038 0.000000 0.331591
O O16 0.033520 0.500000 0.402572
O O17 0.000000 0.706644 0.500000
#
# Coordination Sequence:
#
# PCOD8063530 Si02
#       6
#     4   4   4   4   4   4
#     4   9  17  32  52  71  96 130 165 203 247 295
#     4  10  20  34  52  74 101 132 167 208 250 292
#     4  10  20  34  54  78 102 131 166 202 245 299
#     4   9  18  31  48  73 101 127 160 205 253 295
#     4   9  17  30  50  74  96 122 160 201 238 284
#     4   9  19  35  52  71  98 134 172 206 245 296
#
# _framework density 18.005921000000001
#
# number of rings (size 3 to 8) (size 9 to 14) (size 15 to 20)
#    0.000    2.667    0.000    1.500    0.000    5.667 
#    0.000    2.500    0.000    2.000    0.000    0.000 
#    0.000    0.000    0.000    0.000    0.000    0.000 
#
# Total GULP energy -297586.200637 kJ/mol
# GULP energy per Si atom -12399.425027 kJ/mol
# Density = 1.796494 g / cm^3
# Si number density = 18.005921 Si / 1000 Ang^3
#
#
#
# Elastic Constant Matrix: (Units=GPa)
#
#
# Indices 1 2 3 4 5 6 
#
# 1 116.7837 33.9855 75.9893 0.0000 10.0066 0.0000
# 2 33.9855 40.9417 49.3124 0.0000 -1.6895 0.0000
# 3 75.9893 49.3124 171.5213 0.0000 -3.1516 0.0000
# 4 0.0000 0.0000 0.0000 37.0273 0.0000 3.1325
# 5 10.0066 -1.6895 -3.1516 0.0000 24.5628 0.0000
# 6 0.0000 0.0000 0.0000 3.1325 0.0000 23.3886
#
#
#
# Elastic Compliance Matrix: (Units=1/GPa)
#
#
# Indices 1 2 3 4 5 6 
#
# 1 0.013896 -0.006497 -0.004411 0.000000 -0.006674 0.000000
# 2 -0.006497 0.040436 -0.008668 0.000000 0.004316 0.000000
# 3 -0.004411 -0.008668 0.010323 0.000000 0.002525 0.000000
# 4 0.000000 0.000000 0.000000 0.027317 0.000000 -0.003659
# 5 -0.006674 0.004316 0.002525 0.000000 0.044052 0.000000
# 6 0.000000 0.000000 0.000000 -0.003659 0.000000 0.043246
#
#
# Mechanical properties :
#
#
# Convention : Reuss Voigt Hill
#
# Bulk Modulus (GPa) = 39.21131 71.98013 55.59572
# Shear Modulus (GPa) = 22.03412 28.32638 25.18025
#
# Velocity S-wave (km/s) = 3.50196 3.97062 3.74363
# Velocity P-wave (km/s) = 6.17866 7.81561 7.04484
#
# Compressibility (1/GPa) = 0.02550285
#
# Stress axis : x y z
#
# Youngs Moduli (GPa) = 71.96561 24.73035 96.87477
#
# Poissons Ratio (x) = 0.16068 0.42729
# Poissons Ratio (y) = 0.46759 0.83967
# Poissons Ratio (z) = 0.31742 0.21435
#
# Static dielectric constant tensor:
#      x y z
#    x 3.442550 0.000000 -0.053060 
#    y 0.000000 3.147410 0.000000 
#    z -0.053060 0.000000 3.487360 
# 
# 
# High freq. dielectric constant tensor:
#      x y z
#    x 1.705570 0.000000 -0.005180 
#    y 0.000000 1.675210 0.000000 
#    z -0.005180 0.000000 1.700190 
# 
# From -- ./inp_files/27285.got.cif
#   From: 2010.06.25/outbox.cif.g09.slc.cpg/sg10_14_cif.got.tgz:27285.got - 2010.06.27 22:07:45.
