data_PCOD8063740
_publ_section_title
;
Structure prediction by ZEFSAII (Michael W. Deem and Ramdas Pophale) SiO2 
 PCOD8063740
Probable space group: P 2/M
;
_chemical_formula_sum "Si O2"
_cell_formula_units_Z 20
_cell_length_a 10.673416
_cell_length_b 12.511003
_cell_length_c 10.673416
_cell_angle_alpha 90.000000
_cell_angle_beta 49.542248
_cell_angle_gamma 90.000000
_cell_volume 1084.470689
_symmetry_space_group_name_H-M "P 2/M"
_symmetry_group_IT_number 10
_symmetry_cell_setting 'monoclinic'
loop_
_space_group_symop_operation_xyz
x,y,z
-x,y,-z
-x,-y,-z
x,-y,z
loop_
_atom_site_type_symbol
_atom_site_label
_atom_site_fract_x
_atom_site_fract_y
_atom_site_fract_z
Si Si1 0.353630 0.875627 0.005033
Si Si2 0.994967 0.124373 0.646370
Si Si3 0.408281 0.713992 0.754296
Si Si4 0.086803 0.500000 0.749115
Si Si5 0.245704 0.713992 0.591719
Si Si6 0.749115 0.500000 0.086803
O O1 0.361784 0.814296 0.869172
O O2 0.372424 0.000000 0.960691
O O3 0.500000 0.836541 0.000000
O O4 0.183631 0.849686 0.183631
O O5 0.130827 0.185704 0.638216
O O6 0.000000 0.163459 0.500000
O O7 0.039309 0.000000 0.627576
O O8 0.303510 0.725630 0.696490
O O9 0.601691 0.712887 0.601691
O O10 0.363453 0.604722 0.855713
O O11 0.144287 0.604722 0.636547
O O12 0.170247 0.500000 0.829753
O O13 0.889216 0.500000 0.889216
#
# Coordination Sequence:
#
# PCOD8063740 Si02
#       6
#     4   4   4   2   4   2
#     4  10  21  37  56  77 104 139 177 217 263 314
#     4  10  21  37  56  77 104 139 177 217 263 314
#     4  10  20  34  54  80 109 140 175 215 259 309
#     4   9  17  31  52  77 106 139 174 213 259 309
#     4  10  20  34  54  80 109 140 175 215 259 309
#     4   9  17  31  52  77 106 139 174 213 259 309
#
# _framework density 18.442177000000001
#
# number of rings (size 3 to 8) (size 9 to 14) (size 15 to 20)
#    0.000    2.200    0.000    3.000    0.000    8.000 
#    0.000    5.000    0.000    0.000    0.000    0.000 
#    0.000    0.000    0.000    0.000    0.000    0.000 
#
# Total GULP energy -248081.983158 kJ/mol
# GULP energy per Si atom -12404.099158 kJ/mol
# Density = 1.840020 g / cm^3
# Si number density = 18.442177 Si / 1000 Ang^3
#
#
#
# Elastic Constant Matrix: (Units=GPa)
#
#
# Indices 1 2 3 4 5 6 
#
# 1 62.9390 51.4007 47.7425 0.0000 -21.2138 0.0000
# 2 51.4007 102.0208 73.8300 0.0000 -9.4102 0.0000
# 3 47.7425 73.8300 148.9393 0.0000 -14.8674 0.0000
# 4 0.0000 0.0000 0.0000 36.3414 0.0000 -9.0338
# 5 -21.2138 -9.4102 -14.8674 0.0000 30.2175 0.0000
# 6 0.0000 0.0000 0.0000 -9.0338 0.0000 14.8093
#
#
#
# Elastic Compliance Matrix: (Units=1/GPa)
#
#
# Indices 1 2 3 4 5 6 
#
# 1 0.036486 -0.014849 -0.002355 0.000000 0.019832 0.000000
# 2 -0.014849 0.021362 -0.006527 0.000000 -0.006983 0.000000
# 3 -0.002355 -0.006527 0.010870 0.000000 0.001662 0.000000
# 4 0.000000 0.000000 0.000000 0.032435 0.000000 0.019786
# 5 0.019832 -0.006983 0.001662 0.000000 0.045659 0.000000
# 6 0.000000 0.000000 0.000000 0.019786 0.000000 0.079594
#
#
# Mechanical properties :
#
#
# Convention : Reuss Voigt Hill
#
# Bulk Modulus (GPa) = 47.04336 73.31616 60.17976
# Shear Modulus (GPa) = 17.79647 25.66871 21.73259
#
# Velocity S-wave (km/s) = 3.10979 3.73480 3.43653
# Velocity P-wave (km/s) = 6.20148 7.64455 6.96052
#
# Compressibility (1/GPa) = 0.02125699
#
# Stress axis : x y z
#
# Youngs Moduli (GPa) = 27.40772 46.81154 91.99332
#
# Poissons Ratio (x) = 0.69510 0.21667
# Poissons Ratio (y) = 0.40698 0.60041
# Poissons Ratio (z) = 0.06455 0.30552
#
# Static dielectric constant tensor:
#      x y z
#    x 3.177230 0.000000 -0.163770 
#    y 0.000000 3.455620 0.000000 
#    z -0.163770 0.000000 3.567570 
# 
# 
# High freq. dielectric constant tensor:
#      x y z
#    x 1.694800 0.000000 -0.015510 
#    y 0.000000 1.722210 0.000000 
#    z -0.015510 0.000000 1.731770 
# 
# From -- ./inp_files/32037.got.cif
#   From: 2010.06.25/outbox.cif.g09.slc.cpg/sg10_17_cif.got.tgz:32037.got - 2010.06.27 22:07:45.
