data_PCOD8063663
_publ_section_title
;
Structure prediction by ZEFSAII (Michael W. Deem and Ramdas Pophale) SiO2 
 PCOD8063663
Probable space group: P 2/M
;
_chemical_formula_sum "Si O2"
_cell_formula_units_Z 32
_cell_length_a 28.828512
_cell_length_b 9.821420
_cell_length_c 11.158494
_cell_angle_alpha 90.000000
_cell_angle_beta 145.301049
_cell_angle_gamma 90.000000
_cell_volume 1798.523736
_symmetry_space_group_name_H-M "P 2/M"
_symmetry_group_IT_number 10
_symmetry_cell_setting 'monoclinic'
loop_
_space_group_symop_operation_xyz
x,y,z
-x,y,-z
-x,-y,-z
x,-y,z
loop_
_atom_site_type_symbol
_atom_site_label
_atom_site_fract_x
_atom_site_fract_y
_atom_site_fract_z
Si Si1 0.945109 0.350294 0.767872
Si Si2 0.132966 0.845971 0.784283
Si Si3 0.996418 0.153637 0.301548
Si Si4 0.374067 0.157645 0.799520
Si Si5 0.455032 0.842606 0.720437
Si Si6 0.759909 0.339908 0.363561
Si Si7 0.568804 0.655794 0.556503
Si Si8 0.739041 0.346200 0.044930
O O1 0.938437 0.500000 0.693884
O O2 0.852711 0.299955 0.596097
O O3 0.996221 0.252209 0.793214
O O4 0.000000 0.358432 0.000000
O O5 0.092185 0.825676 0.827481
O O6 0.066488 0.810472 0.543847
O O7 0.164669 0.000000 0.836938
O O8 0.207639 0.744929 0.930198
O O9 0.005928 0.000000 0.275489
O O10 0.396882 0.187530 0.710098
O O11 0.299345 0.254064 0.676883
O O12 0.348611 0.000000 0.761155
O O13 0.451675 0.190926 0.047783
O O14 0.426206 0.748226 0.550548
O O15 0.446873 0.000000 0.664728
O O16 0.742114 0.500000 0.345419
O O17 0.743794 0.295441 0.192087
O O18 0.500000 0.710403 0.500000
O O19 0.551997 0.500000 0.480498
O O20 0.648835 0.666951 0.805532
O O21 0.771952 0.500000 0.107330
#
# Coordination Sequence:
#
# PCOD8063663 Si02
#       8
#     4   4   4   4   4   4   4   4
#     4  10  21  37  55  77 106 140 178 222 267 314
#     4   9  18  33  54  79 105 134 172 219 263 311
#     4   9  18  34  55  78 104 135 173 215 264 319
#     4   9  19  36  58  81 105 139 180 221 260 307
#     4   9  19  37  57  79 109 141 178 218 260 313
#     4  10  20  35  55  79 106 137 178 221 264 316
#     4  10  21  36  54  79 112 144 176 217 263 313
#     4  10  20  34  53  79 107 139 179 219 263 316
#
# _framework density 17.792370999999999
#
# number of rings (size 3 to 8) (size 9 to 14) (size 15 to 20)
#    0.000    2.500    1.250    2.250    0.000    4.500 
#    2.250    2.500    0.000    0.000    0.000    0.000 
#    0.000    0.000    0.000    0.000    0.000    0.000 
#
# Total GULP energy -396771.677361 kJ/mol
# GULP energy per Si atom -12399.114918 kJ/mol
# Density = 1.775187 g / cm^3
# Si number density = 17.792371 Si / 1000 Ang^3
#
#
#
# Elastic Constant Matrix: (Units=GPa)
#
#
# Indices 1 2 3 4 5 6 
#
# 1 95.7855 60.4050 44.0619 0.0000 7.6254 0.0000
# 2 60.4050 80.1646 39.2559 0.0000 4.1479 0.0000
# 3 44.0619 39.2559 80.0469 0.0000 1.6649 0.0000
# 4 0.0000 0.0000 0.0000 28.9729 0.0000 2.3226
# 5 7.6254 4.1479 1.6649 0.0000 25.2423 0.0000
# 6 0.0000 0.0000 0.0000 2.3226 0.0000 43.6743
#
#
#
# Elastic Compliance Matrix: (Units=1/GPa)
#
#
# Indices 1 2 3 4 5 6 
#
# 1 0.021748 -0.013634 -0.005202 0.000000 -0.003986 0.000000
# 2 -0.013634 0.025083 -0.004803 0.000000 0.000314 0.000000
# 3 -0.005202 -0.004803 0.017687 0.000000 0.001194 0.000000
# 4 0.000000 0.000000 0.000000 0.034663 0.000000 -0.001843
# 5 -0.003986 0.000314 0.001194 0.000000 0.040690 0.000000
# 6 0.000000 0.000000 0.000000 -0.001843 0.000000 0.022995
#
#
# Mechanical properties :
#
#
# Convention : Reuss Voigt Hill
#
# Bulk Modulus (GPa) = 58.00322 60.38250 59.19286
# Shear Modulus (GPa) = 23.15985 27.06284 25.11135
#
# Velocity S-wave (km/s) = 3.61179 3.90428 3.76088
# Velocity P-wave (km/s) = 7.07560 7.37126 7.22494
#
# Compressibility (1/GPa) = 0.01724042
#
# Stress axis : x y z
#
# Youngs Moduli (GPa) = 45.98061 39.86712 56.53926
#
# Poissons Ratio (x) = 0.54354 0.29413
# Poissons Ratio (y) = 0.62689 0.27155
# Poissons Ratio (z) = 0.23920 0.19148
#
# Static dielectric constant tensor:
#      x y z
#    x 3.765870 0.000000 0.045080 
#    y 0.000000 3.362200 0.000000 
#    z 0.045080 0.000000 3.218160 
# 
# 
# High freq. dielectric constant tensor:
#      x y z
#    x 1.686410 0.000000 0.006830 
#    y 0.000000 1.689990 0.000000 
#    z 0.006830 0.000000 1.682940 
# 
# From -- ./inp_files/58354.got.cif
#   From: 2010.06.25/outbox.cif.g09.slc.cpg/sg10_30_cif.got.tgz:58354.got - 2010.06.27 22:07:45.
