data_PCOD8063185
_publ_section_title
;
Structure prediction by ZEFSAII (Michael W. Deem and Ramdas Pophale) SiO2 
 PCOD8063185
Probable space group: P 2/M
;
_chemical_formula_sum "Si O2"
_cell_formula_units_Z 28
_cell_length_a 20.778240
_cell_length_b 9.459630
_cell_length_c 23.608869
_cell_angle_alpha 90.000000
_cell_angle_beta 19.140840
_cell_angle_gamma 90.000000
_cell_volume 1521.556468
_symmetry_space_group_name_H-M "P 2/M"
_symmetry_group_IT_number 10
_symmetry_cell_setting 'monoclinic'
loop_
_space_group_symop_operation_xyz
x,y,z
-x,y,-z
-x,-y,-z
x,-y,z
loop_
_atom_site_type_symbol
_atom_site_label
_atom_site_fract_x
_atom_site_fract_y
_atom_site_fract_z
Si Si1 0.836488 0.333720 0.882575
Si Si2 0.713451 0.151741 0.303490
Si Si3 0.001771 0.664599 0.861924
Si Si4 0.788321 0.348478 0.147505
Si Si5 0.394370 0.666207 0.230649
Si Si6 0.803242 0.158633 0.698564
Si Si7 0.006542 0.334752 0.621374
O O1 0.828928 0.500000 0.895612
O O2 0.943546 0.271533 0.849179
O O3 0.967870 0.291402 0.718813
O O4 0.610324 0.280961 0.069708
O O5 0.500000 0.116173 0.500000
O O6 0.679689 0.223691 0.270178
O O7 0.816183 0.249595 0.264563
O O8 0.825458 0.000000 0.203893
O O9 0.063125 0.500000 0.807729
O O10 0.813832 0.684613 0.059670
O O11 0.678440 0.500000 0.246221
O O12 0.000000 0.359949 0.000000
O O13 0.391374 0.500000 0.218294
O O14 0.352869 0.752958 0.207945
O O15 0.231168 0.699184 0.415247
O O16 0.000000 0.146023 0.500000
O O17 0.847809 0.243983 0.718745
O O18 0.723795 0.000000 0.778225
O O19 0.960818 0.500000 0.649362
#
# Coordination Sequence:
#
# PCOD8063185 Si02
#       7
#     4   4   4   4   4   4   4
#     4   9  18  33  51  74 103 130 163 207 245 293
#     4  10  20  33  50  74 102 129 163 204 243 290
#     4   9  18  34  52  73 101 128 161 204 249 296
#     4   8  15  29  50  73  95 122 156 197 242 286
#     4   9  17  31  51  72  97 129 166 205 246 297
#     4   9  17  30  49  72  99 129 164 211 255 288
#     4   9  17  31  51  73  97 130 167 201 249 297
#
# _framework density 18.402208000000002
#
# number of rings (size 3 to 8) (size 9 to 14) (size 15 to 20)
#    0.000    3.000    0.000    1.714    0.000    6.000 
#    2.571    5.000    0.000    0.000    0.000    0.000 
#    0.000    0.000    0.000    0.000    0.000    0.000 
#
# Total GULP energy -346900.376927 kJ/mol
# GULP energy per Si atom -12389.299176 kJ/mol
# Density = 1.836032 g / cm^3
# Si number density = 18.402208 Si / 1000 Ang^3
#
#
#
# Elastic Constant Matrix: (Units=GPa)
#
#
# Indices 1 2 3 4 5 6 
#
# 1 130.7967 50.2270 36.1770 0.0000 16.4413 0.0000
# 2 50.2270 92.8724 29.8837 0.0000 5.3263 0.0000
# 3 36.1770 29.8837 68.4626 0.0000 7.4804 0.0000
# 4 0.0000 0.0000 0.0000 13.9135 0.0000 -0.1633
# 5 16.4413 5.3263 7.4804 0.0000 24.9789 0.0000
# 6 0.0000 0.0000 0.0000 -0.1633 0.0000 -27.4499
#
#
#
# Elastic Compliance Matrix: (Units=1/GPa)
#
#
# Indices 1 2 3 4 5 6 
#
# 1 0.010960 -0.004592 -0.003211 0.000000 -0.005273 0.000000
# 2 -0.004592 0.014478 -0.004018 0.000000 0.001138 0.000000
# 3 -0.003211 -0.004018 0.018332 0.000000 -0.002520 0.000000
# 4 0.000000 0.000000 0.000000 0.071867 0.000000 -0.000428
# 5 -0.005273 0.001138 -0.002520 0.000000 0.044016 0.000000
# 6 0.000000 0.000000 0.000000 -0.000428 0.000000 -0.036427
#
#
# Mechanical properties :
#
#
# Convention : Reuss Voigt Hill
#
# Bulk Modulus (GPa) = 49.67813 58.30079 53.98946
# Shear Modulus (GPa) = 32.55702 14.01144 23.28423
#
# Velocity S-wave (km/s) = 4.21074 2.76234 3.56096
# Velocity P-wave (km/s) = 7.12003 6.47489 6.80511
#
# Compressibility (1/GPa) = 0.02012958
#
# Stress axis : x y z
#
# Youngs Moduli (GPa) = 91.24444 69.06949 54.54861
#
# Poissons Ratio (x) = 0.31713 0.17515
# Poissons Ratio (y) = 0.41895 0.21916
# Poissons Ratio (z) = 0.29298 0.27750
#
# Static dielectric constant tensor:
#      x y z
#    x 3.694550 0.000000 0.248890 
#    y 0.000000 3.523600 0.000000 
#    z 0.248890 0.000000 3.267920 
# 
# 
# High freq. dielectric constant tensor:
#      x y z
#    x 1.704610 0.000000 0.015250 
#    y 0.000000 1.702190 0.000000 
#    z 0.015250 0.000000 1.695970 
# 
# From -- ./inp_files/38013.got.cif
#   From: 2010.06.25/outbox.cif.g09.slc.cpg/sg10_20_cif.got.tgz:38013.got - 2010.06.27 22:07:45.
