data_PCOD8063709
_publ_section_title
;
Structure prediction by ZEFSAII (Michael W. Deem and Ramdas Pophale) SiO2 
 PCOD8063709
Probable space group: P 2/M
;
_chemical_formula_sum "Si O2"
_cell_formula_units_Z 28
_cell_length_a 29.527199
_cell_length_b 8.939516
_cell_length_c 9.402184
_cell_angle_alpha 90.000000
_cell_angle_beta 142.694322
_cell_angle_gamma 90.000000
_cell_volume 1504.131493
_symmetry_space_group_name_H-M "P 2/M"
_symmetry_group_IT_number 10
_symmetry_cell_setting 'monoclinic'
loop_
_space_group_symop_operation_xyz
x,y,z
-x,y,-z
-x,-y,-z
x,-y,z
loop_
_atom_site_type_symbol
_atom_site_label
_atom_site_fract_x
_atom_site_fract_y
_atom_site_fract_z
Si Si1 0.930267 0.321840 0.735892
Si Si2 0.372950 0.676584 0.533267
Si Si3 0.793914 0.324019 0.892459
Si Si4 0.211133 0.676933 0.440752
Si Si5 0.494087 0.827440 0.648824
Si Si6 0.364974 0.825668 0.809116
Si Si7 0.929308 0.678677 0.412625
O O1 0.933176 0.500000 0.744108
O O2 0.853175 0.266410 0.613906
O O3 0.934319 0.259137 0.585648
O O4 0.000000 0.257653 0.000000
O O5 0.376332 0.500000 0.565019
O O6 0.289870 0.727562 0.276577
O O7 0.430178 0.725532 0.556192
O O8 0.393252 0.752205 0.733615
O O9 0.800862 0.500000 0.922057
O O10 0.812474 0.275051 0.777547
O O11 0.854506 0.254153 0.151969
O O12 0.223626 0.500000 0.481720
O O13 0.288484 0.755048 0.676668
O O14 0.500000 0.782263 0.500000
O O15 0.471230 0.000000 0.611664
O O16 0.573215 0.793042 0.918027
O O17 0.353016 0.000000 0.751900
O O18 0.928189 0.500000 0.411907
O O19 0.000000 0.737375 0.500000
#
# Coordination Sequence:
#
# PCOD8063709 Si02
#       7
#     4   4   4   4   4   4   4
#     4   9  16  25  40  65  96 129 161 196 242 290
#     4  10  20  34  54  78 103 130 164 209 255 300
#     4   8  15  27  41  62  92 122 152 191 239 285
#     4   9  17  30  48  70  98 127 159 203 247 290
#     4  10  22  38  53  72 101 135 170 208 249 297
#     4  10  20  35  55  75  98 132 170 205 247 302
#     4   9  15  23  38  61  92 128 160 191 233 288
#
# _framework density 18.615394999999999
#
# number of rings (size 3 to 8) (size 9 to 14) (size 15 to 20)
#    0.000    2.714    0.000    3.000    0.000    7.714 
#    0.000    1.429    0.000    0.429    0.000    0.000 
#    0.000   19.429    0.000    0.000    0.000    0.000 
#
# Total GULP energy -347176.270790 kJ/mol
# GULP energy per Si atom -12399.152528 kJ/mol
# Density = 1.857303 g / cm^3
# Si number density = 18.615395 Si / 1000 Ang^3
#
#
#
# Elastic Constant Matrix: (Units=GPa)
#
#
# Indices 1 2 3 4 5 6 
#
# 1 166.2361 38.0669 91.6257 0.0000 2.8450 0.0000
# 2 38.0669 41.5791 39.3588 0.0000 4.5182 0.0000
# 3 91.6257 39.3588 164.6077 0.0000 -7.5610 0.0000
# 4 0.0000 0.0000 0.0000 13.8540 0.0000 -3.2614
# 5 2.8450 4.5182 -7.5610 0.0000 26.4975 0.0000
# 6 0.0000 0.0000 0.0000 -3.2614 0.0000 12.4461
#
#
#
# Elastic Compliance Matrix: (Units=1/GPa)
#
#
# Indices 1 2 3 4 5 6 
#
# 1 0.009388 -0.004429 -0.004234 0.000000 -0.001461 0.000000
# 2 -0.004429 0.034728 -0.006170 0.000000 -0.007207 0.000000
# 3 -0.004234 -0.006170 0.010109 0.000000 0.004391 0.000000
# 4 0.000000 0.000000 0.000000 0.076927 0.000000 0.020158
# 5 -0.001461 -0.007207 0.004391 0.000000 0.040378 0.000000
# 6 0.000000 0.000000 0.000000 0.020158 0.000000 0.085629
#
#
# Mechanical properties :
#
#
# Convention : Reuss Voigt Hill
#
# Bulk Modulus (GPa) = 40.71524 78.94729 59.83127
# Shear Modulus (GPa) = 16.94850 24.11761 20.53306
#
# Velocity S-wave (km/s) = 3.02065 3.60331 3.32477
# Velocity P-wave (km/s) = 5.83824 7.73392 6.85196
#
# Compressibility (1/GPa) = 0.02456083
#
# Stress axis : x y z
#
# Youngs Moduli (GPa) = 106.51450 28.79480 98.92373
#
# Poissons Ratio (x) = 0.12752 0.41885
# Poissons Ratio (y) = 0.47171 0.61034
# Poissons Ratio (z) = 0.45099 0.17766
#
# Static dielectric constant tensor:
#      x y z
#    x 3.570680 0.000000 0.035650 
#    y 0.000000 2.974120 0.000000 
#    z 0.035650 0.000000 3.681330 
# 
# 
# High freq. dielectric constant tensor:
#      x y z
#    x 1.728020 0.000000 0.006040 
#    y 0.000000 1.674310 0.000000 
#    z 0.006040 0.000000 1.734290 
# 
# From -- ./inp_files/37246.got.cif
#   From: 2010.06.25/outbox.cif.g09.slc.cpg/sg10_19_cif.got.tgz:37246.got - 2010.06.27 22:07:45.
