data_PCOD8063445
_publ_section_title
;
Structure prediction by ZEFSAII (Michael W. Deem and Ramdas Pophale) SiO2 
 PCOD8063445
Probable space group: P 2/M
;
_chemical_formula_sum "Si O2"
_cell_formula_units_Z 28
_cell_length_a 18.105872
_cell_length_b 9.374880
_cell_length_c 21.201012
_cell_angle_alpha 90.000000
_cell_angle_beta 153.169188
_cell_angle_gamma 90.000000
_cell_volume 1624.285626
_symmetry_space_group_name_H-M "P 2/M"
_symmetry_group_IT_number 10
_symmetry_cell_setting 'monoclinic'
loop_
_space_group_symop_operation_xyz
x,y,z
-x,y,-z
-x,-y,-z
x,-y,z
loop_
_atom_site_type_symbol
_atom_site_label
_atom_site_fract_x
_atom_site_fract_y
_atom_site_fract_z
Si Si1 0.503767 0.669098 0.348528
Si Si2 0.835935 0.669013 0.843302
Si Si3 0.331234 0.666933 0.403828
Si Si4 0.505602 0.663793 0.901305
Si Si5 0.413363 0.168235 0.714172
Si Si6 0.956943 0.833485 0.536931
Si Si7 0.238586 0.337291 0.799163
O O1 0.517145 0.500000 0.345264
O O2 0.323421 0.707588 0.237005
O O3 0.648056 0.719987 0.507894
O O4 0.528110 0.759520 0.304881
O O5 0.855061 0.500000 0.854406
O O6 0.811412 0.728505 0.751772
O O7 0.000000 0.736189 0.000000
O O8 0.500000 0.706271 0.500000
O O9 0.305566 0.500000 0.387274
O O10 0.480361 0.500000 0.860774
O O11 0.518799 0.766462 0.851405
O O12 0.357941 0.713811 0.833956
O O13 0.674981 0.680381 0.067685
O O14 0.225780 0.208005 0.583886
O O15 0.443316 0.000000 0.733591
O O16 0.000000 0.776491 0.500000
O O17 0.076189 0.757275 0.677286
O O18 0.989605 0.000000 0.566589
O O19 0.188224 0.500000 0.749325
#
# Coordination Sequence:
#
# PCOD8063445 Si02
#       7
#     4   4   4   4   4   4   4
#     4   9  17  30  48  70  98 129 159 197 244 292
#     4   8  13  24  47  77 100 120 154 199 240 281
#     4   7  11  22  42  67  93 121 152 184 225 280
#     4   9  18  33  51  73  98 123 157 203 255 306
#     4  11  22  34  49  70  99 135 171 207 249 297
#     4  10  20  34  49  69  96 128 170 211 245 291
#     4   9  18  32  52  75  95 118 156 209 260 302
#
# _framework density 17.238347999999998
#
# number of rings (size 3 to 8) (size 9 to 14) (size 15 to 20)
#    0.000    3.000    1.429    3.000    0.000    2.000 
#    0.000    2.857    0.000    7.714    0.000    0.000 
#    0.000    0.000    0.000    0.000    0.000    0.000 
#
# Total GULP energy -346900.094886 kJ/mol
# GULP energy per Si atom -12389.289103 kJ/mol
# Density = 1.719911 g / cm^3
# Si number density = 17.238348 Si / 1000 Ang^3
#
#
#
# Elastic Constant Matrix: (Units=GPa)
#
#
# Indices 1 2 3 4 5 6 
#
# 1 93.6793 37.9309 50.4888 0.0000 -22.1343 0.0000
# 2 37.9309 44.3512 38.2686 0.0000 -8.5914 0.0000
# 3 50.4888 38.2686 126.0322 0.0000 -19.6149 0.0000
# 4 0.0000 0.0000 0.0000 19.3085 0.0000 5.3393
# 5 -22.1343 -8.5914 -19.6149 0.0000 26.8970 0.0000
# 6 0.0000 0.0000 0.0000 5.3393 0.0000 10.0440
#
#
#
# Elastic Compliance Matrix: (Units=1/GPa)
#
#
# Indices 1 2 3 4 5 6 
#
# 1 0.019500 -0.012637 -0.002375 0.000000 0.010279 0.000000
# 2 -0.012637 0.039015 -0.007291 0.000000 -0.003254 0.000000
# 3 -0.002375 -0.007291 0.011769 0.000000 0.004299 0.000000
# 4 0.000000 0.000000 0.000000 0.060716 0.000000 -0.032276
# 5 0.010279 -0.003254 0.004299 0.000000 0.047733 0.000000
# 6 0.000000 0.000000 0.000000 -0.032276 0.000000 0.116719
#
#
# Mechanical properties :
#
#
# Convention : Reuss Voigt Hill
#
# Bulk Modulus (GPa) = 38.94217 57.49326 48.21772
# Shear Modulus (GPa) = 14.34239 20.40819 17.37529
#
# Velocity S-wave (km/s) = 2.88758 3.44449 3.17826
# Velocity P-wave (km/s) = 5.81007 7.01739 6.44208
#
# Compressibility (1/GPa) = 0.02567910
#
# Stress axis : x y z
#
# Youngs Moduli (GPa) = 51.28194 25.63093 84.97058
#
# Poissons Ratio (x) = 0.32389 0.20180
# Poissons Ratio (y) = 0.64804 0.61950
# Poissons Ratio (z) = 0.12179 0.18687
#
# Static dielectric constant tensor:
#      x y z
#    x 3.064860 0.000000 -0.249920 
#    y 0.000000 2.862310 0.000000 
#    z -0.249920 0.000000 3.603030 
# 
# 
# High freq. dielectric constant tensor:
#      x y z
#    x 1.644190 0.000000 -0.020860 
#    y 0.000000 1.630570 0.000000 
#    z -0.020860 0.000000 1.675620 
# 
# From -- ./inp_files/79308.got.cif
#   From: 2010.06.25/outbox.cif.g09.slc.cpg/sg10_40_cif.got.tgz:79308.got - 2010.06.27 22:07:45.
