data_PCOD8063923
_publ_section_title
;
Structure prediction by ZEFSAII (Michael W. Deem and Ramdas Pophale) SiO2 
 PCOD8063923
Probable space group: P 2/M
;
_chemical_formula_sum "Si O2"
_cell_formula_units_Z 32
_cell_length_a 24.203514
_cell_length_b 9.187544
_cell_length_c 14.230637
_cell_angle_alpha 90.000000
_cell_angle_beta 29.884352
_cell_angle_gamma 90.000000
_cell_volume 1576.704633
_symmetry_space_group_name_H-M "P 2/M"
_symmetry_group_IT_number 10
_symmetry_cell_setting 'monoclinic'
loop_
_space_group_symop_operation_xyz
x,y,z
-x,y,-z
-x,-y,-z
x,-y,z
loop_
_atom_site_type_symbol
_atom_site_label
_atom_site_fract_x
_atom_site_fract_y
_atom_site_fract_z
Si Si1 0.260372 0.664611 0.694817
Si Si2 0.047630 0.168852 0.029440
Si Si3 0.136707 0.829922 0.543769
Si Si4 0.518355 0.832872 0.582642
Si Si5 0.299663 0.336104 0.429276
Si Si6 0.116633 0.668651 0.378150
Si Si7 0.496816 0.834588 0.897819
Si Si8 0.320410 0.833416 0.008963
O O1 0.265338 0.500000 0.725399
O O2 0.377073 0.738098 0.543441
O O3 0.231461 0.667678 0.626548
O O4 0.159700 0.747811 0.893508
O O5 0.962898 0.200618 0.237915
O O6 0.077631 0.000000 0.976735
O O7 0.000000 0.225116 0.000000
O O8 0.247262 0.763932 0.426035
O O9 0.110467 0.753936 0.484724
O O10 0.156636 0.000000 0.496649
O O11 0.500000 0.814280 0.500000
O O12 0.407759 0.780307 0.800882
O O13 0.542193 0.000000 0.575786
O O14 0.309608 0.500000 0.375861
O O15 0.419651 0.271518 0.279762
O O16 0.142457 0.500000 0.359361
O O17 0.000000 0.690619 0.500000
O O18 0.211431 0.733283 0.169565
O O19 0.375518 0.818204 0.031168
O O20 0.539047 0.000000 0.825373
O O21 0.500000 0.782552 0.000000
O O22 0.284803 0.000000 0.041971
#
# Coordination Sequence:
#
# PCOD8063923 Si02
#       8
#     4   4   4   4   4   4   4   4
#     4  11  23  37  58  89 125 165 203 248 308 367
#     4  10  21  38  61  89 123 165 210 256 307 365
#     4  11  23  40  65  93 122 162 211 260 308 364
#     4  10  22  41  65  92 123 162 209 257 304 360
#     4  11  22  35  56  88 125 162 198 244 306 369
#     4  11  26  46  66  90 124 164 205 256 314 369
#     4  10  20  34  56  87 119 156 202 249 300 358
#     4  10  21  39  64  92 122 159 205 257 305 357
#
# _framework density 20.295494000000001
#
# number of rings (size 3 to 8) (size 9 to 14) (size 15 to 20)
#    0.000    1.500    2.500    2.250    0.000    6.750 
#    0.000    3.750    0.000    0.000    0.000    0.000 
#    0.000    0.000    0.000    0.000    0.000    0.000 
#
# Total GULP energy -396874.906370 kJ/mol
# GULP energy per Si atom -12402.340824 kJ/mol
# Density = 2.024930 g / cm^3
# Si number density = 20.295494 Si / 1000 Ang^3
#
#
#
# Elastic Constant Matrix: (Units=GPa)
#
#
# Indices 1 2 3 4 5 6 
#
# 1 65.1454 36.5972 30.1813 0.0000 -2.4655 0.0000
# 2 36.5972 121.9391 67.6447 0.0000 -15.7705 0.0000
# 3 30.1813 67.6447 118.4238 0.0000 -14.4552 0.0000
# 4 0.0000 0.0000 0.0000 18.4977 0.0000 -1.3563
# 5 -2.4655 -15.7705 -14.4552 0.0000 29.1789 0.0000
# 6 0.0000 0.0000 0.0000 -1.3563 0.0000 26.3881
#
#
#
# Elastic Compliance Matrix: (Units=1/GPa)
#
#
# Indices 1 2 3 4 5 6 
#
# 1 0.019002 -0.004606 -0.002469 0.000000 -0.002107 0.000000
# 2 -0.004606 0.013425 -0.006021 0.000000 0.003884 0.000000
# 3 -0.002469 -0.006021 0.012868 0.000000 0.002912 0.000000
# 4 0.000000 0.000000 0.000000 0.054265 0.000000 0.002789
# 5 -0.002107 0.003884 0.002912 0.000000 0.037635 0.000000
# 6 0.000000 0.000000 0.000000 0.002789 0.000000 0.038039
#
#
# Mechanical properties :
#
#
# Convention : Reuss Voigt Hill
#
# Bulk Modulus (GPa) = 52.34473 63.81722 58.08098
# Shear Modulus (GPa) = 24.06221 26.21860 25.14041
#
# Velocity S-wave (km/s) = 3.44698 3.59812 3.52336
# Velocity P-wave (km/s) = 6.45674 6.98386 6.72547
#
# Compressibility (1/GPa) = 0.01910412
#
# Stress axis : x y z
#
# Youngs Moduli (GPa) = 52.62640 74.48529 77.71136
#
# Poissons Ratio (x) = 0.34306 0.19188
# Poissons Ratio (y) = 0.24238 0.46789
# Poissons Ratio (z) = 0.12994 0.44846
#
# Static dielectric constant tensor:
#      x y z
#    x 3.583220 0.000000 0.113860 
#    y 0.000000 3.694260 0.000000 
#    z 0.113860 0.000000 3.725960 
# 
# 
# High freq. dielectric constant tensor:
#      x y z
#    x 1.784500 0.000000 0.002640 
#    y 0.000000 1.792530 0.000000 
#    z 0.002640 0.000000 1.801910 
# 
# From -- ./inp_files/71424.got.cif
#   From: 2010.06.25/outbox.cif.g09.slc.cpg/sg10_36_cif.got.tgz:71424.got - 2010.06.27 22:07:45.
