data_PCOD8063758
_publ_section_title
;
Structure prediction by ZEFSAII (Michael W. Deem and Ramdas Pophale) SiO2 
 PCOD8063758
Probable space group: P 2/M
;
_chemical_formula_sum "Si O2"
_cell_formula_units_Z 32
_cell_length_a 30.953061
_cell_length_b 8.830858
_cell_length_c 12.275933
_cell_angle_alpha 90.000000
_cell_angle_beta 150.708374
_cell_angle_gamma 90.000000
_cell_volume 1641.709376
_symmetry_space_group_name_H-M "P 2/M"
_symmetry_group_IT_number 10
_symmetry_cell_setting 'monoclinic'
loop_
_space_group_symop_operation_xyz
x,y,z
-x,y,-z
-x,-y,-z
x,-y,z
loop_
_atom_site_type_symbol
_atom_site_label
_atom_site_fract_x
_atom_site_fract_y
_atom_site_fract_z
Si Si1 0.923516 0.820319 0.748654
Si Si2 0.512698 0.329542 0.320584
Si Si3 0.665114 0.330215 0.964292
Si Si4 0.738662 0.677252 0.361761
Si Si5 0.679900 0.825638 0.781134
Si Si6 0.965586 0.179834 0.599739
Si Si7 0.126346 0.177393 0.816529
Si Si8 0.566631 0.823172 0.054988
O O1 0.831825 0.754443 0.592768
O O2 0.943516 0.753423 0.671140
O O3 0.915519 0.000000 0.728810
O O4 0.000000 0.768013 0.000000
O O5 0.516123 0.500000 0.279369
O O6 0.441145 0.323972 0.259673
O O7 0.608130 0.286374 0.574884
O O8 0.483287 0.209246 0.166739
O O9 0.693589 0.500000 0.991612
O O10 0.693761 0.206386 0.939374
O O11 0.711762 0.283989 0.179095
O O12 0.746204 0.500000 0.398931
O O13 0.661612 0.740532 0.271399
O O14 0.652593 0.000000 0.703825
O O15 0.773159 0.786608 0.928901
O O16 0.062286 0.238057 0.771524
O O17 0.897452 0.241063 0.357169
O O18 0.963688 0.000000 0.606669
O O19 0.110243 0.000000 0.770585
O O20 0.584694 0.000000 0.107866
O O21 0.500000 0.761584 0.000000
#
# Coordination Sequence:
#
# PCOD8063758 Si02
#       8
#     4   4   4   4   4   4   4   4
#     4  10  20  34  54  82 111 140 181 234 285 328
#     4  10  21  36  52  73 108 147 179 215 264 329
#     4   9  19  34  51  72 101 141 181 218 267 324
#     4  10  21  37  58  82 110 146 184 222 271 337
#     4  11  20  29  47  79 110 138 177 225 272 321
#     4   8  14  29  50  70  99 136 175 221 271 323
#     4   8  15  27  46  72  99 134 176 218 269 322
#     4  10  21  39  62  85 107 136 180 234 277 318
#
# _framework density 19.491878
#
# number of rings (size 3 to 8) (size 9 to 14) (size 15 to 20)
#    0.000    2.500    0.000    4.125    0.000    6.750 
#    2.250    0.000    0.000    1.500    0.000    6.125 
#    0.000    0.000    0.000    0.000    0.000    0.000 
#
# Total GULP energy -396664.046614 kJ/mol
# GULP energy per Si atom -12395.751457 kJ/mol
# Density = 1.944751 g / cm^3
# Si number density = 19.491878 Si / 1000 Ang^3
#
#
#
# Elastic Constant Matrix: (Units=GPa)
#
#
# Indices 1 2 3 4 5 6 
#
# 1 98.8484 23.1145 41.1845 0.0000 16.1314 0.0000
# 2 23.1145 38.4569 27.4135 0.0000 10.2360 0.0000
# 3 41.1845 27.4135 114.7459 0.0000 26.6955 0.0000
# 4 0.0000 0.0000 0.0000 23.4760 0.0000 -1.0884
# 5 16.1314 10.2360 26.6955 0.0000 26.6684 0.0000
# 6 0.0000 0.0000 0.0000 -1.0884 0.0000 7.0384
#
#
#
# Elastic Compliance Matrix: (Units=1/GPa)
#
#
# Indices 1 2 3 4 5 6 
#
# 1 0.012933 -0.004994 -0.002705 0.000000 -0.003199 0.000000
# 2 -0.004994 0.034000 -0.005211 0.000000 -0.004813 0.000000
# 3 -0.002705 -0.005211 0.013146 0.000000 -0.009523 0.000000
# 4 0.000000 0.000000 0.000000 0.042904 0.000000 0.006635
# 5 -0.003199 -0.004813 -0.009523 0.000000 0.050813 0.000000
# 6 0.000000 0.000000 0.000000 0.006635 0.000000 0.143104
#
#
# Mechanical properties :
#
#
# Convention : Reuss Voigt Hill
#
# Bulk Modulus (GPa) = 29.18764 48.38625 38.78695
# Shear Modulus (GPa) = 14.96379 22.12582 18.54480
#
# Velocity S-wave (km/s) = 2.77373 3.37282 3.08784
# Velocity P-wave (km/s) = 5.02642 6.32816 5.71448
#
# Compressibility (1/GPa) = 0.03426107
#
# Stress axis : x y z
#
# Youngs Moduli (GPa) = 77.32026 29.41148 76.06810
#
# Poissons Ratio (x) = 0.14688 0.20574
# Poissons Ratio (y) = 0.38615 0.39636
# Poissons Ratio (z) = 0.20912 0.15325
#
# Static dielectric constant tensor:
#      x y z
#    x 3.727990 0.000000 0.221940 
#    y 0.000000 3.207290 0.000000 
#    z 0.221940 0.000000 3.546310 
# 
# 
# High freq. dielectric constant tensor:
#      x y z
#    x 1.752850 0.000000 0.018490 
#    y 0.000000 1.733430 0.000000 
#    z 0.018490 0.000000 1.757730 
# 
# From -- ./inp_files/58258.got.cif
#   From: 2010.06.25/outbox.cif.g09.slc.cpg/sg10_30_cif.got.tgz:58258.got - 2010.06.27 22:07:45.
