data_PCOD8063141
_publ_section_title
;
Structure prediction by ZEFSAII (Michael W. Deem and Ramdas Pophale) SiO2 
 PCOD8063141
Probable space group: P 2/M
;
_chemical_formula_sum "Si O2"
_cell_formula_units_Z 32
_cell_length_a 27.624117
_cell_length_b 9.346184
_cell_length_c 10.935838
_cell_angle_alpha 90.000000
_cell_angle_beta 36.131015
_cell_angle_gamma 90.000000
_cell_volume 1664.780798
_symmetry_space_group_name_H-M "P 2/M"
_symmetry_group_IT_number 10
_symmetry_cell_setting 'monoclinic'
loop_
_space_group_symop_operation_xyz
x,y,z
-x,y,-z
-x,-y,-z
x,-y,z
loop_
_atom_site_type_symbol
_atom_site_label
_atom_site_fract_x
_atom_site_fract_y
_atom_site_fract_z
Si Si1 0.377598 0.836662 0.705184
Si Si2 0.780097 0.839943 0.115772
Si Si3 0.544883 0.662504 0.665556
Si Si4 0.700384 0.666754 0.486371
Si Si5 0.370330 0.663814 0.957991
Si Si6 0.033199 0.833677 0.300591
Si Si7 0.961287 0.329907 0.211570
Si Si8 0.773520 0.329995 0.583658
O O1 0.281073 0.820869 0.873373
O O2 0.433239 0.769899 0.486806
O O3 0.396825 0.755864 0.789570
O O4 0.404451 0.000000 0.665375
O O5 0.758069 0.727983 0.264054
O O6 0.772289 0.000000 0.186319
O O7 0.870314 0.809464 0.883017
O O8 0.564732 0.500000 0.582626
O O9 0.603444 0.700190 0.662039
O O10 0.447686 0.676221 0.895452
O O11 0.718111 0.500000 0.452556
O O12 0.731627 0.736124 0.548308
O O13 0.358219 0.500000 0.942182
O O14 0.285331 0.724164 0.187039
O O15 0.002945 0.746120 0.243135
O O16 0.000000 0.777664 0.500000
O O17 0.009434 0.000000 0.329434
O O18 0.969660 0.500000 0.212222
O O19 0.866759 0.277248 0.406700
O O20 0.000000 0.285534 0.000000
O O21 0.770789 0.500000 0.584073
#
# Coordination Sequence:
#
# PCOD8063141 Si02
#       8
#     4   4   4   4   4   4   4   4
#     4  10  20  33  52  75 102 137 175 213 256 310
#     4   9  19  35  53  75 103 134 170 215 264 311
#     4   9  18  32  52  77 102 134 175 215 256 305
#     4   9  17  33  56  78 100 133 176 214 255 308
#     4  10  20  33  49  73 107 139 170 213 260 307
#     4  10  22  38  57  81 111 144 180 228 280 330
#     4  10  21  38  59  83 112 146 185 228 275 332
#     4   9  19  34  53  78 107 137 171 216 264 310
#
# _framework density 19.22175
#
# number of rings (size 3 to 8) (size 9 to 14) (size 15 to 20)
#    0.000    2.500    0.000    1.500    1.750    5.000 
#    0.000    3.750    0.000    0.000    0.000    4.375 
#    0.000    0.000    0.000    0.000    0.000    0.000 
#
# Total GULP energy -396572.768133 kJ/mol
# GULP energy per Si atom -12392.899004 kJ/mol
# Density = 1.917800 g / cm^3
# Si number density = 19.221750 Si / 1000 Ang^3
#
#
#
# Elastic Constant Matrix: (Units=GPa)
#
#
# Indices 1 2 3 4 5 6 
#
# 1 102.4126 30.7162 43.1286 0.0000 -6.8584 0.0000
# 2 30.7162 48.0713 23.9017 0.0000 -0.4979 0.0000
# 3 43.1286 23.9017 96.3146 0.0000 -23.1820 0.0000
# 4 0.0000 0.0000 0.0000 2.9871 0.0000 -19.0079
# 5 -6.8584 -0.4979 -23.1820 0.0000 31.2703 0.0000
# 6 0.0000 0.0000 0.0000 -19.0079 0.0000 -0.1417
#
#
#
# Elastic Compliance Matrix: (Units=1/GPa)
#
#
# Indices 1 2 3 4 5 6 
#
# 1 0.013596 -0.006387 -0.004637 0.000000 -0.000557 0.000000
# 2 -0.006387 0.027353 -0.005064 0.000000 -0.004719 0.000000
# 3 -0.004637 -0.005064 0.016373 0.000000 0.011040 0.000000
# 4 0.000000 0.000000 0.000000 0.000392 0.000000 -0.052548
# 5 -0.000557 -0.004719 0.011040 0.000000 0.039966 0.000000
# 6 0.000000 0.000000 0.000000 -0.052548 0.000000 -0.008258
#
#
# Mechanical properties :
#
#
# Convention : Reuss Voigt Hill
#
# Bulk Modulus (GPa) = 39.76906 49.14349 44.45628
# Shear Modulus (GPa) = 38.46777 16.75994 27.61385
#
# Velocity S-wave (km/s) = 4.47840 2.95604 3.79435
# Velocity P-wave (km/s) = 6.89028 6.10516 6.50957
#
# Compressibility (1/GPa) = 0.02514517
#
# Stress axis : x y z
#
# Youngs Moduli (GPa) = 73.55319 36.55965 61.07647
#
# Poissons Ratio (x) = 0.23352 0.28321
# Poissons Ratio (y) = 0.46981 0.30926
# Poissons Ratio (z) = 0.34107 0.18512
#
# Static dielectric constant tensor:
#      x y z
#    x 3.691340 0.000000 -0.230600 
#    y 0.000000 3.358240 0.000000 
#    z -0.230600 0.000000 3.607840 
# 
# 
# High freq. dielectric constant tensor:
#      x y z
#    x 1.754360 0.000000 -0.018410 
#    y 0.000000 1.726550 0.000000 
#    z -0.018410 0.000000 1.749080 
# 
# From -- ./inp_files/58142.got.cif
#   From: 2010.06.25/outbox.cif.g09.slc.cpg/sg10_30_cif.got.tgz:58142.got - 2010.06.27 22:07:45.
