data_PCOD8063737
_publ_section_title
;
Structure prediction by ZEFSAII (Michael W. Deem and Ramdas Pophale) SiO2 
 PCOD8063737
Probable space group: P 2/M
;
_chemical_formula_sum "Si O2"
_cell_formula_units_Z 32
_cell_length_a 21.989262
_cell_length_b 9.245770
_cell_length_c 23.390946
_cell_angle_alpha 90.000000
_cell_angle_beta 160.064305
_cell_angle_gamma 90.000000
_cell_volume 1621.480322
_symmetry_space_group_name_H-M "P 2/M"
_symmetry_group_IT_number 10
_symmetry_cell_setting 'monoclinic'
loop_
_space_group_symop_operation_xyz
x,y,z
-x,y,-z
-x,-y,-z
x,-y,z
loop_
_atom_site_type_symbol
_atom_site_label
_atom_site_fract_x
_atom_site_fract_y
_atom_site_fract_z
Si Si1 0.450252 0.664353 0.691050
Si Si2 0.540294 0.167645 0.187732
Si Si3 0.068009 0.828183 0.500000
Si Si4 0.068153 0.335647 0.308951
Si Si5 0.064003 0.165520 0.192878
Si Si6 0.678247 0.165520 0.807122
Si Si7 0.311464 0.828485 0.311464
Si Si8 0.164829 0.167645 0.812268
O O1 0.519123 0.500000 0.754920
O O2 0.515489 0.747456 0.804804
O O3 0.236691 0.671210 0.500000
O O4 0.526578 0.738046 0.701645
O O5 0.728828 0.226568 0.330058
O O6 0.559429 0.000000 0.221407
O O7 0.380275 0.189446 0.000000
O O8 0.000000 0.762966 0.500000
O O9 0.931287 0.773434 0.330058
O O10 0.065152 0.000000 0.500003
O O11 0.009284 0.500000 0.245081
O O12 0.123287 0.261953 0.298355
O O13 0.905881 0.252546 0.195197
O O14 0.158395 0.227580 0.219128
O O15 0.123577 0.000000 0.256771
O O16 0.853065 0.176821 1.000000
O O17 0.720139 0.227580 0.780872
O O18 0.610034 0.000000 0.743229
O O19 0.500000 0.768945 0.500000
O O20 0.305413 0.000000 0.305413
O O21 0.116616 0.000000 0.778595
#
# Coordination Sequence:
#
# PCOD8063737 Si02
#       8
#     4   4   4   4   4   4   4   4
#     4  11  23  37  54  78 109 146 187 231 279 328
#     4  10  20  35  58  86 114 148 188 227 273 329
#     4   9  18  34  57  87 121 150 179 224 275 321
#     4  11  23  37  54  78 109 146 187 231 279 328
#     4  10  20  34  54  80 108 139 178 225 277 333
#     4  10  20  34  54  80 108 139 178 225 277 333
#     4   9  17  31  52  77 104 137 176 220 272 329
#     4  10  20  35  58  86 114 148 188 227 273 329
#
# _framework density 19.735054000000002
#
# number of rings (size 3 to 8) (size 9 to 14) (size 15 to 20)
#    0.000    2.000    1.250    2.625    0.000    8.500 
#    0.000    3.125    0.000    5.250    0.000    1.750 
#    0.000    0.000    0.000    0.000    0.000    0.000 
#
# Total GULP energy -396822.740182 kJ/mol
# GULP energy per Si atom -12400.710631 kJ/mol
# Density = 1.969014 g / cm^3
# Si number density = 19.735054 Si / 1000 Ang^3
#
#
#
# Elastic Constant Matrix: (Units=GPa)
#
#
# Indices 1 2 3 4 5 6 
#
# 1 138.5675 44.1105 48.4518 0.0000 -2.8962 0.0000
# 2 44.1105 68.0809 31.4452 0.0000 -1.0918 0.0000
# 3 48.4518 31.4452 109.4113 0.0000 0.3827 0.0000
# 4 0.0000 0.0000 0.0000 17.7479 0.0000 1.4606
# 5 -2.8962 -1.0918 0.3827 0.0000 28.5418 0.0000
# 6 0.0000 0.0000 0.0000 1.4606 0.0000 0.8044
#
#
#
# Elastic Compliance Matrix: (Units=1/GPa)
#
#
# Indices 1 2 3 4 5 6 
#
# 1 0.009855 -0.005021 -0.002924 0.000000 0.000847 0.000000
# 2 -0.005021 0.019509 -0.003385 0.000000 0.000282 0.000000
# 3 -0.002924 -0.003385 0.011410 0.000000 -0.000579 0.000000
# 4 0.000000 0.000000 0.000000 0.066244 0.000000 -0.120290
# 5 0.000847 0.000282 -0.000579 0.000000 0.035141 0.000000
# 6 0.000000 0.000000 0.000000 -0.120290 0.000000 1.461628
#
#
# Mechanical properties :
#
#
# Convention : Reuss Voigt Hill
#
# Bulk Modulus (GPa) = 55.20425 62.67497 58.93961
# Shear Modulus (GPa) = 3.06282 22.22231 12.64256
#
# Velocity S-wave (km/s) = 1.24713 3.35928 2.53378
# Velocity P-wave (km/s) = 5.48700 6.84642 6.20406
#
# Compressibility (1/GPa) = 0.01811455
#
# Stress axis : x y z
#
# Youngs Moduli (GPa) = 101.46850 51.25728 87.64618
#
# Poissons Ratio (x) = 0.25737 0.25629
# Poissons Ratio (y) = 0.50949 0.29664
# Poissons Ratio (z) = 0.29671 0.17348
#
# Static dielectric constant tensor:
#      x y z
#    x 3.638180 0.000000 0.002600 
#    y 0.000000 3.257530 0.000000 
#    z 0.002600 0.000000 3.668250 
# 
# 
# High freq. dielectric constant tensor:
#      x y z
#    x 1.767860 0.000000 0.001160 
#    y 0.000000 1.727820 0.000000 
#    z 0.001160 0.000000 1.781350 
# 
# From -- ./inp_files/90676.got.cif
#   From: 2010.06.25/outbox.cif.g09.slc.cpg/sg10_46_cif.got.tgz:90676.got - 2010.06.27 22:07:45.
