data_PCOD8063250
_publ_section_title
;
Structure prediction by ZEFSAII (Michael W. Deem and Ramdas Pophale) SiO2 
 PCOD8063250
Probable space group: P 2/M
;
_chemical_formula_sum "Si O2"
_cell_formula_units_Z 32
_cell_length_a 19.512893
_cell_length_b 9.391468
_cell_length_c 11.422040
_cell_angle_alpha 90.000000
_cell_angle_beta 56.086054
_cell_angle_gamma 90.000000
_cell_volume 1737.049887
_symmetry_space_group_name_H-M "P 2/M"
_symmetry_group_IT_number 10
_symmetry_cell_setting 'monoclinic'
loop_
_space_group_symop_operation_xyz
x,y,z
-x,y,-z
-x,-y,-z
x,-y,z
loop_
_atom_site_type_symbol
_atom_site_label
_atom_site_fract_x
_atom_site_fract_y
_atom_site_fract_z
Si Si1 0.183406 0.334567 0.169700
Si Si2 0.946822 0.331989 0.886270
Si Si3 0.423827 0.162496 0.997077
Si Si4 0.349380 0.333580 0.871069
Si Si5 0.743002 0.838121 0.703535
Si Si6 0.732583 0.835399 0.448334
Si Si7 0.120299 0.668327 0.803730
Si Si8 0.405065 0.164491 0.599766
O O1 0.177474 0.500000 0.206413
O O2 0.100744 0.276501 0.183939
O O3 0.191209 0.253332 0.285445
O O4 0.259006 0.304153 0.009720
O O5 0.937370 0.500000 0.902067
O O6 0.043685 0.290884 0.790483
O O7 0.902962 0.273739 0.045298
O O8 0.345224 0.177163 0.153750
O O9 0.437277 0.000000 0.941941
O O10 0.500000 0.218136 0.000000
O O11 0.417649 0.262748 0.890009
O O12 0.368093 0.500000 0.840998
O O13 0.355606 0.260324 0.739298
O O14 0.733880 0.779665 0.580451
O O15 0.774176 0.000000 0.674433
O O16 0.797639 0.746114 0.313046
O O17 0.641102 0.814200 0.480780
O O18 0.758289 0.000000 0.418128
O O19 0.136636 0.500000 0.787237
O O20 0.500000 0.215556 0.500000
O O21 0.401415 0.000000 0.643557
#
# Coordination Sequence:
#
# PCOD8063250 Si02
#       8
#     4   4   4   4   4   4   4   4
#     4   9  17  32  53  76 102 133 168 208 253 299
#     4   8  15  30  54  80 104 130 168 212 247 295
#     4   9  18  32  55  76  94 130 178 217 250 299
#     4  10  20  33  51  77 107 130 159 210 266 309
#     4   9  19  34  50  72 100 133 172 212 255 301
#     4  10  21  36  52  73 105 136 166 211 260 303
#     4   9  17  32  55  80 103 134 170 204 251 306
#     4  10  22  37  55  74  97 134 177 213 249 305
#
# _framework density 18.422039000000002
#
# number of rings (size 3 to 8) (size 9 to 14) (size 15 to 20)
#    0.000    2.750    0.000    1.875    1.750    3.000 
#    0.000    3.125    0.000    3.750    0.000    0.000 
#    0.000    0.000    0.000    0.000    0.000    0.000 
#
# Total GULP energy -396738.715365 kJ/mol
# GULP energy per Si atom -12398.084855 kJ/mol
# Density = 1.838011 g / cm^3
# Si number density = 18.422039 Si / 1000 Ang^3
#
#
#
# Elastic Constant Matrix: (Units=GPa)
#
#
# Indices 1 2 3 4 5 6 
#
# 1 150.5190 38.5380 35.4123 0.0000 10.1346 0.0000
# 2 38.5380 52.4553 27.4817 0.0000 4.8647 0.0000
# 3 35.4123 27.4817 57.4122 0.0000 12.4578 0.0000
# 4 0.0000 0.0000 0.0000 24.9147 0.0000 3.7853
# 5 10.1346 4.8647 12.4578 0.0000 26.6694 0.0000
# 6 0.0000 0.0000 0.0000 3.7853 0.0000 26.9341
#
#
#
# Elastic Compliance Matrix: (Units=1/GPa)
#
#
# Indices 1 2 3 4 5 6 
#
# 1 0.008589 -0.004748 -0.002787 0.000000 -0.001096 0.000000
# 2 -0.004748 0.028103 -0.010908 0.000000 0.001774 0.000000
# 3 -0.002787 -0.010908 0.026370 0.000000 -0.009269 0.000000
# 4 0.000000 0.000000 0.000000 0.041013 0.000000 -0.005764
# 5 -0.001096 0.001774 -0.009269 0.000000 0.041919 0.000000
# 6 0.000000 0.000000 0.000000 -0.005764 0.000000 0.037938
#
#
# Mechanical properties :
#
#
# Convention : Reuss Voigt Hill
#
# Bulk Modulus (GPa) = 38.20530 51.47229 44.83879
# Shear Modulus (GPa) = 21.78248 26.30058 24.04153
#
# Velocity S-wave (km/s) = 3.44236 3.78255 3.61646
# Velocity P-wave (km/s) = 6.04844 6.86135 6.46768
#
# Compressibility (1/GPa) = 0.02617438
#
# Stress axis : x y z
#
# Youngs Moduli (GPa) = 116.42942 35.58376 37.92238
#
# Poissons Ratio (x) = 0.16896 0.10569
# Poissons Ratio (y) = 0.55285 0.41366
# Poissons Ratio (z) = 0.32449 0.38815
#
# Static dielectric constant tensor:
#      x y z
#    x 3.805010 0.000000 0.138690 
#    y 0.000000 3.243830 0.000000 
#    z 0.138690 0.000000 3.177490 
# 
# 
# High freq. dielectric constant tensor:
#      x y z
#    x 1.730530 0.000000 0.007720 
#    y 0.000000 1.694300 0.000000 
#    z 0.007720 0.000000 1.694820 
# 
# From -- ./inp_files/55220.got.cif
#   From: 2010.06.25/outbox.cif.g09.slc.cpg/sg10_28_cif.got.tgz:55220.got - 2010.06.27 22:07:45.
