data_PCOD8063876
_publ_section_title
;
Structure prediction by ZEFSAII (Michael W. Deem and Ramdas Pophale) SiO2 
 PCOD8063876
Probable space group: P 2/M
;
_chemical_formula_sum "Si O2"
_cell_formula_units_Z 28
_cell_length_a 22.432209
_cell_length_b 16.457403
_cell_length_c 8.829251
_cell_angle_alpha 90.000000
_cell_angle_beta 28.209945
_cell_angle_gamma 90.000000
_cell_volume 1540.799885
_symmetry_space_group_name_H-M "P 2/M"
_symmetry_group_IT_number 10
_symmetry_cell_setting 'monoclinic'
loop_
_space_group_symop_operation_xyz
x,y,z
-x,y,-z
-x,-y,-z
x,-y,z
loop_
_atom_site_type_symbol
_atom_site_label
_atom_site_fract_x
_atom_site_fract_y
_atom_site_fract_z
Si Si1 0.962003 0.909401 0.254614
Si Si2 0.129390 0.144926 0.122205
Si Si3 0.311369 0.000000 0.790985
Si Si4 0.420216 0.000000 0.879108
Si Si5 0.680642 0.260587 0.191950
Si Si6 0.369971 0.588784 0.876750
Si Si7 0.543556 0.701655 0.074409
Si Si8 0.303052 0.834847 0.141465
O O1 0.847628 0.846370 0.535902
O O2 0.090219 0.871950 0.037837
O O3 0.928762 0.000000 0.395854
O O4 0.000000 0.920415 0.000000
O O5 0.000000 0.134905 0.500000
O O6 0.192705 0.233243 0.002959
O O7 0.229242 0.079839 0.957014
O O8 0.381603 0.000000 0.791519
O O9 0.431308 0.000000 0.409055
O O10 0.361019 0.082104 0.078375
O O11 0.711362 0.345970 0.038028
O O12 0.568964 0.266756 0.564292
O O13 0.645364 0.194953 0.139093
O O14 0.500000 0.579141 0.500000
O O15 0.302504 0.500000 0.035648
O O16 0.398126 0.619205 0.985166
O O17 0.500000 0.685552 0.000000
O O18 0.655710 0.768320 0.825688
#
# Coordination Sequence:
#
# PCOD8063876 Si02
#       8
#     4   4   2   2   4   4   4   4
#     4  11  24  38  52  72 107 150 192 240 276 310
#     4  12  21  35  54  76 101 140 194 231 266 314
#     4  11  21  28  52  78 102 131 182 242 267 311
#     4  11  20  32  51  75 103 142 181 228 283 320
#     4  10  20  34  56  82 108 138 176 228 267 322
#     4   8  16  34  59  84 111 140 170 209 266 326
#     4  10  22  35  53  83 116 141 172 223 272 328
#     4  11  20  37  52  75 105 144 190 227 277 316
#
# _framework density 18.172378999999999
#
# number of rings (size 3 to 8) (size 9 to 14) (size 15 to 20)
#    0.000    1.571    4.286    2.357    4.000    0.286 
#    0.000    0.357    0.000    0.429    0.000    0.000 
#    0.000   10.857    0.000    0.000    0.000    0.000 
#
# Total GULP energy -346925.785366 kJ/mol
# GULP energy per Si atom -12390.206620 kJ/mol
# Density = 1.813102 g / cm^3
# Si number density = 18.172379 Si / 1000 Ang^3
#
#
#
# Elastic Constant Matrix: (Units=GPa)
#
#
# Indices 1 2 3 4 5 6 
#
# 1 110.8904 61.0461 28.5208 0.0000 -9.8155 0.0000
# 2 61.0461 141.7533 32.7380 0.0000 -14.1104 0.0000
# 3 28.5208 32.7380 64.4028 0.0000 -16.8913 0.0000
# 4 0.0000 0.0000 0.0000 -619.8350 0.0000 707.8364
# 5 -9.8155 -14.1104 -16.8913 0.0000 31.3753 0.0000
# 6 0.0000 0.0000 0.0000 707.8364 0.0000 -785.3156
#
#
#
# Elastic Compliance Matrix: (Units=1/GPa)
#
#
# Indices 1 2 3 4 5 6 
#
# 1 0.012355 -0.004591 -0.003104 0.000000 0.000130 0.000000
# 2 -0.004591 0.009772 -0.002513 0.000000 0.001605 0.000000
# 3 -0.003104 -0.002513 0.020526 0.000000 0.008949 0.000000
# 4 0.000000 0.000000 0.000000 0.055047 0.000000 0.049616
# 5 0.000130 0.001605 0.008949 0.000000 0.037453 0.000000
# 6 0.000000 0.000000 0.000000 0.049616 0.000000 0.043448
#
#
# Mechanical properties :
#
#
# Convention : Reuss Voigt Hill
#
# Bulk Modulus (GPa) = 44.96874 62.40626 53.68750
# Shear Modulus (GPa) = 24.22138 -261.77230 -118.77546
#
# Velocity S-wave (km/s) = 3.65481 -12.01509 -8.09335
# Velocity P-wave (km/s) = 6.52760 12.57248 7.59795
#
# Compressibility (1/GPa) = 0.02223767
#
# Stress axis : x y z
#
# Youngs Moduli (GPa) = 80.93864 102.33480 48.71753
#
# Poissons Ratio (x) = 0.46982 0.15120
# Poissons Ratio (y) = 0.37159 0.12243
# Poissons Ratio (z) = 0.25121 0.25718
#
# Static dielectric constant tensor:
#      x y z
#    x 3.980710 0.000000 -0.552450 
#    y 0.000000 3.902750 0.000000 
#    z -0.552450 0.000000 3.495120 
# 
# 
# High freq. dielectric constant tensor:
#      x y z
#    x 1.701780 0.000000 -0.008620 
#    y 0.000000 1.692140 0.000000 
#    z -0.008620 0.000000 1.679160 
# 
# From -- ./inp_files/35366.got.cif
#   From: 2010.06.25/outbox.cif.g09.slc.cpg/sg10_18_cif.got.tgz:35366.got - 2010.06.27 22:07:45.
