data_PCOD8063793
_publ_section_title
;
Structure prediction by ZEFSAII (Michael W. Deem and Ramdas Pophale) SiO2 
 PCOD8063793
Probable space group: P 2/M
;
_chemical_formula_sum "Si O2"
_cell_formula_units_Z 24
_cell_length_a 24.508026
_cell_length_b 8.921267
_cell_length_c 18.056664
_cell_angle_alpha 90.000000
_cell_angle_beta 19.092731
_cell_angle_gamma 90.000000
_cell_volume 1291.368807
_symmetry_space_group_name_H-M "P 2/M"
_symmetry_group_IT_number 10
_symmetry_cell_setting 'monoclinic'
loop_
_space_group_symop_operation_xyz
x,y,z
-x,y,-z
-x,-y,-z
x,-y,z
loop_
_atom_site_type_symbol
_atom_site_label
_atom_site_fract_x
_atom_site_fract_y
_atom_site_fract_z
Si Si1 0.833068 0.176524 0.499182
Si Si2 0.499958 0.175904 0.151779
Si Si3 0.649669 0.674123 0.361498
Si Si4 0.694238 0.177466 0.457699
Si Si5 0.988590 0.675337 0.162413
Si Si6 0.846250 0.821178 0.649373
O O1 0.641745 0.218300 0.726083
O O2 0.957102 0.260661 0.284618
O O3 0.870394 0.232761 0.534078
O O4 0.863304 0.000000 0.450570
O O5 0.442764 0.231934 0.306260
O O6 0.526083 0.000000 0.120312
O O7 0.675785 0.248839 0.901858
O O8 0.500000 0.722546 0.500000
O O9 0.639109 0.500000 0.396407
O O10 0.630958 0.770000 0.459611
O O11 0.821549 0.712920 0.100488
O O12 0.872652 0.248651 0.249033
O O13 0.716244 0.000000 0.431498
O O14 0.951368 0.500000 0.209300
O O15 0.000000 0.758624 0.500000
O O16 0.839657 0.000000 0.659657
#
# Coordination Sequence:
#
# PCOD8063793 Si02
#       6
#     4   4   4   4   4   4
#     4   9  17  30  50  73  97 127 164 207 248 289
#     4   8  15  28  45  68  97 127 158 195 245 296
#     4  10  22  38  53  72 102 139 172 202 247 307
#     4  10  20  34  55  80 103 129 166 214 257 294
#     4  10  20  35  55  75  99 134 171 208 252 302
#     4   9  16  26  44  71 100 129 161 199 245 296
#
# _framework density 18.58493
#
# number of rings (size 3 to 8) (size 9 to 14) (size 15 to 20)
#    0.000    2.667    0.000    3.000    0.000    7.000 
#    0.000    1.667    0.000    9.500    0.000    0.000 
#    0.000    0.000    0.000    0.000    0.000    0.000 
#
# Total GULP energy -297593.539111 kJ/mol
# GULP energy per Si atom -12399.730796 kJ/mol
# Density = 1.854263 g / cm^3
# Si number density = 18.584930 Si / 1000 Ang^3
#
#
#
# Elastic Constant Matrix: (Units=GPa)
#
#
# Indices 1 2 3 4 5 6 
#
# 1 166.2937 44.4089 84.8995 0.0000 -1.1527 0.0000
# 2 44.4089 46.0991 29.6143 0.0000 3.7041 0.0000
# 3 84.8995 29.6143 95.8868 0.0000 -1.4834 0.0000
# 4 0.0000 0.0000 0.0000 16.9672 0.0000 -2.2799
# 5 -1.1527 3.7041 -1.4834 0.0000 22.6517 0.0000
# 6 0.0000 0.0000 0.0000 -2.2799 0.0000 16.8071
#
#
#
# Elastic Compliance Matrix: (Units=1/GPa)
#
#
# Indices 1 2 3 4 5 6 
#
# 1 0.012194 -0.006119 -0.008891 0.000000 0.001039 0.000000
# 2 -0.006119 0.030704 -0.004152 0.000000 -0.005604 0.000000
# 3 -0.008891 -0.004152 0.019607 0.000000 0.001510 0.000000
# 4 0.000000 0.000000 0.000000 0.060032 0.000000 0.008144
# 5 0.001039 -0.005604 0.001510 0.000000 0.045215 0.000000
# 6 0.000000 0.000000 0.000000 0.008144 0.000000 0.060603
#
#
# Mechanical properties :
#
#
# Convention : Reuss Voigt Hill
#
# Bulk Modulus (GPa) = 41.35332 69.56943 55.46138
# Shear Modulus (GPa) = 18.19916 21.24232 19.72074
#
# Velocity S-wave (km/s) = 3.13268 3.38448 3.26101
# Velocity P-wave (km/s) = 5.94846 7.26549 6.63972
#
# Compressibility (1/GPa) = 0.02418185
#
# Stress axis : x y z
#
# Youngs Moduli (GPa) = 82.00955 32.56865 51.00324
#
# Poissons Ratio (x) = 0.19928 0.45345
# Poissons Ratio (y) = 0.50179 0.21177
# Poissons Ratio (z) = 0.72912 0.13523
#
# Static dielectric constant tensor:
#      x y z
#    x 3.627360 0.000000 0.061490 
#    y 0.000000 3.078710 0.000000 
#    z 0.061490 0.000000 3.621250 
# 
# 
# High freq. dielectric constant tensor:
#      x y z
#    x 1.727510 0.000000 0.007630 
#    y 0.000000 1.685800 0.000000 
#    z 0.007630 0.000000 1.727600 
# 
# From -- ./inp_files/38087.got.cif
#   From: 2010.06.25/outbox.cif.g09.slc.cpg/sg10_20_cif.got.tgz:38087.got - 2010.06.27 22:07:45.
