data_PCOD8063775
_publ_section_title
;
Structure prediction by ZEFSAII (Michael W. Deem and Ramdas Pophale) SiO2 
 PCOD8063775
Probable space group: P 2/M
;
_chemical_formula_sum "Si O2"
_cell_formula_units_Z 32
_cell_length_a 23.410741
_cell_length_b 9.226227
_cell_length_c 14.347594
_cell_angle_alpha 90.000000
_cell_angle_beta 148.122274
_cell_angle_gamma 90.000000
_cell_volume 1636.595412
_symmetry_space_group_name_H-M "P 2/M"
_symmetry_group_IT_number 10
_symmetry_cell_setting 'monoclinic'
loop_
_space_group_symop_operation_xyz
x,y,z
-x,y,-z
-x,-y,-z
x,-y,z
loop_
_atom_site_type_symbol
_atom_site_label
_atom_site_fract_x
_atom_site_fract_y
_atom_site_fract_z
Si Si1 0.516071 0.664226 0.260063
Si Si2 0.889133 0.330444 0.895936
Si Si3 0.585171 0.672196 0.691375
Si Si4 0.802719 0.831974 0.438893
Si Si5 0.982817 0.828954 0.369087
Si Si6 0.266109 0.170039 0.453179
Si Si7 0.397535 0.336675 0.911123
Si Si8 0.170288 0.329628 0.979492
O O1 0.559244 0.500000 0.335474
O O2 0.457725 0.728581 0.269450
O O3 0.615247 0.764790 0.367641
O O4 0.421569 0.666159 0.053377
O O5 0.867372 0.500000 0.850150
O O6 0.790903 0.243826 0.713658
O O7 0.892048 0.293043 0.010102
O O8 0.000000 0.280961 0.000000
O O9 0.500000 0.737894 0.500000
O O10 0.585448 0.500000 0.687094
O O11 0.706537 0.727578 0.839797
O O12 0.802262 0.796037 0.548135
O O13 0.709015 0.752757 0.253916
O O14 0.914805 0.779650 0.550208
O O15 0.783968 0.000000 0.394692
O O16 0.881175 0.750330 0.180763
O O17 0.000000 0.778602 0.500000
O O18 0.962576 0.000000 0.336597
O O19 0.275519 0.000000 0.447318
O O20 0.379140 0.500000 0.847991
O O21 0.500000 0.266807 0.000000
O O22 0.166488 0.500000 0.953394
#
# Coordination Sequence:
#
# PCOD8063775 Si02
#       8
#     4   4   4   4   4   4   4   4
#     4  10  20  35  55  79 110 146 184 227 281 339
#     4  10  21  37  59  85 113 145 183 228 284 341
#     4   9  18  34  57  83 113 148 184 228 282 338
#     4  10  22  38  56  79 112 151 191 232 280 338
#     4  10  23  42  60  81 113 156 196 233 286 340
#     4  11  22  35  55  84 113 145 185 230 278 334
#     4  10  20  34  54  83 112 143 184 233 285 333
#     4  10  21  38  61  89 115 147 193 239 285 336
#
# _framework density 19.552785
#
# number of rings (size 3 to 8) (size 9 to 14) (size 15 to 20)
#    0.000    2.000    1.250    1.875    1.750    4.750 
#    0.000    0.625    0.000    1.500    0.000    0.000 
#    0.000    0.000    0.000    0.000    0.000    0.000 
#
# Total GULP energy -396854.983119 kJ/mol
# GULP energy per Si atom -12401.718222 kJ/mol
# Density = 1.950828 g / cm^3
# Si number density = 19.552785 Si / 1000 Ang^3
#
#
#
# Elastic Constant Matrix: (Units=GPa)
#
#
# Indices 1 2 3 4 5 6 
#
# 1 126.7729 27.1061 47.0860 0.0000 -3.5456 0.0000
# 2 27.1061 43.0863 38.9209 0.0000 -2.1082 0.0000
# 3 47.0860 38.9209 129.9818 0.0000 -4.2376 0.0000
# 4 0.0000 0.0000 0.0000 16.3733 0.0000 3.3345
# 5 -3.5456 -2.1082 -4.2376 0.0000 35.6225 0.0000
# 6 0.0000 0.0000 0.0000 3.3345 0.0000 19.2213
#
#
#
# Elastic Compliance Matrix: (Units=1/GPa)
#
#
# Indices 1 2 3 4 5 6 
#
# 1 0.009592 -0.003957 -0.002275 0.000000 0.000450 0.000000
# 2 -0.003957 0.033467 -0.008569 0.000000 0.000567 0.000000
# 3 -0.002275 -0.008569 0.011103 0.000000 0.000587 0.000000
# 4 0.000000 0.000000 0.000000 0.063312 0.000000 -0.010983
# 5 0.000450 0.000567 0.000587 0.000000 0.028220 0.000000
# 6 0.000000 0.000000 0.000000 -0.010983 0.000000 0.053931
#
#
# Mechanical properties :
#
#
# Convention : Reuss Voigt Hill
#
# Bulk Modulus (GPa) = 40.71868 58.45187 49.58528
# Shear Modulus (GPa) = 21.06024 26.69194 23.87609
#
# Velocity S-wave (km/s) = 3.28548 3.69876 3.49823
# Velocity P-wave (km/s) = 5.93824 6.94265 6.46000
#
# Compressibility (1/GPa) = 0.02455875
#
# Stress axis : x y z
#
# Youngs Moduli (GPa) = 104.25548 29.87983 90.06905
#
# Poissons Ratio (x) = 0.11824 0.20491
# Poissons Ratio (y) = 0.41256 0.77183
# Poissons Ratio (z) = 0.23719 0.25605
#
# Static dielectric constant tensor:
#      x y z
#    x 3.782410 0.000000 0.000820 
#    y 0.000000 3.314260 0.000000 
#    z 0.000820 0.000000 3.519000 
# 
# 
# High freq. dielectric constant tensor:
#      x y z
#    x 1.774810 0.000000 -0.003870 
#    y 0.000000 1.735430 0.000000 
#    z -0.003870 0.000000 1.766920 
# 
# From -- ./inp_files/71689.got.cif
#   From: 2010.06.25/outbox.cif.g09.slc.cpg/sg10_36_cif.got.tgz:71689.got - 2010.06.27 22:07:45.
