data_PCOD8063480
_publ_section_title
;
Structure prediction by ZEFSAII (Michael W. Deem and Ramdas Pophale) SiO2 
 PCOD8063480
Probable space group: P 2/M
;
_chemical_formula_sum "Si O2"
_cell_formula_units_Z 32
_cell_length_a 11.144055
_cell_length_b 14.081652
_cell_length_c 11.461935
_cell_angle_alpha 90.000000
_cell_angle_beta 109.511922
_cell_angle_gamma 90.000000
_cell_volume 1695.388902
_symmetry_space_group_name_H-M "P 2/M"
_symmetry_group_IT_number 10
_symmetry_cell_setting 'monoclinic'
loop_
_space_group_symop_operation_xyz
x,y,z
-x,y,-z
-x,-y,-z
x,-y,z
loop_
_atom_site_type_symbol
_atom_site_label
_atom_site_fract_x
_atom_site_fract_y
_atom_site_fract_z
Si Si1 0.805321 0.106959 0.008616
Si Si2 0.991539 0.230174 0.625080
Si Si3 0.797436 0.608609 0.547242
Si Si4 0.236399 0.729494 0.845057
Si Si5 0.660954 0.387598 0.732397
Si Si6 0.387937 0.389973 0.726529
Si Si7 0.138375 0.612234 0.015211
Si Si8 0.088798 0.893561 0.198306
O O1 0.721917 0.182518 0.056580
O O2 0.946470 0.110774 0.104764
O O3 0.749110 0.000000 0.003499
O O4 0.813757 0.136871 0.874271
O O5 0.928513 0.333616 0.588670
O O6 0.900193 0.171738 0.683464
O O7 0.000000 0.180768 0.500000
O O8 0.135683 0.236147 0.716444
O O9 0.836533 0.500000 0.584135
O O10 0.703085 0.646293 0.618009
O O11 0.725423 0.619703 0.402254
O O12 0.358759 0.681051 0.824446
O O13 0.170497 0.646748 0.897329
O O14 0.659732 0.500000 0.737345
O O15 0.519012 0.351451 0.713792
O O16 0.760477 0.347067 0.859274
O O17 0.400108 0.500000 0.772550
O O18 0.135383 0.500000 0.014918
O O19 0.000000 0.654939 0.000000
O O20 0.123079 0.000000 0.248353
#
# Coordination Sequence:
#
# PCOD8063480 Si02
#       8
#     4   4   4   4   4   4   4   4
#     4   8  16  31  51  74 100 136 174 211 260 315
#     4  11  21  32  48  77 110 138 172 213 264 315
#     4  10  20  34  51  71 102 142 182 219 253 300
#     4  11  21  31  50  75 107 139 171 214 263 313
#     4   9  19  35  54  73  96 135 184 223 253 296
#     4  10  20  35  52  72 101 140 183 220 255 298
#     4  10  21  34  50  76 107 135 166 208 261 315
#     4   8  16  31  51  73 102 136 171 213 263 314
#
# _framework density 18.874724000000001
#
# number of rings (size 3 to 8) (size 9 to 14) (size 15 to 20)
#    0.000    2.375    1.250    2.250    5.250    4.500 
#    0.000    1.875    0.000    0.000    0.000    2.625 
#    0.000    2.000    0.000    0.000    0.000    0.000 
#
# Total GULP energy -396653.832404 kJ/mol
# GULP energy per Si atom -12395.432263 kJ/mol
# Density = 1.883176 g / cm^3
# Si number density = 18.874724 Si / 1000 Ang^3
#
#
#
# Elastic Constant Matrix: (Units=GPa)
#
#
# Indices 1 2 3 4 5 6 
#
# 1 59.2521 32.5283 22.1027 0.0000 -21.0159 0.0000
# 2 32.5283 74.9163 35.6528 0.0000 -16.6657 0.0000
# 3 22.1027 35.6528 84.6238 0.0000 -27.4725 0.0000
# 4 0.0000 0.0000 0.0000 22.8307 0.0000 -12.8149
# 5 -21.0159 -16.6657 -27.4725 0.0000 33.2930 0.0000
# 6 0.0000 0.0000 0.0000 -12.8149 0.0000 17.7703
#
#
#
# Elastic Compliance Matrix: (Units=1/GPa)
#
#
# Indices 1 2 3 4 5 6 
#
# 1 0.025908 -0.008951 0.001173 0.000000 0.012842 0.000000
# 2 -0.008951 0.020090 -0.006414 0.000000 -0.000886 0.000000
# 3 0.001173 -0.006414 0.018318 0.000000 0.012646 0.000000
# 4 0.000000 0.000000 0.000000 0.073587 0.000000 0.053067
# 5 0.012842 -0.000886 0.012646 0.000000 0.048134 0.000000
# 6 0.000000 0.000000 0.000000 0.053067 0.000000 0.094542
#
#
# Mechanical properties :
#
#
# Convention : Reuss Voigt Hill
#
# Bulk Modulus (GPa) = 27.82950 44.37330 36.10140
# Shear Modulus (GPa) = 15.57926 23.34601 19.46263
#
# Velocity S-wave (km/s) = 2.87610 3.52076 3.21463
# Velocity P-wave (km/s) = 5.07992 6.33152 5.73994
#
# Compressibility (1/GPa) = 0.03593310
#
# Stress axis : x y z
#
# Youngs Moduli (GPa) = 38.59812 49.77639 54.59077
#
# Poissons Ratio (x) = 0.44553 -0.06404
# Poissons Ratio (y) = 0.34548 0.35014
# Poissons Ratio (z) = -0.04528 0.31926
#
# Static dielectric constant tensor:
#      x y z
#    x 3.404370 0.000000 -0.285480 
#    y 0.000000 3.496410 0.000000 
#    z -0.285480 0.000000 3.593210 
# 
# 
# High freq. dielectric constant tensor:
#      x y z
#    x 1.708260 0.000000 -0.025780 
#    y 0.000000 1.714540 0.000000 
#    z -0.025780 0.000000 1.731800 
# 
# From -- ./inp_files/47417.got.cif
#   From: 2010.06.25/outbox.cif.g09.slc.cpg/sg10_24_cif.got.tgz:47417.got - 2010.06.27 22:07:45.
