data_PCOD8063985
_publ_section_title
;
Structure prediction by ZEFSAII (Michael W. Deem and Ramdas Pophale) SiO2 
 PCOD8063985
Probable space group: P 2/M
;
_chemical_formula_sum "Si O2"
_cell_formula_units_Z 28
_cell_length_a 28.739798
_cell_length_b 7.681146
_cell_length_c 10.077528
_cell_angle_alpha 90.000000
_cell_angle_beta 37.617650
_cell_angle_gamma 90.000000
_cell_volume 1357.908747
_symmetry_space_group_name_H-M "P 2/M"
_symmetry_group_IT_number 10
_symmetry_cell_setting 'monoclinic'
loop_
_space_group_symop_operation_xyz
x,y,z
-x,y,-z
-x,-y,-z
x,-y,z
loop_
_atom_site_type_symbol
_atom_site_label
_atom_site_fract_x
_atom_site_fract_y
_atom_site_fract_z
Si Si1 0.834894 0.303943 0.134363
Si Si2 0.457177 0.000000 0.735480
Si Si3 0.087299 0.205626 0.307383
Si Si4 0.656505 0.697858 0.933120
Si Si5 0.181659 0.793649 0.351172
Si Si6 0.561818 0.000000 0.748365
Si Si7 0.918379 0.194845 0.188728
Si Si8 0.668644 0.298138 0.596685
O O1 0.845220 0.500000 0.162312
O O2 0.884874 0.183992 0.117021
O O3 0.747224 0.250204 0.346381
O O4 0.863079 0.287245 0.921410
O O5 0.500000 0.000000 0.500000
O O6 0.406012 0.827063 0.865164
O O7 0.524038 0.000000 0.690977
O O8 0.129808 0.266096 0.344790
O O9 0.000000 0.275660 0.500000
O O10 0.087274 0.000000 0.292296
O O11 0.625702 0.500000 0.013092
O O12 0.734258 0.711223 0.842750
O O13 0.673183 0.749066 0.742419
O O14 0.139673 0.716294 0.576788
O O15 0.192059 0.000000 0.332154
O O16 0.608638 0.822368 0.657657
O O17 0.500000 0.000000 0.000000
O O18 0.932571 0.000000 0.211012
O O19 0.000000 0.293268 0.000000
O O20 0.645976 0.500000 0.627330
#
# Coordination Sequence:
#
# PCOD8063985 Si02
#       8
#     4   2   4   4   4   2   4   4
#     4  11  23  38  58  88 125 166 210 263 315 370
#     4  12  28  48  68 104 139 162 212 256 315 400
#     4  10  22  40  60  87 125 172 219 269 323 372
#     4  11  22  42  71  97 131 173 210 263 323 380
#     4  10  20  36  63  89 124 170 218 265 317 382
#     4  12  24  42  74 100 125 176 210 252 327 388
#     4  10  20  34  58  90 120 161 214 266 316 369
#     4  10  23  41  67 102 132 164 218 270 314 380
#
# _framework density 20.619942000000002
#
# number of rings (size 3 to 8) (size 9 to 14) (size 15 to 20)
#    0.000    1.429    3.571    1.286    2.000    5.714 
#    0.000    2.857    0.000    0.000    0.000    0.000 
#    0.000    0.000    0.000    0.000    0.000    0.000 
#
# Total GULP energy -347223.717183 kJ/mol
# GULP energy per Si atom -12400.847042 kJ/mol
# Density = 2.057301 g / cm^3
# Si number density = 20.619942 Si / 1000 Ang^3
#
#
#
# Elastic Constant Matrix: (Units=GPa)
#
#
# Indices 1 2 3 4 5 6 
#
# 1 153.6774 41.6484 63.1406 0.0000 -11.8823 0.0000
# 2 41.6484 79.8915 46.7288 0.0000 -13.6437 0.0000
# 3 63.1406 46.7288 158.3304 0.0000 -6.2671 0.0000
# 4 0.0000 0.0000 0.0000 30.7642 0.0000 51.2953
# 5 -11.8823 -13.6437 -6.2671 0.0000 38.6410 0.0000
# 6 0.0000 0.0000 0.0000 51.2953 0.0000 199.4018
#
#
#
# Elastic Compliance Matrix: (Units=1/GPa)
#
#
# Indices 1 2 3 4 5 6 
#
# 1 0.008353 -0.002691 -0.002489 0.000000 0.001215 0.000000
# 2 -0.002691 0.016873 -0.003727 0.000000 0.004526 0.000000
# 3 -0.002489 -0.003727 0.008380 0.000000 -0.000722 0.000000
# 4 0.000000 0.000000 0.000000 0.056919 0.000000 -0.014642
# 5 0.001215 0.004526 -0.000722 0.000000 0.027734 0.000000
# 6 0.000000 0.000000 0.000000 -0.014642 0.000000 0.008782
#
#
# Mechanical properties :
#
#
# Convention : Reuss Voigt Hill
#
# Bulk Modulus (GPa) = 63.32754 77.21499 70.27127
# Shear Modulus (GPa) = 33.30691 69.78684 51.54688
#
# Velocity S-wave (km/s) = 4.02341 5.82390 5.00528
# Velocity P-wave (km/s) = 7.23618 9.09680 8.21931
#
# Compressibility (1/GPa) = 0.01579092
#
# Stress axis : x y z
#
# Youngs Moduli (GPa) = 119.71792 59.26607 119.33384
#
# Poissons Ratio (x) = 0.15951 0.29698
# Poissons Ratio (y) = 0.32221 0.44480
# Poissons Ratio (z) = 0.29794 0.22091
#
# Static dielectric constant tensor:
#      x y z
#    x 3.625540 0.000000 -0.087740 
#    y 0.000000 3.547410 0.000000 
#    z -0.087740 0.000000 3.794300 
# 
# 
# High freq. dielectric constant tensor:
#      x y z
#    x 1.805770 0.000000 -0.007320 
#    y 0.000000 1.804520 0.000000 
#    z -0.007320 0.000000 1.808440 
# 
# From -- ./inp_files/37132.got.cif
#   From: 2010.06.25/outbox.cif.g09.slc.cpg/sg10_19_cif.got.tgz:37132.got - 2010.06.27 22:07:45.
