data_PCOD8063729
_publ_section_title
;
Structure prediction by ZEFSAII (Michael W. Deem and Ramdas Pophale) SiO2 
 PCOD8063729
Probable space group: P 2/M
;
_chemical_formula_sum "Si O2"
_cell_formula_units_Z 24
_cell_length_a 12.140576
_cell_length_b 16.457580
_cell_length_c 17.438184
_cell_angle_alpha 90.000000
_cell_angle_beta 20.673798
_cell_angle_gamma 90.000000
_cell_volume 1230.096181
_symmetry_space_group_name_H-M "P 2/M"
_symmetry_group_IT_number 10
_symmetry_cell_setting 'monoclinic'
loop_
_space_group_symop_operation_xyz
x,y,z
-x,y,-z
-x,-y,-z
x,-y,z
loop_
_atom_site_type_symbol
_atom_site_label
_atom_site_fract_x
_atom_site_fract_y
_atom_site_fract_z
Si Si1 0.761128 0.408187 0.765767
Si Si2 0.749503 0.160234 0.892693
Si Si3 0.152846 0.089005 0.755883
Si Si4 0.559723 0.288815 0.131681
Si Si5 0.236399 0.722218 0.501149
Si Si6 0.852795 0.259644 0.173703
O O1 0.856760 0.500000 0.683429
O O2 0.626728 0.368336 0.774965
O O3 0.064457 0.363351 0.601696
O O4 0.500000 0.404447 0.000000
O O5 0.919036 0.095465 0.836030
O O6 0.000757 0.206907 0.676679
O O7 0.500000 0.115151 0.000000
O O8 0.533905 0.222340 0.081865
O O9 0.500000 0.097047 0.500000
O O10 0.098575 0.162009 0.850572
O O11 0.098229 0.000000 0.829630
O O12 0.409746 0.254911 0.308324
O O13 0.937169 0.303661 0.897184
O O14 0.487522 0.715552 0.408370
O O15 0.000000 0.290891 0.000000
#
# Coordination Sequence:
#
# PCOD8063729 Si02
#       6
#     4   4   4   4   4   4
#     4  11  22  37  56  82 113 144 179 220 271 323
#     4  11  20  34  54  81 108 144 180 226 266 314
#     4  10  20  34  54  79 108 145 182 219 273 326
#     4  10  20  34  55  82 105 139 185 220 267 321
#     4  11  19  35  56  80 109 140 179 228 263 317
#     4   9  20  35  56  83 105 139 184 227 267 317
#
# _framework density 19.510670000000001
#
# number of rings (size 3 to 8) (size 9 to 14) (size 15 to 20)
#    0.000    1.667    5.000    0.500    0.000    2.000 
#    0.000    0.833    0.000    5.000    0.000    4.667 
#    0.000    0.000    0.000    0.000    0.000    0.000 
#
# Total GULP energy -297396.914319 kJ/mol
# GULP energy per Si atom -12391.538097 kJ/mol
# Density = 1.946626 g / cm^3
# Si number density = 19.510670 Si / 1000 Ang^3
#
#
#
# Elastic Constant Matrix: (Units=GPa)
#
#
# Indices 1 2 3 4 5 6 
#
# 1 79.8737 23.9841 25.9059 0.0000 -34.2528 0.0000
# 2 23.9841 80.7549 20.6950 0.0000 -24.3067 0.0000
# 3 25.9059 20.6950 77.9244 0.0000 -22.8776 0.0000
# 4 0.0000 0.0000 0.0000 29.7152 0.0000 -6.9127
# 5 -34.2528 -24.3067 -22.8776 0.0000 52.1664 0.0000
# 6 0.0000 0.0000 0.0000 -6.9127 0.0000 24.7366
#
#
#
# Elastic Compliance Matrix: (Units=1/GPa)
#
#
# Indices 1 2 3 4 5 6 
#
# 1 0.018171 -0.001716 -0.002660 0.000000 0.009965 0.000000
# 2 -0.001716 0.014880 -0.001924 0.000000 0.004963 0.000000
# 3 -0.002660 -0.001924 0.015440 0.000000 0.004128 0.000000
# 4 0.000000 0.000000 0.000000 0.035993 0.000000 0.010058
# 5 0.009965 0.004963 0.004128 0.000000 0.029836 0.000000
# 6 0.000000 0.000000 0.000000 0.010058 0.000000 0.043237
#
#
# Mechanical properties :
#
#
# Convention : Reuss Voigt Hill
#
# Bulk Modulus (GPa) = 27.86161 42.19144 35.02653
# Shear Modulus (GPa) = 27.45457 32.52150 29.98803
#
# Velocity S-wave (km/s) = 3.75528 4.08715 3.92472
# Velocity P-wave (km/s) = 5.75448 6.62908 6.20720
#
# Compressibility (1/GPa) = 0.03589168
#
# Stress axis : x y z
#
# Youngs Moduli (GPa) = 55.03247 67.20618 64.76587
#
# Poissons Ratio (x) = 0.11530 0.17225
# Poissons Ratio (y) = 0.09442 0.12463
# Poissons Ratio (z) = 0.14636 0.12933
#
# Static dielectric constant tensor:
#      x y z
#    x 3.937830 0.000000 -0.340680 
#    y 0.000000 3.384070 0.000000 
#    z -0.340680 0.000000 3.804400 
# 
# 
# High freq. dielectric constant tensor:
#      x y z
#    x 1.773250 0.000000 -0.014190 
#    y 0.000000 1.715650 0.000000 
#    z -0.014190 0.000000 1.772870 
# 
# From -- ./inp_files/19312.got.cif
#   From: 2010.06.25/outbox.cif.g09.slc.cpg/sg10_10_cif.got.tgz:19312.got - 2010.06.27 22:07:45.
