data_PCOD8063172
_publ_section_title
;
Structure prediction by ZEFSAII (Michael W. Deem and Ramdas Pophale) SiO2 
 PCOD8063172
Probable space group: P 2/M
;
_chemical_formula_sum "Si O2"
_cell_formula_units_Z 24
_cell_length_a 15.299599
_cell_length_b 12.393595
_cell_length_c 21.805002
_cell_angle_alpha 90.000000
_cell_angle_beta 19.466155
_cell_angle_gamma 90.000000
_cell_volume 1377.855285
_symmetry_space_group_name_H-M "P 2/M"
_symmetry_group_IT_number 10
_symmetry_cell_setting 'monoclinic'
loop_
_space_group_symop_operation_xyz
x,y,z
-x,y,-z
-x,-y,-z
x,-y,z
loop_
_atom_site_type_symbol
_atom_site_label
_atom_site_fract_x
_atom_site_fract_y
_atom_site_fract_z
Si Si1 0.411837 0.500000 0.459917
Si Si2 0.075152 0.500000 0.796594
Si Si3 0.426643 0.284212 0.700110
Si Si4 0.758438 0.126756 0.957348
Si Si5 0.831658 0.871731 0.668345
Si Si6 0.895296 0.126760 0.388915
Si Si7 0.919614 0.715785 0.953629
O O1 0.153461 0.500000 0.673271
O O2 0.669820 0.500000 0.330183
O O3 0.411132 0.394212 0.417851
O O4 0.904772 0.605790 0.924201
O O5 0.615241 0.182623 0.567373
O O6 0.199793 0.270618 0.800204
O O7 0.312431 0.287279 0.843782
O O8 0.884756 0.182627 0.932622
O O9 0.925449 0.156225 0.787278
O O10 0.758932 0.000000 0.970435
O O11 0.464754 0.171025 0.141034
O O12 0.000000 0.826749 0.500000
O O13 0.958408 0.828975 0.647385
O O14 0.830158 0.000000 0.669850
O O15 0.841489 0.000000 0.429151
#
# Coordination Sequence:
#
# PCOD8063172 Si02
#       7
#     2   2   4   4   4   4   4
#     4   9  17  31  51  72  95 126 165 205 244 289
#     4   9  17  31  51  72  95 126 165 205 244 289
#     4  10  20  33  50  73 101 132 166 204 246 292
#     4  10  20  33  50  73 101 132 166 204 246 292
#     4   9  17  31  51  72  95 126 165 205 244 289
#     4  10  20  33  50  73 101 132 166 204 246 292
#     4  10  20  33  50  73 101 132 166 204 246 292
#
# _framework density 17.418374
#
# number of rings (size 3 to 8) (size 9 to 14) (size 15 to 20)
#    0.000    2.333    0.000    3.000    0.000    8.667 
#    0.000    3.333    0.000    1.000    0.000    7.000 
#    0.000    0.000    0.000    0.000    0.000    0.000 
#
# Total GULP energy -297659.943600 kJ/mol
# GULP energy per Si atom -12402.497650 kJ/mol
# Density = 1.737873 g / cm^3
# Si number density = 17.418374 Si / 1000 Ang^3
#
#
#
# Elastic Constant Matrix: (Units=GPa)
#
#
# Indices 1 2 3 4 5 6 
#
# 1 104.9062 51.7240 58.7344 0.0000 26.3513 0.0000
# 2 51.7240 66.4308 58.5054 0.0000 8.5594 0.0000
# 3 58.7344 58.5054 143.1208 0.0000 21.9246 0.0000
# 4 0.0000 0.0000 0.0000 24.5304 0.0000 13.2145
# 5 26.3513 8.5594 21.9246 0.0000 27.9206 0.0000
# 6 0.0000 0.0000 0.0000 13.2145 0.0000 14.0609
#
#
#
# Elastic Compliance Matrix: (Units=1/GPa)
#
#
# Indices 1 2 3 4 5 6 
#
# 1 0.019960 -0.013147 -0.000624 0.000000 -0.014318 0.000000
# 2 -0.013147 0.032185 -0.009265 0.000000 0.009817 0.000000
# 3 -0.000624 -0.009265 0.011942 0.000000 -0.005948 0.000000
# 4 0.000000 0.000000 0.000000 0.082567 0.000000 -0.077597
# 5 -0.014318 0.009817 -0.005948 0.000000 0.050991 0.000000
# 6 0.000000 0.000000 0.000000 -0.077597 0.000000 0.144045
#
#
# Mechanical properties :
#
#
# Convention : Reuss Voigt Hill
#
# Bulk Modulus (GPa) = 55.50980 72.48726 63.99853
# Shear Modulus (GPa) = 12.69791 23.00199 17.84995
#
# Velocity S-wave (km/s) = 2.70292 3.63789 3.20469
# Velocity P-wave (km/s) = 6.45591 7.70399 7.10740
#
# Compressibility (1/GPa) = 0.01801484
#
# Stress axis : x y z
#
# Youngs Moduli (GPa) = 50.09926 31.07056 83.74097
#
# Poissons Ratio (x) = 0.40850 0.05222
# Poissons Ratio (y) = 0.65868 0.77586
# Poissons Ratio (z) = 0.03124 0.28787
#
# Static dielectric constant tensor:
#      x y z
#    x 3.225830 0.000000 0.180270 
#    y 0.000000 3.103230 0.000000 
#    z 0.180270 0.000000 3.368300 
# 
# 
# High freq. dielectric constant tensor:
#      x y z
#    x 1.667630 0.000000 0.019690 
#    y 0.000000 1.654210 0.000000 
#    z 0.019690 0.000000 1.683210 
# 
# From -- ./inp_files/24081.got.cif
#   From: 2010.06.25/outbox.cif.g09.slc.cpg/sg10_13_cif.got.tgz:24081.got - 2010.06.27 22:07:45.
