data_PCOD8063310
_publ_section_title
;
Structure prediction by ZEFSAII (Michael W. Deem and Ramdas Pophale) SiO2 
 PCOD8063310
Probable space group: P 2/M
;
_chemical_formula_sum "Si O2"
_cell_formula_units_Z 28
_cell_length_a 29.124402
_cell_length_b 9.079690
_cell_length_c 9.273241
_cell_angle_alpha 90.000000
_cell_angle_beta 37.801456
_cell_angle_gamma 90.000000
_cell_volume 1503.032708
_symmetry_space_group_name_H-M "P 2/M"
_symmetry_group_IT_number 10
_symmetry_cell_setting 'monoclinic'
loop_
_space_group_symop_operation_xyz
x,y,z
-x,y,-z
-x,-y,-z
x,-y,z
loop_
_atom_site_type_symbol
_atom_site_label
_atom_site_fract_x
_atom_site_fract_y
_atom_site_fract_z
Si Si1 0.562526 0.668214 0.229531
Si Si2 0.856970 0.173867 0.690831
Si Si3 0.000266 0.175211 0.836260
Si Si4 0.731326 0.667639 0.832636
Si Si5 0.571435 0.171410 0.917747
Si Si6 0.145859 0.825719 0.971225
Si Si7 0.277204 0.326115 0.477516
O O1 0.500000 0.708403 0.500000
O O2 0.554536 0.500000 0.193248
O O3 0.644937 0.689034 0.093564
O O4 0.550654 0.780777 0.130005
O O5 0.780046 0.231706 0.815617
O O6 0.927328 0.238481 0.426874
O O7 0.855687 0.000000 0.681450
O O8 0.864997 0.222516 0.836492
O O9 0.002701 0.000000 0.830612
O O10 0.926231 0.230237 0.938178
O O11 0.000000 0.237266 0.000000
O O12 0.757200 0.500000 0.789228
O O13 0.742380 0.715932 0.638828
O O14 0.641774 0.262166 0.682073
O O15 0.592018 0.000000 0.863794
O O16 0.500000 0.209414 0.000000
O O17 0.217883 0.744737 0.731367
O O18 0.157051 0.000000 0.927914
O O19 0.279150 0.500000 0.494985
#
# Coordination Sequence:
#
# PCOD8063310 Si02
#       7
#     4   4   4   4   4   4   4
#     4   9  19  36  56  78 106 142 182 220 262 315
#     4  10  20  33  52  79 108 139 174 214 264 317
#     4   9  17  31  53  78 104 139 179 215 257 311
#     4   9  19  35  53  75 103 136 177 221 261 308
#     4  10  21  36  55  81 110 138 174 221 268 314
#     4  10  20  34  53  79 110 138 171 219 266 310
#     4  10  21  37  56  77 103 139 181 218 260 317
#
# _framework density 18.629003000000001
#
# number of rings (size 3 to 8) (size 9 to 14) (size 15 to 20)
#    0.000    2.429    0.000    3.000    0.000    8.857 
#    0.000    3.571    0.000    4.286    0.000    0.000 
#    0.000    0.000    0.000    0.000    0.000    0.000 
#
# Total GULP energy -347254.609570 kJ/mol
# GULP energy per Si atom -12401.950342 kJ/mol
# Density = 1.858660 g / cm^3
# Si number density = 18.629003 Si / 1000 Ang^3
#
#
#
# Elastic Constant Matrix: (Units=GPa)
#
#
# Indices 1 2 3 4 5 6 
#
# 1 144.5434 45.7024 78.6812 0.0000 -2.6909 0.0000
# 2 45.7024 36.2761 42.3554 0.0000 -2.0680 0.0000
# 3 78.6812 42.3554 170.0977 0.0000 0.3216 0.0000
# 4 0.0000 0.0000 0.0000 26.0792 0.0000 2.5341
# 5 -2.6909 -2.0680 0.3216 0.0000 23.9362 0.0000
# 6 0.0000 0.0000 0.0000 2.5341 0.0000 16.6131
#
#
#
# Elastic Compliance Matrix: (Units=1/GPa)
#
#
# Indices 1 2 3 4 5 6 
#
# 1 0.012250 -0.012403 -0.002579 0.000000 0.000340 0.000000
# 2 -0.012403 0.051717 -0.007147 0.000000 0.003170 0.000000
# 3 -0.002579 -0.007147 0.008853 0.000000 -0.001026 0.000000
# 4 0.000000 0.000000 0.000000 0.038922 0.000000 -0.005937
# 5 0.000340 0.003170 -0.001026 0.000000 0.042104 0.000000
# 6 0.000000 0.000000 0.000000 -0.005937 0.000000 0.061099
#
#
# Mechanical properties :
#
#
# Convention : Reuss Voigt Hill
#
# Bulk Modulus (GPa) = 35.00916 76.04391 55.52653
# Shear Modulus (GPa) = 18.60652 25.60425 22.10539
#
# Velocity S-wave (km/s) = 3.16380 3.71135 3.44846
# Velocity P-wave (km/s) = 5.67272 7.69898 6.76218
#
# Compressibility (1/GPa) = 0.02856395
#
# Stress axis : x y z
#
# Youngs Moduli (GPa) = 81.63298 19.33583 112.95228
#
# Poissons Ratio (x) = 0.23982 0.29126
# Poissons Ratio (y) = 1.01249 0.80725
# Poissons Ratio (z) = 0.21050 0.13819
#
# Static dielectric constant tensor:
#      x y z
#    x 3.424720 0.000000 -0.018040 
#    y 0.000000 3.216670 0.000000 
#    z -0.018040 0.000000 3.578320 
# 
# 
# High freq. dielectric constant tensor:
#      x y z
#    x 1.725000 0.000000 -0.005970 
#    y 0.000000 1.705060 0.000000 
#    z -0.005970 0.000000 1.734790 
# 
# From -- ./inp_files/36924.got.cif
#   From: 2010.06.25/outbox.cif.g09.slc.cpg/sg10_19_cif.got.tgz:36924.got - 2010.06.27 22:07:45.
