data_PCOD8063214
_publ_section_title
;
Structure prediction by ZEFSAII (Michael W. Deem and Ramdas Pophale) SiO2 
 PCOD8063214
Probable space group: P 2/M
;
_chemical_formula_sum "Si O2"
_cell_formula_units_Z 28
_cell_length_a 9.226112
_cell_length_b 9.206244
_cell_length_c 24.761216
_cell_angle_alpha 90.000000
_cell_angle_beta 134.289980
_cell_angle_gamma 90.000000
_cell_volume 1505.476165
_symmetry_space_group_name_H-M "P 2/M"
_symmetry_group_IT_number 10
_symmetry_cell_setting 'monoclinic'
loop_
_space_group_symop_operation_xyz
x,y,z
-x,y,-z
-x,-y,-z
x,-y,z
loop_
_atom_site_type_symbol
_atom_site_label
_atom_site_fract_x
_atom_site_fract_y
_atom_site_fract_z
Si Si1 0.966850 0.170900 0.907354
Si Si2 0.326623 0.171645 0.076640
Si Si3 0.464439 0.830778 0.641203
Si Si4 0.126814 0.160229 0.478301
Si Si5 0.794435 0.332171 0.339763
Si Si6 0.075409 0.170614 0.224788
Si Si7 0.268569 0.331113 0.801493
O O1 0.947090 0.233126 0.841918
O O2 0.786134 0.229641 0.898607
O O3 0.939868 0.000000 0.899291
O O4 0.185638 0.210840 0.988723
O O5 0.534173 0.256592 0.121905
O O6 0.370340 0.000000 0.090790
O O7 0.352035 0.788248 0.555455
O O8 0.376246 0.743402 0.668746
O O9 0.699787 0.796360 0.695435
O O10 0.426418 0.000000 0.644265
O O11 0.000000 0.155319 0.500000
O O12 0.020393 0.268587 0.408647
O O13 0.135420 0.000000 0.453824
O O14 0.801651 0.500000 0.356995
O O15 0.733139 0.304382 0.262590
O O16 0.928820 0.258223 0.225204
O O17 0.023470 0.000000 0.213598
O O18 0.269931 0.500000 0.816697
#
# Coordination Sequence:
#
# PCOD8063214 Si02
#       7
#     4   4   4   4   4   4   4
#     4   8  16  32  57  85 103 121 163 214 251 296
#     4   9  17  34  59  81 101 128 163 207 257 301
#     4   9  18  33  55  81 103 125 163 213 257 299
#     4   8  15  29  50  77 104 126 158 209 257 296
#     4  10  20  33  51  74 101 135 172 207 247 299
#     4  10  20  35  54  75 101 135 171 205 248 301
#     4  11  24  37  47  70 107 140 173 209 245 293
#
# _framework density 18.598766999999999
#
# number of rings (size 3 to 8) (size 9 to 14) (size 15 to 20)
#    0.000    2.714    0.000    3.429    0.000    7.143 
#    0.000    6.429    0.000    4.286    0.000    0.000 
#    0.000    0.000    0.000    0.000    0.000    0.000 
#
# Total GULP energy -347133.323827 kJ/mol
# GULP energy per Si atom -12397.618708 kJ/mol
# Density = 1.855644 g / cm^3
# Si number density = 18.598767 Si / 1000 Ang^3
#
#
#
# Elastic Constant Matrix: (Units=GPa)
#
#
# Indices 1 2 3 4 5 6 
#
# 1 59.3193 38.1416 31.9326 0.0000 26.0683 0.0000
# 2 38.1416 73.1498 45.8148 0.0000 14.4682 0.0000
# 3 31.9326 45.8148 111.6813 0.0000 31.8398 0.0000
# 4 0.0000 0.0000 0.0000 13.9956 0.0000 -9.6135
# 5 26.0683 14.4682 31.8398 0.0000 23.3782 0.0000
# 6 0.0000 0.0000 0.0000 -9.6135 0.0000 16.6403
#
#
#
# Elastic Compliance Matrix: (Units=1/GPa)
#
#
# Indices 1 2 3 4 5 6 
#
# 1 0.050029 -0.021568 0.010858 0.000000 -0.057226 0.000000
# 2 -0.021568 0.027743 -0.011730 0.000000 0.022857 0.000000
# 3 0.010858 -0.011730 0.019688 0.000000 -0.031662 0.000000
# 4 0.000000 0.000000 0.000000 0.118461 0.000000 0.068438
# 5 -0.057226 0.022857 -0.031662 0.000000 0.135563 0.000000
# 6 0.000000 0.000000 0.000000 0.068438 0.000000 0.099634
#
#
# Mechanical properties :
#
#
# Convention : Reuss Voigt Hill
#
# Bulk Modulus (GPa) = 19.01873 52.88095 35.94984
# Shear Modulus (GPa) = 9.73662 19.35355 14.54509
#
# Velocity S-wave (km/s) = 2.29051 3.22931 2.79954
# Velocity P-wave (km/s) = 4.15250 6.51143 5.46086
#
# Compressibility (1/GPa) = 0.05257975
#
# Stress axis : x y z
#
# Youngs Moduli (GPa) = 19.98831 36.04569 50.79161
#
# Poissons Ratio (x) = 0.77743 -0.55150
# Poissons Ratio (y) = 0.43111 0.59580
# Poissons Ratio (z) = -0.21703 0.42282
#
# Static dielectric constant tensor:
#      x y z
#    x 3.260460 0.000000 -0.015010 
#    y 0.000000 3.236830 0.000000 
#    z -0.015010 0.000000 3.955990 
# 
# 
# High freq. dielectric constant tensor:
#      x y z
#    x 1.697600 0.000000 0.006450 
#    y 0.000000 1.700110 0.000000 
#    z 0.006450 0.000000 1.741090 
# 
# From -- ./inp_files/92076.got.cif
#   From: 2010.06.25/outbox.cif.g09.slc.cpg/sg10_47_cif.got.tgz:92076.got - 2010.06.27 22:07:45.
