data_PCOD8063829
_publ_section_title
;
Structure prediction by ZEFSAII (Michael W. Deem and Ramdas Pophale) SiO2 
 PCOD8063829
Probable space group: P 2/M
;
_chemical_formula_sum "Si O2"
_cell_formula_units_Z 32
_cell_length_a 21.008273
_cell_length_b 8.896219
_cell_length_c 25.166576
_cell_angle_alpha 90.000000
_cell_angle_beta 20.839130
_cell_angle_gamma 90.000000
_cell_volume 1673.243479
_symmetry_space_group_name_H-M "P 2/M"
_symmetry_group_IT_number 10
_symmetry_cell_setting 'monoclinic'
loop_
_space_group_symop_operation_xyz
x,y,z
-x,y,-z
-x,-y,-z
x,-y,z
loop_
_atom_site_type_symbol
_atom_site_label
_atom_site_fract_x
_atom_site_fract_y
_atom_site_fract_z
Si Si1 0.128936 0.178221 0.739364
Si Si2 0.930999 0.332167 0.389895
Si Si3 0.584098 0.828101 0.633933
Si Si4 0.125901 0.326058 0.448460
Si Si5 0.517492 0.674139 0.580647
Si Si6 0.848425 0.328885 0.880796
Si Si7 0.882255 0.675144 0.141940
Si Si8 0.492813 0.825759 0.186890
O O1 0.327791 0.235945 0.570515
O O2 0.061055 0.235280 0.849645
O O3 0.988680 0.233321 0.805172
O O4 0.131716 0.000000 0.737303
O O5 0.846044 0.500000 0.450759
O O6 0.792512 0.210131 0.476264
O O7 0.979056 0.302158 0.413969
O O8 0.106334 0.319066 0.217088
O O9 0.494114 0.724019 0.659878
O O10 0.489812 0.797474 0.763620
O O11 0.566050 0.000000 0.629947
O O12 0.173091 0.500000 0.401506
O O13 0.308048 0.232803 0.306958
O O14 0.000000 0.262802 0.500000
O O15 0.570257 0.500000 0.537060
O O16 0.327928 0.705623 0.701512
O O17 0.854086 0.500000 0.897038
O O18 0.650804 0.265051 0.036978
O O19 0.921929 0.500000 0.120031
O O20 0.000000 0.733573 0.000000
O O21 0.510164 0.000000 0.159501
#
# Coordination Sequence:
#
# PCOD8063829 Si02
#       8
#     4   4   4   4   4   4   4   4
#     4  12  25  40  60  86 116 152 193 240 297 352
#     4   9  18  34  57  85 114 148 191 236 283 338
#     4  10  20  34  55  83 113 146 187 236 287 342
#     4   9  18  36  62  89 117 153 198 242 285 340
#     4  11  22  38  61  85 112 149 194 239 286 349
#     4  11  22  37  59  85 116 153 195 240 290 346
#     4  10  24  44  62  84 113 150 196 244 294 351
#     4  10  22  37  55  85 122 155 191 237 292 345
#
# _framework density 19.124533
#
# number of rings (size 3 to 8) (size 9 to 14) (size 15 to 20)
#    0.000    1.750    1.250    3.000    1.750    5.000 
#    0.000    0.625    0.000    3.750    0.000    0.000 
#    0.000    0.000    0.000    0.000    0.000    0.000 
#
# Total GULP energy -396856.217818 kJ/mol
# GULP energy per Si atom -12401.756807 kJ/mol
# Density = 1.908100 g / cm^3
# Si number density = 19.124533 Si / 1000 Ang^3
#
#
#
# Elastic Constant Matrix: (Units=GPa)
#
#
# Indices 1 2 3 4 5 6 
#
# 1 114.3549 49.1247 46.7285 0.0000 3.1220 0.0000
# 2 49.1247 96.3893 51.4049 0.0000 6.6098 0.0000
# 3 46.7285 51.4049 107.8686 0.0000 15.8219 0.0000
# 4 0.0000 0.0000 0.0000 16.2292 0.0000 5.8969
# 5 3.1220 6.6098 15.8219 0.0000 20.1403 0.0000
# 6 0.0000 0.0000 0.0000 5.8969 0.0000 20.1809
#
#
#
# Elastic Compliance Matrix: (Units=1/GPa)
#
#
# Indices 1 2 3 4 5 6 
#
# 1 0.011985 -0.004448 -0.003406 0.000000 0.002278 0.000000
# 2 -0.004448 0.015570 -0.005476 0.000000 -0.000119 0.000000
# 3 -0.003406 -0.005476 0.014710 0.000000 -0.009231 0.000000
# 4 0.000000 0.000000 0.000000 0.068936 0.000000 -0.020143
# 5 0.002278 -0.000119 -0.009231 0.000000 0.056589 0.000000
# 6 0.000000 0.000000 0.000000 -0.020143 0.000000 0.055438
#
#
# Mechanical properties :
#
#
# Convention : Reuss Voigt Hill
#
# Bulk Modulus (GPa) = 64.08302 68.12545 66.10423
# Shear Modulus (GPa) = 19.60102 22.73373 21.16738
#
# Velocity S-wave (km/s) = 3.20490 3.45152 3.33050
# Velocity P-wave (km/s) = 6.87577 7.18216 7.03063
#
# Compressibility (1/GPa) = 0.01560476
#
# Stress axis : x y z
#
# Youngs Moduli (GPa) = 83.43657 64.22746 67.98307
#
# Poissons Ratio (x) = 0.28567 0.23158
# Poissons Ratio (y) = 0.37110 0.37225
# Poissons Ratio (z) = 0.28423 0.35168
#
# Static dielectric constant tensor:
#      x y z
#    x 3.642000 0.000000 0.211430 
#    y 0.000000 3.569690 0.000000 
#    z 0.211430 0.000000 3.414420 
# 
# 
# High freq. dielectric constant tensor:
#      x y z
#    x 1.742770 0.000000 0.014360 
#    y 0.000000 1.749430 0.000000 
#    z 0.014360 0.000000 1.736440 
# 
# From -- ./inp_files/93690.got.cif
#   From: 2010.06.25/outbox.cif.g09.slc.cpg/sg10_47_cif.got.tgz:93690.got - 2010.06.27 22:07:45.
