data_PCOD8063046
_publ_section_title
;
Structure prediction by ZEFSAII (Michael W. Deem and Ramdas Pophale) SiO2 
 PCOD8063046
Probable space group: P 2/M
;
_chemical_formula_sum "Si O2"
_cell_formula_units_Z 24
_cell_length_a 11.199718
_cell_length_b 12.753954
_cell_length_c 17.344876
_cell_angle_alpha 90.000000
_cell_angle_beta 31.922912
_cell_angle_gamma 90.000000
_cell_volume 1310.075536
_symmetry_space_group_name_H-M "P 2/M"
_symmetry_group_IT_number 10
_symmetry_cell_setting 'monoclinic'
loop_
_space_group_symop_operation_xyz
x,y,z
-x,y,-z
-x,-y,-z
x,-y,z
loop_
_atom_site_type_symbol
_atom_site_label
_atom_site_fract_x
_atom_site_fract_y
_atom_site_fract_z
Si Si1 0.050902 0.195298 0.652604
Si Si2 0.529663 0.879492 0.664208
Si Si3 0.682603 0.121042 0.751361
Si Si4 0.896922 0.734815 0.133923
Si Si5 0.762677 0.620351 0.354758
Si Si6 0.196452 0.882372 0.064839
O O1 0.282461 0.137317 0.504374
O O2 0.103719 0.311965 0.654614
O O3 0.883005 0.197011 0.671227
O O4 0.925219 0.128852 0.786904
O O5 0.634176 0.850167 0.689517
O O6 0.325789 0.802322 0.758164
O O7 0.446493 0.000000 0.707763
O O8 0.762113 0.000000 0.714842
O O9 0.462803 0.143000 0.924562
O O10 0.851384 0.643060 0.220080
O O11 0.091258 0.810503 0.057421
O O12 0.000000 0.683187 0.000000
O O13 0.500000 0.648822 0.500000
O O14 0.807993 0.500000 0.350810
O O15 0.167148 0.000000 0.050524
#
# Coordination Sequence:
#
# PCOD8063046 Si02
#       6
#     4   4   4   4   4   4
#     4  11  21  35  56  81 109 146 188 231 268 326
#     4  11  21  33  53  85 120 154 183 216 262 321
#     4  10  20  34  53  80 119 161 185 207 257 328
#     4  11  21  36  57  84 112 145 186 230 277 323
#     4  10  22  42  63  81 102 135 185 243 298 331
#     4  10  20  32  52  81 116 156 187 216 260 322
#
# _framework density 18.319554
#
# number of rings (size 3 to 8) (size 9 to 14) (size 15 to 20)
#    0.000    1.500    3.333    3.000    0.000    3.667 
#    0.000    2.500    0.000   11.000    0.000    0.000 
#    0.000    0.000    0.000    0.000    0.000    0.000 
#
# Total GULP energy -297614.803318 kJ/mol
# GULP energy per Si atom -12400.616805 kJ/mol
# Density = 1.827786 g / cm^3
# Si number density = 18.319554 Si / 1000 Ang^3
#
#
#
# Elastic Constant Matrix: (Units=GPa)
#
#
# Indices 1 2 3 4 5 6 
#
# 1 76.5330 39.5061 8.0687 0.0000 -9.0342 0.0000
# 2 39.5061 73.8200 23.8585 0.0000 -9.9852 0.0000
# 3 8.0687 23.8585 93.4833 0.0000 1.7904 0.0000
# 4 0.0000 0.0000 0.0000 19.9984 0.0000 -1.3969
# 5 -9.0342 -9.9852 1.7904 0.0000 31.2168 0.0000
# 6 0.0000 0.0000 0.0000 -1.3969 0.0000 24.2864
#
#
#
# Elastic Compliance Matrix: (Units=1/GPa)
#
#
# Indices 1 2 3 4 5 6 
#
# 1 0.018269 -0.009775 0.000878 0.000000 0.002110 0.000000
# 2 -0.009775 0.020798 -0.004543 0.000000 0.004084 0.000000
# 3 0.000878 -0.004543 0.011817 0.000000 -0.001877 0.000000
# 4 0.000000 0.000000 0.000000 0.050206 0.000000 0.002888
# 5 0.002110 0.004084 -0.001877 0.000000 0.034059 0.000000
# 6 0.000000 0.000000 0.000000 0.002888 0.000000 0.041341
#
#
# Mechanical properties :
#
#
# Convention : Reuss Voigt Hill
#
# Bulk Modulus (GPa) = 41.66062 42.96698 42.31380
# Shear Modulus (GPa) = 23.65511 26.59385 25.12448
#
# Velocity S-wave (km/s) = 3.59729 3.81420 3.70734
# Velocity P-wave (km/s) = 6.32807 6.55001 6.44000
#
# Compressibility (1/GPa) = 0.02400348
#
# Stress axis : x y z
#
# Youngs Moduli (GPa) = 54.73862 48.08073 84.62631
#
# Poissons Ratio (x) = 0.46999 -0.07426
# Poissons Ratio (y) = 0.53507 0.38442
# Poissons Ratio (z) = -0.04803 0.21841
#
# Static dielectric constant tensor:
#      x y z
#    x 3.493920 0.000000 0.079090 
#    y 0.000000 3.017690 0.000000 
#    z 0.079090 0.000000 3.675950 
# 
# 
# High freq. dielectric constant tensor:
#      x y z
#    x 1.714010 0.000000 0.003500 
#    y 0.000000 1.670390 0.000000 
#    z 0.003500 0.000000 1.735300 
# 
# From -- ./inp_files/23941.got.cif
#   From: 2010.06.25/outbox.cif.g09.slc.cpg/sg10_12_cif.got.tgz:23941.got - 2010.06.27 22:07:45.
