data_PCOD8063816
_publ_section_title
;
Structure prediction by ZEFSAII (Michael W. Deem and Ramdas Pophale) SiO2 
 PCOD8063816
Probable space group: P 2/M
;
_chemical_formula_sum "Si O2"
_cell_formula_units_Z 28
_cell_length_a 10.557190
_cell_length_b 9.087450
_cell_length_c 15.570924
_cell_angle_alpha 90.000000
_cell_angle_beta 106.119972
_cell_angle_gamma 90.000000
_cell_volume 1435.108065
_symmetry_space_group_name_H-M "P 2/M"
_symmetry_group_IT_number 10
_symmetry_cell_setting 'monoclinic'
loop_
_space_group_symop_operation_xyz
x,y,z
-x,y,-z
-x,-y,-z
x,-y,z
loop_
_atom_site_type_symbol
_atom_site_label
_atom_site_fract_x
_atom_site_fract_y
_atom_site_fract_z
Si Si1 0.616168 0.672819 0.457267
Si Si2 0.935420 0.331178 0.292768
Si Si3 0.513308 0.825499 0.903717
Si Si4 0.043618 0.827133 0.874109
Si Si5 0.890556 0.826071 0.547959
Si Si6 0.199677 0.171829 0.068046
Si Si7 0.641686 0.332331 0.271345
O O1 0.500000 0.723313 0.500000
O O2 0.644917 0.500000 0.472180
O O3 0.748143 0.758709 0.505360
O O4 0.574821 0.710207 0.350530
O O5 0.980996 0.500000 0.302208
O O6 0.797897 0.309900 0.317159
O O7 0.908500 0.275661 0.192450
O O8 0.053619 0.232302 0.351538
O O9 0.653294 0.764434 0.894344
O O10 0.404254 0.764460 0.817926
O O11 0.499604 0.000000 0.898248
O O12 0.500000 0.770628 0.000000
O O13 0.888920 0.795405 0.865035
O O14 0.066624 0.000000 0.858671
O O15 0.129443 0.768005 0.969684
O O16 0.000000 0.773990 0.500000
O O17 0.875419 0.000000 0.547436
O O18 0.211738 0.000000 0.055116
O O19 0.609840 0.500000 0.240963
#
# Coordination Sequence:
#
# PCOD8063816 Si02
#       7
#     4   4   4   4   4   4   4
#     4  10  22  42  65  88 120 161 198 237 295 360
#     4  11  22  36  57  83 113 147 188 236 290 345
#     4  10  20  34  55  82 111 146 189 232 279 338
#     4   9  17  33  56  79 108 145 188 233 280 339
#     4  11  23  39  62  89 115 147 192 242 291 343
#     4   8  16  32  53  78 110 147 183 230 287 333
#     4  10  22  38  56  81 113 150 189 234 287 343
#
# _framework density 19.510725999999998
#
# number of rings (size 3 to 8) (size 9 to 14) (size 15 to 20)
#    0.000    2.143    1.429    2.571    0.000    5.143 
#    0.000    5.714    0.000    0.000    0.000    0.000 
#    0.000    0.000    0.000    0.000    0.000    0.000 
#
# Total GULP energy -347087.904833 kJ/mol
# GULP energy per Si atom -12395.996601 kJ/mol
# Density = 1.946632 g / cm^3
# Si number density = 19.510726 Si / 1000 Ang^3
#
#
#
# Elastic Constant Matrix: (Units=GPa)
#
#
# Indices 1 2 3 4 5 6 
#
# 1 104.7611 45.0351 41.0789 0.0000 -0.5011 0.0000
# 2 45.0351 47.9822 35.4154 0.0000 0.8580 0.0000
# 3 41.0789 35.4154 103.2852 0.0000 -3.6221 0.0000
# 4 0.0000 0.0000 0.0000 28.6717 0.0000 2.4469
# 5 -0.5011 0.8580 -3.6221 0.0000 34.0632 0.0000
# 6 0.0000 0.0000 0.0000 2.4469 0.0000 24.8606
#
#
#
# Elastic Compliance Matrix: (Units=1/GPa)
#
#
# Indices 1 2 3 4 5 6 
#
# 1 0.016215 -0.014027 -0.001624 0.000000 0.000419 0.000000
# 2 -0.014027 0.040139 -0.008258 0.000000 -0.002096 0.000000
# 3 -0.001624 -0.008258 0.013215 0.000000 0.001589 0.000000
# 4 0.000000 0.000000 0.000000 0.035173 0.000000 -0.003462
# 5 0.000419 -0.002096 0.001589 0.000000 0.029585 0.000000
# 6 0.000000 0.000000 0.000000 -0.003462 0.000000 0.040565
#
#
# Mechanical properties :
#
#
# Convention : Reuss Voigt Hill
#
# Bulk Modulus (GPa) = 45.97676 55.45416 50.71546
# Shear Modulus (GPa) = 21.74277 26.48569 24.11423
#
# Velocity S-wave (km/s) = 3.34189 3.68842 3.51942
# Velocity P-wave (km/s) = 6.20540 6.82813 6.52420
#
# Compressibility (1/GPa) = 0.02175012
#
# Stress axis : x y z
#
# Youngs Moduli (GPa) = 61.67296 24.91323 75.66993
#
# Poissons Ratio (x) = 0.34946 0.12292
# Poissons Ratio (y) = 0.86510 0.62488
# Poissons Ratio (z) = 0.10018 0.20573
#
# Static dielectric constant tensor:
#      x y z
#    x 3.904440 0.000000 -0.040640 
#    y 0.000000 3.267100 0.000000 
#    z -0.040640 0.000000 3.516940 
# 
# 
# High freq. dielectric constant tensor:
#      x y z
#    x 1.766450 0.000000 -0.003980 
#    y 0.000000 1.736800 0.000000 
#    z -0.003980 0.000000 1.761260 
# 
# From -- ./inp_files/63483.got.cif
#   From: 2010.06.25/outbox.cif.g09.slc.cpg/sg10_32_cif.got.tgz:63483.got - 2010.06.27 22:07:45.
