data_PCOD8063972
_publ_section_title
;
Structure prediction by ZEFSAII (Michael W. Deem and Ramdas Pophale) SiO2 
 PCOD8063972
Probable space group: P 2/M
;
_chemical_formula_sum "Si O2"
_cell_formula_units_Z 26
_cell_length_a 10.359063
_cell_length_b 9.543383
_cell_length_c 16.116199
_cell_angle_alpha 90.000000
_cell_angle_beta 53.633143
_cell_angle_gamma 90.000000
_cell_volume 1282.948232
_symmetry_space_group_name_H-M "P 2/M"
_symmetry_group_IT_number 10
_symmetry_cell_setting 'monoclinic'
loop_
_space_group_symop_operation_xyz
x,y,z
-x,y,-z
-x,-y,-z
x,-y,z
loop_
_atom_site_type_symbol
_atom_site_label
_atom_site_fract_x
_atom_site_fract_y
_atom_site_fract_z
Si Si1 0.395640 0.155682 0.703919
Si Si2 0.142622 0.336633 0.254040
Si Si3 0.316266 0.836224 0.050913
Si Si4 0.751173 0.839879 0.630902
Si Si5 0.500000 0.288982 0.500000
Si Si6 0.821649 0.349671 0.457191
Si Si7 0.178672 0.833542 0.927426
O O1 0.563712 0.162888 0.686134
O O2 0.404374 0.203941 0.606087
O O3 0.267142 0.234194 0.812796
O O4 0.331856 0.000000 0.720732
O O5 0.194970 0.500000 0.232398
O O6 0.198435 0.259039 0.150101
O O7 0.222522 0.258013 0.300792
O O8 0.949524 0.320862 0.335153
O O9 0.281220 0.000000 0.082670
O O10 0.500000 0.799105 0.000000
O O11 0.280712 0.794774 0.969842
O O12 0.840548 0.774792 0.516556
O O13 0.811328 0.000000 0.621674
O O14 0.641816 0.372855 0.490601
O O15 0.863674 0.500000 0.483481
O O16 0.170747 0.000000 0.922239
O O17 0.000000 0.769659 0.000000
#
# Coordination Sequence:
#
# PCOD8063972 Si02
#       7
#     4   4   4   4   2   4   4
#     4   9  18  33  53  82 118 146 184 240 295 346
#     4  11  23  37  57  84 117 152 190 241 295 350
#     4  10  21  38  60  86 114 151 198 248 298 349
#     4  10  20  36  58  85 114 150 192 240 292 346
#     4  10  20  34  58  82 109 156 197 236 287 350
#     4  10  22  38  55  80 117 155 194 238 291 353
#     4   9  18  32  53  81 113 151 190 236 293 348
#
# _framework density 20.265820999999999
#
# number of rings (size 3 to 8) (size 9 to 14) (size 15 to 20)
#    0.000    2.154    0.000    2.769    2.154    6.462 
#    0.000    0.000    0.000    2.308    0.000    0.000 
#    0.000    0.000    0.000    0.000    0.000    0.000 
#
# Total GULP energy -322183.046415 kJ/mol
# GULP energy per Si atom -12391.655631 kJ/mol
# Density = 2.021969 g / cm^3
# Si number density = 20.265821 Si / 1000 Ang^3
#
#
#
# Elastic Constant Matrix: (Units=GPa)
#
#
# Indices 1 2 3 4 5 6 
#
# 1 68.9599 21.0537 38.5817 0.0000 7.5761 0.0000
# 2 21.0537 94.0597 57.5964 0.0000 -0.4822 0.0000
# 3 38.5817 57.5964 185.0289 0.0000 2.6591 0.0000
# 4 0.0000 0.0000 0.0000 22.1126 0.0000 -10.6021
# 5 7.5761 -0.4822 2.6591 0.0000 28.4015 0.0000
# 6 0.0000 0.0000 0.0000 -10.6021 0.0000 -4.5099
#
#
#
# Elastic Compliance Matrix: (Units=1/GPa)
#
#
# Indices 1 2 3 4 5 6 
#
# 1 0.017235 -0.002122 -0.002870 0.000000 -0.004365 0.000000
# 2 -0.002122 0.013407 -0.003747 0.000000 0.001145 0.000000
# 3 -0.002870 -0.003747 0.007169 0.000000 0.000031 0.000000
# 4 0.000000 0.000000 0.000000 0.021260 0.000000 -0.049979
# 5 -0.004365 0.001145 0.000031 0.000000 0.036390 0.000000
# 6 0.000000 0.000000 0.000000 -0.049979 0.000000 -0.104240
#
#
# Mechanical properties :
#
#
# Convention : Reuss Voigt Hill
#
# Bulk Modulus (GPa) = 49.18673 64.72358 56.95516
# Shear Modulus (GPa) = 323.04476 24.58860 173.81668
#
# Velocity S-wave (km/s) = 12.63922 3.48703 9.27117
# Velocity P-wave (km/s) = 15.40530 6.94400 11.94869
#
# Compressibility (1/GPa) = 0.02033069
#
# Stress axis : x y z
#
# Youngs Moduli (GPa) = 58.02297 74.58729 139.48766
#
# Poissons Ratio (x) = 0.15831 0.40037
# Poissons Ratio (y) = 0.12315 0.52270
# Poissons Ratio (z) = 0.16654 0.27950
#
# Static dielectric constant tensor:
#      x y z
#    x 3.675140 0.000000 -0.054780 
#    y 0.000000 3.572050 0.000000 
#    z -0.054780 0.000000 4.032020 
# 
# 
# High freq. dielectric constant tensor:
#      x y z
#    x 1.792650 0.000000 -0.007550 
#    y 0.000000 1.765930 0.000000 
#    z -0.007550 0.000000 1.804070 
# 
# From -- ./inp_files/60893.got.cif
#   From: 2010.06.25/outbox.cif.g09.slc.cpg/sg10_31_cif.got.tgz:60893.got - 2010.06.27 22:07:45.
