data_PCOD8063975
_publ_section_title
;
Structure prediction by ZEFSAII (Michael W. Deem and Ramdas Pophale) SiO2 
 PCOD8063975
Probable space group: P 2/M
;
_chemical_formula_sum "Si O2"
_cell_formula_units_Z 30
_cell_length_a 7.601813
_cell_length_b 15.364666
_cell_length_c 21.885658
_cell_angle_alpha 90.000000
_cell_angle_beta 146.186456
_cell_angle_gamma 90.000000
_cell_volume 1422.521590
_symmetry_space_group_name_H-M "P 2/M"
_symmetry_group_IT_number 10
_symmetry_cell_setting 'monoclinic'
loop_
_space_group_symop_operation_xyz
x,y,z
-x,y,-z
-x,-y,-z
x,-y,z
loop_
_atom_site_type_symbol
_atom_site_label
_atom_site_fract_x
_atom_site_fract_y
_atom_site_fract_z
Si Si1 0.543895 0.231453 0.416910
Si Si2 0.629293 0.404901 0.381963
Si Si3 0.779057 0.902072 0.751384
Si Si4 0.000000 0.672391 0.000000
Si Si5 0.332339 0.904245 0.813228
Si Si6 0.990395 0.764213 0.348756
Si Si7 0.769909 0.188939 0.028288
Si Si8 0.603594 0.403111 0.233274
O O1 0.455349 0.327216 0.366718
O O2 0.514856 0.158028 0.355773
O O3 0.899045 0.231044 0.548285
O O4 0.290913 0.211098 0.395583
O O5 0.519661 0.500000 0.375164
O O6 0.527892 0.395981 0.282755
O O7 0.000000 0.394799 0.500000
O O8 0.035236 0.904706 0.772056
O O9 0.932423 0.858788 0.855336
O O10 0.659955 0.000000 0.731653
O O11 0.288740 0.611702 0.103386
O O12 0.892936 0.726728 0.028401
O O13 0.280757 0.836242 0.742567
O O14 0.385609 0.000000 0.800336
O O15 0.637547 0.877938 0.940075
O O16 0.866757 0.669100 0.293657
O O17 0.500000 0.215218 0.000000
O O18 0.734732 0.500000 0.255701
#
# Coordination Sequence:
#
# PCOD8063975 Si02
#       8
#     4   4   4   2   4   4   4   4
#     4  10  20  34  58  84 113 150 193 236 288 343
#     4  10  20  36  58  80 106 146 192 236 288 347
#     4   9  18  33  55  85 118 153 190 234 288 344
#     4  12  23  40  65  86 118 158 193 242 299 354
#     4   9  17  33  56  82 115 153 192 237 287 342
#     4  10  20  35  56  86 115 149 190 239 289 343
#     4  10  20  36  62  89 116 154 201 242 290 344
#     4  11  23  40  60  83 114 151 190 236 296 354
#
# _framework density 21.089310000000001
#
# number of rings (size 3 to 8) (size 9 to 14) (size 15 to 20)
#    0.000    2.000    2.667    1.400    0.000    2.667 
#    0.000    5.333    0.000    1.200    0.000    0.000 
#    0.000    0.000    0.000    0.000    0.000    0.000 
#
# Total GULP energy -371884.831659 kJ/mol
# GULP energy per Si atom -12396.161055 kJ/mol
# Density = 2.104131 g / cm^3
# Si number density = 21.089310 Si / 1000 Ang^3
#
#
#
# Elastic Constant Matrix: (Units=GPa)
#
#
# Indices 1 2 3 4 5 6 
#
# 1 21.8326 22.2288 17.0794 0.0000 -10.5096 0.0000
# 2 22.2288 164.3411 76.7774 0.0000 -21.3326 0.0000
# 3 17.0794 76.7774 164.8259 0.0000 -24.8046 0.0000
# 4 0.0000 0.0000 0.0000 27.2427 0.0000 17.7161
# 5 -10.5096 -21.3326 -24.8046 0.0000 24.6984 0.0000
# 6 0.0000 0.0000 0.0000 17.7161 0.0000 -43.4504
#
#
#
# Elastic Compliance Matrix: (Units=1/GPa)
#
#
# Indices 1 2 3 4 5 6 
#
# 1 0.061899 -0.005276 -0.000799 0.000000 0.020980 0.000000
# 2 -0.005276 0.008513 -0.003122 0.000000 0.001973 0.000000
# 3 -0.000799 -0.003122 0.008420 0.000000 0.005419 0.000000
# 4 0.000000 0.000000 0.000000 0.029014 0.000000 0.011830
# 5 0.020980 0.001973 0.005419 0.000000 0.056562 0.000000
# 6 0.000000 0.000000 0.000000 0.011830 0.000000 -0.018191
#
#
# Mechanical properties :
#
#
# Convention : Reuss Voigt Hill
#
# Bulk Modulus (GPa) = 16.54599 64.79677 40.67138
# Shear Modulus (GPa) = 27.06272 17.35909 22.21090
#
# Velocity S-wave (km/s) = 3.58612 2.87212 3.24880
# Velocity P-wave (km/s) = 5.00098 6.46455 5.77928
#
# Compressibility (1/GPa) = 0.06043760
#
# Stress axis : x y z
#
# Youngs Moduli (GPa) = 16.15536 117.46632 118.77066
#
# Poissons Ratio (x) = 0.61972 0.09494
# Poissons Ratio (y) = 0.08523 0.37079
# Poissons Ratio (z) = 0.01291 0.36672
#
# Static dielectric constant tensor:
#      x y z
#    x 3.380210 0.000000 -0.233890 
#    y 0.000000 4.102620 0.000000 
#    z -0.233890 0.000000 4.154750 
# 
# 
# High freq. dielectric constant tensor:
#      x y z
#    x 1.791550 0.000000 -0.016840 
#    y 0.000000 1.832640 0.000000 
#    z -0.016840 0.000000 1.839400 
# 
# From -- ./inp_files/82766.got.cif
#   From: 2010.06.25/outbox.cif.g09.slc.cpg/sg10_42_cif.got.tgz:82766.got - 2010.06.27 22:07:45.
