data_PCOD8063759
_publ_section_title
;
Structure prediction by ZEFSAII (Michael W. Deem and Ramdas Pophale) SiO2 
 PCOD8063759
Probable space group: P 2/M
;
_chemical_formula_sum "Si O2"
_cell_formula_units_Z 28
_cell_length_a 18.375117
_cell_length_b 8.805486
_cell_length_c 10.026765
_cell_angle_alpha 90.000000
_cell_angle_beta 97.361423
_cell_angle_gamma 90.000000
_cell_volume 1608.977021
_symmetry_space_group_name_H-M "P 2/M"
_symmetry_group_IT_number 10
_symmetry_cell_setting 'monoclinic'
loop_
_space_group_symop_operation_xyz
x,y,z
-x,y,-z
-x,-y,-z
x,-y,z
loop_
_atom_site_type_symbol
_atom_site_label
_atom_site_fract_x
_atom_site_fract_y
_atom_site_fract_z
Si Si1 0.446229 0.323421 0.873503
Si Si2 0.918624 0.827341 0.491972
Si Si3 0.314696 0.179485 0.246774
Si Si4 0.290175 0.323302 0.960822
Si Si5 0.478389 0.179535 0.349787
Si Si6 0.790803 0.827811 0.284118
Si Si7 0.782214 0.320865 0.547384
O O1 0.461831 0.500000 0.855669
O O2 0.363569 0.288820 0.895813
O O3 0.461476 0.239539 0.739101
O O4 0.500000 0.257905 0.000000
O O5 0.878460 0.824736 0.337009
O O6 0.868224 0.729219 0.582214
O O7 0.000000 0.756017 0.500000
O O8 0.923645 0.000000 0.547402
O O9 0.397510 0.237807 0.290643
O O10 0.262077 0.260523 0.338188
O O11 0.308139 0.000000 0.263063
O O12 0.288925 0.226434 0.094408
O O13 0.281938 0.500000 0.994392
O O14 0.223137 0.268613 0.852482
O O15 0.500000 0.243530 0.500000
O O16 0.480971 0.000000 0.349029
O O17 0.749528 0.752524 0.402858
O O18 0.762234 0.000000 0.258962
O O19 0.775375 0.500000 0.537074
#
# Coordination Sequence:
#
# PCOD8063759 Si02
#       7
#     4   4   4   4   4   4   4
#     4  10  21  38  55  75 103 138 179 223 276 328
#     4   8  16  33  57  84 113 144 179 217 259 314
#     4  11  22  37  54  75 106 146 184 223 275 327
#     4  11  22  36  55  79 108 142 183 230 276 325
#     4  10  23  38  53  76 102 134 180 230 274 322
#     4   9  19  35  55  82 110 142 179 217 264 320
#     4  10  20  34  54  82 112 141 177 220 266 314
#
# _framework density 17.402363000000001
#
# number of rings (size 3 to 8) (size 9 to 14) (size 15 to 20)
#    0.857    1.286    1.429    2.143    2.000    2.571 
#    0.000    0.000    0.000    0.857    0.000    6.000 
#    0.000    0.000    0.000    0.000    0.000    0.000 
#
# Total GULP energy -347103.423396 kJ/mol
# GULP energy per Si atom -12396.550836 kJ/mol
# Density = 1.736275 g / cm^3
# Si number density = 17.402363 Si / 1000 Ang^3
#
#
#
# Elastic Constant Matrix: (Units=GPa)
#
#
# Indices 1 2 3 4 5 6 
#
# 1 57.8872 24.7868 25.1427 0.0000 8.3228 0.0000
# 2 24.7868 66.8908 21.5598 0.0000 -2.0149 0.0000
# 3 25.1427 21.5598 105.5864 0.0000 4.9121 0.0000
# 4 0.0000 0.0000 0.0000 19.0245 0.0000 -8.9321
# 5 8.3228 -2.0149 4.9121 0.0000 20.4286 0.0000
# 6 0.0000 0.0000 0.0000 -8.9321 0.0000 17.3538
#
#
#
# Elastic Compliance Matrix: (Units=1/GPa)
#
#
# Indices 1 2 3 4 5 6 
#
# 1 0.023559 -0.007869 -0.003560 0.000000 -0.009518 0.000000
# 2 -0.007869 0.018748 -0.002214 0.000000 0.005588 0.000000
# 3 -0.003560 -0.002214 0.010835 0.000000 -0.001373 0.000000
# 4 0.000000 0.000000 0.000000 0.069314 0.000000 0.035677
# 5 -0.009518 0.005588 -0.001373 0.000000 0.053710 0.000000
# 6 0.000000 0.000000 0.000000 0.035677 0.000000 0.075987
#
#
# Mechanical properties :
#
#
# Convention : Reuss Voigt Hill
#
# Bulk Modulus (GPa) = 38.67851 41.48257 40.08054
# Shear Modulus (GPa) = 17.35754 21.95306 19.65530
#
# Velocity S-wave (km/s) = 3.16163 3.55561 3.36439
# Velocity P-wave (km/s) = 5.96675 6.38323 6.17850
#
# Compressibility (1/GPa) = 0.02585415
#
# Stress axis : x y z
#
# Youngs Moduli (GPa) = 42.44581 53.33985 92.29571
#
# Poissons Ratio (x) = 0.41974 0.32861
# Poissons Ratio (y) = 0.33402 0.20436
# Poissons Ratio (z) = 0.15113 0.11811
#
# Static dielectric constant tensor:
#      x y z
#    x 3.162370 0.000000 0.099520 
#    y 0.000000 3.192030 0.000000 
#    z 0.099520 0.000000 3.169910 
# 
# 
# High freq. dielectric constant tensor:
#      x y z
#    x 1.655330 0.000000 0.004830 
#    y 0.000000 1.677660 0.000000 
#    z 0.004830 0.000000 1.664720 
# 
# From -- ./inp_files/33481.got.cif
#   From: 2010.06.25/outbox.cif.g09.slc.cpg/sg10_17_cif.got.tgz:33481.got - 2010.06.27 22:07:45.
