data_PCOD8063552
_publ_section_title
;
Structure prediction by ZEFSAII (Michael W. Deem and Ramdas Pophale) SiO2 
 PCOD8063552
Probable space group: P 2/M
;
_chemical_formula_sum "Si O2"
_cell_formula_units_Z 28
_cell_length_a 19.966597
_cell_length_b 8.954369
_cell_length_c 14.735550
_cell_angle_alpha 90.000000
_cell_angle_beta 33.291139
_cell_angle_gamma 90.000000
_cell_volume 1446.083990
_symmetry_space_group_name_H-M "P 2/M"
_symmetry_group_IT_number 10
_symmetry_cell_setting 'monoclinic'
loop_
_space_group_symop_operation_xyz
x,y,z
-x,y,-z
-x,-y,-z
x,-y,z
loop_
_atom_site_type_symbol
_atom_site_label
_atom_site_fract_x
_atom_site_fract_y
_atom_site_fract_z
Si Si1 0.693715 0.822936 0.421427
Si Si2 0.708377 0.826142 0.962059
Si Si3 0.441588 0.327006 0.720396
Si Si4 0.207201 0.822868 0.497902
Si Si5 0.362862 0.823219 0.155268
Si Si6 0.065952 0.174723 0.172194
Si Si7 0.788682 0.673136 0.143863
O O1 0.559303 0.761853 0.553974
O O2 0.737480 0.765647 0.470111
O O3 0.786938 0.757861 0.241635
O O4 0.693694 0.000000 0.414481
O O5 0.705935 0.779453 0.859650
O O6 0.841815 0.787597 0.850106
O O7 0.676418 0.000000 0.011131
O O8 0.603808 0.733822 0.131481
O O9 0.474941 0.500000 0.692189
O O10 0.339163 0.298751 0.761299
O O11 0.286106 0.753896 0.325836
O O12 0.067329 0.769653 0.646293
O O13 0.213056 0.000000 0.487202
O O14 0.369525 0.000000 0.159098
O O15 0.500000 0.756947 0.000000
O O16 0.066969 0.000000 0.147739
O O17 0.102241 0.261461 0.040036
O O18 0.813832 0.500000 0.132501
#
# Coordination Sequence:
#
# PCOD8063552 Si02
#       7
#     4   4   4   4   4   4   4
#     4  11  21  33  52  76 102 135 173 211 254 302
#     4   9  17  30  53  79 101 133 173 210 249 298
#     4  10  20  34  52  75 105 136 166 207 259 308
#     4   9  19  33  50  75 106 136 167 211 259 298
#     4   9  16  28  49  78 108 134 164 206 255 302
#     4   9  18  34  53  75 102 132 173 215 249 295
#     4  10  21  36  53  74 102 135 169 209 259 307
#
# _framework density 19.362638
#
# number of rings (size 3 to 8) (size 9 to 14) (size 15 to 20)
#    0.000    2.429    0.000    2.571    0.000    6.857 
#    0.000    7.143    0.000    5.571    0.000    4.000 
#    0.000    0.000    0.000    0.000    0.000    0.000 
#
# Total GULP energy -347257.899130 kJ/mol
# GULP energy per Si atom -12402.067826 kJ/mol
# Density = 1.931857 g / cm^3
# Si number density = 19.362638 Si / 1000 Ang^3
#
#
#
# Elastic Constant Matrix: (Units=GPa)
#
#
# Indices 1 2 3 4 5 6 
#
# 1 89.3156 30.4201 72.0662 0.0000 24.4918 0.0000
# 2 30.4201 53.6820 36.4986 0.0000 9.0948 0.0000
# 3 72.0662 36.4986 163.2577 0.0000 14.5655 0.0000
# 4 0.0000 0.0000 0.0000 10.7454 0.0000 -3.3756
# 5 24.4918 9.0948 14.5655 0.0000 37.5215 0.0000
# 6 0.0000 0.0000 0.0000 -3.3756 0.0000 10.6684
#
#
#
# Elastic Compliance Matrix: (Units=1/GPa)
#
#
# Indices 1 2 3 4 5 6 
#
# 1 0.021938 -0.005609 -0.007535 0.000000 -0.010035 0.000000
# 2 -0.005609 0.023865 -0.002766 0.000000 -0.001050 0.000000
# 3 -0.007535 -0.002766 0.009914 0.000000 0.001740 0.000000
# 4 0.000000 0.000000 0.000000 0.103335 0.000000 0.032697
# 5 -0.010035 -0.001050 0.001740 0.000000 0.032781 0.000000
# 6 0.000000 0.000000 0.000000 0.032697 0.000000 0.104080
#
#
# Mechanical properties :
#
#
# Convention : Reuss Voigt Hill
#
# Bulk Modulus (GPa) = 41.84306 64.91393 53.37849
# Shear Modulus (GPa) = 14.89434 22.93842 18.91638
#
# Velocity S-wave (km/s) = 2.77651 3.44564 3.12901
# Velocity P-wave (km/s) = 5.65118 7.03051 6.37824
#
# Compressibility (1/GPa) = 0.02389883
#
# Stress axis : x y z
#
# Youngs Moduli (GPa) = 45.58320 41.90266 100.86287
#
# Poissons Ratio (x) = 0.23501 0.75998
# Poissons Ratio (y) = 0.25565 0.27898
# Poissons Ratio (z) = 0.34346 0.11590
#
# Static dielectric constant tensor:
#      x y z
#    x 3.599530 0.000000 0.081410 
#    y 0.000000 3.233390 0.000000 
#    z 0.081410 0.000000 3.727390 
# 
# 
# High freq. dielectric constant tensor:
#      x y z
#    x 1.756580 0.000000 0.004500 
#    y 0.000000 1.720540 0.000000 
#    z 0.004500 0.000000 1.760190 
# 
# From -- ./inp_files/49143.got.cif
#   From: 2010.06.25/outbox.cif.g09.slc.cpg/sg10_25_cif.got.tgz:49143.got - 2010.06.27 22:07:45.
