data_PCOD8063241
_publ_section_title
;
Structure prediction by ZEFSAII (Michael W. Deem and Ramdas Pophale) SiO2 
 PCOD8063241
Probable space group: P 2/M
;
_chemical_formula_sum "Si O2"
_cell_formula_units_Z 28
_cell_length_a 9.086138
_cell_length_b 9.165378
_cell_length_c 28.711817
_cell_angle_alpha 90.000000
_cell_angle_beta 38.913133
_cell_angle_gamma 90.000000
_cell_volume 1501.923534
_symmetry_space_group_name_H-M "P 2/M"
_symmetry_group_IT_number 10
_symmetry_cell_setting 'monoclinic'
loop_
_space_group_symop_operation_xyz
x,y,z
-x,y,-z
-x,-y,-z
x,-y,z
loop_
_atom_site_type_symbol
_atom_site_label
_atom_site_fract_x
_atom_site_fract_y
_atom_site_fract_z
Si Si1 0.391146 0.329952 0.077025
Si Si2 0.902818 0.829592 0.204670
Si Si3 0.423689 0.671621 0.787924
Si Si4 0.041138 0.328648 0.348638
Si Si5 0.648735 0.339283 0.510178
Si Si6 0.264353 0.830583 0.651082
Si Si7 0.259832 0.672796 0.929566
O O1 0.333082 0.500000 0.099016
O O2 0.573876 0.269675 0.070203
O O3 0.157555 0.238983 0.140152
O O4 0.500000 0.301615 0.000000
O O5 0.742005 0.757710 0.205608
O O6 0.787707 0.797563 0.282694
O O7 0.923558 0.000000 0.189361
O O8 0.379056 0.500000 0.792527
O O9 0.690067 0.715728 0.711299
O O10 0.365471 0.722995 0.854452
O O11 0.012451 0.500000 0.345229
O O12 0.907735 0.286843 0.429895
O O13 0.933606 0.246253 0.330982
O O14 0.500000 0.347260 0.500000
O O15 0.661127 0.500000 0.530421
O O16 0.526656 0.229103 0.576157
O O17 0.260087 0.000000 0.639967
O O18 0.245402 0.500000 0.936281
O O19 0.000000 0.739857 0.000000
#
# Coordination Sequence:
#
# PCOD8063241 Si02
#       7
#     4   4   4   4   4   4   4
#     4  10  20  36  61  87 108 136 174 214 260 313
#     4  11  24  38  51  74 110 145 178 217 259 308
#     4  10  20  35  55  76 102 139 179 218 262 311
#     4   9  18  33  54  80 105 132 173 224 273 318
#     4   8  15  29  50  76 104 132 169 220 270 315
#     4  10  20  33  51  76 105 140 179 215 259 318
#     4   9  17  31  54  84 110 130 164 214 257 300
#
# _framework density 18.642759999999999
#
# number of rings (size 3 to 8) (size 9 to 14) (size 15 to 20)
#    0.000    2.429    0.000    3.429    0.000    9.143 
#    0.000    1.429    0.000    6.000    0.000    0.000 
#    0.000    0.000    0.000    0.000    0.000    0.000 
#
# Total GULP energy -347188.336657 kJ/mol
# GULP energy per Si atom -12399.583452 kJ/mol
# Density = 1.860033 g / cm^3
# Si number density = 18.642760 Si / 1000 Ang^3
#
#
#
# Elastic Constant Matrix: (Units=GPa)
#
#
# Indices 1 2 3 4 5 6 
#
# 1 148.4581 57.5565 88.5725 0.0000 -7.7815 0.0000
# 2 57.5565 67.4095 62.1324 0.0000 3.4919 0.0000
# 3 88.5725 62.1324 161.9403 0.0000 -17.7817 0.0000
# 4 0.0000 0.0000 0.0000 22.3668 0.0000 10.7880
# 5 -7.7815 3.4919 -17.7817 0.0000 30.6129 0.0000
# 6 0.0000 0.0000 0.0000 10.7880 0.0000 3.5614
#
#
#
# Elastic Compliance Matrix: (Units=1/GPa)
#
#
# Indices 1 2 3 4 5 6 
#
# 1 0.011527 -0.006615 -0.003591 0.000000 0.001599 0.000000
# 2 -0.006615 0.028884 -0.008556 0.000000 -0.009946 0.000000
# 3 -0.003591 -0.008556 0.012208 0.000000 0.007154 0.000000
# 4 0.000000 0.000000 0.000000 -0.096983 0.000000 0.293771
# 5 0.001599 -0.009946 0.007154 0.000000 0.038362 0.000000
# 6 0.000000 0.000000 0.000000 0.293771 0.000000 -0.609080
#
#
# Mechanical properties :
#
#
# Convention : Reuss Voigt Hill
#
# Bulk Modulus (GPa) = 66.25014 88.25896 77.25455
# Shear Modulus (GPa) = -8.73323 22.61135 6.93906
#
# Velocity S-wave (km/s) = -2.16672 3.48641 1.93137
# Velocity P-wave (km/s) = 5.41795 7.97821 6.81931
#
# Compressibility (1/GPa) = 0.01509431
#
# Stress axis : x y z
#
# Youngs Moduli (GPa) = 86.75530 34.62074 81.91608
#
# Poissons Ratio (x) = 0.22901 0.29416
# Poissons Ratio (y) = 0.57387 0.70091
# Poissons Ratio (z) = 0.31154 0.29623
#
# Static dielectric constant tensor:
#      x y z
#    x 3.378150 0.000000 -0.098700 
#    y 0.000000 3.262110 0.000000 
#    z -0.098700 0.000000 4.016250 
# 
# 
# High freq. dielectric constant tensor:
#      x y z
#    x 1.712260 0.000000 -0.005640 
#    y 0.000000 1.702290 0.000000 
#    z -0.005640 0.000000 1.745340 
# 
# From -- ./inp_files/37019.got.cif
#   From: 2010.06.25/outbox.cif.g09.slc.cpg/sg10_19_cif.got.tgz:37019.got - 2010.06.27 22:07:45.
