data_PCOD8063534
_publ_section_title
;
Structure prediction by ZEFSAII (Michael W. Deem and Ramdas Pophale) SiO2 
 PCOD8063534
Probable space group: P 2/M
;
_chemical_formula_sum "Si O2"
_cell_formula_units_Z 28
_cell_length_a 26.709451
_cell_length_b 8.953602
_cell_length_c 9.547557
_cell_angle_alpha 90.000000
_cell_angle_beta 140.940743
_cell_angle_gamma 90.000000
_cell_volume 1438.735274
_symmetry_space_group_name_H-M "P 2/M"
_symmetry_group_IT_number 10
_symmetry_cell_setting 'monoclinic'
loop_
_space_group_symop_operation_xyz
x,y,z
-x,y,-z
-x,-y,-z
x,-y,z
loop_
_atom_site_type_symbol
_atom_site_label
_atom_site_fract_x
_atom_site_fract_y
_atom_site_fract_z
Si Si1 0.692496 0.673530 0.690872
Si Si2 0.238306 0.823108 0.909481
Si Si3 0.002742 0.828876 0.848623
Si Si4 0.410612 0.323835 0.790312
Si Si5 0.184241 0.832334 0.217996
Si Si6 0.073740 0.324157 0.564555
Si Si7 0.281198 0.171748 0.694042
O O1 0.689115 0.500000 0.721357
O O2 0.619873 0.721768 0.431445
O O3 0.773232 0.708452 0.782745
O O4 0.691831 0.767018 0.834096
O O5 0.155415 0.755498 0.786543
O O6 0.258455 0.763744 0.797388
O O7 0.231723 0.000000 0.899267
O O8 0.945097 0.724020 0.634784
O O9 0.972186 0.000000 0.772947
O O10 0.091939 0.813718 0.987489
O O11 0.000000 0.769638 0.000000
O O12 0.405899 0.500000 0.799461
O O13 0.357577 0.254741 0.797838
O O14 0.500000 0.263491 0.000000
O O15 0.205054 0.806693 0.427220
O O16 0.212296 0.000000 0.235809
O O17 0.086311 0.500000 0.602681
O O18 0.000000 0.269578 0.500000
O O19 0.305294 0.000000 0.761499
#
# Coordination Sequence:
#
# PCOD8063534 Si02
#       7
#     4   4   4   4   4   4   4
#     4  10  20  34  54  79 106 136 172 214 258 309
#     4  11  22  37  56  78 107 142 181 222 267 322
#     4  10  20  34  52  74 101 136 178 223 271 321
#     4   9  19  37  60  85 112 142 175 210 255 316
#     4   9  17  32  53  74  99 134 176 219 264 315
#     4  11  24  38  52  75 107 142 183 230 275 318
#     4   9  19  35  56  82 108 138 178 222 265 311
#
# _framework density 19.461538000000001
#
# number of rings (size 3 to 8) (size 9 to 14) (size 15 to 20)
#    0.000    2.143    0.000    3.000    0.000    8.571 
#    0.000    3.571    0.000    4.286    0.000    0.000 
#    0.000    0.000    0.000    0.000    0.000    0.000 
#
# Total GULP energy -347216.906683 kJ/mol
# GULP energy per Si atom -12400.603810 kJ/mol
# Density = 1.941724 g / cm^3
# Si number density = 19.461538 Si / 1000 Ang^3
#
#
#
# Elastic Constant Matrix: (Units=GPa)
#
#
# Indices 1 2 3 4 5 6 
#
# 1 64.0784 25.0306 37.6622 0.0000 -7.7463 0.0000
# 2 25.0306 53.0797 34.4540 0.0000 -0.6882 0.0000
# 3 37.6622 34.4540 110.0236 0.0000 -6.3915 0.0000
# 4 0.0000 0.0000 0.0000 31.2733 0.0000 -5.4901
# 5 -7.7463 -0.6882 -6.3915 0.0000 34.2322 0.0000
# 6 0.0000 0.0000 0.0000 -5.4901 0.0000 23.7050
#
#
#
# Elastic Compliance Matrix: (Units=1/GPa)
#
#
# Indices 1 2 3 4 5 6 
#
# 1 0.021744 -0.006925 -0.005052 0.000000 0.003838 0.000000
# 2 -0.006925 0.025880 -0.005858 0.000000 -0.002141 0.000000
# 3 -0.005052 -0.005858 0.012717 0.000000 0.001114 0.000000
# 4 0.000000 0.000000 0.000000 0.033331 0.000000 0.007720
# 5 0.003838 -0.002141 0.001114 0.000000 0.030246 0.000000
# 6 0.000000 0.000000 0.000000 0.007720 0.000000 0.043973
#
#
# Mechanical properties :
#
#
# Convention : Reuss Voigt Hill
#
# Bulk Modulus (GPa) = 40.53225 46.83060 43.68143
# Shear Modulus (GPa) = 23.60884 26.51109 25.05996
#
# Velocity S-wave (km/s) = 3.48674 3.69484 3.59230
# Velocity P-wave (km/s) = 6.08949 6.50522 6.30078
#
# Compressibility (1/GPa) = 0.02467171
#
# Stress axis : x y z
#
# Youngs Moduli (GPa) = 45.98962 38.63990 78.63235
#
# Poissons Ratio (x) = 0.26758 0.39723
# Poissons Ratio (y) = 0.31848 0.46065
# Poissons Ratio (z) = 0.23233 0.22636
#
# Static dielectric constant tensor:
#      x y z
#    x 3.436040 0.000000 -0.143410 
#    y 0.000000 3.424920 0.000000 
#    z -0.143410 0.000000 3.776010 
# 
# 
# High freq. dielectric constant tensor:
#      x y z
#    x 1.741260 0.000000 -0.015640 
#    y 0.000000 1.750050 0.000000 
#    z -0.015640 0.000000 1.765410 
# 
# From -- ./inp_files/36974.got.cif
#   From: 2010.06.25/outbox.cif.g09.slc.cpg/sg10_19_cif.got.tgz:36974.got - 2010.06.27 22:07:45.
