data_PCOD8063610
_publ_section_title
;
Structure prediction by ZEFSAII (Michael W. Deem and Ramdas Pophale) SiO2 
 PCOD8063610
Probable space group: P 2/M
;
_chemical_formula_sum "Si O2"
_cell_formula_units_Z 28
_cell_length_a 25.726622
_cell_length_b 9.010237
_cell_length_c 9.386241
_cell_angle_alpha 90.000000
_cell_angle_beta 139.532659
_cell_angle_gamma 90.000000
_cell_volume 1412.098803
_symmetry_space_group_name_H-M "P 2/M"
_symmetry_group_IT_number 10
_symmetry_cell_setting 'monoclinic'
loop_
_space_group_symop_operation_xyz
x,y,z
-x,y,-z
-x,-y,-z
x,-y,z
loop_
_atom_site_type_symbol
_atom_site_label
_atom_site_fract_x
_atom_site_fract_y
_atom_site_fract_z
Si Si1 0.260350 0.325264 0.078406
Si Si2 0.764798 0.328390 0.648419
Si Si3 0.486362 0.329760 0.137507
Si Si4 0.575088 0.174714 0.557128
Si Si5 0.913915 0.326713 0.766561
Si Si6 0.822628 0.830790 0.340060
Si Si7 0.670464 0.831646 0.222914
O O1 0.268888 0.500000 0.071690
O O2 0.233530 0.285934 0.182651
O O3 0.344322 0.247701 0.213799
O O4 0.190538 0.260954 0.832207
O O5 0.742973 0.500000 0.580187
O O6 0.850703 0.289293 0.759442
O O7 0.694839 0.236140 0.426076
O O8 0.487396 0.500000 0.188397
O O9 0.557566 0.243556 0.365615
O O10 0.500000 0.310252 0.000000
O O11 0.401279 0.258355 0.999845
O O12 0.500000 0.215534 0.500000
O O13 0.588630 0.000000 0.574306
O O14 0.913928 0.500000 0.729645
O O15 0.894822 0.239931 0.581072
O O16 0.000000 0.272190 0.000000
O O17 0.743010 0.819499 0.266316
O O18 0.844271 0.000000 0.347584
O O19 0.642503 0.000000 0.188456
#
# Coordination Sequence:
#
# PCOD8063610 Si02
#       7
#     4   4   4   4   4   4   4
#     4  11  22  36  55  79 108 142 180 221 266 317
#     4   9  19  35  55  81 110 139 175 220 266 314
#     4  11  23  36  51  74 103 136 177 224 271 318
#     4  11  24  39  54  75 105 141 182 228 274 318
#     4   9  18  36  62  87 110 139 175 214 259 313
#     4  10  21  36  55  80 109 140 175 215 259 312
#     4  10  20  34  53  76 101 135 179 222 266 316
#
# _framework density 19.828641000000001
#
# number of rings (size 3 to 8) (size 9 to 14) (size 15 to 20)
#    0.000    1.857    0.000    3.857    0.000   12.286 
#    0.000    0.714    0.000    4.286    0.000    0.000 
#    0.000    0.000    0.000    0.000    0.000    0.000 
#
# Total GULP energy -347342.178493 kJ/mol
# GULP energy per Si atom -12405.077803 kJ/mol
# Density = 1.978351 g / cm^3
# Si number density = 19.828641 Si / 1000 Ang^3
#
#
#
# Elastic Constant Matrix: (Units=GPa)
#
#
# Indices 1 2 3 4 5 6 
#
# 1 43.5950 27.1351 26.2081 0.0000 -7.8825 0.0000
# 2 27.1351 93.4443 49.8580 0.0000 -11.7155 0.0000
# 3 26.2081 49.8580 134.0550 0.0000 -7.4836 0.0000
# 4 0.0000 0.0000 0.0000 26.9591 0.0000 3.3706
# 5 -7.8825 -11.7155 -7.4836 0.0000 33.0746 0.0000
# 6 0.0000 0.0000 0.0000 3.3706 0.0000 17.3372
#
#
#
# Elastic Compliance Matrix: (Units=1/GPa)
#
#
# Indices 1 2 3 4 5 6 
#
# 1 0.029553 -0.006376 -0.003180 0.000000 0.004066 0.000000
# 2 -0.006376 0.015177 -0.004236 0.000000 0.002898 0.000000
# 3 -0.003180 -0.004236 0.009653 0.000000 -0.000074 0.000000
# 4 0.000000 0.000000 0.000000 0.038017 0.000000 -0.007391
# 5 0.004066 0.002898 -0.000074 0.000000 0.032213 0.000000
# 6 0.000000 0.000000 0.000000 -0.007391 0.000000 0.059116
#
#
# Mechanical properties :
#
#
# Convention : Reuss Voigt Hill
#
# Bulk Modulus (GPa) = 37.31403 53.05517 45.18460
# Shear Modulus (GPa) = 22.70189 26.66707 24.68448
#
# Velocity S-wave (km/s) = 3.38731 3.67123 3.53213
# Velocity P-wave (km/s) = 5.84445 6.69220 6.28264
#
# Compressibility (1/GPa) = 0.02679957
#
# Stress axis : x y z
#
# Youngs Moduli (GPa) = 33.83696 65.89090 103.59862
#
# Poissons Ratio (x) = 0.42011 0.32939
# Poissons Ratio (y) = 0.21574 0.43887
# Poissons Ratio (z) = 0.10759 0.27913
#
# Static dielectric constant tensor:
#      x y z
#    x 3.445600 0.000000 -0.049390 
#    y 0.000000 3.706200 0.000000 
#    z -0.049390 0.000000 3.764670 
# 
# 
# High freq. dielectric constant tensor:
#      x y z
#    x 1.756180 0.000000 -0.010540 
#    y 0.000000 1.780010 0.000000 
#    z -0.010540 0.000000 1.779600 
# 
# From -- ./inp_files/36794.got.cif
#   From: 2010.06.25/outbox.cif.g09.slc.cpg/sg10_19_cif.got.tgz:36794.got - 2010.06.27 22:07:45.
