data_PCOD8063964
_publ_section_title
;
Structure prediction by ZEFSAII (Michael W. Deem and Ramdas Pophale) SiO2 
 PCOD8063964
Probable space group: P 2/M
;
_chemical_formula_sum "Si O2"
_cell_formula_units_Z 28
_cell_length_a 9.775018
_cell_length_b 7.767536
_cell_length_c 34.241097
_cell_angle_alpha 90.000000
_cell_angle_beta 147.540890
_cell_angle_gamma 90.000000
_cell_volume 1395.333886
_symmetry_space_group_name_H-M "P 2/M"
_symmetry_group_IT_number 10
_symmetry_cell_setting 'monoclinic'
loop_
_space_group_symop_operation_xyz
x,y,z
-x,y,-z
-x,-y,-z
x,-y,z
loop_
_atom_site_type_symbol
_atom_site_label
_atom_site_fract_x
_atom_site_fract_y
_atom_site_fract_z
Si Si1 0.357560 0.202282 0.299065
Si Si2 0.659856 0.500000 0.488472
Si Si3 0.284920 0.303963 0.198396
Si Si4 0.733349 0.812061 0.454668
Si Si5 0.789365 0.199858 0.179113
Si Si6 0.276271 0.302273 0.920285
Si Si7 0.903269 0.500000 0.632138
Si Si8 0.274441 0.198499 0.748929
O O1 0.419858 0.295005 0.273169
O O2 0.551632 0.269911 0.378096
O O3 0.082735 0.255556 0.249154
O O4 0.385460 0.000000 0.298801
O O5 0.769161 0.676340 0.497549
O O6 0.774372 0.500000 0.558880
O O7 0.356075 0.500000 0.405429
O O8 0.272302 0.500000 0.181194
O O9 0.453433 0.202540 0.207305
O O10 0.000499 0.220187 0.135012
O O11 0.000000 0.848261 0.500000
O O12 0.628846 0.000000 0.444505
O O13 0.654223 0.286891 0.109037
O O14 0.678433 0.256578 0.194562
O O15 0.751269 0.000000 0.163364
O O16 0.256793 0.500000 0.927222
O O17 0.500000 0.214067 0.000000
O O18 0.071411 0.328086 0.680064
O O19 0.171048 0.000000 0.722808
#
# Coordination Sequence:
#
# PCOD8063964 Si02
#       8
#     4   2   4   4   4   4   2   4
#     4   9  18  34  55  81 110 144 194 246 293 349
#     4  11  25  42  58  82 119 151 200 247 292 366
#     4  10  20  34  57  88 119 154 199 243 292 352
#     4  10  22  37  58  85 115 152 193 243 304 355
#     4   9  19  35  57  84 111 150 197 239 286 341
#     4   9  19  36  59  89 124 159 192 234 290 348
#     4  11  26  42  60  86 111 158 202 239 300 360
#     4  11  23  40  62  87 119 153 197 250 296 346
#
# _framework density 20.066880000000001
#
# number of rings (size 3 to 8) (size 9 to 14) (size 15 to 20)
#    0.000    2.143    0.714    1.500    4.000    3.143 
#    0.000    2.143    0.000    4.286    0.000    0.000 
#    0.000    0.000    0.000    0.000    0.000    0.000 
#
# Total GULP energy -346984.703157 kJ/mol
# GULP energy per Si atom -12392.310827 kJ/mol
# Density = 2.002121 g / cm^3
# Si number density = 20.066880 Si / 1000 Ang^3
#
#
#
# Elastic Constant Matrix: (Units=GPa)
#
#
# Indices 1 2 3 4 5 6 
#
# 1 117.9294 28.2060 35.9187 0.0000 -10.2377 0.0000
# 2 28.2060 79.5833 29.7708 0.0000 -2.1147 0.0000
# 3 35.9187 29.7708 116.0605 0.0000 -13.0405 0.0000
# 4 0.0000 0.0000 0.0000 17.3495 0.0000 -13.8853
# 5 -10.2377 -2.1147 -13.0405 0.0000 18.1650 0.0000
# 6 0.0000 0.0000 0.0000 -13.8853 0.0000 24.2275
#
#
#
# Elastic Compliance Matrix: (Units=1/GPa)
#
#
# Indices 1 2 3 4 5 6 
#
# 1 0.010076 -0.002727 -0.001976 0.000000 0.003943 0.000000
# 2 -0.002727 0.014655 -0.003150 0.000000 -0.002093 0.000000
# 3 -0.001976 -0.003150 0.010735 0.000000 0.006227 0.000000
# 4 0.000000 0.000000 0.000000 0.106479 0.000000 0.061026
# 5 0.003943 -0.002093 0.006227 0.000000 0.061500 0.000000
# 6 0.000000 0.000000 0.000000 0.061026 0.000000 0.076251
#
#
# Mechanical properties :
#
#
# Convention : Reuss Voigt Hill
#
# Bulk Modulus (GPa) = 50.60790 55.70713 53.15752
# Shear Modulus (GPa) = 16.55690 26.59356 21.57523
#
# Velocity S-wave (km/s) = 2.87555 3.64434 3.28253
# Velocity P-wave (km/s) = 6.02490 6.74754 6.39643
#
# Compressibility (1/GPa) = 0.01975976
#
# Stress axis : x y z
#
# Youngs Moduli (GPa) = 99.24554 68.23654 93.15038
#
# Poissons Ratio (x) = 0.18610 0.18404
# Poissons Ratio (y) = 0.27067 0.29344
# Poissons Ratio (z) = 0.19608 0.21496
#
# Static dielectric constant tensor:
#      x y z
#    x 3.753910 0.000000 0.047310 
#    y 0.000000 3.615200 0.000000 
#    z 0.047310 0.000000 3.914320 
# 
# 
# High freq. dielectric constant tensor:
#      x y z
#    x 1.777410 0.000000 -0.006420 
#    y 0.000000 1.783490 0.000000 
#    z -0.006420 0.000000 1.772190 
# 
# From -- ./inp_files/94552.got.cif
#   From: 2010.06.25/outbox.cif.g09.slc.cpg/sg10_48_cif.got.tgz:94552.got - 2010.06.27 22:07:45.
