data_PCOD8063635
_publ_section_title
;
Structure prediction by ZEFSAII (Michael W. Deem and Ramdas Pophale) SiO2 
 PCOD8063635
Probable space group: P 2/M
;
_chemical_formula_sum "Si O2"
_cell_formula_units_Z 32
_cell_length_a 9.314738
_cell_length_b 14.104159
_cell_length_c 13.757210
_cell_angle_alpha 90.000000
_cell_angle_beta 60.916587
_cell_angle_gamma 90.000000
_cell_volume 1579.488235
_symmetry_space_group_name_H-M "P 2/M"
_symmetry_group_IT_number 10
_symmetry_cell_setting 'monoclinic'
loop_
_space_group_symop_operation_xyz
x,y,z
-x,y,-z
-x,-y,-z
x,-y,z
loop_
_atom_site_type_symbol
_atom_site_label
_atom_site_fract_x
_atom_site_fract_y
_atom_site_fract_z
Si Si1 0.638783 0.737409 0.582126
Si Si2 0.366335 0.888298 0.713923
Si Si3 0.175652 0.112576 0.964346
Si Si4 0.638705 0.388865 0.254312
Si Si5 0.829881 0.255019 0.323997
Si Si6 0.466782 0.389354 0.117380
Si Si7 0.324984 0.893798 0.107129
Si Si8 0.198458 0.739392 0.279152
O O1 0.530372 0.833120 0.628625
O O2 0.528375 0.645027 0.638779
O O3 0.706784 0.723567 0.452549
O O4 0.792296 0.742939 0.606674
O O5 0.320341 0.861592 0.840576
O O6 0.211940 0.851075 0.700137
O O7 0.390760 0.000000 0.688848
O O8 0.162589 0.000000 0.969127
O O9 0.209214 0.149270 0.061453
O O10 0.000000 0.159762 0.000000
O O11 0.666871 0.500000 0.263666
O O12 0.792394 0.330644 0.249385
O O13 0.613645 0.366677 0.146638
O O14 0.014700 0.260583 0.300041
O O15 0.445586 0.500000 0.112687
O O16 0.290398 0.353896 0.211891
O O17 0.500000 0.343034 0.000000
O O18 0.304927 0.829411 0.208026
O O19 0.277428 0.000000 0.155191
O O20 0.500000 0.893468 0.000000
#
# Coordination Sequence:
#
# PCOD8063635 Si02
#       8
#     4   4   4   4   4   4   4   4
#     4  10  22  38  55  78 107 145 191 233 275 323
#     4  10  20  36  56  77 106 146 189 230 276 333
#     4   9  17  30  49  74 103 132 167 218 273 318
#     4   9  19  38  62  84 107 140 182 224 268 321
#     4  11  23  36  54  82 112 142 184 236 280 322
#     4   9  19  38  62  86 114 147 180 215 262 329
#     4  10  20  34  53  77 104 138 181 222 262 318
#     4  11  22  36  55  80 113 147 179 225 284 334
#
# _framework density 20.259727000000002
#
# number of rings (size 3 to 8) (size 9 to 14) (size 15 to 20)
#    0.000    2.125    0.000    3.750    0.000    7.500 
#    0.000    1.875    0.000    8.250    0.000    0.000 
#    0.000    0.000    0.000    0.000    0.000    0.000 
#
# Total GULP energy -396574.773992 kJ/mol
# GULP energy per Si atom -12392.961687 kJ/mol
# Density = 2.021362 g / cm^3
# Si number density = 20.259727 Si / 1000 Ang^3
#
#
#
# Elastic Constant Matrix: (Units=GPa)
#
#
# Indices 1 2 3 4 5 6 
#
# 1 106.3285 39.4566 7.2193 0.0000 -1.5159 0.0000
# 2 39.4566 80.9890 21.3959 0.0000 9.8292 0.0000
# 3 7.2193 21.3959 62.6768 0.0000 13.9778 0.0000
# 4 0.0000 0.0000 0.0000 20.3088 0.0000 2.1300
# 5 -1.5159 9.8292 13.9778 0.0000 28.5745 0.0000
# 6 0.0000 0.0000 0.0000 2.1300 0.0000 23.8552
#
#
#
# Elastic Compliance Matrix: (Units=1/GPa)
#
#
# Indices 1 2 3 4 5 6 
#
# 1 0.011676 -0.006042 0.000130 0.000000 0.002634 0.000000
# 2 -0.006042 0.016886 -0.004155 0.000000 -0.004097 0.000000
# 3 0.000130 -0.004155 0.019124 0.000000 -0.007919 0.000000
# 4 0.000000 0.000000 0.000000 0.049705 0.000000 -0.004438
# 5 0.002634 -0.004097 -0.007919 0.000000 0.040419 0.000000
# 6 0.000000 0.000000 0.000000 -0.004438 0.000000 0.042316
#
#
# Mechanical properties :
#
#
# Convention : Reuss Voigt Hill
#
# Bulk Modulus (GPa) = 36.29450 42.90419 39.59934
# Shear Modulus (GPa) = 23.87281 26.67587 25.27434
#
# Velocity S-wave (km/s) = 3.43642 3.63256 3.53585
# Velocity P-wave (km/s) = 5.80506 6.23034 6.02146
#
# Compressibility (1/GPa) = 0.02755239
#
# Stress axis : x y z
#
# Youngs Moduli (GPa) = 85.64773 59.22104 52.28991
#
# Poissons Ratio (x) = 0.35784 -0.00682
# Poissons Ratio (y) = 0.51751 0.21725
# Poissons Ratio (z) = -0.01117 0.24605
#
# Static dielectric constant tensor:
#      x y z
#    x 3.173680 0.000000 0.236470 
#    y 0.000000 3.589020 0.000000 
#    z 0.236470 0.000000 3.691230 
# 
# 
# High freq. dielectric constant tensor:
#      x y z
#    x 1.799920 0.000000 0.021980 
#    y 0.000000 1.780730 0.000000 
#    z 0.021980 0.000000 1.782420 
# 
# From -- ./inp_files/61854.got.cif
#   From: 2010.06.25/outbox.cif.g09.slc.cpg/sg10_31_cif.got.tgz:61854.got - 2010.06.27 22:07:45.
