data_PCOD8063426
_publ_section_title
;
Structure prediction by ZEFSAII (Michael W. Deem and Ramdas Pophale) SiO2 
 PCOD8063426
Probable space group: P 2/M
;
_chemical_formula_sum "Si O2"
_cell_formula_units_Z 32
_cell_length_a 12.689923
_cell_length_b 13.904207
_cell_length_c 18.827318
_cell_angle_alpha 90.000000
_cell_angle_beta 149.819348
_cell_angle_gamma 90.000000
_cell_volume 1670.039717
_symmetry_space_group_name_H-M "P 2/M"
_symmetry_group_IT_number 10
_symmetry_cell_setting 'monoclinic'
loop_
_space_group_symop_operation_xyz
x,y,z
-x,y,-z
-x,-y,-z
x,-y,z
loop_
_atom_site_type_symbol
_atom_site_label
_atom_site_fract_x
_atom_site_fract_y
_atom_site_fract_z
Si Si1 0.637073 0.892218 0.441796
Si Si2 0.217091 0.387101 0.774765
Si Si3 0.344656 0.753016 0.342692
Si Si4 0.079971 0.896086 0.262374
Si Si5 0.320891 0.386819 0.992934
Si Si6 0.715675 0.112163 0.154467
Si Si7 0.024954 0.386086 0.096415
Si Si8 0.993156 0.220131 0.413605
O O1 0.449300 0.815795 0.340575
O O2 0.725507 0.908091 0.571552
O O3 0.806128 0.842558 0.489807
O O4 0.573004 0.000000 0.375603
O O5 0.165149 0.500000 0.738403
O O6 0.235219 0.351265 0.866711
O O7 0.020646 0.327190 0.628355
O O8 0.431597 0.360367 0.856506
O O9 0.500000 0.730902 0.500000
O O10 0.137384 0.814085 0.240818
O O11 0.247041 0.654852 0.255174
O O12 0.876795 0.863097 0.186294
O O13 0.042202 0.000000 0.202884
O O14 0.305009 0.500000 0.981752
O O15 0.176050 0.348825 0.973884
O O16 0.783401 0.164014 0.266470
O O17 0.700723 0.000000 0.162851
O O18 0.500000 0.155202 0.000000
O O19 0.045225 0.500000 0.113856
O O20 0.000000 0.353231 0.000000
O O21 0.000000 0.233826 0.500000
#
# Coordination Sequence:
#
# PCOD8063426 Si02
#       8
#     4   4   4   4   4   4   4   4
#     4   9  19  36  54  76 111 148 185 225 276 336
#     4   9  19  35  57  85 112 146 194 238 277 330
#     4  10  20  33  57  82 104 141 191 232 266 319
#     4   8  15  30  53  79 103 133 176 228 277 322
#     4   8  17  35  59  81 105 146 193 233 279 331
#     4   9  19  34  53  79 109 139 180 231 281 336
#     4  10  22  38  56  82 118 153 181 224 288 345
#     4  11  23  34  53  83 114 151 185 226 291 340
#
# _framework density 19.161221999999999
#
# number of rings (size 3 to 8) (size 9 to 14) (size 15 to 20)
#    0.000    2.750    0.000    2.250    7.000    4.000 
#    0.000    0.625    0.000    3.000    0.000    0.000 
#    0.000    0.000    0.000    0.000    0.000    0.000 
#
# Total GULP energy -396458.201502 kJ/mol
# GULP energy per Si atom -12389.318797 kJ/mol
# Density = 1.911761 g / cm^3
# Si number density = 19.161222 Si / 1000 Ang^3
#
#
#
# Elastic Constant Matrix: (Units=GPa)
#
#
# Indices 1 2 3 4 5 6 
#
# 1 89.4695 30.1642 33.0429 0.0000 -9.0462 0.0000
# 2 30.1642 77.6094 29.8006 0.0000 -2.8650 0.0000
# 3 33.0429 29.8006 63.9894 0.0000 -4.5927 0.0000
# 4 0.0000 0.0000 0.0000 20.1196 0.0000 3.5020
# 5 -9.0462 -2.8650 -4.5927 0.0000 21.3408 0.0000
# 6 0.0000 0.0000 0.0000 3.5020 0.0000 24.0922
#
#
#
# Elastic Compliance Matrix: (Units=1/GPa)
#
#
# Indices 1 2 3 4 5 6 
#
# 1 0.014933 -0.003409 -0.005791 0.000000 0.004626 0.000000
# 2 -0.003409 0.016476 -0.005949 0.000000 -0.000514 0.000000
# 3 -0.005791 -0.005949 0.021487 0.000000 0.001371 0.000000
# 4 0.000000 0.000000 0.000000 0.050993 0.000000 -0.007412
# 5 0.004626 -0.000514 0.001371 0.000000 0.049046 0.000000
# 6 0.000000 0.000000 0.000000 -0.007412 0.000000 0.042585
#
#
# Mechanical properties :
#
#
# Convention : Reuss Voigt Hill
#
# Bulk Modulus (GPa) = 44.25588 46.34263 45.29925
# Shear Modulus (GPa) = 21.42698 22.31455 21.87076
#
# Velocity S-wave (km/s) = 3.34765 3.41628 3.38214
# Velocity P-wave (km/s) = 6.17163 6.30868 6.24053
#
# Compressibility (1/GPa) = 0.02259587
#
# Stress axis : x y z
#
# Youngs Moduli (GPa) = 66.96556 60.69586 46.53962
#
# Poissons Ratio (x) = 0.20694 0.26952
# Poissons Ratio (y) = 0.22832 0.27687
# Poissons Ratio (z) = 0.38782 0.36109
#
# Static dielectric constant tensor:
#      x y z
#    x 3.735990 0.000000 0.295810 
#    y 0.000000 3.621230 0.000000 
#    z 0.295810 0.000000 3.344850 
# 
# 
# High freq. dielectric constant tensor:
#      x y z
#    x 1.734240 0.000000 0.019760 
#    y 0.000000 1.756150 0.000000 
#    z 0.019760 0.000000 1.710000 
# 
# From -- ./inp_files/77033.got.cif
#   From: 2010.06.25/outbox.cif.g09.slc.cpg/sg10_39_cif.got.tgz:77033.got - 2010.06.27 22:07:45.
