data_PCOD8063118
_publ_section_title
;
Structure prediction by ZEFSAII (Michael W. Deem and Ramdas Pophale) SiO2 
 PCOD8063118
Probable space group: P 2/M
;
_chemical_formula_sum "Si O2"
_cell_formula_units_Z 28
_cell_length_a 8.875657
_cell_length_b 19.021558
_cell_length_c 20.195032
_cell_angle_alpha 90.000000
_cell_angle_beta 151.684360
_cell_angle_gamma 90.000000
_cell_volume 1617.224805
_symmetry_space_group_name_H-M "P 2/M"
_symmetry_group_IT_number 10
_symmetry_cell_setting 'monoclinic'
loop_
_space_group_symop_operation_xyz
x,y,z
-x,y,-z
-x,-y,-z
x,-y,z
loop_
_atom_site_type_symbol
_atom_site_label
_atom_site_fract_x
_atom_site_fract_y
_atom_site_fract_z
Si Si1 0.803874 0.077041 0.856321
Si Si2 0.359259 0.420397 0.264269
Si Si3 0.238862 0.580548 0.452737
Si Si4 0.764516 0.328722 0.049394
Si Si5 0.589711 0.651089 0.223022
Si Si6 0.385446 0.201761 0.152551
Si Si7 0.718322 0.169235 0.026457
O O1 0.535668 0.136772 0.766910
O O2 0.668396 0.000000 0.783463
O O3 0.000000 0.069265 0.000000
O O4 0.017682 0.108759 0.880113
O O5 0.234437 0.500000 0.213924
O O6 0.643873 0.412353 0.426557
O O7 0.478863 0.402082 0.236953
O O8 0.079152 0.372643 0.184004
O O9 0.500000 0.605479 0.500000
O O10 0.141190 0.500000 0.399463
O O11 0.933648 0.630640 0.328011
O O12 0.500000 0.351790 0.000000
O O13 0.653814 0.347039 0.932302
O O14 0.859310 0.246883 0.096664
O O15 0.580092 0.729681 0.251107
O O16 0.497784 0.178738 0.122814
O O17 0.000000 0.215543 0.000000
O O18 0.500000 0.140513 0.000000
#
# Coordination Sequence:
#
# PCOD8063118 Si02
#       7
#     4   4   4   4   4   4   4
#     4   8  13  22  36  56  87 122 147 173 218 270
#     4  11  22  34  49  70  93 118 155 200 237 274
#     4  10  22  38  51  66  93 124 152 191 243 288
#     4  10  20  33  49  69  95 126 156 191 236 280
#     4  11  19  32  52  70  91 121 158 195 233 277
#     4   8  15  27  42  63  90 118 148 184 225 266
#     4   8  14  24  38  59  86 115 149 186 220 258
#
# _framework density 17.313609
#
# number of rings (size 3 to 8) (size 9 to 14) (size 15 to 20)
#    0.000    2.857    0.000    4.714    0.000    3.429 
#    0.000    0.000    0.000    0.000    0.000    0.000 
#    0.000    9.714    0.000    0.000    0.000   26.571 
#
# Total GULP energy -346931.826941 kJ/mol
# GULP energy per Si atom -12390.422391 kJ/mol
# Density = 1.727420 g / cm^3
# Si number density = 17.313609 Si / 1000 Ang^3
#
#
#
# Elastic Constant Matrix: (Units=GPa)
#
#
# Indices 1 2 3 4 5 6 
#
# 1 107.0969 36.9543 7.5747 0.0000 7.4407 0.0000
# 2 36.9543 130.6371 27.5617 0.0000 18.3668 0.0000
# 3 7.5747 27.5617 30.1531 0.0000 7.7152 0.0000
# 4 0.0000 0.0000 0.0000 6.3100 0.0000 4.7000
# 5 7.4407 18.3668 7.7152 0.0000 25.0583 0.0000
# 6 0.0000 0.0000 0.0000 4.7000 0.0000 19.2274
#
#
#
# Elastic Compliance Matrix: (Units=1/GPa)
#
#
# Indices 1 2 3 4 5 6 
#
# 1 0.010373 -0.002838 0.000265 0.000000 -0.001081 0.000000
# 2 -0.002838 0.010787 -0.007967 0.000000 -0.004611 0.000000
# 3 0.000265 -0.007967 0.042233 0.000000 -0.007242 0.000000
# 4 0.000000 0.000000 0.000000 0.193755 0.000000 -0.047362
# 5 -0.001081 -0.004611 -0.007242 0.000000 0.045837 0.000000
# 6 0.000000 0.000000 0.000000 -0.047362 0.000000 0.063586
#
#
# Mechanical properties :
#
#
# Convention : Reuss Voigt Hill
#
# Bulk Modulus (GPa) = 23.63358 45.78537 34.70948
# Shear Modulus (GPa) = 12.44537 23.17224 17.80880
#
# Velocity S-wave (km/s) = 2.68399 3.66236 3.21066
# Velocity P-wave (km/s) = 4.82545 6.66228 5.81683
#
# Compressibility (1/GPa) = 0.04231267
#
# Stress axis : x y z
#
# Youngs Moduli (GPa) = 96.40363 92.70628 23.67818
#
# Poissons Ratio (x) = 0.26312 -0.00628
# Poissons Ratio (y) = 0.27361 0.18865
# Poissons Ratio (z) = -0.02557 0.73860
#
# Static dielectric constant tensor:
#      x y z
#    x 3.423380 0.000000 -0.027900 
#    y 0.000000 3.654580 0.000000 
#    z -0.027900 0.000000 2.708300 
# 
# 
# High freq. dielectric constant tensor:
#      x y z
#    x 1.688480 0.000000 -0.000150 
#    y 0.000000 1.673430 0.000000 
#    z -0.000150 0.000000 1.601310 
# 
# From -- ./inp_files/83026.got.cif
#   From: 2010.06.25/outbox.cif.g09.slc.cpg/sg10_42_cif.got.tgz:83026.got - 2010.06.27 22:07:45.
