data_PCOD8063466
_publ_section_title
;
Structure prediction by ZEFSAII (Michael W. Deem and Ramdas Pophale) SiO2 
 PCOD8063466
Probable space group: P 2/M
;
_chemical_formula_sum "Si O2"
_cell_formula_units_Z 28
_cell_length_a 14.144109
_cell_length_b 9.052514
_cell_length_c 16.261325
_cell_angle_alpha 90.000000
_cell_angle_beta 40.052510
_cell_angle_gamma 90.000000
_cell_volume 1339.806639
_symmetry_space_group_name_H-M "P 2/M"
_symmetry_group_IT_number 10
_symmetry_cell_setting 'monoclinic'
loop_
_space_group_symop_operation_xyz
x,y,z
-x,y,-z
-x,-y,-z
x,-y,z
loop_
_atom_site_type_symbol
_atom_site_label
_atom_site_fract_x
_atom_site_fract_y
_atom_site_fract_z
Si Si1 0.337541 0.826410 0.437252
Si Si2 0.923939 0.324575 0.967751
Si Si3 0.826402 0.164010 0.619207
Si Si4 0.587784 0.172171 0.023799
Si Si5 0.174743 0.332869 0.219212
Si Si6 0.587188 0.324195 0.186080
Si Si7 0.894076 0.668656 0.309829
O O1 0.239620 0.785562 0.423193
O O2 0.494221 0.743477 0.323999
O O3 0.251023 0.764918 0.574641
O O4 0.362946 0.000000 0.431419
O O5 0.920855 0.500000 0.965395
O O6 0.020200 0.266114 0.826675
O O7 0.755556 0.268474 0.079906
O O8 0.000000 0.266209 0.000000
O O9 0.778517 0.275409 0.722408
O O10 0.000000 0.161076 0.500000
O O11 0.766899 0.000000 0.682238
O O12 0.516970 0.255167 0.149324
O O13 0.592702 0.000000 0.039960
O O14 0.500000 0.211357 0.000000
O O15 0.750932 0.235699 0.901823
O O16 0.231391 0.500000 0.172754
O O17 0.000861 0.322809 0.318302
O O18 0.572748 0.500000 0.195855
O O19 0.844880 0.500000 0.326518
#
# Coordination Sequence:
#
# PCOD8063466 Si02
#       7
#     4   4   4   4   4   4   4
#     4  11  23  38  57  84 121 166 203 239 295 358
#     4   9  19  40  69  95 118 148 193 250 309 368
#     4  10  20  34  50  74 112 161 210 245 285 350
#     4  11  23  37  54  79 117 164 205 240 289 356
#     4  11  21  33  53  82 113 149 199 253 298 340
#     4  11  22  39  62  91 122 154 197 254 306 352
#     4  10  20  37  60  88 116 147 194 247 297 353
#
# _framework density 20.898537000000001
#
# number of rings (size 3 to 8) (size 9 to 14) (size 15 to 20)
#    0.000    1.571    2.857    2.571    0.000    6.571 
#    0.000    0.714    0.000    8.143    0.000    0.000 
#    0.000    0.000    0.000    0.000    0.000    0.000 
#
# Total GULP energy -347193.958452 kJ/mol
# GULP energy per Si atom -12399.784230 kJ/mol
# Density = 2.085097 g / cm^3
# Si number density = 20.898537 Si / 1000 Ang^3
#
#
#
# Elastic Constant Matrix: (Units=GPa)
#
#
# Indices 1 2 3 4 5 6 
#
# 1 70.0172 31.2132 38.5427 0.0000 5.3706 0.0000
# 2 31.2132 91.6588 65.5487 0.0000 -3.0210 0.0000
# 3 38.5427 65.5487 168.5939 0.0000 -3.7758 0.0000
# 4 0.0000 0.0000 0.0000 11.2535 0.0000 -5.0151
# 5 5.3706 -3.0210 -3.7758 0.0000 21.4823 0.0000
# 6 0.0000 0.0000 0.0000 -5.0151 0.0000 12.5595
#
#
#
# Elastic Compliance Matrix: (Units=1/GPa)
#
#
# Indices 1 2 3 4 5 6 
#
# 1 0.018123 -0.004576 -0.002490 0.000000 -0.005612 0.000000
# 2 -0.004576 0.016293 -0.005232 0.000000 0.002516 0.000000
# 3 -0.002490 -0.005232 0.008566 0.000000 0.001392 0.000000
# 4 0.000000 0.000000 0.000000 0.108097 0.000000 0.043164
# 5 -0.005612 0.002516 0.001392 0.000000 0.048551 0.000000
# 6 0.000000 0.000000 0.000000 0.043164 0.000000 0.096857
#
#
# Mechanical properties :
#
#
# Convention : Reuss Voigt Hill
#
# Bulk Modulus (GPa) = 54.38847 66.76436 60.57642
# Shear Modulus (GPa) = 15.28059 22.05673 18.66866
#
# Velocity S-wave (km/s) = 2.70697 3.25225 2.99205
# Velocity P-wave (km/s) = 5.98763 6.79110 6.40198
#
# Compressibility (1/GPa) = 0.01838625
#
# Stress axis : x y z
#
# Youngs Moduli (GPa) = 55.17800 61.37610 116.74042
#
# Poissons Ratio (x) = 0.28086 0.29065
# Poissons Ratio (y) = 0.25250 0.61080
# Poissons Ratio (z) = 0.13738 0.32113
#
# Static dielectric constant tensor:
#      x y z
#    x 3.565500 0.000000 -0.028390 
#    y 0.000000 3.604100 0.000000 
#    z -0.028390 0.000000 4.004480 
# 
# 
# High freq. dielectric constant tensor:
#      x y z
#    x 1.786520 0.000000 -0.004900 
#    y 0.000000 1.802720 0.000000 
#    z -0.004900 0.000000 1.835090 
# 
# From -- ./inp_files/77699.got.cif
#   From: 2010.06.25/outbox.cif.g09.slc.cpg/sg10_39_cif.got.tgz:77699.got - 2010.06.27 22:07:45.
