data_PCOD8063834
_publ_section_title
;
Structure prediction by ZEFSAII (Michael W. Deem and Ramdas Pophale) SiO2 
 PCOD8063834
Probable space group: P 2/M
;
_chemical_formula_sum "Si O2"
_cell_formula_units_Z 28
_cell_length_a 21.571551
_cell_length_b 14.560735
_cell_length_c 9.060993
_cell_angle_alpha 90.000000
_cell_angle_beta 31.302795
_cell_angle_gamma 90.000000
_cell_volume 1478.688980
_symmetry_space_group_name_H-M "P 2/M"
_symmetry_group_IT_number 10
_symmetry_cell_setting 'monoclinic'
loop_
_space_group_symop_operation_xyz
x,y,z
-x,y,-z
-x,-y,-z
x,-y,z
loop_
_atom_site_type_symbol
_atom_site_label
_atom_site_fract_x
_atom_site_fract_y
_atom_site_fract_z
Si Si1 0.376913 0.604464 0.684571
Si Si2 0.414047 0.895553 0.889324
Si Si3 0.243492 0.603097 0.249973
Si Si4 0.982010 0.393283 0.707170
Si Si5 0.237001 0.270365 0.768049
Si Si6 0.629906 0.741549 0.796652
Si Si7 0.678171 0.105115 0.239972
O O1 0.500000 0.642628 0.500000
O O2 0.392933 0.500000 0.596653
O O3 0.344298 0.667694 0.613369
O O4 0.273086 0.613040 0.016572
O O5 0.340185 0.867378 0.893504
O O6 0.554300 0.882289 0.578113
O O7 0.385533 0.000000 0.987234
O O8 0.372809 0.837749 0.112894
O O9 0.269151 0.500000 0.250621
O O10 0.103604 0.626069 0.549967
O O11 0.329170 0.664320 0.173267
O O12 0.941826 0.500000 0.804967
O O13 0.000000 0.368438 0.500000
O O14 0.885570 0.326446 0.976550
O O15 0.270594 0.248389 0.531902
O O16 0.226527 0.174913 0.881390
O O17 0.500000 0.714926 0.000000
O O18 0.723714 0.000000 0.161266
#
# Coordination Sequence:
#
# PCOD8063834 Si02
#       7
#     4   4   4   4   4   4   4
#     4  10  20  34  55  83 113 151 193 240 298 351
#     4   9  19  37  59  85 121 159 195 239 292 357
#     4  10  22  40  59  80 117 160 200 245 290 346
#     4  10  21  41  65  87 109 152 215 259 288 334
#     4  12  22  33  60  88 119 153 197 248 294 350
#     4  12  24  36  54  91 130 159 189 232 306 371
#     4   9  19  36  61  89 116 154 202 245 290 349
#
# _framework density 18.935692
#
# number of rings (size 3 to 8) (size 9 to 14) (size 15 to 20)
#    0.000    1.714    2.857    3.000    2.000    2.857 
#    0.000    1.429    0.000    1.286    0.000    2.000 
#    0.000    0.000    0.000    0.000    0.000    0.000 
#
# Total GULP energy -347258.250909 kJ/mol
# GULP energy per Si atom -12402.080390 kJ/mol
# Density = 1.889259 g / cm^3
# Si number density = 18.935692 Si / 1000 Ang^3
#
#
#
# Elastic Constant Matrix: (Units=GPa)
#
#
# Indices 1 2 3 4 5 6 
#
# 1 69.1981 49.2865 33.2001 0.0000 9.6745 0.0000
# 2 49.2865 100.8442 42.7957 0.0000 1.4742 0.0000
# 3 33.2001 42.7957 94.6166 0.0000 4.0168 0.0000
# 4 0.0000 0.0000 0.0000 29.5198 0.0000 -2.1023
# 5 9.6745 1.4742 4.0168 0.0000 25.6220 0.0000
# 6 0.0000 0.0000 0.0000 -2.1023 0.0000 8.8478
#
#
#
# Elastic Compliance Matrix: (Units=1/GPa)
#
#
# Indices 1 2 3 4 5 6 
#
# 1 0.024778 -0.010455 -0.003618 0.000000 -0.008187 0.000000
# 2 -0.010455 0.016684 -0.004031 0.000000 0.003620 0.000000
# 3 -0.003618 -0.004031 0.013685 0.000000 -0.000547 0.000000
# 4 0.000000 0.000000 0.000000 0.034459 0.000000 0.008188
# 5 -0.008187 0.003620 -0.000547 0.000000 0.041998 0.000000
# 6 0.000000 0.000000 0.000000 0.008188 0.000000 0.114968
#
#
# Mechanical properties :
#
#
# Convention : Reuss Voigt Hill
#
# Bulk Modulus (GPa) = 52.80222 57.24706 55.02464
# Shear Modulus (GPa) = 17.29541 22.08969 19.69255
#
# Velocity S-wave (km/s) = 3.02549 3.41921 3.22836
# Velocity P-wave (km/s) = 6.33643 6.77392 6.55882
#
# Compressibility (1/GPa) = 0.01893860
#
# Stress axis : x y z
#
# Youngs Moduli (GPa) = 40.35763 59.93770 73.07196
#
# Poissons Ratio (x) = 0.62666 0.26438
# Poissons Ratio (y) = 0.42194 0.29458
# Poissons Ratio (z) = 0.14602 0.24163
#
# Static dielectric constant tensor:
#      x y z
#    x 3.389450 0.000000 0.028930 
#    y 0.000000 3.547010 0.000000 
#    z 0.028930 0.000000 3.298580 
# 
# 
# High freq. dielectric constant tensor:
#      x y z
#    x 1.728780 0.000000 0.005090 
#    y 0.000000 1.740440 0.000000 
#    z 0.005090 0.000000 1.715290 
# 
# From -- ./inp_files/29394.got.cif
#   From: 2010.06.25/outbox.cif.g09.slc.cpg/sg10_15_cif.got.tgz:29394.got - 2010.06.27 22:07:45.
