data_PCOD8063529
_publ_section_title
;
Structure prediction by ZEFSAII (Michael W. Deem and Ramdas Pophale) SiO2 
 PCOD8063529
Probable space group: P 2/M
;
_chemical_formula_sum "Si O2"
_cell_formula_units_Z 28
_cell_length_a 9.589582
_cell_length_b 9.002445
_cell_length_c 23.526532
_cell_angle_alpha 90.000000
_cell_angle_beta 46.189258
_cell_angle_gamma 90.000000
_cell_volume 1465.658928
_symmetry_space_group_name_H-M "P 2/M"
_symmetry_group_IT_number 10
_symmetry_cell_setting 'monoclinic'
loop_
_space_group_symop_operation_xyz
x,y,z
-x,y,-z
-x,-y,-z
x,-y,z
loop_
_atom_site_type_symbol
_atom_site_label
_atom_site_fract_x
_atom_site_fract_y
_atom_site_fract_z
Si Si1 0.964731 0.668333 0.076654
Si Si2 0.293456 0.170667 0.326401
Si Si3 0.674626 0.165019 0.407100
Si Si4 0.597470 0.170586 0.149250
Si Si5 0.347251 0.824435 0.994988
Si Si6 0.095546 0.671378 0.570433
Si Si7 0.438541 0.328209 0.387386
O O1 0.956483 0.500000 0.101254
O O2 0.755133 0.743174 0.143230
O O3 0.000000 0.677909 0.000000
O O4 0.135733 0.750631 0.063369
O O5 0.389043 0.193134 0.237487
O O6 0.446163 0.221604 0.330754
O O7 0.116737 0.280960 0.387968
O O8 0.231433 0.000000 0.353093
O O9 0.500000 0.157691 0.500000
O O10 0.859681 0.230121 0.386917
O O11 0.623953 0.278347 0.371245
O O12 0.722515 0.000000 0.370388
O O13 0.577193 0.223139 0.089261
O O14 0.663016 0.000000 0.131909
O O15 0.321195 0.000000 0.007838
O O16 0.500000 0.768000 0.000000
O O17 0.100947 0.500000 0.586390
O O18 0.241903 0.701638 0.477739
O O19 0.460200 0.500000 0.364375
#
# Coordination Sequence:
#
# PCOD8063529 Si02
#       7
#     4   4   4   4   4   4   4
#     4   9  17  30  51  77 102 130 163 199 241 292
#     4  11  22  34  50  73 102 136 174 218 263 307
#     4   9  17  31  52  75  97 124 163 211 258 305
#     4   9  19  35  52  73 102 135 170 207 251 302
#     4   9  17  32  56  81 103 131 167 205 246 296
#     4  10  20  34  52  74 101 135 174 216 263 312
#     4  10  20  34  52  74 100 132 173 218 263 313
#
# _framework density 19.104035
#
# number of rings (size 3 to 8) (size 9 to 14) (size 15 to 20)
#    0.000    2.429    0.000    2.571    0.000    8.286 
#    0.000    1.429    0.000    6.857    0.000    0.000 
#    0.000    0.000    0.000    0.000    0.000    0.000 
#
# Total GULP energy -347123.117005 kJ/mol
# GULP energy per Si atom -12397.254179 kJ/mol
# Density = 1.906055 g / cm^3
# Si number density = 19.104035 Si / 1000 Ang^3
#
#
#
# Elastic Constant Matrix: (Units=GPa)
#
#
# Indices 1 2 3 4 5 6 
#
# 1 110.0359 34.1981 22.3163 0.0000 -3.8131 0.0000
# 2 34.1981 85.3300 29.7041 0.0000 -1.8173 0.0000
# 3 22.3163 29.7041 36.5308 0.0000 5.3307 0.0000
# 4 0.0000 0.0000 0.0000 18.2403 0.0000 -3.9290
# 5 -3.8131 -1.8173 5.3307 0.0000 16.1602 0.0000
# 6 0.0000 0.0000 0.0000 -3.9290 0.0000 34.5606
#
#
#
# Elastic Compliance Matrix: (Units=1/GPa)
#
#
# Indices 1 2 3 4 5 6 
#
# 1 0.011090 -0.002498 -0.005341 0.000000 0.004098 0.000000
# 2 -0.002498 0.017594 -0.013639 0.000000 0.005888 0.000000
# 3 -0.005341 -0.013639 0.044266 0.000000 -0.017396 0.000000
# 4 0.000000 0.000000 0.000000 0.056200 0.000000 0.006389
# 5 0.004098 0.005888 -0.017396 0.000000 0.069248 0.000000
# 6 0.000000 0.000000 0.000000 0.006389 0.000000 0.029661
#
#
# Mechanical properties :
#
#
# Convention : Reuss Voigt Hill
#
# Bulk Modulus (GPa) = 33.34180 44.92598 39.13389
# Shear Modulus (GPa) = 17.79284 23.50410 20.64847
#
# Velocity S-wave (km/s) = 3.05514 3.51140 3.29118
# Velocity P-wave (km/s) = 5.47136 6.32514 5.91368
#
# Compressibility (1/GPa) = 0.02999238
#
# Stress axis : x y z
#
# Youngs Moduli (GPa) = 90.17532 56.83899 22.59068
#
# Poissons Ratio (x) = 0.14197 0.12067
# Poissons Ratio (y) = 0.22523 0.30812
# Poissons Ratio (z) = 0.48167 0.77524
#
# Static dielectric constant tensor:
#      x y z
#    x 3.570280 0.000000 -0.029830 
#    y 0.000000 3.535570 0.000000 
#    z -0.029830 0.000000 3.184500 
# 
# 
# High freq. dielectric constant tensor:
#      x y z
#    x 1.742930 0.000000 -0.007040 
#    y 0.000000 1.749610 0.000000 
#    z -0.007040 0.000000 1.706980 
# 
# From -- ./inp_files/37048.got.cif
#   From: 2010.06.25/outbox.cif.g09.slc.cpg/sg10_19_cif.got.tgz:37048.got - 2010.06.27 22:07:45.
