data_PCOD8063378
_publ_section_title
;
Structure prediction by ZEFSAII (Michael W. Deem and Ramdas Pophale) SiO2 
 PCOD8063378
Probable space group: P 2/M
;
_chemical_formula_sum "Si O2"
_cell_formula_units_Z 28
_cell_length_a 14.601131
_cell_length_b 9.226385
_cell_length_c 19.823823
_cell_angle_alpha 90.000000
_cell_angle_beta 147.564344
_cell_angle_gamma 90.000000
_cell_volume 1432.370904
_symmetry_space_group_name_H-M "P 2/M"
_symmetry_group_IT_number 10
_symmetry_cell_setting 'monoclinic'
loop_
_space_group_symop_operation_xyz
x,y,z
-x,y,-z
-x,-y,-z
x,-y,z
loop_
_atom_site_type_symbol
_atom_site_label
_atom_site_fract_x
_atom_site_fract_y
_atom_site_fract_z
Si Si1 0.593605 0.169790 0.706769
Si Si2 0.182956 0.663222 0.928460
Si Si3 0.127369 0.169563 0.229136
Si Si4 0.687340 0.671046 0.132773
Si Si5 0.477455 0.663775 0.210250
Si Si6 0.356446 0.661745 0.466957
Si Si7 0.823840 0.328441 0.359475
O O1 0.763780 0.206713 0.769982
O O2 0.616184 0.228284 0.796150
O O3 0.427653 0.251145 0.574876
O O4 0.557049 0.000000 0.683383
O O5 0.111209 0.500000 0.892356
O O6 0.189560 0.707213 0.853898
O O7 0.064422 0.771762 0.898290
O O8 0.374804 0.672523 0.076382
O O9 0.196846 0.251446 0.338332
O O10 0.129627 0.000000 0.244976
O O11 0.664960 0.500000 0.128592
O O12 0.776865 0.736238 0.256031
O O13 0.500000 0.738516 0.000000
O O14 0.472061 0.500000 0.235973
O O15 0.671408 0.712225 0.316143
O O16 0.500000 0.653407 0.500000
O O17 0.299945 0.500000 0.454080
O O18 0.842323 0.500000 0.364227
O O19 0.000000 0.262803 0.500000
#
# Coordination Sequence:
#
# PCOD8063378 Si02
#       7
#     4   4   4   4   4   4   4
#     4  10  21  36  54  76 109 153 187 221 279 340
#     4  10  20  33  54  81 107 143 191 236 280 332
#     4  10  21  36  53  77 111 148 187 228 274 335
#     4   9  15  29  52  75 104 142 180 227 289 346
#     4  10  20  34  53  79 109 143 186 236 283 329
#     4   9  17  32  55  79 103 135 179 229 275 322
#     4   9  17  30  51  81 112 139 177 233 289 342
#
# _framework density 19.548009
#
# number of rings (size 3 to 8) (size 9 to 14) (size 15 to 20)
#    0.000    2.429    1.429    1.286    0.000    5.714 
#    0.000    5.714    0.000    1.714    0.000    0.000 
#    0.000    0.000    0.000    0.000    0.000    0.000 
#
# Total GULP energy -347129.761951 kJ/mol
# GULP energy per Si atom -12397.491498 kJ/mol
# Density = 1.950352 g / cm^3
# Si number density = 19.548009 Si / 1000 Ang^3
#
#
#
# Elastic Constant Matrix: (Units=GPa)
#
#
# Indices 1 2 3 4 5 6 
#
# 1 103.6868 46.2879 55.5051 0.0000 -4.2402 0.0000
# 2 46.2879 77.5594 30.6782 0.0000 3.8535 0.0000
# 3 55.5051 30.6782 113.8969 0.0000 3.3752 0.0000
# 4 0.0000 0.0000 0.0000 19.8634 0.0000 -1.2619
# 5 -4.2402 3.8535 3.3752 0.0000 32.6710 0.0000
# 6 0.0000 0.0000 0.0000 -1.2619 0.0000 16.0225
#
#
#
# Elastic Compliance Matrix: (Units=1/GPa)
#
#
# Indices 1 2 3 4 5 6 
#
# 1 0.016431 -0.007586 -0.006072 0.000000 0.003655 0.000000
# 2 -0.007586 0.017989 -0.001060 0.000000 -0.002997 0.000000
# 3 -0.006072 -0.001060 0.012081 0.000000 -0.001911 0.000000
# 4 0.000000 0.000000 0.000000 0.050597 0.000000 0.003985
# 5 0.003655 -0.002997 -0.001911 0.000000 0.031633 0.000000
# 6 0.000000 0.000000 0.000000 0.003985 0.000000 0.062726
#
#
# Mechanical properties :
#
#
# Convention : Reuss Voigt Hill
#
# Bulk Modulus (GPa) = 58.59895 62.23172 60.41534
# Shear Modulus (GPa) = 22.06716 24.55618 23.31167
#
# Velocity S-wave (km/s) = 3.36351 3.54813 3.45706
# Velocity P-wave (km/s) = 6.71761 6.97783 6.84896
#
# Compressibility (1/GPa) = 0.01706515
#
# Stress axis : x y z
#
# Youngs Moduli (GPa) = 60.86073 55.59068 82.77363
#
# Poissons Ratio (x) = 0.42170 0.50263
# Poissons Ratio (y) = 0.46168 0.08771
# Poissons Ratio (z) = 0.36957 0.05891
#
# Static dielectric constant tensor:
#      x y z
#    x 3.383430 0.000000 -0.084880 
#    y 0.000000 3.220120 0.000000 
#    z -0.084880 0.000000 3.705120 
# 
# 
# High freq. dielectric constant tensor:
#      x y z
#    x 1.755610 0.000000 -0.002720 
#    y 0.000000 1.722250 0.000000 
#    z -0.002720 0.000000 1.763710 
# 
# From -- ./inp_files/70169.got.cif
#   From: 2010.06.25/outbox.cif.g09.slc.cpg/sg10_36_cif.got.tgz:70169.got - 2010.06.27 22:07:45.
