data_PCOD8063907
_publ_section_title
;
Structure prediction by ZEFSAII (Michael W. Deem and Ramdas Pophale) SiO2 
 PCOD8063907
Probable space group: P 2/M
;
_chemical_formula_sum "Si O2"
_cell_formula_units_Z 24
_cell_length_a 11.161258
_cell_length_b 8.978459
_cell_length_c 21.692691
_cell_angle_alpha 90.000000
_cell_angle_beta 147.832485
_cell_angle_gamma 90.000000
_cell_volume 1157.346789
_symmetry_space_group_name_H-M "P 2/M"
_symmetry_group_IT_number 10
_symmetry_cell_setting 'monoclinic'
loop_
_space_group_symop_operation_xyz
x,y,z
-x,y,-z
-x,-y,-z
x,-y,z
loop_
_atom_site_type_symbol
_atom_site_label
_atom_site_fract_x
_atom_site_fract_y
_atom_site_fract_z
Si Si1 0.970483 0.837398 0.559344
Si Si2 0.305963 0.825748 0.367487
Si Si3 0.855250 0.672625 0.177783
Si Si4 0.465118 0.824685 0.773601
Si Si5 0.528159 0.675707 0.354130
Si Si6 0.409354 0.327818 0.056040
O O1 0.213749 0.782168 0.688993
O O2 0.000000 0.857795 0.500000
O O3 0.773771 0.720628 0.488170
O O4 0.904920 0.000000 0.559253
O O5 0.500000 0.782830 0.500000
O O6 0.341565 0.737006 0.319439
O O7 0.066318 0.773265 0.290493
O O8 0.302247 0.000000 0.351877
O O9 0.915378 0.500000 0.213928
O O10 0.642772 0.720107 0.125924
O O11 0.795432 0.702898 0.079933
O O12 0.520937 0.743848 0.734096
O O13 0.631990 0.768054 0.899919
O O14 0.490383 0.000000 0.773745
O O15 0.512537 0.500000 0.342713
O O16 0.417952 0.500000 0.078467
#
# Coordination Sequence:
#
# PCOD8063907 Si02
#       6
#     4   4   4   4   4   4
#     4   8  16  31  49  74 112 150 183 228 281 332
#     4  11  25  42  60  83 117 157 195 237 289 347
#     4   9  20  40  62  87 119 153 193 241 288 339
#     4  10  20  34  56  85 118 153 191 237 289 344
#     4  11  22  36  56  82 114 152 195 241 289 344
#     4   9  19  37  62  90 120 151 189 241 292 339
#
# _framework density 20.737086000000001
#
# number of rings (size 3 to 8) (size 9 to 14) (size 15 to 20)
#    0.000    2.333    0.000    4.500    2.333    6.333 
#    0.000    2.500    0.000    5.000    0.000    0.000 
#    0.000    0.000    0.000    0.000    0.000    0.000 
#
# Total GULP energy -297575.292196 kJ/mol
# GULP energy per Si atom -12398.970508 kJ/mol
# Density = 2.068989 g / cm^3
# Si number density = 20.737086 Si / 1000 Ang^3
#
#
#
# Elastic Constant Matrix: (Units=GPa)
#
#
# Indices 1 2 3 4 5 6 
#
# 1 55.5333 37.8627 18.2063 0.0000 -5.7672 0.0000
# 2 37.8627 109.4455 39.8342 0.0000 -7.3436 0.0000
# 3 18.2063 39.8342 84.9396 0.0000 -5.2759 0.0000
# 4 0.0000 0.0000 0.0000 25.1129 0.0000 -3.8672
# 5 -5.7672 -7.3436 -5.2759 0.0000 32.0012 0.0000
# 6 0.0000 0.0000 0.0000 -3.8672 0.0000 6.6486
#
#
#
# Elastic Compliance Matrix: (Units=1/GPa)
#
#
# Indices 1 2 3 4 5 6 
#
# 1 0.023890 -0.007594 -0.001415 0.000000 0.002330 0.000000
# 2 -0.007594 0.013523 -0.004654 0.000000 0.000967 0.000000
# 3 -0.001415 -0.004654 0.014323 0.000000 0.001038 0.000000
# 4 0.000000 0.000000 0.000000 0.043738 0.000000 0.025440
# 5 0.002330 0.000967 0.001038 0.000000 0.032062 0.000000
# 6 0.000000 0.000000 0.000000 0.025440 0.000000 0.165205
#
#
# Mechanical properties :
#
#
# Convention : Reuss Voigt Hill
#
# Bulk Modulus (GPa) = 40.96426 49.08051 45.02239
# Shear Modulus (GPa) = 15.23445 23.02023 19.12734
#
# Velocity S-wave (km/s) = 2.71338 3.33543 3.04036
# Velocity P-wave (km/s) = 5.44183 6.20909 5.83808
#
# Compressibility (1/GPa) = 0.02441152
#
# Stress axis : x y z
#
# Youngs Moduli (GPa) = 41.85797 73.94923 69.81553
#
# Poissons Ratio (x) = 0.56154 0.09878
# Poissons Ratio (y) = 0.31785 0.32493
# Poissons Ratio (z) = 0.05922 0.34416
#
# Static dielectric constant tensor:
#      x y z
#    x 3.568930 0.000000 -0.043470 
#    y 0.000000 3.587770 0.000000 
#    z -0.043470 0.000000 3.923720 
# 
# 
# High freq. dielectric constant tensor:
#      x y z
#    x 1.802370 0.000000 -0.012650 
#    y 0.000000 1.806850 0.000000 
#    z -0.012650 0.000000 1.803360 
# 
# From -- ./inp_files/56684.got.cif
#   From: 2010.06.25/outbox.cif.g09.slc.cpg/sg10_29_cif.got.tgz:56684.got - 2010.06.27 22:07:45.
