data_PCOD8063306
_publ_section_title
;
Structure prediction by ZEFSAII (Michael W. Deem and Ramdas Pophale) SiO2 
 PCOD8063306
Probable space group: P 2/M
;
_chemical_formula_sum "Si O2"
_cell_formula_units_Z 28
_cell_length_a 14.025887
_cell_length_b 9.214262
_cell_length_c 16.525489
_cell_angle_alpha 90.000000
_cell_angle_beta 45.380318
_cell_angle_gamma 90.000000
_cell_volume 1520.176181
_symmetry_space_group_name_H-M "P 2/M"
_symmetry_group_IT_number 10
_symmetry_cell_setting 'monoclinic'
loop_
_space_group_symop_operation_xyz
x,y,z
-x,y,-z
-x,-y,-z
x,-y,z
loop_
_atom_site_type_symbol
_atom_site_label
_atom_site_fract_x
_atom_site_fract_y
_atom_site_fract_z
Si Si1 0.266780 0.834092 0.064740
Si Si2 0.032412 0.170559 0.723151
Si Si3 0.493643 0.332221 0.635755
Si Si4 0.660121 0.335907 0.828365
Si Si5 0.970520 0.663803 0.606116
Si Si6 0.519748 0.832615 0.189563
Si Si7 0.282900 0.332626 0.624503
O O1 0.354564 0.738065 0.074727
O O2 0.111513 0.785417 0.152830
O O3 0.275511 0.000000 0.090110
O O4 0.331700 0.815558 0.937461
O O5 0.149041 0.236882 0.708997
O O6 0.046831 0.235730 0.624736
O O7 0.051891 0.000000 0.707070
O O8 0.498908 0.500000 0.658972
O O9 0.480847 0.233050 0.721340
O O10 0.365023 0.301953 0.656932
O O11 0.627513 0.290500 0.506747
O O12 0.604840 0.500000 0.866091
O O13 0.813951 0.333077 0.713293
O O14 0.585354 0.248094 0.804064
O O15 0.027391 0.500000 0.580157
O O16 0.000000 0.727468 0.500000
O O17 0.477483 0.000000 0.220255
O O18 0.241115 0.500000 0.644208
#
# Coordination Sequence:
#
# PCOD8063306 Si02
#       7
#     4   4   4   4   4   4   4
#     4   9  20  38  53  73 109 148 179 213 261 314
#     4  10  20  34  55  79 104 138 177 216 260 311
#     4   9  20  38  58  80 105 136 174 217 263 317
#     4  10  20  33  52  78 106 141 183 221 258 305
#     4   9  19  34  50  72 105 143 177 211 256 312
#     4  11  22  35  54  78 108 143 178 218 266 313
#     4   9  19  38  60  79 105 138 171 213 270 322
#
# _framework density 18.418918999999999
#
# number of rings (size 3 to 8) (size 9 to 14) (size 15 to 20)
#    0.000    2.429    0.000    2.571    2.000    5.429 
#    0.000    2.143    0.000    4.286    0.000    0.000 
#    0.000    0.000    0.000    0.000    0.000    0.000 
#
# Total GULP energy -347237.576120 kJ/mol
# GULP energy per Si atom -12401.342004 kJ/mol
# Density = 1.837700 g / cm^3
# Si number density = 18.418919 Si / 1000 Ang^3
#
#
#
# Elastic Constant Matrix: (Units=GPa)
#
#
# Indices 1 2 3 4 5 6 
#
# 1 102.6744 64.2024 36.2069 0.0000 1.5501 0.0000
# 2 64.2024 111.0071 44.4958 0.0000 7.2299 0.0000
# 3 36.2069 44.4958 68.7745 0.0000 20.7128 0.0000
# 4 0.0000 0.0000 0.0000 23.0942 0.0000 -8.2327
# 5 1.5501 7.2299 20.7128 0.0000 20.7358 0.0000
# 6 0.0000 0.0000 0.0000 -8.2327 0.0000 21.1501
#
#
#
# Elastic Compliance Matrix: (Units=1/GPa)
#
#
# Indices 1 2 3 4 5 6 
#
# 1 0.016511 -0.007633 -0.005984 0.000000 0.007404 0.000000
# 2 -0.007633 0.016093 -0.006973 0.000000 0.001925 0.000000
# 3 -0.005984 -0.006973 0.030515 0.000000 -0.027602 0.000000
# 4 0.000000 0.000000 0.000000 0.050277 0.000000 0.019570
# 5 0.007404 0.001925 -0.027602 0.000000 0.074573 0.000000
# 6 0.000000 0.000000 0.000000 0.019570 0.000000 0.054899
#
#
# Mechanical properties :
#
#
# Convention : Reuss Voigt Hill
#
# Bulk Modulus (GPa) = 45.58099 63.58512 54.58305
# Shear Modulus (GPa) = 17.16091 22.16607 19.66349
#
# Velocity S-wave (km/s) = 3.05569 3.47283 3.27091
# Velocity P-wave (km/s) = 6.10329 7.11880 6.63052
#
# Compressibility (1/GPa) = 0.02193897
#
# Stress axis : x y z
#
# Youngs Moduli (GPa) = 60.56670 62.14011 32.77094
#
# Poissons Ratio (x) = 0.47431 0.19610
# Poissons Ratio (y) = 0.46230 0.22851
# Poissons Ratio (z) = 0.36242 0.43330
#
# Static dielectric constant tensor:
#      x y z
#    x 3.314130 0.000000 -0.077900 
#    y 0.000000 3.498770 0.000000 
#    z -0.077900 0.000000 3.423790 
# 
# 
# High freq. dielectric constant tensor:
#      x y z
#    x 1.708500 0.000000 -0.007970 
#    y 0.000000 1.718190 0.000000 
#    z -0.007970 0.000000 1.713400 
# 
# From -- ./inp_files/49481.got.cif
#   From: 2010.06.25/outbox.cif.g09.slc.cpg/sg10_25_cif.got.tgz:49481.got - 2010.06.27 22:07:45.
