data_PCOD8063243
_publ_section_title
;
Structure prediction by ZEFSAII (Michael W. Deem and Ramdas Pophale) SiO2 
 PCOD8063243
Probable space group: P 2/M
;
_chemical_formula_sum "Si O2"
_cell_formula_units_Z 28
_cell_length_a 15.973985
_cell_length_b 8.980576
_cell_length_c 21.940618
_cell_angle_alpha 90.000000
_cell_angle_beta 152.342132
_cell_angle_gamma 90.000000
_cell_volume 1461.042668
_symmetry_space_group_name_H-M "P 2/M"
_symmetry_group_IT_number 10
_symmetry_cell_setting 'monoclinic'
loop_
_space_group_symop_operation_xyz
x,y,z
-x,y,-z
-x,-y,-z
x,-y,z
loop_
_atom_site_type_symbol
_atom_site_label
_atom_site_fract_x
_atom_site_fract_y
_atom_site_fract_z
Si Si1 0.406348 0.326510 0.307173
Si Si2 0.243808 0.837468 0.984689
Si Si3 0.489540 0.839268 0.736669
Si Si4 0.341625 0.165256 0.446201
Si Si5 0.099581 0.674855 0.201574
Si Si6 0.795760 0.176528 0.355257
Si Si7 0.481958 0.675874 0.916941
O O1 0.436432 0.500000 0.336599
O O2 0.403411 0.282621 0.234561
O O3 0.582494 0.239384 0.443998
O O4 0.223142 0.277051 0.223432
O O5 0.089572 0.756427 0.924500
O O6 0.177946 0.000000 0.917125
O O7 0.401236 0.868427 0.132436
O O8 0.325926 0.734949 0.984634
O O9 0.298573 0.783061 0.640407
O O10 0.471736 0.000000 0.690629
O O11 0.500000 0.156989 0.500000
O O12 0.186695 0.272519 0.321247
O O13 0.265492 0.000000 0.410619
O O14 0.070115 0.500000 0.183770
O O15 0.693592 0.253628 0.231127
O O16 0.000000 0.233159 0.500000
O O17 0.791699 0.000000 0.339835
O O18 0.469755 0.500000 0.898855
O O19 0.500000 0.716967 0.000000
#
# Coordination Sequence:
#
# PCOD8063243 Si02
#       7
#     4   4   4   4   4   4   4
#     4  10  20  33  51  76 107 145 182 221 273 326
#     4  10  21  37  57  80 107 144 184 223 273 324
#     4   9  19  35  54  77 107 141 180 226 271 321
#     4   9  17  31  51  72  98 136 180 224 269 316
#     4  10  20  34  52  76 108 142 181 226 271 324
#     4   9  19  38  62  86 113 147 189 236 284 337
#     4  10  21  38  60  86 117 150 185 231 285 339
#
# _framework density 19.164394999999999
#
# number of rings (size 3 to 8) (size 9 to 14) (size 15 to 20)
#    0.000    2.429    0.000    3.000    0.000    8.286 
#    2.571    2.857    0.000    0.000    0.000    0.000 
#    0.000    0.000    0.000    0.000    0.000    0.000 
#
# Total GULP energy -346910.816701 kJ/mol
# GULP energy per Si atom -12389.672025 kJ/mol
# Density = 1.912078 g / cm^3
# Si number density = 19.164395 Si / 1000 Ang^3
#
#
#
# Elastic Constant Matrix: (Units=GPa)
#
#
# Indices 1 2 3 4 5 6 
#
# 1 114.4047 52.1488 46.2328 0.0000 9.0989 0.0000
# 2 52.1488 95.1534 33.8471 0.0000 7.2182 0.0000
# 3 46.2328 33.8471 70.9291 0.0000 15.4276 0.0000
# 4 0.0000 0.0000 0.0000 30.4228 0.0000 -2.9155
# 5 9.0989 7.2182 15.4276 0.0000 29.5932 0.0000
# 6 0.0000 0.0000 0.0000 -2.9155 0.0000 28.0763
#
#
#
# Elastic Compliance Matrix: (Units=1/GPa)
#
#
# Indices 1 2 3 4 5 6 
#
# 1 0.013740 -0.005232 -0.006562 0.000000 0.000472 0.000000
# 2 -0.005232 0.014650 -0.003557 0.000000 -0.000111 0.000000
# 3 -0.006562 -0.003557 0.021933 0.000000 -0.008549 0.000000
# 4 0.000000 0.000000 0.000000 0.033200 0.000000 0.003448
# 5 0.000472 -0.000111 -0.008549 0.000000 0.038130 0.000000
# 6 0.000000 0.000000 0.000000 0.003448 0.000000 0.035975
#
#
# Mechanical properties :
#
#
# Convention : Reuss Voigt Hill
#
# Bulk Modulus (GPa) = 50.96501 60.54941 55.75721
# Shear Modulus (GPa) = 25.65809 27.50236 26.58023
#
# Velocity S-wave (km/s) = 3.66299 3.79235 3.72823
# Velocity P-wave (km/s) = 6.67393 7.13016 6.90581
#
# Compressibility (1/GPa) = 0.01962131
#
# Stress axis : x y z
#
# Youngs Moduli (GPa) = 72.78024 68.25834 45.59427
#
# Poissons Ratio (x) = 0.35712 0.29920
# Poissons Ratio (y) = 0.38077 0.16217
# Poissons Ratio (z) = 0.47759 0.24278
#
# Static dielectric constant tensor:
#      x y z
#    x 3.454760 0.000000 0.122270 
#    y 0.000000 3.638670 0.000000 
#    z 0.122270 0.000000 3.549110 
# 
# 
# High freq. dielectric constant tensor:
#      x y z
#    x 1.732940 0.000000 0.004260 
#    y 0.000000 1.753940 0.000000 
#    z 0.004260 0.000000 1.735630 
# 
# From -- ./inp_files/49152.got.cif
#   From: 2010.06.25/outbox.cif.g09.slc.cpg/sg10_25_cif.got.tgz:49152.got - 2010.06.27 22:07:45.
