data_PCOD8063414
_publ_section_title
;
Structure prediction by ZEFSAII (Michael W. Deem and Ramdas Pophale) SiO2 
 PCOD8063414
Probable space group: P 2/M
;
_chemical_formula_sum "Si O2"
_cell_formula_units_Z 24
_cell_length_a 23.888727
_cell_length_b 8.958000
_cell_length_c 12.157486
_cell_angle_alpha 90.000000
_cell_angle_beta 152.888507
_cell_angle_gamma 90.000000
_cell_volume 1185.630153
_symmetry_space_group_name_H-M "P 2/M"
_symmetry_group_IT_number 10
_symmetry_cell_setting 'monoclinic'
loop_
_space_group_symop_operation_xyz
x,y,z
-x,y,-z
-x,-y,-z
x,-y,z
loop_
_atom_site_type_symbol
_atom_site_label
_atom_site_fract_x
_atom_site_fract_y
_atom_site_fract_z
Si Si1 0.256865 0.671255 0.076315
Si Si2 0.760026 0.330612 0.196354
Si Si3 0.338008 0.177610 0.426976
Si Si4 0.076073 0.170034 0.036916
Si Si5 0.475332 0.325869 0.082331
Si Si6 0.995002 0.169757 0.325997
O O1 0.255339 0.500000 0.111241
O O2 0.346309 0.759806 0.316593
O O3 0.308025 0.688619 0.041042
O O4 0.117534 0.730972 0.829622
O O5 0.807402 0.500000 0.292497
O O6 0.876468 0.222790 0.400438
O O7 0.665362 0.292715 0.129368
O O8 0.209684 0.242001 0.251191
O O9 0.443909 0.232134 0.691925
O O10 0.339722 0.000000 0.421601
O O11 0.099913 0.000000 0.114603
O O12 0.992809 0.181045 0.783615
O O13 0.000000 0.254173 0.000000
O O14 0.507306 0.500000 0.151424
O O15 0.500000 0.272934 0.000000
O O16 0.970609 0.000000 0.321130
#
# Coordination Sequence:
#
# PCOD8063414 Si02
#       6
#     4   4   4   4   4   4
#     4  10  20  37  60  83 114 152 189 230 281 342
#     4  10  22  38  57  82 113 155 195 228 278 341
#     4  10  21  37  59  85 114 145 187 240 285 332
#     4   8  16  31  51  77 109 144 178 219 275 332
#     4  10  23  42  60  80 113 153 193 236 280 334
#     4  10  20  33  55  87 119 148 183 234 286 333
#
# _framework density 20.2424
#
# number of rings (size 3 to 8) (size 9 to 14) (size 15 to 20)
#    0.000    2.333    0.000    3.000    2.333    5.000 
#    0.000    3.333    0.000    3.000    0.000    0.000 
#    0.000    0.000    0.000    0.000    0.000    0.000 
#
# Total GULP energy -297518.653367 kJ/mol
# GULP energy per Si atom -12396.610557 kJ/mol
# Density = 2.019633 g / cm^3
# Si number density = 20.242400 Si / 1000 Ang^3
#
#
#
# Elastic Constant Matrix: (Units=GPa)
#
#
# Indices 1 2 3 4 5 6 
#
# 1 98.1414 24.9339 17.8642 0.0000 -16.1755 0.0000
# 2 24.9339 81.6551 35.8085 0.0000 -6.8817 0.0000
# 3 17.8642 35.8085 90.3560 0.0000 -14.1275 0.0000
# 4 0.0000 0.0000 0.0000 35.0442 0.0000 -4.4509
# 5 -16.1755 -6.8817 -14.1275 0.0000 18.1679 0.0000
# 6 0.0000 0.0000 0.0000 -4.4509 0.0000 17.9773
#
#
#
# Elastic Compliance Matrix: (Units=1/GPa)
#
#
# Indices 1 2 3 4 5 6 
#
# 1 0.012625 -0.003145 0.000366 0.000000 0.010334 0.000000
# 2 -0.003145 0.015629 -0.005788 0.000000 -0.001381 0.000000
# 3 0.000366 -0.005788 0.014796 0.000000 0.009639 0.000000
# 4 0.000000 0.000000 0.000000 0.029462 0.000000 0.007294
# 5 0.010334 -0.001381 0.009639 0.000000 0.071215 0.000000
# 6 0.000000 0.000000 0.000000 0.007294 0.000000 0.057432
#
#
# Mechanical properties :
#
#
# Convention : Reuss Voigt Hill
#
# Bulk Modulus (GPa) = 38.58583 47.48506 43.03544
# Shear Modulus (GPa) = 22.03323 27.00760 24.52042
#
# Velocity S-wave (km/s) = 3.30277 3.65665 3.48421
# Velocity P-wave (km/s) = 5.80066 6.42940 6.12311
#
# Compressibility (1/GPa) = 0.02591625
#
# Stress axis : x y z
#
# Youngs Moduli (GPa) = 79.20844 63.98493 67.58672
#
# Poissons Ratio (x) = 0.20121 -0.02473
# Poissons Ratio (y) = 0.24908 0.39118
# Poissons Ratio (z) = -0.02898 0.37034
#
# Static dielectric constant tensor:
#      x y z
#    x 4.034650 0.000000 -0.098210 
#    y 0.000000 3.517240 0.000000 
#    z -0.098210 0.000000 3.477370 
# 
# 
# High freq. dielectric constant tensor:
#      x y z
#    x 1.801390 0.000000 -0.011120 
#    y 0.000000 1.776280 0.000000 
#    z -0.011120 0.000000 1.780920 
# 
# From -- ./inp_files/56676.got.cif
#   From: 2010.06.25/outbox.cif.g09.slc.cpg/sg10_29_cif.got.tgz:56676.got - 2010.06.27 22:07:45.
