data_PCOD8063418
_publ_section_title
;
Structure prediction by ZEFSAII (Michael W. Deem and Ramdas Pophale) SiO2 
 PCOD8063418
Probable space group: P 2/M
;
_chemical_formula_sum "Si O2"
_cell_formula_units_Z 32
_cell_length_a 12.167740
_cell_length_b 8.854240
_cell_length_c 19.636168
_cell_angle_alpha 90.000000
_cell_angle_beta 128.157255
_cell_angle_gamma 90.000000
_cell_volume 1663.474643
_symmetry_space_group_name_H-M "P 2/M"
_symmetry_group_IT_number 10
_symmetry_cell_setting 'monoclinic'
loop_
_space_group_symop_operation_xyz
x,y,z
-x,y,-z
-x,-y,-z
x,-y,z
loop_
_atom_site_type_symbol
_atom_site_label
_atom_site_fract_x
_atom_site_fract_y
_atom_site_fract_z
Si Si1 0.591418 0.178310 0.595076
Si Si2 0.891914 0.177983 0.659376
Si Si3 0.598467 0.334487 0.100567
Si Si4 0.565710 0.819642 0.334530
Si Si5 0.575973 0.822416 0.855547
Si Si6 0.108199 0.321595 0.841440
Si Si7 0.115586 0.179334 0.989340
Si Si8 0.869778 0.179470 0.494282
O O1 0.500000 0.251365 0.500000
O O2 0.751055 0.221387 0.644873
O O3 0.534041 0.242967 0.643995
O O4 0.570167 0.000000 0.586301
O O5 0.884468 0.232739 0.578151
O O6 0.007160 0.272013 0.742575
O O7 0.923776 0.000000 0.675568
O O8 0.621392 0.500000 0.144083
O O9 0.529929 0.216026 0.125032
O O10 0.741764 0.265255 0.127278
O O11 0.500000 0.358412 0.000000
O O12 0.494821 0.753482 0.239307
O O13 0.724340 0.759222 0.406324
O O14 0.569105 0.000000 0.334112
O O15 0.732042 0.757074 0.928909
O O16 0.589173 0.000000 0.853396
O O17 0.103446 0.500000 0.850432
O O18 0.071781 0.244796 0.899396
O O19 0.118382 0.000000 0.983835
O O20 0.000000 0.231716 0.000000
O O21 0.000000 0.243219 0.500000
O O22 0.868543 0.000000 0.491790
#
# Coordination Sequence:
#
# PCOD8063418 Si02
#       8
#     4   4   4   4   4   4   4   4
#     4   9  15  28  51  79 109 141 180 222 269 325
#     4  10  20  33  56  84 109 144 186 231 277 325
#     4  10  21  40  60  76 104 146 190 233 276 331
#     4   9  17  29  47  77 113 141 171 216 269 325
#     4  10  21  34  56  87 113 140 177 229 281 325
#     4  11  24  40  58  80 110 151 191 230 279 334
#     4  10  22  39  58  85 118 146 178 226 280 331
#     4   9  17  29  46  76 114 143 173 220 275 327
#
# _framework density 19.236841999999999
#
# number of rings (size 3 to 8) (size 9 to 14) (size 15 to 20)
#    0.000    2.250    2.500    0.375    3.500    1.500 
#    0.000    0.000    0.000    1.500    0.000    0.000 
#    0.000    0.000    0.000    0.000    0.000    0.000 
#
# Total GULP energy -396697.079203 kJ/mol
# GULP energy per Si atom -12396.783725 kJ/mol
# Density = 1.919306 g / cm^3
# Si number density = 19.236842 Si / 1000 Ang^3
#
#
#
# Elastic Constant Matrix: (Units=GPa)
#
#
# Indices 1 2 3 4 5 6 
#
# 1 147.9393 19.8590 53.9210 0.0000 -4.8299 0.0000
# 2 19.8590 14.9808 18.5639 0.0000 0.6186 0.0000
# 3 53.9210 18.5639 131.6285 0.0000 -6.8560 0.0000
# 4 0.0000 0.0000 0.0000 17.0241 0.0000 8.2893
# 5 -4.8299 0.6186 -6.8560 0.0000 31.1398 0.0000
# 6 0.0000 0.0000 0.0000 8.2893 0.0000 13.9246
#
#
#
# Elastic Compliance Matrix: (Units=1/GPa)
#
#
# Indices 1 2 3 4 5 6 
#
# 1 0.008828 -0.008883 -0.002309 0.000000 0.001037 0.000000
# 2 -0.008883 0.090366 -0.009378 0.000000 -0.005238 0.000000
# 3 -0.002309 -0.009378 0.009971 0.000000 0.002023 0.000000
# 4 0.000000 0.000000 0.000000 0.082716 0.000000 -0.049241
# 5 0.001037 -0.005238 0.002023 0.000000 0.032824 0.000000
# 6 0.000000 0.000000 0.000000 -0.049241 0.000000 0.101128
#
#
# Mechanical properties :
#
#
# Convention : Reuss Voigt Hill
#
# Bulk Modulus (GPa) = 14.70100 53.24850 33.97475
# Shear Modulus (GPa) = 12.83209 25.89802 19.36505
#
# Velocity S-wave (km/s) = 2.58555 3.67314 3.17624
# Velocity P-wave (km/s) = 4.07089 6.76238 5.58131
#
# Compressibility (1/GPa) = 0.06802259
#
# Stress axis : x y z
#
# Youngs Moduli (GPa) = 113.28162 11.06615 100.28889
#
# Poissons Ratio (x) = 0.09830 0.23160
# Poissons Ratio (y) = 1.00631 0.94055
# Poissons Ratio (z) = 0.26160 0.10378
#
# Static dielectric constant tensor:
#      x y z
#    x 3.737610 0.000000 0.057710 
#    y 0.000000 2.984520 0.000000 
#    z 0.057710 0.000000 3.730330 
# 
# 
# High freq. dielectric constant tensor:
#      x y z
#    x 1.763550 0.000000 0.002340 
#    y 0.000000 1.693950 0.000000 
#    z 0.002340 0.000000 1.761550 
# 
# From -- ./inp_files/49963.got.cif
#   From: 2010.06.25/outbox.cif.g09.slc.cpg/sg10_25_cif.got.tgz:49963.got - 2010.06.27 22:07:45.
