data_PCOD8063633
_publ_section_title
;
Structure prediction by ZEFSAII (Michael W. Deem and Ramdas Pophale) SiO2 
 PCOD8063633
Probable space group: P 2/M
;
_chemical_formula_sum "Si O2"
_cell_formula_units_Z 32
_cell_length_a 9.237615
_cell_length_b 23.808135
_cell_length_c 16.268997
_cell_angle_alpha 90.000000
_cell_angle_beta 152.198813
_cell_angle_gamma 90.000000
_cell_volume 1668.818784
_symmetry_space_group_name_H-M "P 2/M"
_symmetry_group_IT_number 10
_symmetry_cell_setting 'monoclinic'
loop_
_space_group_symop_operation_xyz
x,y,z
-x,y,-z
-x,-y,-z
x,-y,z
loop_
_atom_site_type_symbol
_atom_site_label
_atom_site_fract_x
_atom_site_fract_y
_atom_site_fract_z
Si Si1 0.904944 0.840655 0.547262
Si Si2 0.136050 0.235740 0.800750
Si Si3 0.301947 0.063432 0.821130
Si Si4 0.115113 0.565433 0.468986
Si Si5 0.712229 0.153694 0.682251
Si Si6 0.086926 0.936819 0.955687
Si Si7 0.139419 0.635804 0.807164
Si Si8 0.715594 0.561432 0.688029
O O1 0.528641 0.834731 0.363538
O O2 0.000000 0.841076 0.500000
O O3 0.062854 0.788501 0.673498
O O4 0.017995 0.896446 0.653553
O O5 0.028912 0.300156 0.745727
O O6 0.932244 0.206480 0.770375
O O7 0.500000 0.227936 0.000000
O O8 0.175927 0.000000 0.773611
O O9 0.500000 0.084289 0.000000
O O10 0.541360 0.064088 0.865233
O O11 0.038523 0.500000 0.413529
O O12 0.488090 0.575864 0.650268
O O13 0.000000 0.584821 0.500000
O O14 0.937700 0.602874 0.314147
O O15 0.500000 0.136941 0.500000
O O16 0.930684 0.100627 0.807416
O O17 0.956462 0.000000 0.881074
O O18 0.000000 0.911056 0.000000
O O19 0.979461 0.608037 0.807426
O O20 0.500000 0.632225 0.000000
O O21 0.500000 0.560028 0.500000
O O22 0.870786 0.500000 0.778997
#
# Coordination Sequence:
#
# PCOD8063633 Si02
#       8
#     4   4   4   4   4   4   4   4
#     4  11  22  35  54  80 105 130 169 220 266 305
#     4  10  22  40  56  72 101 140 179 217 262 316
#     4  10  20  35  55  76 103 140 170 198 252 321
#     4   9  18  33  54  81 113 146 174 206 257 313
#     4  10  21  35  54  77 101 133 173 215 260 305
#     4  10  20  34  53  77 104 135 169 205 255 318
#     4  10  20  34  55  79 102 136 181 224 259 298
#     4   8  15  29  51  78 107 141 175 207 251 307
#
# _framework density 19.175239999999999
#
# number of rings (size 3 to 8) (size 9 to 14) (size 15 to 20)
#    0.000    2.250    0.000    4.500    0.000    7.000 
#    0.000    0.625    0.000    5.250    0.000    0.000 
#    0.000    0.000    0.000    0.000    0.000    0.000 
#
# Total GULP energy -396653.471851 kJ/mol
# GULP energy per Si atom -12395.420995 kJ/mol
# Density = 1.913160 g / cm^3
# Si number density = 19.175240 Si / 1000 Ang^3
#
#
#
# Elastic Constant Matrix: (Units=GPa)
#
#
# Indices 1 2 3 4 5 6 
#
# 1 134.8507 51.5309 27.9336 0.0000 7.6289 0.0000
# 2 51.5309 135.5892 53.2851 0.0000 4.4845 0.0000
# 3 27.9336 53.2851 56.1677 0.0000 9.5551 0.0000
# 4 0.0000 0.0000 0.0000 20.7655 0.0000 9.0892
# 5 7.6289 4.4845 9.5551 0.0000 23.0934 0.0000
# 6 0.0000 0.0000 0.0000 9.0892 0.0000 12.2635
#
#
#
# Elastic Compliance Matrix: (Units=1/GPa)
#
#
# Indices 1 2 3 4 5 6 
#
# 1 0.008869 -0.002706 -0.001544 0.000000 -0.001766 0.000000
# 2 -0.002706 0.012721 -0.011246 0.000000 0.003077 0.000000
# 3 -0.001544 -0.011246 0.030962 0.000000 -0.010117 0.000000
# 4 0.000000 0.000000 0.000000 0.071281 0.000000 -0.052831
# 5 -0.001766 0.003077 -0.010117 0.000000 0.047474 0.000000
# 6 0.000000 0.000000 0.000000 -0.052831 0.000000 0.120699
#
#
# Mechanical properties :
#
#
# Convention : Reuss Voigt Hill
#
# Bulk Modulus (GPa) = 46.38007 65.78966 56.08487
# Shear Modulus (GPa) = 15.14298 24.14834 19.64566
#
# Velocity S-wave (km/s) = 2.81324 3.55258 3.20430
# Velocity P-wave (km/s) = 5.89851 7.15625 6.55760
#
# Compressibility (1/GPa) = 0.02156098
#
# Stress axis : x y z
#
# Youngs Moduli (GPa) = 112.74970 78.60725 32.29794
#
# Poissons Ratio (x) = 0.21269 0.04986
# Poissons Ratio (y) = 0.30507 0.36323
# Poissons Ratio (z) = 0.17404 0.88405
#
# Static dielectric constant tensor:
#      x y z
#    x 4.088550 0.000000 0.314830 
#    y 0.000000 3.595690 0.000000 
#    z 0.314830 0.000000 3.295860 
# 
# 
# High freq. dielectric constant tensor:
#      x y z
#    x 1.760990 0.000000 0.019020 
#    y 0.000000 1.741240 0.000000 
#    z 0.019020 0.000000 1.720090 
# 
# From -- ./inp_files/62706.got.cif
#   From: 2010.06.25/outbox.cif.g09.slc.cpg/sg10_32_cif.got.tgz:62706.got - 2010.06.27 22:07:45.
