data_PCOD8063127
_publ_section_title
;
Structure prediction by ZEFSAII (Michael W. Deem and Ramdas Pophale) SiO2 
 PCOD8063127
Probable space group: P 2/M
;
_chemical_formula_sum "Si O2"
_cell_formula_units_Z 30
_cell_length_a 32.332549
_cell_length_b 9.404400
_cell_length_c 13.368884
_cell_angle_alpha 90.000000
_cell_angle_beta 156.169736
_cell_angle_gamma 90.000000
_cell_volume 1642.397302
_symmetry_space_group_name_H-M "P 2/M"
_symmetry_group_IT_number 10
_symmetry_cell_setting 'monoclinic'
loop_
_space_group_symop_operation_xyz
x,y,z
-x,y,-z
-x,-y,-z
x,-y,z
loop_
_atom_site_type_symbol
_atom_site_label
_atom_site_fract_x
_atom_site_fract_y
_atom_site_fract_z
Si Si1 0.361811 0.837291 0.286789
Si Si2 0.235390 0.665172 0.702867
Si Si3 0.861470 0.834571 0.906930
Si Si4 0.000000 0.741986 0.500000
Si Si5 0.588555 0.161752 0.833375
Si Si6 0.081212 0.156809 0.479263
Si Si7 0.883493 0.664782 0.762979
Si Si8 0.199643 0.340248 0.043457
O O1 0.375305 0.812624 0.199477
O O2 0.468500 0.802987 0.578871
O O3 0.276061 0.729049 0.133309
O O4 0.328481 0.000000 0.234345
O O5 0.246784 0.500000 0.750050
O O6 0.166478 0.728812 0.639487
O O7 0.183885 0.696437 0.483028
O O8 0.347492 0.736044 0.951786
O O9 0.836160 0.761715 0.745393
O O10 0.796619 0.755667 0.848919
O O11 0.829898 0.000000 0.835280
O O12 0.981296 0.813504 0.192261
O O13 0.055168 0.839323 0.539225
O O14 0.085898 0.647912 0.744898
O O15 0.609268 0.000000 0.911203
O O16 0.124977 0.000000 0.552721
O O17 0.878061 0.500000 0.783413
O O18 0.000000 0.709854 0.000000
O O19 0.235194 0.500000 0.148170
#
# Coordination Sequence:
#
# PCOD8063127 Si02
#       8
#     4   4   4   2   4   4   4   4
#     4   9  19  37  58  79 107 143 182 220 264 316
#     4  11  22  33  52  80 109 139 175 220 269 319
#     4  10  21  35  53  76 102 138 183 222 258 313
#     4  10  22  34  48  76 108 144 180 216 252 310
#     4   9  19  36  57  80 107 141 179 223 269 313
#     4  10  20  33  49  71 103 141 179 218 260 307
#     4  10  20  36  54  75 108 146 176 216 272 323
#     4  11  22  35  53  77 108 145 178 216 265 319
#
# _framework density 18.265982999999999
#
# number of rings (size 3 to 8) (size 9 to 14) (size 15 to 20)
#    0.000    2.000    1.333    3.200    0.000    8.800 
#    0.000    1.333    0.000    0.800    0.000    5.600 
#    0.000    0.000    0.000    0.000    0.000    0.000 
#
# Total GULP energy -372044.372596 kJ/mol
# GULP energy per Si atom -12401.479087 kJ/mol
# Density = 1.822441 g / cm^3
# Si number density = 18.265983 Si / 1000 Ang^3
#
#
#
# Elastic Constant Matrix: (Units=GPa)
#
#
# Indices 1 2 3 4 5 6 
#
# 1 74.5784 43.3205 24.6338 0.0000 -3.4926 0.0000
# 2 43.3205 115.6808 46.5991 0.0000 -0.0263 0.0000
# 3 24.6338 46.5991 85.8451 0.0000 -3.6664 0.0000
# 4 0.0000 0.0000 0.0000 26.7376 0.0000 -0.9927
# 5 -3.4926 -0.0263 -3.6664 0.0000 23.5830 0.0000
# 6 0.0000 0.0000 0.0000 -0.9927 0.0000 16.3312
#
#
#
# Elastic Compliance Matrix: (Units=1/GPa)
#
#
# Indices 1 2 3 4 5 6 
#
# 1 0.017489 -0.005845 -0.001747 0.000000 0.002312 0.000000
# 2 -0.005845 0.013037 -0.005472 0.000000 -0.001702 0.000000
# 3 -0.001747 -0.005472 0.015210 0.000000 0.002100 0.000000
# 4 0.000000 0.000000 0.000000 0.037485 0.000000 0.002279
# 5 0.002312 -0.001702 0.002100 0.000000 0.043070 0.000000
# 6 0.000000 0.000000 0.000000 0.002279 0.000000 0.061371
#
#
# Mechanical properties :
#
#
# Convention : Reuss Voigt Hill
#
# Bulk Modulus (GPa) = 50.99968 56.13457 53.56712
# Shear Modulus (GPa) = 22.69332 24.10041 23.39687
#
# Velocity S-wave (km/s) = 3.52857 3.63632 3.58285
# Velocity P-wave (km/s) = 6.67699 6.95908 6.81950
#
# Compressibility (1/GPa) = 0.01960797
#
# Stress axis : x y z
#
# Youngs Moduli (GPa) = 57.17768 76.70200 65.74408
#
# Poissons Ratio (x) = 0.44834 0.11485
# Poissons Ratio (y) = 0.33422 0.35978
# Poissons Ratio (z) = 0.09989 0.41975
#
# Static dielectric constant tensor:
#      x y z
#    x 3.178740 0.000000 -0.005230 
#    y 0.000000 3.329090 0.000000 
#    z -0.005230 0.000000 3.379450 
# 
# 
# High freq. dielectric constant tensor:
#      x y z
#    x 1.691300 0.000000 -0.003740 
#    y 0.000000 1.712300 0.000000 
#    z -0.003740 0.000000 1.697050 
# 
# From -- ./inp_files/58038.got.cif
#   From: 2010.06.25/outbox.cif.g09.slc.cpg/sg10_30_cif.got.tgz:58038.got - 2010.06.27 22:07:45.
