data_PCOD8063687
_publ_section_title
;
Structure prediction by ZEFSAII (Michael W. Deem and Ramdas Pophale) SiO2 
 PCOD8063687
Probable space group: P 2/M
;
_chemical_formula_sum "Si O2"
_cell_formula_units_Z 32
_cell_length_a 6.733957
_cell_length_b 18.006701
_cell_length_c 13.351849
_cell_angle_alpha 90.000000
_cell_angle_beta 87.993361
_cell_angle_gamma 90.000000
_cell_volume 1618.003672
_symmetry_space_group_name_H-M "P 2/M"
_symmetry_group_IT_number 10
_symmetry_cell_setting 'monoclinic'
loop_
_space_group_symop_operation_xyz
x,y,z
-x,y,-z
-x,-y,-z
x,-y,z
loop_
_atom_site_type_symbol
_atom_site_label
_atom_site_fract_x
_atom_site_fract_y
_atom_site_fract_z
Si Si1 0.498702 0.189318 0.612507
Si Si2 0.899737 0.583281 0.603833
Si Si3 0.787920 0.582018 0.228673
Si Si4 0.893065 0.275962 0.109466
Si Si5 0.495530 0.644409 0.387260
Si Si6 0.436431 0.152500 0.893173
Si Si7 0.828089 0.821309 0.759965
Si Si8 0.796431 0.916124 0.261456
O O1 0.500000 0.158524 0.500000
O O2 0.412292 0.273006 0.615944
O O3 0.722879 0.192857 0.654094
O O4 0.342170 0.138348 0.672255
O O5 0.815262 0.500000 0.586943
O O6 0.734935 0.643162 0.637061
O O7 0.000000 0.612281 0.500000
O O8 0.037721 0.584301 0.695962
O O9 0.769866 0.500000 0.179405
O O10 0.824017 0.641148 0.139697
O O11 0.594727 0.596050 0.299229
O O12 0.690356 0.228692 0.105280
O O13 0.040768 0.244950 0.193595
O O14 0.000000 0.276630 0.000000
O O15 0.500000 0.609749 0.500000
O O16 0.644580 0.161607 0.834321
O O17 0.295942 0.088563 0.848593
O O18 0.500000 0.124968 0.000000
O O19 0.973668 0.891631 0.742429
O O20 0.784839 0.000000 0.302316
#
# Coordination Sequence:
#
# PCOD8063687 Si02
#       8
#     4   4   4   4   4   4   4   4
#     4  10  23  40  61  91 122 161 211 251 290 352
#     4  10  20  34  53  82 119 159 198 242 307 369
#     4  11  23  36  54  84 121 161 204 251 305 364
#     4  11  22  39  65  87 116 163 209 256 309 362
#     4  11  20  35  59  85 116 157 199 255 309 351
#     4  10  20  39  67  94 115 150 198 251 306 360
#     4  10  20  39  63  88 121 154 198 249 302 354
#     4  10  23  40  61  92 127 160 196 239 298 367
#
# _framework density 19.777457999999999
#
# number of rings (size 3 to 8) (size 9 to 14) (size 15 to 20)
#    0.000    1.625    2.500    3.375    0.000    3.750 
#    0.000    1.250    0.000    0.375    0.000    0.000 
#    0.000    0.000    0.000    0.000    0.000    0.000 
#
# Total GULP energy -396536.312899 kJ/mol
# GULP energy per Si atom -12391.759778 kJ/mol
# Density = 1.973244 g / cm^3
# Si number density = 19.777458 Si / 1000 Ang^3
#
#
#
# Elastic Constant Matrix: (Units=GPa)
#
#
# Indices 1 2 3 4 5 6 
#
# 1 127.8521 41.5718 43.5443 0.0000 -9.6385 0.0000
# 2 41.5718 96.1408 28.2313 0.0000 -20.9271 0.0000
# 3 43.5443 28.2313 102.7528 0.0000 6.2519 0.0000
# 4 0.0000 0.0000 0.0000 17.6649 0.0000 -3.4782
# 5 -9.6385 -20.9271 6.2519 0.0000 28.7258 0.0000
# 6 0.0000 0.0000 0.0000 -3.4782 0.0000 23.7997
#
#
#
# Elastic Compliance Matrix: (Units=1/GPa)
#
#
# Indices 1 2 3 4 5 6 
#
# 1 0.010152 -0.002858 -0.003646 0.000000 0.002118 0.000000
# 2 -0.002858 0.015031 -0.003574 0.000000 0.010769 0.000000
# 3 -0.003646 -0.003574 0.012659 0.000000 -0.006582 0.000000
# 4 0.000000 0.000000 0.000000 0.058287 0.000000 0.008518
# 5 0.002118 0.010769 -0.006582 0.000000 0.044800 0.000000
# 6 0.000000 0.000000 0.000000 0.008518 0.000000 0.043262
#
#
# Mechanical properties :
#
#
# Convention : Reuss Voigt Hill
#
# Bulk Modulus (GPa) = 56.53893 61.49337 59.01615
# Shear Modulus (GPa) = 23.78205 28.26466 26.02335
#
# Velocity S-wave (km/s) = 3.47144 3.78449 3.63134
# Velocity P-wave (km/s) = 6.68712 7.08919 6.89109
#
# Compressibility (1/GPa) = 0.01768693
#
# Stress axis : x y z
#
# Youngs Moduli (GPa) = 98.49988 66.52982 78.99259
#
# Poissons Ratio (x) = 0.19017 0.28799
# Poissons Ratio (y) = 0.28155 0.28229
# Poissons Ratio (z) = 0.35911 0.23775
#
# Static dielectric constant tensor:
#      x y z
#    x 3.786570 0.000000 0.187000 
#    y 0.000000 3.580090 0.000000 
#    z 0.187000 0.000000 3.754660 
# 
# 
# High freq. dielectric constant tensor:
#      x y z
#    x 1.784020 0.000000 0.000760 
#    y 0.000000 1.756750 0.000000 
#    z 0.000760 0.000000 1.764950 
# 
# From -- ./inp_files/59427.got.cif
#   From: 2010.06.25/outbox.cif.g09.slc.cpg/sg10_30_cif.got.tgz:59427.got - 2010.06.27 22:07:45.
