data_PCOD8063832
_publ_section_title
;
Structure prediction by ZEFSAII (Michael W. Deem and Ramdas Pophale) SiO2 
 PCOD8063832
Probable space group: P 2/M
;
_chemical_formula_sum "Si O2"
_cell_formula_units_Z 32
_cell_length_a 24.352850
_cell_length_b 9.229367
_cell_length_c 15.908189
_cell_angle_alpha 90.000000
_cell_angle_beta 153.257372
_cell_angle_gamma 90.000000
_cell_volume 1608.937156
_symmetry_space_group_name_H-M "P 2/M"
_symmetry_group_IT_number 10
_symmetry_cell_setting 'monoclinic'
loop_
_space_group_symop_operation_xyz
x,y,z
-x,y,-z
-x,-y,-z
x,-y,z
loop_
_atom_site_type_symbol
_atom_site_label
_atom_site_fract_x
_atom_site_fract_y
_atom_site_fract_z
Si Si1 0.156240 0.665758 0.525115
Si Si2 0.591468 0.671908 0.053519
Si Si3 0.194287 0.329307 0.108255
Si Si4 0.086288 0.665048 0.247296
Si Si5 0.747801 0.830249 0.648602
Si Si6 0.034607 0.165907 0.637418
Si Si7 0.485777 0.167304 0.218688
Si Si8 0.278452 0.165395 0.060981
O O1 0.132002 0.500000 0.515827
O O2 0.274874 0.725238 0.735262
O O3 0.171979 0.682694 0.446329
O O4 0.037727 0.754064 0.388575
O O5 0.585167 0.500000 0.037064
O O6 0.500000 0.728479 0.000000
O O7 0.557987 0.737516 0.918594
O O8 0.216754 0.500000 0.144482
O O9 0.264332 0.250362 0.279439
O O10 0.252972 0.272914 0.102419
O O11 0.051238 0.290363 0.917006
O O12 0.090649 0.500000 0.219627
O O13 0.135547 0.769181 0.241984
O O14 0.626045 0.797304 0.429601
O O15 0.766444 0.000000 0.689703
O O16 0.000000 0.234976 0.500000
O O17 0.992894 0.000000 0.582414
O O18 0.177642 0.185174 0.850138
O O19 0.407178 0.205437 0.194240
O O20 0.466698 0.000000 0.168495
O O21 0.277699 0.000000 0.093628
#
# Coordination Sequence:
#
# PCOD8063832 Si02
#       8
#     4   4   4   4   4   4   4   4
#     4  10  20  35  56  84 116 151 189 235 289 343
#     4  10  21  37  59  86 118 158 201 243 290 346
#     4  11  23  40  63  89 118 154 196 244 299 354
#     4  10  21  39  61  87 121 155 192 241 297 356
#     4  11  24  40  61  88 117 153 198 247 299 354
#     4  10  20  34  55  83 113 149 191 235 284 339
#     4  10  23  42  61  85 119 159 201 245 295 349
#     4  10  21  39  61  84 118 158 197 244 293 347
#
# _framework density 19.888905999999999
#
# number of rings (size 3 to 8) (size 9 to 14) (size 15 to 20)
#    0.000    1.750    1.250    2.625    0.000    8.000 
#    0.000    2.500    0.000    0.000    0.000    0.000 
#    0.000    0.000    0.000    0.000    0.000    0.000 
#
# Total GULP energy -396938.300418 kJ/mol
# GULP energy per Si atom -12404.321888 kJ/mol
# Density = 1.984364 g / cm^3
# Si number density = 19.888906 Si / 1000 Ang^3
#
#
#
# Elastic Constant Matrix: (Units=GPa)
#
#
# Indices 1 2 3 4 5 6 
#
# 1 95.1822 39.7222 18.9701 0.0000 -0.1373 0.0000
# 2 39.7222 68.8702 31.1009 0.0000 -2.8510 0.0000
# 3 18.9701 31.1009 66.1832 0.0000 -6.9692 0.0000
# 4 0.0000 0.0000 0.0000 30.6715 0.0000 -6.3680
# 5 -0.1373 -2.8510 -6.9692 0.0000 36.3906 0.0000
# 6 0.0000 0.0000 0.0000 -6.3680 0.0000 36.2996
#
#
#
# Elastic Compliance Matrix: (Units=1/GPa)
#
#
# Indices 1 2 3 4 5 6 
#
# 1 0.013855 -0.007862 -0.000343 0.000000 -0.000629 0.000000
# 2 -0.007862 0.022895 -0.008491 0.000000 0.000138 0.000000
# 3 -0.000343 -0.008491 0.019521 0.000000 0.003072 0.000000
# 4 0.000000 0.000000 0.000000 0.033836 0.000000 0.005936
# 5 -0.000629 0.000138 0.003072 0.000000 0.028076 0.000000
# 6 0.000000 0.000000 0.000000 0.005936 0.000000 0.028590
#
#
# Mechanical properties :
#
#
# Convention : Reuss Voigt Hill
#
# Bulk Modulus (GPa) = 43.70753 45.53575 44.62164
# Shear Modulus (GPa) = 26.62541 30.03518 28.33029
#
# Velocity S-wave (km/s) = 3.66280 3.89028 3.77825
# Velocity P-wave (km/s) = 6.31757 6.56687 6.44343
#
# Compressibility (1/GPa) = 0.02287935
#
# Stress axis : x y z
#
# Youngs Moduli (GPa) = 72.17774 43.67820 51.22618
#
# Poissons Ratio (x) = 0.34341 0.01756
# Poissons Ratio (y) = 0.56747 0.43494
# Poissons Ratio (z) = 0.02474 0.37086
#
# Static dielectric constant tensor:
#      x y z
#    x 3.545930 0.000000 -0.017280 
#    y 0.000000 3.524360 0.000000 
#    z -0.017280 0.000000 3.743460 
# 
# 
# High freq. dielectric constant tensor:
#      x y z
#    x 1.778640 0.000000 -0.003900 
#    y 0.000000 1.769100 0.000000 
#    z -0.003900 0.000000 1.784790 
# 
# From -- ./inp_files/71567.got.cif
#   From: 2010.06.25/outbox.cif.g09.slc.cpg/sg10_36_cif.got.tgz:71567.got - 2010.06.27 22:07:45.
