data_PCOD8063650
_publ_section_title
;
Structure prediction by ZEFSAII (Michael W. Deem and Ramdas Pophale) SiO2 
 PCOD8063650
Probable space group: P 2/M
;
_chemical_formula_sum "Si O2"
_cell_formula_units_Z 32
_cell_length_a 15.835680
_cell_length_b 23.699161
_cell_length_c 9.103561
_cell_angle_alpha 90.000000
_cell_angle_beta 28.087855
_cell_angle_gamma 90.000000
_cell_volume 1608.571631
_symmetry_space_group_name_H-M "P 2/M"
_symmetry_group_IT_number 10
_symmetry_cell_setting 'monoclinic'
loop_
_space_group_symop_operation_xyz
x,y,z
-x,y,-z
-x,-y,-z
x,-y,z
loop_
_atom_site_type_symbol
_atom_site_label
_atom_site_fract_x
_atom_site_fract_y
_atom_site_fract_z
Si Si1 0.655335 0.064256 0.365023
Si Si2 0.309188 0.655874 0.223151
Si Si3 0.185805 0.130846 0.630187
Si Si4 0.458328 0.337043 0.392765
Si Si5 0.038773 0.436506 0.599627
Si Si6 0.195661 0.739896 0.631466
Si Si7 0.974881 0.064386 0.373221
Si Si8 0.812224 0.563699 0.212297
O O1 0.500000 0.089734 0.500000
O O2 0.663759 0.099288 0.503575
O O3 0.610149 0.000000 0.477731
O O4 0.837235 0.068260 0.996085
O O5 0.192137 0.600919 0.438431
O O6 0.210385 0.708686 0.451423
O O7 0.500000 0.644843 0.000000
O O8 0.349956 0.665391 0.986930
O O9 0.242504 0.195532 0.525698
O O10 0.169351 0.102223 0.494441
O O11 0.000000 0.125051 0.000000
O O12 0.500000 0.335307 0.500000
O O13 0.338436 0.283407 0.530682
O O14 0.349254 0.393268 0.509712
O O15 0.114083 0.500000 0.472916
O O16 0.000000 0.410708 0.500000
O O17 0.853702 0.434817 0.974499
O O18 0.000000 0.731718 0.000000
O O19 0.000000 0.087816 0.500000
O O20 0.903912 0.000000 0.486054
O O21 0.757375 0.500000 0.346105
O O22 0.000000 0.581691 0.000000
#
# Coordination Sequence:
#
# PCOD8063650 Si02
#       8
#     4   4   4   4   4   4   4   4
#     4   9  17  31  53  82 113 143 176 214 261 318
#     4  10  21  36  54  76 103 135 172 213 263 314
#     4   9  18  34  56  78 102 142 185 220 263 314
#     4  11  22  36  55  79 107 137 174 221 272 318
#     4  10  20  34  53  78 105 132 166 208 256 312
#     4  10  21  39  57  73 101 140 184 224 261 315
#     4   9  17  32  54  81 112 141 175 218 262 314
#     4  10  20  35  56  79 105 139 174 209 259 323
#
# _framework density 19.893426000000002
#
# number of rings (size 3 to 8) (size 9 to 14) (size 15 to 20)
#    0.000    2.250    0.000    3.750    0.000    3.000 
#    0.000    8.750    0.000    3.000    0.000    0.000 
#    0.000    0.000    0.000    0.000    0.000    0.000 
#
# Total GULP energy -396711.389008 kJ/mol
# GULP energy per Si atom -12397.230906 kJ/mol
# Density = 1.984815 g / cm^3
# Si number density = 19.893426 Si / 1000 Ang^3
#
#
#
# Elastic Constant Matrix: (Units=GPa)
#
#
# Indices 1 2 3 4 5 6 
#
# 1 130.9504 71.6093 24.9760 0.0000 11.5744 0.0000
# 2 71.6093 135.8269 41.0719 0.0000 -3.9096 0.0000
# 3 24.9760 41.0719 64.5437 0.0000 9.5631 0.0000
# 4 0.0000 0.0000 0.0000 17.9812 0.0000 2.2486
# 5 11.5744 -3.9096 9.5631 0.0000 30.9753 0.0000
# 6 0.0000 0.0000 0.0000 2.2486 0.0000 14.7037
#
#
#
# Elastic Compliance Matrix: (Units=1/GPa)
#
#
# Indices 1 2 3 4 5 6 
#
# 1 0.011477 -0.006302 0.000338 0.000000 -0.005188 0.000000
# 2 -0.006302 0.012867 -0.006643 0.000000 0.006030 0.000000
# 3 0.000338 -0.006643 0.020678 0.000000 -0.007349 0.000000
# 4 0.000000 0.000000 0.000000 0.056698 0.000000 -0.008671
# 5 -0.005188 0.006030 -0.007349 0.000000 0.037252 0.000000
# 6 0.000000 0.000000 0.000000 -0.008671 0.000000 0.069336
#
#
# Mechanical properties :
#
#
# Convention : Reuss Voigt Hill
#
# Bulk Modulus (GPa) = 50.48275 67.40393 58.94334
# Shear Modulus (GPa) = 20.82242 25.64294 23.23268
#
# Velocity S-wave (km/s) = 3.23878 3.59418 3.42110
# Velocity P-wave (km/s) = 6.27837 7.15404 6.73046
#
# Compressibility (1/GPa) = 0.01980875
#
# Stress axis : x y z
#
# Youngs Moduli (GPa) = 87.13091 77.71753 48.35976
#
# Poissons Ratio (x) = 0.48980 -0.01635
# Poissons Ratio (y) = 0.54913 0.32123
# Poissons Ratio (z) = -0.02945 0.51624
#
# Static dielectric constant tensor:
#      x y z
#    x 3.846970 0.000000 0.300790 
#    y 0.000000 3.604750 0.000000 
#    z 0.300790 0.000000 3.770370 
# 
# 
# High freq. dielectric constant tensor:
#      x y z
#    x 1.781330 0.000000 0.013710 
#    y 0.000000 1.766310 0.000000 
#    z 0.013710 0.000000 1.763070 
# 
# From -- ./inp_files/30573.got.cif
#   From: 2010.06.25/outbox.cif.g09.slc.cpg/sg10_16_cif.got.tgz:30573.got - 2010.06.27 22:07:45.
