data_PCOD8063744
_publ_section_title
;
Structure prediction by ZEFSAII (Michael W. Deem and Ramdas Pophale) SiO2 
 PCOD8063744
Probable space group: P 2/M
;
_chemical_formula_sum "Si O2"
_cell_formula_units_Z 32
_cell_length_a 16.701319
_cell_length_b 8.944316
_cell_length_c 23.089651
_cell_angle_alpha 90.000000
_cell_angle_beta 150.105830
_cell_angle_gamma 90.000000
_cell_volume 1719.067369
_symmetry_space_group_name_H-M "P 2/M"
_symmetry_group_IT_number 10
_symmetry_cell_setting 'monoclinic'
loop_
_space_group_symop_operation_xyz
x,y,z
-x,y,-z
-x,-y,-z
x,-y,z
loop_
_atom_site_type_symbol
_atom_site_label
_atom_site_fract_x
_atom_site_fract_y
_atom_site_fract_z
Si Si1 0.631306 0.666707 0.631172
Si Si2 0.064334 0.677531 0.325718
Si Si3 0.047795 0.176914 0.200176
Si Si4 0.256991 0.323536 0.654537
Si Si5 0.394804 0.829498 0.558750
Si Si6 0.977066 0.323239 0.396090
Si Si7 0.114079 0.822589 0.020192
Si Si8 0.472130 0.831230 0.234504
O O1 0.500000 0.651768 0.500000
O O2 0.685987 0.500000 0.685225
O O3 0.774400 0.761300 0.694465
O O4 0.561391 0.760268 0.640724
O O5 0.061810 0.500000 0.316718
O O6 0.976954 0.752388 0.215351
O O7 0.248404 0.729524 0.445006
O O8 0.973458 0.732505 0.327217
O O9 0.049807 0.000000 0.207483
O O10 0.947655 0.229169 0.081480
O O11 0.274253 0.500000 0.661082
O O12 0.185754 0.274292 0.672647
O O13 0.434806 0.255178 0.758334
O O14 0.133764 0.261967 0.528244
O O15 0.409321 0.823891 0.636702
O O16 0.373475 0.000000 0.523369
O O17 0.991244 0.500000 0.406037
O O18 0.296922 0.761304 0.139571
O O19 0.111271 0.000000 0.024663
O O20 0.000000 0.755458 0.000000
O O21 0.444835 0.000000 0.195988
#
# Coordination Sequence:
#
# PCOD8063744 Si02
#       8
#     4   4   4   4   4   4   4   4
#     4  11  22  34  49  71 102 138 170 210 261 311
#     4  11  20  33  52  76 109 142 170 210 265 316
#     4  11  22  36  56  78 101 136 180 221 263 318
#     4   9  16  31  53  78 106 142 183 214 257 318
#     4  11  21  32  50  77 106 137 174 213 258 316
#     4   8  16  30  51  76 108 146 177 209 258 323
#     4   9  19  38  59  76 101 141 182 220 265 313
#     4  10  20  34  54  81 108 136 176 224 270 313
#
# _framework density 18.614746
#
# number of rings (size 3 to 8) (size 9 to 14) (size 15 to 20)
#    0.000    2.000    2.500    3.000    0.000    3.000 
#    0.000    3.750    0.000    3.375    0.000    5.250 
#    0.000    0.000    0.000    0.000    0.000    0.000 
#
# Total GULP energy -396642.068717 kJ/mol
# GULP energy per Si atom -12395.064647 kJ/mol
# Density = 1.857238 g / cm^3
# Si number density = 18.614746 Si / 1000 Ang^3
#
#
#
# Elastic Constant Matrix: (Units=GPa)
#
#
# Indices 1 2 3 4 5 6 
#
# 1 160.8612 40.7741 48.9543 0.0000 1.1917 0.0000
# 2 40.7741 64.1173 19.8308 0.0000 -5.3389 0.0000
# 3 48.9543 19.8308 73.1991 0.0000 -3.7939 0.0000
# 4 0.0000 0.0000 0.0000 2.0324 0.0000 5.4084
# 5 1.1917 -5.3389 -3.7939 0.0000 33.5856 0.0000
# 6 0.0000 0.0000 0.0000 5.4084 0.0000 27.0658
#
#
#
# Elastic Compliance Matrix: (Units=1/GPa)
#
#
# Indices 1 2 3 4 5 6 
#
# 1 0.008754 -0.004211 -0.004792 0.000000 -0.001521 0.000000
# 2 -0.004211 0.019212 -0.002235 0.000000 0.002951 0.000000
# 3 -0.004792 -0.002235 0.017565 0.000000 0.001799 0.000000
# 4 0.000000 0.000000 0.000000 1.050806 0.000000 -0.209978
# 5 -0.001521 0.002951 0.001799 0.000000 0.030501 0.000000
# 6 0.000000 0.000000 0.000000 -0.209978 0.000000 0.078906
#
#
# Mechanical properties :
#
#
# Convention : Reuss Voigt Hill
#
# Bulk Modulus (GPa) = 43.37890 57.47734 50.42812
# Shear Modulus (GPa) = 4.04562 25.11132 14.57847
#
# Velocity S-wave (km/s) = 1.47582 3.67686 2.80155
# Velocity P-wave (km/s) = 5.12427 6.99786 6.13304
#
# Compressibility (1/GPa) = 0.02305268
#
# Stress axis : x y z
#
# Youngs Moduli (GPa) = 114.23805 52.05208 56.93078
#
# Poissons Ratio (x) = 0.21920 0.27283
# Poissons Ratio (y) = 0.48108 0.12726
# Poissons Ratio (z) = 0.54746 0.11636
#
# Static dielectric constant tensor:
#      x y z
#    x 3.912040 0.000000 -0.117360 
#    y 0.000000 3.326320 0.000000 
#    z -0.117360 0.000000 3.257160 
# 
# 
# High freq. dielectric constant tensor:
#      x y z
#    x 1.734680 0.000000 -0.004940 
#    y 0.000000 1.704080 0.000000 
#    z -0.004940 0.000000 1.687550 
# 
# From -- ./inp_files/89975.got.cif
#   From: 2010.06.25/outbox.cif.g09.slc.cpg/sg10_45_cif.got.tgz:89975.got - 2010.06.27 22:07:45.
