data_PCOD8063024
_publ_section_title
;
Structure prediction by ZEFSAII (Michael W. Deem and Ramdas Pophale) SiO2 
 PCOD8063024
Probable space group: P 2/M
;
_chemical_formula_sum "Si O2"
_cell_formula_units_Z 32
_cell_length_a 31.084934
_cell_length_b 8.996681
_cell_length_c 13.097876
_cell_angle_alpha 90.000000
_cell_angle_beta 26.432230
_cell_angle_gamma 90.000000
_cell_volume 1630.529861
_symmetry_space_group_name_H-M "P 2/M"
_symmetry_group_IT_number 10
_symmetry_cell_setting 'monoclinic'
loop_
_space_group_symop_operation_xyz
x,y,z
-x,y,-z
-x,-y,-z
x,-y,z
loop_
_atom_site_type_symbol
_atom_site_label
_atom_site_fract_x
_atom_site_fract_y
_atom_site_fract_z
Si Si1 0.844519 0.332804 0.122381
Si Si2 0.758432 0.827307 0.122624
Si Si3 0.178630 0.167875 0.362061
Si Si4 0.337550 0.669249 0.360261
Si Si5 0.991505 0.834168 0.134395
Si Si6 0.576459 0.172003 0.630731
Si Si7 0.104104 0.676015 0.324113
Si Si8 0.640502 0.826980 0.901844
O O1 0.841905 0.500000 0.081575
O O2 0.819429 0.209669 0.092733
O O3 0.773761 0.319086 0.369227
O O4 0.952048 0.293551 0.925865
O O5 0.647483 0.780701 0.386128
O O6 0.766983 0.000000 0.076579
O O7 0.802909 0.733903 0.935714
O O8 0.118645 0.170505 0.594652
O O9 0.121653 0.267229 0.401282
O O10 0.284355 0.230462 0.170823
O O11 0.187010 0.000000 0.300470
O O12 0.370887 0.500000 0.276585
O O13 0.405296 0.739525 0.303497
O O14 0.347521 0.748201 0.231455
O O15 0.035072 0.000000 0.059854
O O16 0.000000 0.789354 0.000000
O O17 0.594732 0.000000 0.618134
O O18 0.467177 0.202041 0.826231
O O19 0.104915 0.500000 0.321712
O O20 0.000000 0.732801 0.500000
O O21 0.660348 0.000000 0.840252
#
# Coordination Sequence:
#
# PCOD8063024 Si02
#       8
#     4   4   4   4   4   4   4   4
#     4  10  20  33  50  76 110 144 178 220 271 324
#     4  10  20  36  59  83 106 135 176 224 271 320
#     4  10  22  38  57  82 110 143 183 225 270 322
#     4  10  20  32  50  80 115 150 187 225 268 320
#     4  10  20  34  53  78 108 143 182 221 263 315
#     4   9  19  35  56  82 110 144 185 227 270 317
#     4  11  24  41  61  84 110 140 175 220 274 329
#     4  10  20  36  56  78 109 147 186 227 270 318
#
# _framework density 19.625523000000001
#
# number of rings (size 3 to 8) (size 9 to 14) (size 15 to 20)
#    0.000    2.000    0.000    3.375    0.000    9.250 
#    0.000    0.625    0.000    3.750    0.000    0.000 
#    0.000    0.000    0.000    0.000    0.000    0.000 
#
# Total GULP energy -396696.801625 kJ/mol
# GULP energy per Si atom -12396.775051 kJ/mol
# Density = 1.958085 g / cm^3
# Si number density = 19.625523 Si / 1000 Ang^3
#
#
#
# Elastic Constant Matrix: (Units=GPa)
#
#
# Indices 1 2 3 4 5 6 
#
# 1 102.7047 35.8182 61.3642 0.0000 -13.5733 0.0000
# 2 35.8182 59.8689 32.5257 0.0000 -4.3155 0.0000
# 3 61.3642 32.5257 96.5354 0.0000 -3.6785 0.0000
# 4 0.0000 0.0000 0.0000 26.6854 0.0000 0.8364
# 5 -13.5733 -4.3155 -3.6785 0.0000 35.2763 0.0000
# 6 0.0000 0.0000 0.0000 0.8364 0.0000 14.9091
#
#
#
# Elastic Compliance Matrix: (Units=1/GPa)
#
#
# Indices 1 2 3 4 5 6 
#
# 1 0.017862 -0.005200 -0.009402 0.000000 0.005256 0.000000
# 2 -0.005200 0.022073 -0.004121 0.000000 0.000270 0.000000
# 3 -0.009402 -0.004121 0.017637 0.000000 -0.002283 0.000000
# 4 0.000000 0.000000 0.000000 0.037540 0.000000 -0.002106
# 5 0.005256 0.000270 -0.002283 0.000000 0.030165 0.000000
# 6 0.000000 0.000000 0.000000 -0.002106 0.000000 0.067191
#
#
# Mechanical properties :
#
#
# Convention : Reuss Voigt Hill
#
# Bulk Modulus (GPa) = 49.68819 57.61390 53.65105
# Shear Modulus (GPa) = 21.13063 24.00089 22.56576
#
# Velocity S-wave (km/s) = 3.28486 3.50085 3.39457
# Velocity P-wave (km/s) = 6.30557 6.76474 6.53918
#
# Compressibility (1/GPa) = 0.02012551
#
# Stress axis : x y z
#
# Youngs Moduli (GPa) = 55.98351 45.30517 56.69822
#
# Poissons Ratio (x) = 0.23557 0.53309
# Poissons Ratio (y) = 0.29110 0.23367
# Poissons Ratio (z) = 0.52637 0.18672
#
# Static dielectric constant tensor:
#      x y z
#    x 3.412180 0.000000 -0.133710 
#    y 0.000000 3.576640 0.000000 
#    z -0.133710 0.000000 3.903430 
# 
# 
# High freq. dielectric constant tensor:
#      x y z
#    x 1.743320 0.000000 -0.005670 
#    y 0.000000 1.762350 0.000000 
#    z -0.005670 0.000000 1.776220 
# 
# From -- ./inp_files/58178.got.cif
#   From: 2010.06.25/outbox.cif.g09.slc.cpg/sg10_30_cif.got.tgz:58178.got - 2010.06.27 22:07:45.
