data_PCOD8063713
_publ_section_title
;
Structure prediction by ZEFSAII (Michael W. Deem and Ramdas Pophale) SiO2 
 PCOD8063713
Probable space group: P 2/M
;
_chemical_formula_sum "Si O2"
_cell_formula_units_Z 28
_cell_length_a 18.862300
_cell_length_b 9.304716
_cell_length_c 13.953031
_cell_angle_alpha 90.000000
_cell_angle_beta 36.574683
_cell_angle_gamma 90.000000
_cell_volume 1459.210372
_symmetry_space_group_name_H-M "P 2/M"
_symmetry_group_IT_number 10
_symmetry_cell_setting 'monoclinic'
loop_
_space_group_symop_operation_xyz
x,y,z
-x,y,-z
-x,-y,-z
x,-y,z
loop_
_atom_site_type_symbol
_atom_site_label
_atom_site_fract_x
_atom_site_fract_y
_atom_site_fract_z
Si Si1 0.521087 0.170225 0.870632
Si Si2 0.178183 0.832418 0.942364
Si Si3 0.284861 0.167580 0.485534
Si Si4 0.620290 0.166898 0.413388
Si Si5 0.716650 0.165887 0.967193
Si Si6 0.041244 0.331653 0.749327
Si Si7 0.929480 0.333493 0.667727
O O1 0.644658 0.220345 0.686503
O O2 0.415138 0.219854 0.915589
O O3 0.524379 0.000000 0.874618
O O4 0.500000 0.236553 0.000000
O O5 0.259236 0.773253 0.767255
O O6 0.257145 0.802697 0.950704
O O7 0.143766 0.000000 0.969992
O O8 0.056149 0.742052 0.075785
O O9 0.372780 0.192114 0.480457
O O10 0.169013 0.262412 0.627974
O O11 0.248528 0.000000 0.517715
O O12 0.500000 0.238858 0.500000
O O13 0.616805 0.000000 0.389710
O O14 0.732773 0.000000 0.924216
O O15 0.805851 0.250875 0.802277
O O16 0.046300 0.500000 0.767380
O O17 0.007005 0.300261 0.677099
O O18 0.899466 0.500000 0.690323
O O19 0.000000 0.274654 0.500000
#
# Coordination Sequence:
#
# PCOD8063713 Si02
#       7
#     4   4   4   4   4   4   4
#     4   9  18  31  48  74 106 134 161 205 262 310
#     4   9  17  32  54  78 103 132 172 215 254 301
#     4  10  20  34  54  78 105 137 173 212 255 307
#     4   9  17  31  55  83 106 133 172 216 257 300
#     4   9  17  30  50  75  99 127 165 208 252 300
#     4  10  21  36  52  73 106 140 172 213 260 306
#     4   9  19  34  51  70  96 133 172 211 253 298
#
# _framework density 19.188459000000002
#
# number of rings (size 3 to 8) (size 9 to 14) (size 15 to 20)
#    0.000    2.714    0.000    1.286    2.000    4.857 
#    0.000    4.286    0.000    4.286    0.000    0.000 
#    0.000    0.000    0.000    0.000    0.000    0.000 
#
# Total GULP energy -347142.206756 kJ/mol
# GULP energy per Si atom -12397.935956 kJ/mol
# Density = 1.914479 g / cm^3
# Si number density = 19.188459 Si / 1000 Ang^3
#
#
#
# Elastic Constant Matrix: (Units=GPa)
#
#
# Indices 1 2 3 4 5 6 
#
# 1 62.0894 24.4805 47.0865 0.0000 -10.4918 0.0000
# 2 24.4805 46.2121 39.0351 0.0000 -7.4459 0.0000
# 3 47.0865 39.0351 150.3494 0.0000 -0.6663 0.0000
# 4 0.0000 0.0000 0.0000 -0.3205 0.0000 8.3063
# 5 -10.4918 -7.4459 -0.6663 0.0000 36.1696 0.0000
# 6 0.0000 0.0000 0.0000 8.3063 0.0000 12.1575
#
#
#
# Elastic Compliance Matrix: (Units=1/GPa)
#
#
# Indices 1 2 3 4 5 6 
#
# 1 0.024142 -0.007105 -0.005692 0.000000 0.005435 0.000000
# 2 -0.007105 0.030980 -0.005800 0.000000 0.004210 0.000000
# 3 -0.005692 -0.005800 0.009928 0.000000 -0.002662 0.000000
# 4 0.000000 0.000000 0.000000 -0.166789 0.000000 0.113954
# 5 0.005435 0.004210 -0.002662 0.000000 0.030042 0.000000
# 6 0.000000 0.000000 0.000000 0.113954 0.000000 0.004398
#
#
# Mechanical properties :
#
#
# Convention : Reuss Voigt Hill
#
# Bulk Modulus (GPa) = 35.89800 53.31724 44.60762
# Shear Modulus (GPa) = -240.16240 19.47124 -110.34558
#
# Velocity S-wave (km/s) = -11.19962 3.18895 -7.59151
# Velocity P-wave (km/s) = 12.18578 6.43472 7.31737
#
# Compressibility (1/GPa) = 0.02785670
#
# Stress axis : x y z
#
# Youngs Moduli (GPa) = 41.42076 32.27840 100.72769
#
# Poissons Ratio (x) = 0.22935 0.57335
# Poissons Ratio (y) = 0.29431 0.58417
# Poissons Ratio (z) = 0.23577 0.18720
#
# Static dielectric constant tensor:
#      x y z
#    x 3.467950 0.000000 0.059410 
#    y 0.000000 3.139710 0.000000 
#    z 0.059410 0.000000 3.774510 
# 
# 
# High freq. dielectric constant tensor:
#      x y z
#    x 1.744720 0.000000 0.000780 
#    y 0.000000 1.701500 0.000000 
#    z 0.000780 0.000000 1.761330 
# 
# From -- ./inp_files/70207.got.cif
#   From: 2010.06.25/outbox.cif.g09.slc.cpg/sg10_36_cif.got.tgz:70207.got - 2010.06.27 22:07:45.
