data_PCOD8063079
_publ_section_title
;
Structure prediction by ZEFSAII (Michael W. Deem and Ramdas Pophale) SiO2 
 PCOD8063079
Probable space group: P 2/M
;
_chemical_formula_sum "Si O2"
_cell_formula_units_Z 30
_cell_length_a 14.523233
_cell_length_b 9.072596
_cell_length_c 12.361114
_cell_angle_alpha 90.000000
_cell_angle_beta 73.236501
_cell_angle_gamma 90.000000
_cell_volume 1559.526753
_symmetry_space_group_name_H-M "P 2/M"
_symmetry_group_IT_number 10
_symmetry_cell_setting 'monoclinic'
loop_
_space_group_symop_operation_xyz
x,y,z
-x,y,-z
-x,-y,-z
x,-y,z
loop_
_atom_site_type_symbol
_atom_site_label
_atom_site_fract_x
_atom_site_fract_y
_atom_site_fract_z
Si Si1 0.504660 0.671500 0.122702
Si Si2 0.803788 0.330252 0.883634
Si Si3 0.199268 0.171376 0.691634
Si Si4 0.679736 0.825144 0.754158
Si Si5 0.715008 0.332138 0.138810
Si Si6 0.209059 0.335710 0.470847
Si Si7 0.018120 0.837771 0.257364
Si Si8 0.000000 0.253744 0.500000
O O1 0.478054 0.500000 0.141649
O O2 0.428734 0.765285 0.218217
O O3 0.608992 0.706809 0.133913
O O4 0.500000 0.722339 0.000000
O O5 0.787388 0.500000 0.855070
O O6 0.725159 0.230963 0.850645
O O7 0.911097 0.284408 0.814319
O O8 0.790518 0.309219 0.015977
O O9 0.259546 0.221181 0.774504
O O10 0.234409 0.264004 0.577021
O O11 0.086992 0.201635 0.752245
O O12 0.218411 0.000000 0.661794
O O13 0.743600 0.766177 0.634981
O O14 0.680140 0.000000 0.751143
O O15 0.720240 0.500000 0.179323
O O16 0.252861 0.500000 0.452212
O O17 0.094663 0.351136 0.489300
O O18 0.017823 0.845142 0.387952
O O19 0.050390 0.000000 0.206394
#
# Coordination Sequence:
#
# PCOD8063079 Si02
#       8
#     4   4   4   4   4   4   4   2
#     4  10  20  40  65  89 119 154 196 247 299 354
#     4  11  22  37  59  88 121 157 200 248 296 349
#     4  10  23  41  60  85 122 162 200 244 296 353
#     4  12  24  37  58  92 127 155 192 244 304 359
#     4  10  22  41  64  87 116 157 201 246 295 351
#     4  11  22  38  61  88 120 157 202 245 292 351
#     4  10  21  36  55  84 122 162 199 241 297 354
#     4  10  20  32  58  88 118 154 198 248 292 348
#
# _framework density 19.236605000000001
#
# number of rings (size 3 to 8) (size 9 to 14) (size 15 to 20)
#    0.000    1.467    2.667    2.800    0.000    6.133 
#    0.000    3.333    0.000    4.000    0.000    0.000 
#    0.000    0.000    0.000    0.000    0.000    0.000 
#
# Total GULP energy -372085.146990 kJ/mol
# GULP energy per Si atom -12402.838233 kJ/mol
# Density = 1.919282 g / cm^3
# Si number density = 19.236605 Si / 1000 Ang^3
#
#
#
# Elastic Constant Matrix: (Units=GPa)
#
#
# Indices 1 2 3 4 5 6 
#
# 1 90.3254 42.8890 45.6255 0.0000 7.9984 0.0000
# 2 42.8890 121.4574 45.2151 0.0000 0.4309 0.0000
# 3 45.6255 45.2151 89.2092 0.0000 3.3587 0.0000
# 4 0.0000 0.0000 0.0000 17.1562 0.0000 3.6416
# 5 7.9984 0.4309 3.3587 0.0000 31.7945 0.0000
# 6 0.0000 0.0000 0.0000 3.6416 0.0000 24.9075
#
#
#
# Elastic Compliance Matrix: (Units=1/GPa)
#
#
# Indices 1 2 3 4 5 6 
#
# 1 0.016214 -0.003295 -0.006496 0.000000 -0.003348 0.000000
# 2 -0.003295 0.010823 -0.003841 0.000000 0.001088 0.000000
# 3 -0.006496 -0.003841 0.016481 0.000000 -0.000055 0.000000
# 4 0.000000 0.000000 0.000000 0.060155 0.000000 -0.008795
# 5 -0.003348 0.001088 -0.000055 0.000000 0.032285 0.000000
# 6 0.000000 0.000000 0.000000 -0.008795 0.000000 0.041434
#
#
# Mechanical properties :
#
#
# Convention : Reuss Voigt Hill
#
# Bulk Modulus (GPa) = 61.52909 63.16124 62.34516
# Shear Modulus (GPa) = 23.80108 25.92247 24.86177
#
# Velocity S-wave (km/s) = 3.52132 3.67489 3.59892
# Velocity P-wave (km/s) = 6.97049 7.13524 7.05335
#
# Compressibility (1/GPa) = 0.01625248
#
# Stress axis : x y z
#
# Youngs Moduli (GPa) = 61.67695 92.39545 60.67587
#
# Poissons Ratio (x) = 0.30445 0.39416
# Poissons Ratio (y) = 0.20323 0.23307
# Poissons Ratio (z) = 0.40066 0.35492
#
# Static dielectric constant tensor:
#      x y z
#    x 3.487120 0.000000 -0.090120 
#    y 0.000000 3.464060 0.000000 
#    z -0.090120 0.000000 3.472880 
# 
# 
# High freq. dielectric constant tensor:
#      x y z
#    x 1.741510 0.000000 -0.005960 
#    y 0.000000 1.752590 0.000000 
#    z -0.005960 0.000000 1.745260 
# 
# From -- ./inp_files/49760.got.cif
#   From: 2010.06.25/outbox.cif.g09.slc.cpg/sg10_25_cif.got.tgz:49760.got - 2010.06.27 22:07:45.
