data_PCOD8063297
_publ_section_title
;
Structure prediction by ZEFSAII (Michael W. Deem and Ramdas Pophale) SiO2 
 PCOD8063297
Probable space group: P 2/M
;
_chemical_formula_sum "Si O2"
_cell_formula_units_Z 32
_cell_length_a 25.500157
_cell_length_b 9.368128
_cell_length_c 15.682254
_cell_angle_alpha 90.000000
_cell_angle_beta 151.012264
_cell_angle_gamma 90.000000
_cell_volume 1815.547590
_symmetry_space_group_name_H-M "P 2/M"
_symmetry_group_IT_number 10
_symmetry_cell_setting 'monoclinic'
loop_
_space_group_symop_operation_xyz
x,y,z
-x,y,-z
-x,-y,-z
x,-y,z
loop_
_atom_site_type_symbol
_atom_site_label
_atom_site_fract_x
_atom_site_fract_y
_atom_site_fract_z
Si Si1 0.583849 0.665648 0.241531
Si Si2 0.652810 0.664541 0.151609
Si Si3 0.916151 0.165648 0.258469
Si Si4 0.901876 0.835276 0.920154
Si Si5 0.835196 0.665864 0.983673
Si Si6 0.335196 0.165864 0.483673
Si Si7 0.401876 0.335276 0.420154
Si Si8 0.152810 0.835459 0.651609
O O1 0.605206 0.500000 0.293750
O O2 0.637612 0.707533 0.228290
O O3 0.637850 0.765906 0.387785
O O4 0.456006 0.696747 0.055920
O O5 0.682837 0.500000 0.187586
O O6 0.750000 0.750000 0.250000
O O7 0.862388 0.207534 0.271710
O O8 0.043994 0.196747 0.444080
O O9 0.894794 0.000000 0.206250
O O10 0.862150 0.265906 0.112215
O O11 0.905904 0.740941 0.010966
O O12 0.791535 0.808893 0.712131
O O13 0.914449 0.000000 0.965187
O O14 0.000000 0.785456 0.000000
O O15 0.865699 0.500000 0.028033
O O16 0.708465 0.691107 0.787869
O O17 0.405904 0.240941 0.510966
O O18 0.365699 0.000000 0.528033
O O19 0.500000 0.285456 0.500000
O O20 0.414449 0.500000 0.465186
O O21 0.182837 0.000000 0.687587
#
# Coordination Sequence:
#
# PCOD8063297 Si02
#       8
#     4   4   4   4   4   4   4   4
#     4   9  19  36  53  71 102 139 167 198 250 306
#     4   9  19  35  54  75 100 133 170 206 247 296
#     4   9  19  36  53  71 102 139 167 198 250 306
#     4   9  19  36  54  72 100 136 168 202 250 303
#     4  10  20  33  52  78 102 128 168 212 249 290
#     4  10  20  33  52  78 102 128 168 212 249 290
#     4   9  19  36  54  72 100 136 168 202 250 303
#     4   9  19  35  54  75 100 133 170 206 247 296
#
# _framework density 17.625536
#
# number of rings (size 3 to 8) (size 9 to 14) (size 15 to 20)
#    0.000    2.750    0.000    2.250    0.000    5.500 
#    0.000   10.000    0.000    0.000    0.000    0.000 
#    0.000    0.000    0.000    0.000    0.000    0.000 
#
# Total GULP energy -396860.522826 kJ/mol
# GULP energy per Si atom -12401.891338 kJ/mol
# Density = 1.758542 g / cm^3
# Si number density = 17.625536 Si / 1000 Ang^3
#
#
#
# Elastic Constant Matrix: (Units=GPa)
#
#
# Indices 1 2 3 4 5 6 
#
# 1 117.4778 64.4245 57.2812 0.0000 11.6352 0.0000
# 2 64.4245 87.9566 50.2221 0.0000 -5.7805 0.0000
# 3 57.2812 50.2221 67.7855 0.0000 -7.1700 0.0000
# 4 0.0000 0.0000 0.0000 35.1508 0.0000 -2.8215
# 5 11.6352 -5.7805 -7.1700 0.0000 37.2961 0.0000
# 6 0.0000 0.0000 0.0000 -2.8215 0.0000 38.3846
#
#
#
# Elastic Compliance Matrix: (Units=1/GPa)
#
#
# Indices 1 2 3 4 5 6 
#
# 1 0.019692 -0.008620 -0.011274 0.000000 -0.009647 0.000000
# 2 -0.008620 0.023481 -0.009640 0.000000 0.004475 0.000000
# 3 -0.011274 -0.009640 0.032292 0.000000 0.008231 0.000000
# 4 0.000000 0.000000 0.000000 0.028618 0.000000 0.002104
# 5 -0.009647 0.004475 0.008231 0.000000 0.032098 0.000000
# 6 0.000000 0.000000 0.000000 0.002104 0.000000 0.026207
#
#
# Mechanical properties :
#
#
# Convention : Reuss Voigt Hill
#
# Bulk Modulus (GPa) = 60.98432 68.56397 64.77414
# Shear Modulus (GPa) = 22.03394 28.91909 25.47651
#
# Velocity S-wave (km/s) = 3.53953 4.05501 3.80601
# Velocity P-wave (km/s) = 7.16795 7.80442 7.49294
#
# Compressibility (1/GPa) = 0.01639766
#
# Stress axis : x y z
#
# Youngs Moduli (GPa) = 50.78123 42.58694 30.96717
#
# Poissons Ratio (x) = 0.36711 0.34914
# Poissons Ratio (y) = 0.43775 0.29851
# Poissons Ratio (z) = 0.57253 0.41052
#
# Static dielectric constant tensor:
#      x y z
#    x -49.908260 0.000000 -0.430710 
#    y 0.000000 3.248840 0.000000 
#    z -0.430710 0.000000 3.198800 
# 
# 
# High freq. dielectric constant tensor:
#      x y z
#    x 1.686370 0.000000 -0.000680 
#    y 0.000000 1.683150 0.000000 
#    z -0.000680 0.000000 1.680160 
# 
# From -- ./inp_files/66541.got.cif
#   From: 2010.06.25/outbox.cif.g09.slc.cpg/sg10_34_cif.got.tgz:66541.got - 2010.06.27 22:07:45.
