data_PCOD8063523
_publ_section_title
;
Structure prediction by ZEFSAII (Michael W. Deem and Ramdas Pophale) SiO2 
 PCOD8063523
Probable space group: P 2/M
;
_chemical_formula_sum "Si O2"
_cell_formula_units_Z 32
_cell_length_a 18.503715
_cell_length_b 9.501453
_cell_length_c 18.257742
_cell_angle_alpha 90.000000
_cell_angle_beta 144.801836
_cell_angle_gamma 90.000000
_cell_volume 1850.225288
_symmetry_space_group_name_H-M "P 2/M"
_symmetry_group_IT_number 10
_symmetry_cell_setting 'monoclinic'
loop_
_space_group_symop_operation_xyz
x,y,z
-x,y,-z
-x,-y,-z
x,-y,z
loop_
_atom_site_type_symbol
_atom_site_label
_atom_site_fract_x
_atom_site_fract_y
_atom_site_fract_z
Si Si1 0.674016 0.746142 0.842821
Si Si2 0.723831 0.836828 0.520787
Si Si3 0.476610 0.341751 0.565150
Si Si4 0.963795 0.330079 0.758952
Si Si5 0.054384 0.158759 0.965618
Si Si6 0.546998 0.846503 0.244992
Si Si7 0.223244 0.345773 0.926017
Si Si8 0.462277 0.332182 0.049024
O O1 0.605241 0.669198 0.718363
O O2 0.794194 0.828274 0.910285
O O3 0.573494 0.845049 0.800834
O O4 0.722782 0.640618 0.946356
O O5 0.625336 0.772729 0.496293
O O6 0.847582 0.742620 0.623924
O O7 0.671397 0.822135 0.395526
O O8 0.749444 0.000000 0.562795
O O9 0.500000 0.310750 0.500000
O O10 0.423594 0.500000 0.532248
O O11 0.951667 0.500000 0.751157
O O12 0.085867 0.275763 0.813842
O O13 0.981547 0.271301 0.855359
O O14 0.020625 0.000000 0.912738
O O15 0.000000 0.190242 0.000000
O O16 0.553774 0.731329 0.186229
O O17 0.549345 0.000000 0.209902
O O18 0.204932 0.500000 0.878784
O O19 0.322921 0.271653 0.953737
O O20 0.469816 0.500000 0.061607
O O21 0.500000 0.278815 0.000000
#
# Coordination Sequence:
#
# PCOD8063523 Si02
#       8
#     4   4   4   4   4   4   4   4
#     4   9  17  31  49  69  97 129 165 207 247 299
#     4  10  21  36  52  72  99 133 173 213 253 302
#     4  10  21  34  50  73  98 128 167 214 263 307
#     4  10  20  34  52  73  97 130 172 213 252 300
#     4  10  21  34  49  70  96 129 166 209 260 308
#     4   9  18  32  51  73  98 131 167 203 244 293
#     4   8  15  29  49  72  98 129 161 197 244 294
#     4   9  17  30  52  82 110 131 156 197 249 301
#
# _framework density 17.295190999999999
#
# number of rings (size 3 to 8) (size 9 to 14) (size 15 to 20)
#    0.000    2.625    0.000    1.500    1.750    5.250 
#    0.000    0.625    0.000    0.750    0.000    5.250 
#    0.000    0.000    0.000    0.000    0.000    0.000 
#
# Total GULP energy -396472.675536 kJ/mol
# GULP energy per Si atom -12389.771111 kJ/mol
# Density = 1.725583 g / cm^3
# Si number density = 17.295191 Si / 1000 Ang^3
#
#
#
# Elastic Constant Matrix: (Units=GPa)
#
#
# Indices 1 2 3 4 5 6 
#
# 1 116.3381 42.2964 54.1188 0.0000 -3.0928 0.0000
# 2 42.2964 92.7099 43.8643 0.0000 -0.2850 0.0000
# 3 54.1188 43.8643 106.1557 0.0000 10.5266 0.0000
# 4 0.0000 0.0000 0.0000 27.2141 0.0000 -2.4310
# 5 -3.0928 -0.2850 10.5266 0.0000 20.7890 0.0000
# 6 0.0000 0.0000 0.0000 -2.4310 0.0000 18.9924
#
#
#
# Elastic Compliance Matrix: (Units=1/GPa)
#
#
# Indices 1 2 3 4 5 6 
#
# 1 0.012385 -0.003025 -0.005520 0.000000 0.004596 0.000000
# 2 -0.003025 0.014345 -0.004591 0.000000 0.002071 0.000000
# 3 -0.005520 -0.004591 0.014971 0.000000 -0.008465 0.000000
# 4 0.000000 0.000000 0.000000 0.037171 0.000000 0.004758
# 5 0.004596 0.002071 -0.008465 0.000000 0.053101 0.000000
# 6 0.000000 0.000000 0.000000 0.004758 0.000000 0.053262
#
#
# Mechanical properties :
#
#
# Convention : Reuss Voigt Hill
#
# Bulk Modulus (GPa) = 64.81009 66.19585 65.50297
# Shear Modulus (GPa) = 23.07896 25.06071 24.06984
#
# Velocity S-wave (km/s) = 3.65693 3.81070 3.73461
# Velocity P-wave (km/s) = 7.44211 7.59731 7.52011
#
# Compressibility (1/GPa) = 0.01542970
#
# Stress axis : x y z
#
# Youngs Moduli (GPa) = 80.74075 69.71244 66.79765
#
# Poissons Ratio (x) = 0.21085 0.36873
# Poissons Ratio (y) = 0.24421 0.30665
# Poissons Ratio (z) = 0.44570 0.32003
#
# Static dielectric constant tensor:
#      x y z
#    x 3.189190 0.000000 0.150070 
#    y 0.000000 3.198280 0.000000 
#    z 0.150070 0.000000 3.264350 
# 
# 
# High freq. dielectric constant tensor:
#      x y z
#    x 1.650610 0.000000 0.009670 
#    y 0.000000 1.665850 0.000000 
#    z 0.009670 0.000000 1.662820 
# 
# From -- ./inp_files/79939.got.cif
#   From: 2010.06.25/outbox.cif.g09.slc.cpg/sg10_40_cif.got.tgz:79939.got - 2010.06.27 22:07:45.
