data_PCOD8063760
_publ_section_title
;
Structure prediction by ZEFSAII (Michael W. Deem and Ramdas Pophale) SiO2 
 PCOD8063760
Probable space group: P 2/M
;
_chemical_formula_sum "Si O2"
_cell_formula_units_Z 32
_cell_length_a 10.192493
_cell_length_b 13.624510
_cell_length_c 14.314375
_cell_angle_alpha 90.000000
_cell_angle_beta 117.243201
_cell_angle_gamma 90.000000
_cell_volume 1767.300408
_symmetry_space_group_name_H-M "P 2/M"
_symmetry_group_IT_number 10
_symmetry_cell_setting 'monoclinic'
loop_
_space_group_symop_operation_xyz
x,y,z
-x,y,-z
-x,-y,-z
x,-y,z
loop_
_atom_site_type_symbol
_atom_site_label
_atom_site_fract_x
_atom_site_fract_y
_atom_site_fract_z
Si Si1 0.812010 0.297447 0.624326
Si Si2 0.235503 0.889443 0.280519
Si Si3 0.924014 0.608715 0.375487
Si Si4 0.833207 0.773506 0.921032
Si Si5 0.401820 0.886714 0.054530
Si Si6 0.343085 0.694083 0.618952
Si Si7 0.669790 0.385710 0.755563
Si Si8 0.549609 0.106955 0.299951
O O1 0.800819 0.181967 0.644760
O O2 0.713169 0.327923 0.503459
O O3 0.760141 0.366891 0.690939
O O4 0.984256 0.320002 0.662534
O O5 0.158479 0.851331 0.161000
O O6 0.410754 0.887694 0.323976
O O7 0.179905 0.000000 0.284245
O O8 0.920386 0.500000 0.330417
O O9 0.757779 0.646391 0.333823
O O10 0.000000 0.607315 0.500000
O O11 0.747835 0.822762 0.981479
O O12 0.745034 0.675053 0.863801
O O13 0.000000 0.744371 0.000000
O O14 0.499649 0.873357 0.178313
O O15 0.355945 0.000000 0.024066
O O16 0.500000 0.847879 0.000000
O O17 0.504982 0.651831 0.685513
O O18 0.334728 0.811233 0.631156
O O19 0.671241 0.500000 0.782226
O O20 0.625450 0.000000 0.332950
#
# Coordination Sequence:
#
# PCOD8063760 Si02
#       8
#     4   4   4   4   4   4   4   4
#     4  10  20  34  54  82 112 142 182 221 267 321
#     4   9  18  34  54  81 113 142 178 220 266 323
#     4   9  19  34  51  72 103 142 179 222 274 314
#     4  10  20  37  56  77 108 144 173 222 281 329
#     4   9  17  33  57  82 105 134 176 221 263 316
#     4  11  19  34  56  80 108 147 185 219 265 324
#     4  11  22  36  56  81 106 136 186 238 270 317
#     4   9  17  32  52  79 113 142 172 216 269 319
#
# _framework density 18.106712999999999
#
# number of rings (size 3 to 8) (size 9 to 14) (size 15 to 20)
#    0.000    2.250    3.750    2.250    0.000    3.750 
#    4.500    1.875    0.000    2.625    0.000    0.000 
#    0.000    0.000    0.000    0.000    0.000    0.000 
#
# Total GULP energy -396733.319157 kJ/mol
# GULP energy per Si atom -12397.916224 kJ/mol
# Density = 1.806550 g / cm^3
# Si number density = 18.106713 Si / 1000 Ang^3
#
#
#
# Elastic Constant Matrix: (Units=GPa)
#
#
# Indices 1 2 3 4 5 6 
#
# 1 116.0908 44.2604 37.1364 0.0000 -13.4293 0.0000
# 2 44.2604 133.4693 23.7134 0.0000 -7.4045 0.0000
# 3 37.1364 23.7134 41.2565 0.0000 1.9269 0.0000
# 4 0.0000 0.0000 0.0000 17.0153 0.0000 -2.4158
# 5 -13.4293 -7.4045 1.9269 0.0000 16.1019 0.0000
# 6 0.0000 0.0000 0.0000 -2.4158 0.0000 27.2050
#
#
#
# Elastic Compliance Matrix: (Units=1/GPa)
#
#
# Indices 1 2 3 4 5 6 
#
# 1 0.015063 -0.001940 -0.013061 0.000000 0.013233 0.000000
# 2 -0.001940 0.008922 -0.003517 0.000000 0.002905 0.000000
# 3 -0.013061 -0.003517 0.038819 0.000000 -0.017156 0.000000
# 4 0.000000 0.000000 0.000000 0.059521 0.000000 0.005285
# 5 0.013233 0.002905 -0.017156 0.000000 0.076531 0.000000
# 6 0.000000 0.000000 0.000000 0.005285 0.000000 0.037227
#
#
# Mechanical properties :
#
#
# Convention : Reuss Voigt Hill
#
# Bulk Modulus (GPa) = 38.81183 55.67078 47.24131
# Shear Modulus (GPa) = 17.74886 24.44487 21.09687
#
# Velocity S-wave (km/s) = 3.13427 3.67828 3.41712
# Velocity P-wave (km/s) = 5.88046 6.98945 6.45880
#
# Compressibility (1/GPa) = 0.02576534
#
# Stress axis : x y z
#
# Youngs Moduli (GPa) = 66.38906 112.08393 25.76086
#
# Poissons Ratio (x) = 0.21747 0.33647
# Poissons Ratio (y) = 0.12881 0.09061
# Poissons Ratio (z) = 0.86713 0.39423
#
# Static dielectric constant tensor:
#      x y z
#    x 3.435950 0.000000 -0.072780 
#    y 0.000000 3.569290 0.000000 
#    z -0.072780 0.000000 3.050140 
# 
# 
# High freq. dielectric constant tensor:
#      x y z
#    x 1.696500 0.000000 -0.003920 
#    y 0.000000 1.708140 0.000000 
#    z -0.003920 0.000000 1.670300 
# 
# From -- ./inp_files/61858.got.cif
#   From: 2010.06.25/outbox.cif.g09.slc.cpg/sg10_31_cif.got.tgz:61858.got - 2010.06.27 22:07:45.
