data_PCOD8063701
_publ_section_title
;
Structure prediction by ZEFSAII (Michael W. Deem and Ramdas Pophale) SiO2 
 PCOD8063701
Probable space group: P 2/M
;
_chemical_formula_sum "Si O2"
_cell_formula_units_Z 24
_cell_length_a 24.342329
_cell_length_b 8.849788
_cell_length_c 18.097441
_cell_angle_alpha 90.000000
_cell_angle_beta 160.620596
_cell_angle_gamma 90.000000
_cell_volume 1293.651836
_symmetry_space_group_name_H-M "P 2/M"
_symmetry_group_IT_number 10
_symmetry_cell_setting 'monoclinic'
loop_
_space_group_symop_operation_xyz
x,y,z
-x,y,-z
-x,-y,-z
x,-y,z
loop_
_atom_site_type_symbol
_atom_site_label
_atom_site_fract_x
_atom_site_fract_y
_atom_site_fract_z
Si Si1 0.827160 0.320787 0.560191
Si Si2 0.173956 0.178578 0.753944
Si Si3 0.668823 0.678710 0.745399
Si Si4 0.853561 0.678089 0.123619
Si Si5 0.480834 0.323105 0.061636
Si Si6 0.983154 0.680097 0.059964
O O1 0.826271 0.500000 0.553135
O O2 0.646810 0.256850 0.310748
O O3 0.969772 0.263837 0.684483
O O4 0.868427 0.269746 0.696651
O O5 0.192620 0.236653 0.860645
O O6 0.000000 0.236777 0.500000
O O7 0.182905 0.000000 0.765319
O O8 0.321108 0.239802 0.890026
O O9 0.500000 0.752249 0.500000
O O10 0.662852 0.500000 0.728740
O O11 0.707452 0.718230 0.879811
O O12 0.813634 0.744584 0.878025
O O13 0.859668 0.500000 0.147072
O O14 0.459156 0.500000 0.050028
O O15 0.500000 0.288652 0.000000
O O16 0.978986 0.500000 0.050256
O O17 0.000000 0.751632 0.000000
#
# Coordination Sequence:
#
# PCOD8063701 Si02
#       6
#     4   4   4   4   4   4
#     4   8  15  28  46  71  99 125 158 199 242 286
#     4  11  24  38  51  71 100 132 166 205 250 299
#     4   8  14  24  41  70 103 130 158 195 241 289
#     4   9  17  32  54  76 101 133 167 205 246 291
#     4  10  20  34  54  77  98 123 159 203 248 296
#     4   8  13  21  35  59  95 131 154 182 231 285
#
# _framework density 18.552130999999999
#
# number of rings (size 3 to 8) (size 9 to 14) (size 15 to 20)
#    0.000    3.000    0.000    3.500    0.000    4.333 
#    0.000    5.833    0.000    0.500    0.000    0.000 
#    0.000    6.000    0.000    0.000    0.000    0.000 
#
# Total GULP energy -297452.439455 kJ/mol
# GULP energy per Si atom -12393.851644 kJ/mol
# Density = 1.850991 g / cm^3
# Si number density = 18.552131 Si / 1000 Ang^3
#
#
#
# Elastic Constant Matrix: (Units=GPa)
#
#
# Indices 1 2 3 4 5 6 
#
# 1 132.6103 31.9265 71.2675 0.0000 -10.4137 0.0000
# 2 31.9265 27.5421 30.0114 0.0000 0.3177 0.0000
# 3 71.2675 30.0114 178.9593 0.0000 -7.2320 0.0000
# 4 0.0000 0.0000 0.0000 12.5968 0.0000 2.5625
# 5 -10.4137 0.3177 -7.2320 0.0000 27.9287 0.0000
# 6 0.0000 0.0000 0.0000 2.5625 0.0000 3.9059
#
#
#
# Elastic Compliance Matrix: (Units=1/GPa)
#
#
# Indices 1 2 3 4 5 6 
#
# 1 0.011957 -0.010874 -0.002782 0.000000 0.003862 0.000000
# 2 -0.010874 0.054482 -0.005048 0.000000 -0.005981 0.000000
# 3 -0.002782 -0.005048 0.007582 0.000000 0.000983 0.000000
# 4 0.000000 0.000000 0.000000 0.091612 0.000000 -0.060102
# 5 0.003862 -0.005981 0.000983 0.000000 0.037568 0.000000
# 6 0.000000 0.000000 0.000000 -0.060102 0.000000 0.295451
#
#
# Mechanical properties :
#
#
# Convention : Reuss Voigt Hill
#
# Bulk Modulus (GPa) = 27.31207 67.28027 47.29617
# Shear Modulus (GPa) = 9.11967 22.61337 15.86652
#
# Velocity S-wave (km/s) = 2.21954 3.49508 2.92762
# Velocity P-wave (km/s) = 4.61760 7.25477 6.08087
#
# Compressibility (1/GPa) = 0.03661385
#
# Stress axis : x y z
#
# Youngs Moduli (GPa) = 83.63137 18.35454 131.88871
#
# Poissons Ratio (x) = 0.19958 0.36694
# Poissons Ratio (y) = 0.90937 0.66580
# Poissons Ratio (z) = 0.23268 0.09266
#
# Static dielectric constant tensor:
#      x y z
#    x 3.540050 0.000000 -0.087070 
#    y 0.000000 2.806610 0.000000 
#    z -0.087070 0.000000 3.934060 
# 
# 
# High freq. dielectric constant tensor:
#      x y z
#    x 1.727410 0.000000 -0.008890 
#    y 0.000000 1.656920 0.000000 
#    z -0.008890 0.000000 1.734350 
# 
# From -- ./inp_files/60296.got.cif
#   From: 2010.06.25/outbox.cif.g09.slc.cpg/sg10_31_cif.got.tgz:60296.got - 2010.06.27 22:07:45.
