data_PCOD8063358
_publ_section_title
;
Structure prediction by ZEFSAII (Michael W. Deem and Ramdas Pophale) SiO2 
 PCOD8063358
Probable space group: P 2/M
;
_chemical_formula_sum "Si O2"
_cell_formula_units_Z 28
_cell_length_a 19.193267
_cell_length_b 9.266169
_cell_length_c 10.379785
_cell_angle_alpha 90.000000
_cell_angle_beta 43.206198
_cell_angle_gamma 90.000000
_cell_volume 1263.836348
_symmetry_space_group_name_H-M "P 2/M"
_symmetry_group_IT_number 10
_symmetry_cell_setting 'monoclinic'
loop_
_space_group_symop_operation_xyz
x,y,z
-x,y,-z
-x,-y,-z
x,-y,z
loop_
_atom_site_type_symbol
_atom_site_label
_atom_site_fract_x
_atom_site_fract_y
_atom_site_fract_z
Si Si1 0.727208 0.831888 0.019163
Si Si2 0.471557 0.334219 0.682867
Si Si3 0.012235 0.660464 0.817984
Si Si4 0.904586 0.660116 0.699813
Si Si5 0.164209 0.838910 0.867387
Si Si6 0.588723 0.333746 0.782172
Si Si7 0.786163 0.164173 0.479797
O O1 0.618794 0.762346 0.140836
O O2 0.762024 0.792303 0.116712
O O3 0.720567 0.000000 0.000079
O O4 0.806761 0.761732 0.810997
O O5 0.500000 0.281497 0.500000
O O6 0.435660 0.500000 0.724767
O O7 0.560011 0.314142 0.669758
O O8 0.045828 0.500000 0.819210
O O9 0.108437 0.751155 0.637055
O O10 0.931840 0.648094 0.811736
O O11 0.935780 0.738183 0.025042
O O12 0.882131 0.500000 0.672421
O O13 0.000000 0.732901 0.500000
O O14 0.233170 0.834922 0.647498
O O15 0.121678 0.000000 0.952670
O O16 0.614689 0.500000 0.775841
O O17 0.689828 0.240991 0.676309
O O18 0.500000 0.281991 0.000000
O O19 0.795452 0.000000 0.519215
#
# Coordination Sequence:
#
# PCOD8063358 Si02
#       7
#     4   4   4   4   4   4   4
#     4  10  20  34  55  82 111 141 176 225 279 328
#     4  10  21  38  61  86 110 141 185 234 279 326
#     4  10  20  33  53  81 109 140 180 223 268 323
#     4   9  19  36  55  75 104 143 183 221 264 321
#     4   9  19  35  53  79 114 146 176 216 271 329
#     4  10  23  42  60  80 110 147 187 232 279 328
#     4  11  22  36  56  79 108 146 182 221 271 328
#
# _framework density 22.154768000000001
#
# number of rings (size 3 to 8) (size 9 to 14) (size 15 to 20)
#    0.000    2.143    0.000    2.571    0.000    6.571 
#    0.000    5.714    0.000    0.000    0.000    0.000 
#    0.000    0.000    0.000    0.000    0.000    0.000 
#
# Total GULP energy -347106.986982 kJ/mol
# GULP energy per Si atom -12396.678106 kJ/mol
# Density = 2.210434 g / cm^3
# Si number density = 22.154768 Si / 1000 Ang^3
#
#
#
# Elastic Constant Matrix: (Units=GPa)
#
#
# Indices 1 2 3 4 5 6 
#
# 1 30.6017 19.7599 1.9830 0.0000 -11.2853 0.0000
# 2 19.7599 123.0072 56.5515 0.0000 -34.7826 0.0000
# 3 1.9830 56.5515 130.3636 0.0000 -24.9095 0.0000
# 4 0.0000 0.0000 0.0000 27.2515 0.0000 -9.4422
# 5 -11.2853 -34.7826 -24.9095 0.0000 36.9309 0.0000
# 6 0.0000 0.0000 0.0000 -9.4422 0.0000 25.2327
#
#
#
# Elastic Compliance Matrix: (Units=1/GPa)
#
#
# Indices 1 2 3 4 5 6 
#
# 1 0.039316 -0.005254 0.003480 0.000000 0.009413 0.000000
# 2 -0.005254 0.013108 -0.004080 0.000000 0.007988 0.000000
# 3 0.003480 -0.004080 0.010167 0.000000 0.004078 0.000000
# 4 0.000000 0.000000 0.000000 0.042162 0.000000 0.015777
# 5 0.009413 0.007988 0.004078 0.000000 0.040228 0.000000
# 6 0.000000 0.000000 0.000000 0.015777 0.000000 0.045535
#
#
# Mechanical properties :
#
#
# Convention : Reuss Voigt Hill
#
# Bulk Modulus (GPa) = 19.65288 48.95124 34.30206
# Shear Modulus (GPa) = 22.81168 31.59488 27.20328
#
# Velocity S-wave (km/s) = 3.21230 3.78047 3.50791
# Velocity P-wave (km/s) = 4.75904 6.41865 5.65011
#
# Compressibility (1/GPa) = 0.05088313
#
# Stress axis : x y z
#
# Youngs Moduli (GPa) = 25.43481 76.28837 98.35668
#
# Poissons Ratio (x) = 0.40080 -0.34225
# Poissons Ratio (y) = 0.13363 0.40129
# Poissons Ratio (z) = -0.08850 0.31126
#
# Static dielectric constant tensor:
#      x y z
#    x 3.776010 0.000000 0.117900 
#    y 0.000000 4.121340 0.000000 
#    z 0.117900 0.000000 3.910100 
# 
# 
# High freq. dielectric constant tensor:
#      x y z
#    x 1.866440 0.000000 0.003590 
#    y 0.000000 1.867360 0.000000 
#    z 0.003590 0.000000 1.870830 
# 
# From -- ./inp_files/55124.got.cif
#   From: 2010.06.25/outbox.cif.g09.slc.cpg/sg10_28_cif.got.tgz:55124.got - 2010.06.27 22:07:45.
