data_PCOD8063647
_publ_section_title
;
Structure prediction by ZEFSAII (Michael W. Deem and Ramdas Pophale) SiO2 
 PCOD8063647
Probable space group: P 2/M
;
_chemical_formula_sum "Si O2"
_cell_formula_units_Z 28
_cell_length_a 19.204834
_cell_length_b 9.163674
_cell_length_c 14.324033
_cell_angle_alpha 90.000000
_cell_angle_beta 146.196431
_cell_angle_gamma 90.000000
_cell_volume 1402.463431
_symmetry_space_group_name_H-M "P 2/M"
_symmetry_group_IT_number 10
_symmetry_cell_setting 'monoclinic'
loop_
_space_group_symop_operation_xyz
x,y,z
-x,y,-z
-x,-y,-z
x,-y,z
loop_
_atom_site_type_symbol
_atom_site_label
_atom_site_fract_x
_atom_site_fract_y
_atom_site_fract_z
Si Si1 0.116185 0.335026 0.060696
Si Si2 0.517224 0.669972 0.627509
Si Si3 0.719337 0.166052 0.617108
Si Si4 0.938333 0.170345 0.189090
Si Si5 0.205724 0.164737 0.502117
Si Si6 0.531247 0.825882 0.138110
Si Si7 0.669185 0.830577 0.934343
O O1 0.163115 0.500000 0.094203
O O2 0.228565 0.249816 0.235288
O O3 0.079625 0.260625 0.924406
O O4 0.000000 0.334062 0.000000
O O5 0.500000 0.704647 0.500000
O O6 0.509745 0.500000 0.641515
O O7 0.407699 0.756707 0.558795
O O8 0.644295 0.737607 0.811798
O O9 0.807769 0.174377 0.625266
O O10 0.693548 0.000000 0.618125
O O11 0.068990 0.224249 0.384760
O O12 0.952911 0.000000 0.178470
O O13 0.817521 0.192472 0.122214
O O14 0.332097 0.242909 0.681525
O O15 0.220232 0.000000 0.553062
O O16 0.418717 0.770515 0.080085
O O17 0.534659 0.000000 0.147290
O O18 0.500000 0.769547 0.000000
O O19 0.641070 0.000000 0.882932
#
# Coordination Sequence:
#
# PCOD8063647 Si02
#       7
#     4   4   4   4   4   4   4
#     4  11  22  33  47  74 112 150 193 232 271 326
#     4  11  23  36  51  75 111 149 185 228 279 327
#     4  11  20  33  54  75 103 143 191 232 269 320
#     4  10  20  34  53  77 110 146 187 230 271 323
#     4   9  17  31  52  78 105 137 175 220 271 325
#     4   9  17  33  58  85 111 140 178 228 285 339
#     4  10  20  35  55  82 109 143 187 230 276 330
#
# _framework density 19.964870999999999
#
# number of rings (size 3 to 8) (size 9 to 14) (size 15 to 20)
#    0.000    1.857    2.857    2.143    0.000    4.571 
#    0.000    0.714    0.000    4.714    0.000    0.000 
#    0.000    2.286    0.000    0.000    0.000    0.000 
#
# Total GULP energy -346973.373170 kJ/mol
# GULP energy per Si atom -12391.906185 kJ/mol
# Density = 1.991943 g / cm^3
# Si number density = 19.964871 Si / 1000 Ang^3
#
#
#
# Elastic Constant Matrix: (Units=GPa)
#
#
# Indices 1 2 3 4 5 6 
#
# 1 90.5416 27.7526 70.5084 0.0000 17.5877 0.0000
# 2 27.7526 66.7872 31.5707 0.0000 5.7905 0.0000
# 3 70.5084 31.5707 144.4471 0.0000 24.9371 0.0000
# 4 0.0000 0.0000 0.0000 6.3689 0.0000 4.4003
# 5 17.5877 5.7905 24.9371 0.0000 37.2875 0.0000
# 6 0.0000 0.0000 0.0000 4.4003 0.0000 14.2529
#
#
#
# Elastic Compliance Matrix: (Units=1/GPa)
#
#
# Indices 1 2 3 4 5 6 
#
# 1 0.018970 -0.003892 -0.007878 0.000000 -0.003074 0.000000
# 2 -0.003892 0.017498 -0.002004 0.000000 0.000459 0.000000
# 3 -0.007878 -0.002004 0.011883 0.000000 -0.003920 0.000000
# 4 0.000000 0.000000 0.000000 0.199587 0.000000 -0.061619
# 5 -0.003074 0.000459 -0.003920 0.000000 0.030819 0.000000
# 6 0.000000 0.000000 0.000000 -0.061619 0.000000 0.089185
#
#
# Mechanical properties :
#
#
# Convention : Reuss Voigt Hill
#
# Bulk Modulus (GPa) = 48.07056 62.38214 55.22635
# Shear Modulus (GPa) = 12.42470 23.04480 17.73475
#
# Velocity S-wave (km/s) = 2.49736 3.40114 2.98367
# Velocity P-wave (km/s) = 5.69610 6.83648 6.29218
#
# Compressibility (1/GPa) = 0.02080275
#
# Stress axis : x y z
#
# Youngs Moduli (GPa) = 52.71468 57.15062 84.15203
#
# Poissons Ratio (x) = 0.22244 0.66298
# Poissons Ratio (y) = 0.20517 0.16861
# Poissons Ratio (z) = 0.41530 0.11451
#
# Static dielectric constant tensor:
#      x y z
#    x 3.662480 0.000000 0.400420 
#    y 0.000000 3.361160 0.000000 
#    z 0.400420 0.000000 3.922100 
# 
# 
# High freq. dielectric constant tensor:
#      x y z
#    x 1.766420 0.000000 0.033820 
#    y 0.000000 1.742260 0.000000 
#    z 0.033820 0.000000 1.782660 
# 
# From -- ./inp_files/49545.got.cif
#   From: 2010.06.25/outbox.cif.g09.slc.cpg/sg10_25_cif.got.tgz:49545.got - 2010.06.27 22:07:45.
