data_PCOD8063884
_publ_section_title
;
Structure prediction by ZEFSAII (Michael W. Deem and Ramdas Pophale) SiO2 
 PCOD8063884
Probable space group: P 2/M
;
_chemical_formula_sum "Si O2"
_cell_formula_units_Z 28
_cell_length_a 9.270669
_cell_length_b 8.706690
_cell_length_c 26.032451
_cell_angle_alpha 90.000000
_cell_angle_beta 136.827263
_cell_angle_gamma 90.000000
_cell_volume 1437.680528
_symmetry_space_group_name_H-M "P 2/M"
_symmetry_group_IT_number 10
_symmetry_cell_setting 'monoclinic'
loop_
_space_group_symop_operation_xyz
x,y,z
-x,y,-z
-x,-y,-z
x,-y,z
loop_
_atom_site_type_symbol
_atom_site_label
_atom_site_fract_x
_atom_site_fract_y
_atom_site_fract_z
Si Si1 0.684428 0.819981 0.914284
Si Si2 0.763017 0.321399 0.214789
Si Si3 0.824341 0.327753 0.497840
Si Si4 0.461863 0.178365 0.653181
Si Si5 0.877005 0.179351 0.350182
Si Si6 0.095968 0.677130 0.214059
Si Si7 0.019376 0.321095 0.929872
O O1 0.440170 0.779487 0.850339
O O2 0.799405 0.732667 0.897563
O O3 0.714770 0.000000 0.913876
O O4 0.785494 0.770682 0.994818
O O5 0.701879 0.500000 0.197655
O O6 0.859974 0.278508 0.294608
O O7 0.934939 0.280158 0.216856
O O8 0.785433 0.500000 0.507860
O O9 0.608484 0.264169 0.417289
O O10 0.000000 0.322783 0.500000
O O11 0.901743 0.222620 0.565205
O O12 0.318423 0.227056 0.664326
O O13 0.700935 0.217026 0.727868
O O14 0.434299 0.000000 0.635179
O O15 0.874804 0.000000 0.336177
O O16 0.167568 0.500000 0.235034
O O17 0.982193 0.714168 0.130833
O O18 0.051447 0.500000 0.949708
#
# Coordination Sequence:
#
# PCOD8063884 Si02
#       7
#     4   4   4   4   4   4   4
#     4  11  22  37  58  86 114 141 178 225 273 323
#     4  11  23  39  56  78 110 148 186 224 269 322
#     4   9  17  31  54  82 110 142 181 224 270 321
#     4  10  20  34  56  83 112 143 178 225 276 324
#     4  10  20  35  56  84 113 142 180 226 275 325
#     4  10  23  39  56  79 109 145 186 227 268 321
#     4  10  20  38  62  85 109 142 182 225 272 322
#
# _framework density 19.475815999999998
#
# number of rings (size 3 to 8) (size 9 to 14) (size 15 to 20)
#    0.000    1.857    0.000    5.143    0.000    8.571 
#    0.000    3.571    0.000    4.286    0.000    0.000 
#    0.000    0.000    0.000    0.000    0.000    0.000 
#
# Total GULP energy -347321.791674 kJ/mol
# GULP energy per Si atom -12404.349703 kJ/mol
# Density = 1.943149 g / cm^3
# Si number density = 19.475816 Si / 1000 Ang^3
#
#
#
# Elastic Constant Matrix: (Units=GPa)
#
#
# Indices 1 2 3 4 5 6 
#
# 1 81.5370 25.7854 48.5777 0.0000 -18.9587 0.0000
# 2 25.7854 62.4401 26.4348 0.0000 -7.1052 0.0000
# 3 48.5777 26.4348 98.7863 0.0000 -23.7871 0.0000
# 4 0.0000 0.0000 0.0000 37.2106 0.0000 4.9239
# 5 -18.9587 -7.1052 -23.7871 0.0000 5.9686 0.0000
# 6 0.0000 0.0000 0.0000 4.9239 0.0000 16.6789
#
#
#
# Elastic Compliance Matrix: (Units=1/GPa)
#
#
# Indices 1 2 3 4 5 6 
#
# 1 -0.006134 -0.001100 -0.042042 0.000000 -0.188346 0.000000
# 2 -0.001100 0.018637 0.001353 0.000000 0.024082 0.000000
# 3 -0.042042 0.001353 -0.033055 0.000000 -0.263669 0.000000
# 4 0.000000 0.000000 0.000000 0.027967 0.000000 -0.008256
# 5 -0.188346 0.024082 -0.263669 0.000000 -1.452875 0.000000
# 6 0.000000 0.000000 0.000000 -0.008256 0.000000 0.062393
#
#
# Mechanical properties :
#
#
# Convention : Reuss Voigt Hill
#
# Bulk Modulus (GPa) = -9.60337 49.37324 19.88494
# Shear Modulus (GPa) = -3.74757 21.43598 8.84420
#
# Velocity S-wave (km/s) = -1.38867 3.32120 2.13330
# Velocity P-wave (km/s) = 2.74095 6.33350 4.03735
#
# Compressibility (1/GPa) = -0.10413011
#
# Stress axis : x y z
#
# Youngs Moduli (GPa) = -163.03370 53.65548 -30.25262
#
# Poissons Ratio (x) = 0.05904 -1.27187
# Poissons Ratio (y) = -0.17938 0.04092
# Poissons Ratio (z) = -6.85422 -0.07257
#
# Static dielectric constant tensor:
#      x y z
#    x 3.343610 0.000000 -0.118680 
#    y 0.000000 3.603360 0.000000 
#    z -0.118680 0.000000 3.638590 
# 
# 
# High freq. dielectric constant tensor:
#      x y z
#    x 1.732940 0.000000 -0.008480 
#    y 0.000000 1.769360 0.000000 
#    z -0.008480 0.000000 1.772190 
# 
# From -- ./inp_files/92060.got.cif
#   From: 2010.06.25/outbox.cif.g09.slc.cpg/sg10_47_cif.got.tgz:92060.got - 2010.06.27 22:07:45.
