data_PCOD8063944
_publ_section_title
;
Structure prediction by ZEFSAII (Michael W. Deem and Ramdas Pophale) SiO2 
 PCOD8063944
Probable space group: P 2/M
;
_chemical_formula_sum "Si O2"
_cell_formula_units_Z 28
_cell_length_a 21.254232
_cell_length_b 8.735272
_cell_length_c 25.428267
_cell_angle_alpha 90.000000
_cell_angle_beta 16.824156
_cell_angle_gamma 90.000000
_cell_volume 1366.438934
_symmetry_space_group_name_H-M "P 2/M"
_symmetry_group_IT_number 10
_symmetry_cell_setting 'monoclinic'
loop_
_space_group_symop_operation_xyz
x,y,z
-x,y,-z
-x,-y,-z
x,-y,z
loop_
_atom_site_type_symbol
_atom_site_label
_atom_site_fract_x
_atom_site_fract_y
_atom_site_fract_z
Si Si1 0.056529 0.680278 0.378186
Si Si2 0.144084 0.179664 0.021134
Si Si3 0.893880 0.674369 0.397446
Si Si4 0.683098 0.179518 0.745464
Si Si5 0.286775 0.675214 0.010518
Si Si6 0.349558 0.817435 0.573740
Si Si7 0.494477 0.178169 0.345370
O O1 0.101739 0.500000 0.345807
O O2 0.023643 0.735464 0.344562
O O3 0.838960 0.723097 0.583243
O O4 0.263252 0.770141 0.237432
O O5 0.284927 0.265296 0.952579
O O6 0.261822 0.215242 0.870851
O O7 0.150602 0.000000 0.028583
O O8 0.896418 0.240150 0.218611
O O9 0.825616 0.500000 0.462190
O O10 0.674602 0.767190 0.563388
O O11 0.043556 0.692636 0.226688
O O12 0.438459 0.221772 0.926174
O O13 0.724820 0.000000 0.704823
O O14 0.367268 0.500000 0.947718
O O15 0.500000 0.752200 0.500000
O O16 0.444727 0.748894 0.442621
O O17 0.355759 0.000000 0.568606
O O18 0.460973 0.000000 0.378549
#
# Coordination Sequence:
#
# PCOD8063944 Si02
#       7
#     4   4   4   4   4   4   4
#     4  10  20  37  57  78 107 146 190 237 287 340
#     4  10  20  35  57  86 115 148 192 234 281 338
#     4  10  22  37  56  80 108 145 190 237 284 339
#     4  11  22  36  54  80 111 145 187 236 288 342
#     4  11  22  37  56  79 109 148 190 235 287 339
#     4   9  18  34  56  85 121 153 183 227 281 336
#     4  10  20  34  57  85 114 150 189 234 282 333
#
# _framework density 20.491219000000001
#
# number of rings (size 3 to 8) (size 9 to 14) (size 15 to 20)
#    0.000    1.857    1.429    3.857    0.000    5.714 
#    0.000    5.714    0.000    1.714    0.000    2.000 
#    0.000    0.000    0.000    0.000    0.000    0.000 
#
# Total GULP energy -347185.897055 kJ/mol
# GULP energy per Si atom -12399.496323 kJ/mol
# Density = 2.044458 g / cm^3
# Si number density = 20.491219 Si / 1000 Ang^3
#
#
#
# Elastic Constant Matrix: (Units=GPa)
#
#
# Indices 1 2 3 4 5 6 
#
# 1 145.9512 27.0357 65.7265 0.0000 -1.4431 0.0000
# 2 27.0357 37.1481 27.4408 0.0000 0.0995 0.0000
# 3 65.7265 27.4408 111.8265 0.0000 0.5127 0.0000
# 4 0.0000 0.0000 0.0000 15.5079 0.0000 4.8555
# 5 -1.4431 0.0995 0.5127 0.0000 30.7455 0.0000
# 6 0.0000 0.0000 0.0000 4.8555 0.0000 15.8494
#
#
#
# Elastic Compliance Matrix: (Units=1/GPa)
#
#
# Indices 1 2 3 4 5 6 
#
# 1 0.009680 -0.003471 -0.004840 0.000000 0.000546 0.000000
# 2 -0.003471 0.034124 -0.006333 0.000000 -0.000168 0.000000
# 3 -0.004840 -0.006333 0.013343 0.000000 -0.000429 0.000000
# 4 0.000000 0.000000 0.000000 0.071325 0.000000 -0.021851
# 5 0.000546 -0.000168 -0.000429 0.000000 0.032558 0.000000
# 6 0.000000 0.000000 0.000000 -0.021851 0.000000 0.069788
#
#
# Mechanical properties :
#
#
# Convention : Reuss Voigt Hill
#
# Bulk Modulus (GPa) = 35.89488 59.48129 47.68809
# Shear Modulus (GPa) = 18.56037 24.06874 21.31456
#
# Velocity S-wave (km/s) = 3.01287 3.43094 3.22868
# Velocity P-wave (km/s) = 5.44595 6.69223 6.10100
#
# Compressibility (1/GPa) = 0.02785913
#
# Stress axis : x y z
#
# Youngs Moduli (GPa) = 103.31063 29.30526 74.94511
#
# Poissons Ratio (x) = 0.10171 0.36273
# Poissons Ratio (y) = 0.35857 0.47461
# Poissons Ratio (z) = 0.50002 0.18558
#
# Static dielectric constant tensor:
#      x y z
#    x 3.957060 0.000000 0.096610 
#    y 0.000000 3.440160 0.000000 
#    z 0.096610 0.000000 3.741990 
# 
# 
# High freq. dielectric constant tensor:
#      x y z
#    x 1.803770 0.000000 0.002740 
#    y 0.000000 1.777350 0.000000 
#    z 0.002740 0.000000 1.801090 
# 
# From -- ./inp_files/90354.got.cif
#   From: 2010.06.25/outbox.cif.g09.slc.cpg/sg10_46_cif.got.tgz:90354.got - 2010.06.27 22:07:45.
