data_PCOD8063338
_publ_section_title
;
Structure prediction by ZEFSAII (Michael W. Deem and Ramdas Pophale) SiO2 
 PCOD8063338
Probable space group: P 2/M
;
_chemical_formula_sum "Si O2"
_cell_formula_units_Z 32
_cell_length_a 9.359476
_cell_length_b 8.933040
_cell_length_c 26.061042
_cell_angle_alpha 90.000000
_cell_angle_beta 49.911107
_cell_angle_gamma 90.000000
_cell_volume 1666.979587
_symmetry_space_group_name_H-M "P 2/M"
_symmetry_group_IT_number 10
_symmetry_cell_setting 'monoclinic'
loop_
_space_group_symop_operation_xyz
x,y,z
-x,y,-z
-x,-y,-z
x,-y,z
loop_
_atom_site_type_symbol
_atom_site_label
_atom_site_fract_x
_atom_site_fract_y
_atom_site_fract_z
Si Si1 0.529123 0.678300 0.935547
Si Si2 0.707297 0.821869 0.463315
Si Si3 0.798619 0.322125 0.062844
Si Si4 0.975222 0.822255 0.687099
Si Si5 0.216200 0.836537 0.446537
Si Si6 0.260071 0.323940 0.807582
Si Si7 0.644212 0.178180 0.691870
Si Si8 0.933428 0.323553 0.805237
O O1 0.525020 0.500000 0.937008
O O2 0.364569 0.741064 0.936666
O O3 0.728805 0.735968 0.868769
O O4 0.500000 0.739834 0.000000
O O5 0.500000 0.771329 0.500000
O O6 0.734452 0.746643 0.513099
O O7 0.853612 0.761047 0.387378
O O8 0.735138 0.000000 0.460245
O O9 0.800454 0.500000 0.058701
O O10 0.766029 0.268438 0.128286
O O11 0.000000 0.257250 0.000000
O O12 0.780393 0.768439 0.706378
O O13 0.996851 0.752432 0.738047
O O14 0.983642 0.000000 0.690484
O O15 0.277384 0.754271 0.379983
O O16 0.000000 0.862962 0.500000
O O17 0.316469 0.000000 0.423575
O O18 0.297625 0.500000 0.796548
O O19 0.437548 0.238810 0.744989
O O20 0.078660 0.279673 0.816420
O O21 0.644908 0.000000 0.690648
O O22 0.929353 0.500000 0.797508
#
# Coordination Sequence:
#
# PCOD8063338 Si02
#       8
#     4   4   4   4   4   4   4   4
#     4   9  16  28  49  75 101 131 168 209 251 295
#     4   9  17  28  46  73 100 126 163 210 256 300
#     4   9  16  28  49  75 101 130 168 212 251 290
#     4  10  20  34  52  77 105 133 169 212 256 306
#     4   9  15  28  48  71  98 126 162 211 257 297
#     4  10  21  35  51  75 106 138 172 210 251 300
#     4  10  20  33  53  78 103 133 170 212 257 305
#     4  10  21  35  51  74 106 140 172 207 252 303
#
# _framework density 19.196397000000001
#
# number of rings (size 3 to 8) (size 9 to 14) (size 15 to 20)
#    0.000    2.500    1.250    1.500    1.750    5.000 
#    0.000    0.000    0.000    2.250    0.000    0.000 
#    0.000    0.000    0.000    0.000    0.000    0.000 
#
# Total GULP energy -396610.453003 kJ/mol
# GULP energy per Si atom -12394.076656 kJ/mol
# Density = 1.915270 g / cm^3
# Si number density = 19.196397 Si / 1000 Ang^3
#
#
#
# Elastic Constant Matrix: (Units=GPa)
#
#
# Indices 1 2 3 4 5 6 
#
# 1 175.8475 20.3790 87.0447 0.0000 8.2650 0.0000
# 2 20.3790 10.6878 19.4616 0.0000 1.3390 0.0000
# 3 87.0447 19.4616 159.6863 0.0000 9.8155 0.0000
# 4 0.0000 0.0000 0.0000 24.8400 0.0000 -1.6622
# 5 8.2650 1.3390 9.8155 0.0000 46.8156 0.0000
# 6 0.0000 0.0000 0.0000 -1.6622 0.0000 20.8665
#
#
#
# Elastic Compliance Matrix: (Units=1/GPa)
#
#
# Indices 1 2 3 4 5 6 
#
# 1 0.008565 -0.010054 -0.003412 0.000000 -0.000509 0.000000
# 2 -0.010054 0.132061 -0.010628 0.000000 0.000226 0.000000
# 3 -0.003412 -0.010628 0.009484 0.000000 -0.001082 0.000000
# 4 0.000000 0.000000 0.000000 0.040473 0.000000 0.003224
# 5 -0.000509 0.000226 -0.001082 0.000000 0.021671 0.000000
# 6 0.000000 0.000000 0.000000 0.003224 0.000000 0.048181
#
#
# Mechanical properties :
#
#
# Convention : Reuss Voigt Hill
#
# Bulk Modulus (GPa) = 9.81154 66.66580 38.23867
# Shear Modulus (GPa) = 14.59443 33.12685 23.86064
#
# Velocity S-wave (km/s) = 2.76029 4.15864 3.52941
# Velocity P-wave (km/s) = 3.90911 7.60675 6.04747
#
# Compressibility (1/GPa) = 0.10192080
#
# Stress axis : x y z
#
# Youngs Moduli (GPa) = 116.75674 7.57227 105.44106
#
# Poissons Ratio (x) = 0.07613 0.35977
# Poissons Ratio (y) = 1.17390 1.12064
# Poissons Ratio (z) = 0.39838 0.08048
#
# Static dielectric constant tensor:
#      x y z
#    x 3.690000 0.000000 0.079810 
#    y 0.000000 2.839870 0.000000 
#    z 0.079810 0.000000 3.719730 
# 
# 
# High freq. dielectric constant tensor:
#      x y z
#    x 1.766050 0.000000 0.005210 
#    y 0.000000 1.673530 0.000000 
#    z 0.005210 0.000000 1.765210 
# 
# From -- ./inp_files/82636.got.cif
#   From: 2010.06.25/outbox.cif.g09.slc.cpg/sg10_42_cif.got.tgz:82636.got - 2010.06.27 22:07:45.
