data_PCOD8063722
_publ_section_title
;
Structure prediction by ZEFSAII (Michael W. Deem and Ramdas Pophale) SiO2 
 PCOD8063722
Probable space group: P 2/M
;
_chemical_formula_sum "Si O2"
_cell_formula_units_Z 24
_cell_length_a 20.799273
_cell_length_b 9.539831
_cell_length_c 14.483502
_cell_angle_alpha 90.000000
_cell_angle_beta 25.310123
_cell_angle_gamma 90.000000
_cell_volume 1228.616683
_symmetry_space_group_name_H-M "P 2/M"
_symmetry_group_IT_number 10
_symmetry_cell_setting 'monoclinic'
loop_
_space_group_symop_operation_xyz
x,y,z
-x,y,-z
-x,-y,-z
x,-y,z
loop_
_atom_site_type_symbol
_atom_site_label
_atom_site_fract_x
_atom_site_fract_y
_atom_site_fract_z
Si Si1 0.456938 0.837171 0.658044
Si Si2 0.958706 0.660347 0.383488
Si Si3 0.721221 0.339667 0.972065
Si Si4 0.991220 0.834504 0.859805
Si Si5 0.356777 0.666621 0.127508
Si Si6 0.779764 0.838600 0.291385
O O1 0.500000 0.782931 0.500000
O O2 0.325863 0.750640 0.877344
O O3 0.603548 0.812264 0.531018
O O4 0.408001 0.000000 0.716601
O O5 0.935418 0.500000 0.382396
O O6 0.012413 0.752910 0.229604
O O7 0.801413 0.721691 0.625980
O O8 0.097210 0.670296 0.276841
O O9 0.673738 0.500000 0.052705
O O10 0.639740 0.284116 0.984230
O O11 0.133595 0.774407 0.733559
O O12 0.998244 0.000000 0.829380
O O13 0.841698 0.788703 0.111021
O O14 0.358401 0.500000 0.128285
O O15 0.500000 0.726566 0.000000
O O16 0.823888 0.000000 0.236822
#
# Coordination Sequence:
#
# PCOD8063722 Si02
#       6
#     4   4   4   4   4   4
#     4  10  20  34  54  79 109 144 180 215 259 316
#     4  10  20  34  54  79 107 135 172 219 266 312
#     4  10  21  36  55  80 109 141 176 220 267 310
#     4   9  17  32  54  76 102 140 179 214 260 314
#     4   9  19  36  57  78 103 140 181 216 262 324
#     4   8  16  31  50  74 105 140 178 216 256 310
#
# _framework density 19.534162999999999
#
# number of rings (size 3 to 8) (size 9 to 14) (size 15 to 20)
#    0.000    2.667    0.000    2.500    2.333    4.333 
#    0.000    3.333    0.000    3.000    0.000    0.000 
#    0.000    0.000    0.000    0.000    0.000    0.000 
#
# Total GULP energy -297399.370119 kJ/mol
# GULP energy per Si atom -12391.640422 kJ/mol
# Density = 1.948970 g / cm^3
# Si number density = 19.534163 Si / 1000 Ang^3
#
#
#
# Elastic Constant Matrix: (Units=GPa)
#
#
# Indices 1 2 3 4 5 6 
#
# 1 101.3973 26.1971 46.7419 0.0000 3.0934 0.0000
# 2 26.1971 40.3267 28.8179 0.0000 4.2553 0.0000
# 3 46.7419 28.8179 105.8462 0.0000 -6.7184 0.0000
# 4 0.0000 0.0000 0.0000 29.4567 0.0000 6.4512
# 5 3.0934 4.2553 -6.7184 0.0000 29.5072 0.0000
# 6 0.0000 0.0000 0.0000 6.4512 0.0000 22.2103
#
#
#
# Elastic Compliance Matrix: (Units=1/GPa)
#
#
# Indices 1 2 3 4 5 6 
#
# 1 0.013383 -0.005233 -0.004593 0.000000 -0.001694 0.000000
# 2 -0.005233 0.034090 -0.007354 0.000000 -0.006042 0.000000
# 3 -0.004593 -0.007354 0.013775 0.000000 0.004678 0.000000
# 4 0.000000 0.000000 0.000000 0.036254 0.000000 -0.010530
# 5 -0.001694 -0.006042 0.004678 0.000000 0.036004 0.000000
# 6 0.000000 0.000000 0.000000 -0.010530 0.000000 0.048083
#
#
# Mechanical properties :
#
#
# Convention : Reuss Voigt Hill
#
# Bulk Modulus (GPa) = 37.19093 50.12044 43.65569
# Shear Modulus (GPa) = 22.23096 25.95572 24.09334
#
# Velocity S-wave (km/s) = 3.37717 3.64914 3.51578
# Velocity P-wave (km/s) = 5.85553 6.59306 6.23521
#
# Compressibility (1/GPa) = 0.02688828
#
# Stress axis : x y z
#
# Youngs Moduli (GPa) = 74.72132 29.33427 72.59550
#
# Poissons Ratio (x) = 0.15351 0.33341
# Poissons Ratio (y) = 0.39103 0.53386
# Poissons Ratio (z) = 0.34317 0.21572
#
# Static dielectric constant tensor:
#      x y z
#    x 3.775810 0.000000 -0.249690 
#    y 0.000000 3.070410 0.000000 
#    z -0.249690 0.000000 3.588170 
# 
# 
# High freq. dielectric constant tensor:
#      x y z
#    x 1.776920 0.000000 -0.013190 
#    y 0.000000 1.708790 0.000000 
#    z -0.013190 0.000000 1.762590 
# 
# From -- ./inp_files/53592.got.cif
#   From: 2010.06.25/outbox.cif.g09.slc.cpg/sg10_27_cif.got.tgz:53592.got - 2010.06.27 22:07:45.
