data_PCOD8063140
_publ_section_title
;
Structure prediction by ZEFSAII (Michael W. Deem and Ramdas Pophale) SiO2 
 PCOD8063140
Probable space group: P 2/M
;
_chemical_formula_sum "Si O2"
_cell_formula_units_Z 32
_cell_length_a 18.007371
_cell_length_b 8.793210
_cell_length_c 21.814002
_cell_angle_alpha 90.000000
_cell_angle_beta 147.888724
_cell_angle_gamma 90.000000
_cell_volume 1836.072040
_symmetry_space_group_name_H-M "P 2/M"
_symmetry_group_IT_number 10
_symmetry_cell_setting 'monoclinic'
loop_
_space_group_symop_operation_xyz
x,y,z
-x,y,-z
-x,-y,-z
x,-y,z
loop_
_atom_site_type_symbol
_atom_site_label
_atom_site_fract_x
_atom_site_fract_y
_atom_site_fract_z
Si Si1 0.148852 0.675205 0.392726
Si Si2 0.686626 0.674151 0.607040
Si Si3 0.850179 0.823922 0.366346
Si Si4 0.414788 0.321512 0.765321
Si Si5 0.589162 0.320407 0.004895
Si Si6 0.866625 0.178890 0.238058
Si Si7 0.580936 0.821709 0.358679
Si Si8 0.576831 0.824976 0.635573
O O1 0.122797 0.500000 0.391541
O O2 0.174866 0.694602 0.337391
O O3 0.281339 0.731564 0.524137
O O4 0.014194 0.771861 0.314385
O O5 0.635891 0.500000 0.568277
O O6 0.700559 0.726173 0.688660
O O7 0.570703 0.786035 0.498734
O O8 0.743748 0.722024 0.330183
O O9 0.852276 0.766237 0.298013
O O10 0.000000 0.795737 0.500000
O O11 0.805828 0.000000 0.340141
O O12 0.424631 0.500000 0.760334
O O13 0.465710 0.233014 0.740793
O O14 0.513986 0.268761 0.890109
O O15 0.602013 0.500000 0.018672
O O16 0.743510 0.251419 0.112083
O O17 0.500000 0.256313 0.000000
O O18 0.856056 0.000000 0.226057
O O19 0.447283 0.787146 0.309359
O O20 0.617444 0.000000 0.384472
O O21 0.614604 0.000000 0.652591
#
# Coordination Sequence:
#
# PCOD8063140 Si02
#       8
#     4   4   4   4   4   4   4   4
#     4  10  20  33  50  74 106 139 170 206 250 300
#     4   9  16  26  43  68  98 133 168 203 240 285
#     4  10  21  35  50  71 101 132 161 200 249 300
#     4  11  22  35  54  75  95 130 171 208 255 301
#     4  10  21  39  57  73  97 128 167 216 259 300
#     4  11  22  34  53  77 100 132 170 209 255 299
#     4  10  20  33  49  73 107 138 167 208 253 299
#     4   9  16  26  43  67  97 135 168 198 242 293
#
# _framework density 17.428508999999998
#
# number of rings (size 3 to 8) (size 9 to 14) (size 15 to 20)
#    0.000    2.000    1.250    3.750    0.000    6.000 
#    0.000    0.000    0.000    0.000    0.000    0.875 
#    0.000    7.000    0.000    0.000    0.000    0.000 
#
# Total GULP energy -396705.422406 kJ/mol
# GULP energy per Si atom -12397.044450 kJ/mol
# Density = 1.738884 g / cm^3
# Si number density = 17.428509 Si / 1000 Ang^3
#
#
#
# Elastic Constant Matrix: (Units=GPa)
#
#
# Indices 1 2 3 4 5 6 
#
# 1 125.0866 24.5122 29.0744 0.0000 -18.4064 0.0000
# 2 24.5122 25.9027 15.9499 0.0000 -11.3310 0.0000
# 3 29.0744 15.9499 57.3351 0.0000 -15.1183 0.0000
# 4 0.0000 0.0000 0.0000 17.4797 0.0000 2.9040
# 5 -18.4064 -11.3310 -15.1183 0.0000 10.8261 0.0000
# 6 0.0000 0.0000 0.0000 2.9040 0.0000 31.9307
#
#
#
# Elastic Compliance Matrix: (Units=1/GPa)
#
#
# Indices 1 2 3 4 5 6 
#
# 1 0.010926 -0.004074 -0.001002 0.000000 0.012913 0.000000
# 2 -0.004074 0.072729 0.000125 0.000000 0.069369 0.000000
# 3 -0.001002 0.000125 0.027700 0.000000 0.037108 0.000000
# 4 0.000000 0.000000 0.000000 0.058087 0.000000 -0.005283
# 5 0.012913 0.069369 0.037108 0.000000 0.238747 0.000000
# 6 0.000000 0.000000 0.000000 -0.005283 0.000000 0.031798
#
#
# Mechanical properties :
#
#
# Convention : Reuss Voigt Hill
#
# Bulk Modulus (GPa) = 9.85684 38.59973 24.22829
# Shear Modulus (GPa) = 10.33684 21.29983 15.81834
#
# Velocity S-wave (km/s) = 2.43801 3.49968 3.01593
# Velocity P-wave (km/s) = 3.68687 6.20693 5.10485
#
# Compressibility (1/GPa) = 0.10145236
#
# Stress axis : x y z
#
# Youngs Moduli (GPa) = 91.52666 13.74964 36.10156
#
# Poissons Ratio (x) = 0.05601 0.03619
# Poissons Ratio (y) = 0.37284 -0.00451
# Poissons Ratio (z) = 0.09174 -0.00172
#
# Static dielectric constant tensor:
#      x y z
#    x 3.885720 0.000000 -0.097530 
#    y 0.000000 3.275660 0.000000 
#    z -0.097530 0.000000 2.888140 
# 
# 
# High freq. dielectric constant tensor:
#      x y z
#    x 1.692180 0.000000 -0.001350 
#    y 0.000000 1.685040 0.000000 
#    z -0.001350 0.000000 1.622700 
# 
# From -- ./inp_files/89961.got.cif
#   From: 2010.06.25/outbox.cif.g09.slc.cpg/sg10_45_cif.got.tgz:89961.got - 2010.06.27 22:07:45.
