data_PCOD8063045
_publ_section_title
;
Structure prediction by ZEFSAII (Michael W. Deem and Ramdas Pophale) SiO2 
 PCOD8063045
Probable space group: P 2/M
;
_chemical_formula_sum "Si O2"
_cell_formula_units_Z 32
_cell_length_a 21.443248
_cell_length_b 13.763292
_cell_length_c 15.942877
_cell_angle_alpha 90.000000
_cell_angle_beta 161.204010
_cell_angle_gamma 90.000000
_cell_volume 1516.018042
_symmetry_space_group_name_H-M "P 2/M"
_symmetry_group_IT_number 10
_symmetry_cell_setting 'monoclinic'
loop_
_space_group_symop_operation_xyz
x,y,z
-x,y,-z
-x,-y,-z
x,-y,z
loop_
_atom_site_type_symbol
_atom_site_label
_atom_site_fract_x
_atom_site_fract_y
_atom_site_fract_z
Si Si1 0.320944 0.389316 0.226243
Si Si2 0.091238 0.889611 0.322768
Si Si3 0.879246 0.282269 0.526118
Si Si4 0.699871 0.213361 0.554041
Si Si5 0.776528 0.608288 0.240523
Si Si6 0.898497 0.614346 0.718454
Si Si7 0.685170 0.694213 0.956279
Si Si8 0.283930 0.887995 0.254977
O O1 0.500000 0.334226 0.500000
O O2 0.321864 0.500000 0.254566
O O3 0.344003 0.382511 0.155817
O O4 0.120318 0.347144 0.006727
O O5 0.171032 0.823400 0.500451
O O6 0.223291 0.869013 0.410338
O O7 0.115513 0.000000 0.382493
O O8 0.867564 0.865119 0.013211
O O9 0.745535 0.315861 0.277908
O O10 0.842477 0.363960 0.550518
O O11 0.096937 0.268202 0.769964
O O12 0.778981 0.321818 0.632892
O O13 0.466334 0.217540 0.248225
O O14 0.765314 0.181922 0.729904
O O15 0.710021 0.500000 0.182671
O O16 0.000000 0.604748 0.500000
O O17 0.646271 0.642129 0.996054
O O18 0.870559 0.500000 0.702335
O O19 0.500000 0.866193 0.500000
O O20 0.261066 0.000000 0.254128
#
# Coordination Sequence:
#
# PCOD8063045 Si02
#       8
#     4   4   4   4   4   4   4   4
#     4   9  18  33  51  71 101 145 192 229 262 309
#     4  10  21  38  59  82 110 145 183 228 284 340
#     4   9  18  35  60  82 104 138 185 235 281 327
#     4  11  22  34  54  82 116 147 179 223 276 333
#     4   9  17  32  57  85 111 142 184 234 281 325
#     4   9  19  35  52  75 109 147 184 222 269 326
#     4  10  20  32  52  81 112 143 182 228 276 326
#     4  10  21  38  61  86 110 142 187 234 279 330
#
# _framework density 21.107928000000001
#
# number of rings (size 3 to 8) (size 9 to 14) (size 15 to 20)
#    0.000    2.375    0.000    2.250    0.000    9.500 
#    0.000    3.125    0.000   18.750    0.000    0.000 
#    0.000    0.000    0.000    0.000    0.000    0.000 
#
# Total GULP energy -396639.678499 kJ/mol
# GULP energy per Si atom -12394.989953 kJ/mol
# Density = 2.105989 g / cm^3
# Si number density = 21.107928 Si / 1000 Ang^3
#
#
#
# Elastic Constant Matrix: (Units=GPa)
#
#
# Indices 1 2 3 4 5 6 
#
# 1 95.7388 48.3926 24.2923 0.0000 -17.1204 0.0000
# 2 48.3926 117.3796 19.4758 0.0000 -18.7598 0.0000
# 3 24.2923 19.4758 42.1719 0.0000 -16.3426 0.0000
# 4 0.0000 0.0000 0.0000 23.6720 0.0000 -1.6793
# 5 -17.1204 -18.7598 -16.3426 0.0000 37.2574 0.0000
# 6 0.0000 0.0000 0.0000 -1.6793 0.0000 32.2714
#
#
#
# Elastic Compliance Matrix: (Units=1/GPa)
#
#
# Indices 1 2 3 4 5 6 
#
# 1 0.014600 -0.004811 -0.005454 0.000000 0.001894 0.000000
# 2 -0.004811 0.011172 -0.001283 0.000000 0.002852 0.000000
# 3 -0.005454 -0.001283 0.031596 0.000000 0.010707 0.000000
# 4 0.000000 0.000000 0.000000 0.042401 0.000000 0.002206
# 5 0.001894 0.002852 0.010707 0.000000 0.033843 0.000000
# 6 0.000000 0.000000 0.000000 0.002206 0.000000 0.031102
#
#
# Mechanical properties :
#
#
# Convention : Reuss Voigt Hill
#
# Bulk Modulus (GPa) = 29.17928 48.84573 39.01251
# Shear Modulus (GPa) = 25.09636 29.51547 27.30591
#
# Velocity S-wave (km/s) = 3.45186 3.74346 3.60061
# Velocity P-wave (km/s) = 5.45353 6.47115 5.98401
#
# Compressibility (1/GPa) = 0.03427090
#
# Stress axis : x y z
#
# Youngs Moduli (GPa) = 68.49499 89.51303 31.64980
#
# Poissons Ratio (x) = 0.43069 0.17262
# Poissons Ratio (y) = 0.32956 0.04060
# Poissons Ratio (z) = 0.37357 0.11482
#
# Static dielectric constant tensor:
#      x y z
#    x 3.800080 0.000000 -0.034990 
#    y 0.000000 3.684870 0.000000 
#    z -0.034990 0.000000 3.976490 
# 
# 
# High freq. dielectric constant tensor:
#      x y z
#    x 1.825500 0.000000 0.005120 
#    y 0.000000 1.814910 0.000000 
#    z 0.005120 0.000000 1.813050 
# 
# From -- ./inp_files/70782.got.cif
#   From: 2010.06.25/outbox.cif.g09.slc.cpg/sg10_36_cif.got.tgz:70782.got - 2010.06.27 22:07:45.
