data_PCOD8063159
_publ_section_title
;
Structure prediction by ZEFSAII (Michael W. Deem and Ramdas Pophale) SiO2 
 PCOD8063159
Probable space group: P 2/M
;
_chemical_formula_sum "Si O2"
_cell_formula_units_Z 28
_cell_length_a 26.792221
_cell_length_b 8.686102
_cell_length_c 9.594214
_cell_angle_alpha 90.000000
_cell_angle_beta 140.863574
_cell_angle_gamma 90.000000
_cell_volume 1409.252262
_symmetry_space_group_name_H-M "P 2/M"
_symmetry_group_IT_number 10
_symmetry_cell_setting 'monoclinic'
loop_
_space_group_symop_operation_xyz
x,y,z
-x,y,-z
-x,-y,-z
x,-y,z
loop_
_atom_site_type_symbol
_atom_site_label
_atom_site_fract_x
_atom_site_fract_y
_atom_site_fract_z
Si Si1 0.521772 0.324062 0.895854
Si Si2 0.195044 0.680557 0.691707
Si Si3 0.086157 0.319382 0.211186
Si Si4 0.680012 0.178339 0.234730
Si Si5 0.424457 0.323155 0.423793
Si Si6 0.771527 0.681861 0.673012
Si Si7 0.256832 0.818867 0.086840
O O1 0.551265 0.500000 0.965142
O O2 0.445547 0.307934 0.632384
O O3 0.500000 0.260961 0.000000
O O4 0.592394 0.218569 0.991958
O O5 0.213868 0.500000 0.726130
O O6 0.114646 0.717006 0.431197
O O7 0.264743 0.775211 0.772188
O O8 0.191689 0.739417 0.843748
O O9 0.079938 0.500000 0.174364
O O10 0.148914 0.257777 0.232737
O O11 0.000000 0.242284 0.000000
O O12 0.698368 0.274192 0.415117
O O13 0.689339 0.000000 0.289145
O O14 0.500000 0.260648 0.500000
O O15 0.407442 0.500000 0.344142
O O16 0.344977 0.226853 0.227097
O O17 0.771599 0.500000 0.698020
O O18 0.763023 0.764675 0.801487
O O19 0.247482 0.000000 0.056969
#
# Coordination Sequence:
#
# PCOD8063159 Si02
#       7
#     4   4   4   4   4   4   4
#     4  10  20  33  50  72 100 137 181 228 277 328
#     4  10  20  36  59  82 109 146 183 219 267 330
#     4   8  16  34  62  92 113 135 179 232 271 314
#     4  11  21  34  54  80 110 141 181 231 276 325
#     4  10  21  36  54  75 103 142 186 231 281 334
#     4  10  20  36  59  83 112 150 187 225 275 334
#     4  12  24  37  55  81 115 148 186 235 278 325
#
# _framework density 19.868691999999999
#
# number of rings (size 3 to 8) (size 9 to 14) (size 15 to 20)
#    0.000    1.857    0.000    6.000    0.000    3.429 
#    0.000    0.714    0.000   19.714    0.000    0.000 
#    0.000    0.000    0.000    0.000    0.000    0.000 
#
# Total GULP energy -347184.238823 kJ/mol
# GULP energy per Si atom -12399.437101 kJ/mol
# Density = 1.982347 g / cm^3
# Si number density = 19.868692 Si / 1000 Ang^3
#
#
#
# Elastic Constant Matrix: (Units=GPa)
#
#
# Indices 1 2 3 4 5 6 
#
# 1 54.4513 13.3447 30.8982 0.0000 -4.8832 0.0000
# 2 13.3447 68.6719 25.6497 0.0000 11.0206 0.0000
# 3 30.8982 25.6497 106.6647 0.0000 -1.1595 0.0000
# 4 0.0000 0.0000 0.0000 12.0226 0.0000 -14.6082
# 5 -4.8832 11.0206 -1.1595 0.0000 33.7908 0.0000
# 6 0.0000 0.0000 0.0000 -14.6082 0.0000 13.8759
#
#
#
# Elastic Compliance Matrix: (Units=1/GPa)
#
#
# Indices 1 2 3 4 5 6 
#
# 1 0.022755 -0.002881 -0.005855 0.000000 0.004027 0.000000
# 2 -0.002881 0.017394 -0.003415 0.000000 -0.006206 0.000000
# 3 -0.005855 -0.003415 0.011900 0.000000 0.000676 0.000000
# 4 0.000000 0.000000 0.000000 -0.297928 0.000000 -0.313650
# 5 0.004027 -0.006206 0.000676 0.000000 0.032223 0.000000
# 6 0.000000 0.000000 0.000000 -0.313650 0.000000 -0.258135
#
#
# Mechanical properties :
#
#
# Convention : Reuss Voigt Hill
#
# Bulk Modulus (GPa) = 36.04257 41.06367 38.55312
# Shear Modulus (GPa) = -11.40929 22.59756 5.59414
#
# Velocity S-wave (km/s) = -2.39892 3.37611 1.67978
# Velocity P-wave (km/s) = 3.24140 5.99249 4.81750
#
# Compressibility (1/GPa) = 0.02774497
#
# Stress axis : x y z
#
# Youngs Moduli (GPa) = 43.94711 57.49237 84.03462
#
# Poissons Ratio (x) = 0.16565 0.49201
# Poissons Ratio (y) = 0.12662 0.28702
# Poissons Ratio (z) = 0.25730 0.19636
#
# Static dielectric constant tensor:
#      x y z
#    x 3.648000 0.000000 -0.032420 
#    y 0.000000 3.385630 0.000000 
#    z -0.032420 0.000000 3.934160 
# 
# 
# High freq. dielectric constant tensor:
#      x y z
#    x 1.761570 0.000000 -0.016170 
#    y 0.000000 1.757540 0.000000 
#    z -0.016170 0.000000 1.781910 
# 
# From -- ./inp_files/36910.got.cif
#   From: 2010.06.25/outbox.cif.g09.slc.cpg/sg10_19_cif.got.tgz:36910.got - 2010.06.27 22:07:45.
