data_PCOD8063303
_publ_section_title
;
Structure prediction by ZEFSAII (Michael W. Deem and Ramdas Pophale) SiO2 
 PCOD8063303
Probable space group: P 2/M
;
_chemical_formula_sum "Si O2"
_cell_formula_units_Z 32
_cell_length_a 12.537052
_cell_length_b 8.963127
_cell_length_c 22.863202
_cell_angle_alpha 90.000000
_cell_angle_beta 43.901951
_cell_angle_gamma 90.000000
_cell_volume 1781.526882
_symmetry_space_group_name_H-M "P 2/M"
_symmetry_group_IT_number 10
_symmetry_cell_setting 'monoclinic'
loop_
_space_group_symop_operation_xyz
x,y,z
-x,y,-z
-x,-y,-z
x,-y,z
loop_
_atom_site_type_symbol
_atom_site_label
_atom_site_fract_x
_atom_site_fract_y
_atom_site_fract_z
Si Si1 0.353828 0.828177 0.814563
Si Si2 0.805467 0.171047 0.004885
Si Si3 0.325583 0.323765 0.309378
Si Si4 0.056175 0.823626 0.343785
Si Si5 0.657907 0.324670 0.961865
Si Si6 0.861924 0.663566 0.509852
Si Si7 0.109071 0.174112 0.819773
Si Si8 0.961016 0.676111 0.773625
O O1 0.224689 0.798683 0.915024
O O2 0.500072 0.725645 0.769347
O O3 0.273140 0.788060 0.784716
O O4 0.407486 0.000000 0.794063
O O5 0.778859 0.000000 0.999401
O O6 0.680879 0.263533 0.017681
O O7 0.977398 0.219421 0.918718
O O8 0.309355 0.500000 0.305533
O O9 0.213591 0.244961 0.306962
O O10 0.281756 0.280446 0.393892
O O11 0.019435 0.760567 0.294714
O O12 0.907397 0.781264 0.441980
O O13 0.073534 0.000000 0.334839
O O14 0.646029 0.500000 0.971313
O O15 0.796110 0.276526 0.864692
O O16 0.500000 0.255513 0.000000
O O17 0.827930 0.500000 0.495191
O O18 0.000000 0.645382 0.500000
O O19 0.092474 0.269580 0.767000
O O20 0.098191 0.000000 0.808145
O O21 0.976349 0.500000 0.757822
#
# Coordination Sequence:
#
# PCOD8063303 Si02
#       8
#     4   4   4   4   4   4   4   4
#     4  10  20  33  52  78 105 135 173 218 261 305
#     4   9  18  32  50  73  98 133 176 214 256 302
#     4  10  21  35  52  77 109 140 168 205 256 308
#     4  11  21  33  54  81 107 134 169 209 253 308
#     4   9  19  33  47  67  98 136 171 209 256 299
#     4   8  16  33  53  74 103 137 168 200 249 308
#     4   9  18  35  54  72 101 138 177 219 260 300
#     4  10  20  34  52  74 102 136 175 214 254 304
#
# _framework density 17.962119000000001
#
# number of rings (size 3 to 8) (size 9 to 14) (size 15 to 20)
#    0.000    2.500    0.000    3.000    1.750    6.000 
#    0.000    0.000    0.000    4.500    0.000    5.250 
#    0.000    0.000    0.000    0.000    0.000    0.000 
#
# Total GULP energy -396718.745790 kJ/mol
# GULP energy per Si atom -12397.460806 kJ/mol
# Density = 1.792124 g / cm^3
# Si number density = 17.962119 Si / 1000 Ang^3
#
#
#
# Elastic Constant Matrix: (Units=GPa)
#
#
# Indices 1 2 3 4 5 6 
#
# 1 78.3498 31.3769 35.4910 0.0000 16.8746 0.0000
# 2 31.3769 70.4389 39.2015 0.0000 14.5558 0.0000
# 3 35.4910 39.2015 73.1114 0.0000 16.3633 0.0000
# 4 0.0000 0.0000 0.0000 25.7819 0.0000 5.6634
# 5 16.8746 14.5558 16.3633 0.0000 23.2672 0.0000
# 6 0.0000 0.0000 0.0000 5.6634 0.0000 4.2419
#
#
#
# Elastic Compliance Matrix: (Units=1/GPa)
#
#
# Indices 1 2 3 4 5 6 
#
# 1 0.018157 -0.003696 -0.005225 0.000000 -0.007182 0.000000
# 2 -0.003696 0.021710 -0.008790 0.000000 -0.004719 0.000000
# 3 -0.005225 -0.008790 0.022370 0.000000 -0.006443 0.000000
# 4 0.000000 0.000000 0.000000 0.054882 0.000000 -0.073273
# 5 -0.007182 -0.004719 -0.006443 0.000000 0.055671 0.000000
# 6 0.000000 0.000000 0.000000 -0.073273 0.000000 0.333568
#
#
# Mechanical properties :
#
#
# Convention : Reuss Voigt Hill
#
# Bulk Modulus (GPa) = 37.29390 48.22654 42.76022
# Shear Modulus (GPa) = 9.07902 18.38023 13.72962
#
# Velocity S-wave (km/s) = 2.25067 3.20234 2.76772
# Velocity P-wave (km/s) = 5.24992 6.37029 5.83705
#
# Compressibility (1/GPa) = 0.02681403
#
# Stress axis : x y z
#
# Youngs Moduli (GPa) = 55.07510 46.06068 44.70352
#
# Poissons Ratio (x) = 0.17025 0.23357
# Poissons Ratio (y) = 0.20356 0.39296
# Poissons Ratio (z) = 0.28776 0.40489
#
# Static dielectric constant tensor:
#      x y z
#    x 3.260700 0.000000 0.008590 
#    y 0.000000 3.288770 0.000000 
#    z 0.008590 0.000000 3.555440 
# 
# 
# High freq. dielectric constant tensor:
#      x y z
#    x 1.680340 0.000000 0.008160 
#    y 0.000000 1.694060 0.000000 
#    z 0.008160 0.000000 1.686130 
# 
# From -- ./inp_files/58164.got.cif
#   From: 2010.06.25/outbox.cif.g09.slc.cpg/sg10_30_cif.got.tgz:58164.got - 2010.06.27 22:07:45.
