data_PCOD8063532
_publ_section_title
;
Structure prediction by ZEFSAII (Michael W. Deem and Ramdas Pophale) SiO2 
 PCOD8063532
Probable space group: P 2/M
;
_chemical_formula_sum "Si O2"
_cell_formula_units_Z 32
_cell_length_a 27.378068
_cell_length_b 8.804978
_cell_length_c 20.982763
_cell_angle_alpha 90.000000
_cell_angle_beta 160.324487
_cell_angle_gamma 90.000000
_cell_volume 1703.051021
_symmetry_space_group_name_H-M "P 2/M"
_symmetry_group_IT_number 10
_symmetry_cell_setting 'monoclinic'
loop_
_space_group_symop_operation_xyz
x,y,z
-x,y,-z
-x,-y,-z
x,-y,z
loop_
_atom_site_type_symbol
_atom_site_label
_atom_site_fract_x
_atom_site_fract_y
_atom_site_fract_z
Si Si1 0.553212 0.821362 0.876975
Si Si2 0.907492 0.179034 0.828073
Si Si3 0.160532 0.176002 0.830762
Si Si4 0.587155 0.819707 0.167758
Si Si5 0.419746 0.819186 0.580550
Si Si6 0.687192 0.675721 0.866206
Si Si7 0.035693 0.672092 0.863809
Si Si8 0.894938 0.324018 0.555062
O O1 0.485155 0.748807 0.857194
O O2 0.467846 0.760545 0.709891
O O3 0.530225 0.000000 0.850227
O O4 0.726266 0.783431 0.087138
O O5 0.743334 0.240193 0.630858
O O6 0.980440 0.218826 0.850814
O O7 0.904976 0.000000 0.830232
O O8 0.000000 0.250018 0.000000
O O9 0.014631 0.276214 0.649046
O O10 0.116000 0.000000 0.774655
O O11 0.248565 0.210639 0.002781
O O12 0.752757 0.771413 0.366521
O O13 0.578985 0.000000 0.159120
O O14 0.500000 0.755238 0.000000
O O15 0.522000 0.734858 0.653287
O O16 0.433613 0.000000 0.589935
O O17 0.691146 0.500000 0.894132
O O18 0.789530 0.692169 0.929542
O O19 0.997912 0.500000 0.836369
O O20 0.955858 0.715700 0.699855
O O21 0.860236 0.500000 0.504717
#
# Coordination Sequence:
#
# PCOD8063532 Si02
#       8
#     4   4   4   4   4   4   4   4
#     4   8  15  29  50  75  98 123 162 208 247 291
#     4  10  21  35  51  74 103 134 170 211 250 291
#     4   9  16  29  51  76 100 127 161 203 252 298
#     4  10  20  34  52  74 101 135 173 210 252 301
#     4   9  17  31  51  73  98 129 165 203 247 298
#     4   9  17  30  49  76 104 125 158 207 251 295
#     4   9  19  34  52  75 100 129 165 204 249 302
#     4  10  20  34  52  76 104 131 166 209 250 298
#
# _framework density 18.789807
#
# number of rings (size 3 to 8) (size 9 to 14) (size 15 to 20)
#    0.000    2.750    0.000    3.375    0.000    5.000 
#    0.000    5.625    0.000    7.500    0.000    0.000 
#    0.000    0.000    0.000    0.000    0.000    0.000 
#
# Total GULP energy -396608.037677 kJ/mol
# GULP energy per Si atom -12394.001177 kJ/mol
# Density = 1.874704 g / cm^3
# Si number density = 18.789807 Si / 1000 Ang^3
#
#
#
# Elastic Constant Matrix: (Units=GPa)
#
#
# Indices 1 2 3 4 5 6 
#
# 1 54.9149 15.4619 71.6952 0.0000 18.8356 0.0000
# 2 15.4619 17.0003 13.2082 0.0000 2.8462 0.0000
# 3 71.6952 13.2082 116.8074 0.0000 23.2546 0.0000
# 4 0.0000 0.0000 0.0000 19.2697 0.0000 4.7373
# 5 18.8356 2.8462 23.2546 0.0000 29.5411 0.0000
# 6 0.0000 0.0000 0.0000 4.7373 0.0000 16.9525
#
#
#
# Elastic Compliance Matrix: (Units=1/GPa)
#
#
# Indices 1 2 3 4 5 6 
#
# 1 0.151003 -0.071243 -0.079246 0.000000 -0.027034 0.000000
# 2 -0.071243 0.098108 0.030207 0.000000 0.012194 0.000000
# 3 -0.079246 0.030207 0.052540 0.000000 0.006258 0.000000
# 4 0.000000 0.000000 0.000000 0.055723 0.000000 -0.015571
# 5 -0.027034 0.012194 0.006258 0.000000 0.044987 0.000000
# 6 0.000000 0.000000 0.000000 -0.015571 0.000000 0.063340
#
#
# Mechanical properties :
#
#
# Convention : Reuss Voigt Hill
#
# Bulk Modulus (GPa) = 16.37017 43.27258 29.82137
# Shear Modulus (GPa) = 6.88110 19.04314 12.96212
#
# Velocity S-wave (km/s) = 1.91575 3.18698 2.62935
# Velocity P-wave (km/s) = 3.69116 6.05163 5.01233
#
# Compressibility (1/GPa) = 0.06108674
#
# Stress axis : x y z
#
# Youngs Moduli (GPa) = 6.62237 10.19287 19.03309
#
# Poissons Ratio (x) = 0.72617 1.50830
# Poissons Ratio (y) = 0.47180 -0.57493
# Poissons Ratio (z) = 0.52480 -0.30789
#
# Static dielectric constant tensor:
#      x y z
#    x 3.561010 0.000000 0.311520 
#    y 0.000000 3.215060 0.000000 
#    z 0.311520 0.000000 3.643940 
# 
# 
# High freq. dielectric constant tensor:
#      x y z
#    x 1.714250 0.000000 0.034340 
#    y 0.000000 1.712970 0.000000 
#    z 0.034340 0.000000 1.725320 
# 
# From -- ./inp_files/86944.got.cif
#   From: 2010.06.25/outbox.cif.g09.slc.cpg/sg10_44_cif.got.tgz:86944.got - 2010.06.27 22:07:45.
