data_PCOD8063587
_publ_section_title
;
Structure prediction by ZEFSAII (Michael W. Deem and Ramdas Pophale) SiO2 
 PCOD8063587
Probable space group: P 2/M
;
_chemical_formula_sum "Si O2"
_cell_formula_units_Z 28
_cell_length_a 22.005662
_cell_length_b 9.055710
_cell_length_c 24.550472
_cell_angle_alpha 90.000000
_cell_angle_beta 17.979811
_cell_angle_gamma 90.000000
_cell_volume 1510.177148
_symmetry_space_group_name_H-M "P 2/M"
_symmetry_group_IT_number 10
_symmetry_cell_setting 'monoclinic'
loop_
_space_group_symop_operation_xyz
x,y,z
-x,y,-z
-x,-y,-z
x,-y,z
loop_
_atom_site_type_symbol
_atom_site_label
_atom_site_fract_x
_atom_site_fract_y
_atom_site_fract_z
Si Si1 0.455670 0.175772 0.477450
Si Si2 0.622703 0.830342 0.755453
Si Si3 0.699389 0.674212 0.800607
Si Si4 0.813221 0.175116 0.895591
Si Si5 0.843703 0.824229 0.089416
Si Si6 0.979742 0.823636 0.173429
Si Si7 0.988212 0.830339 0.633622
O O1 0.500000 0.237436 0.500000
O O2 0.625286 0.232012 0.291566
O O3 0.244555 0.235393 0.637201
O O4 0.453280 0.000000 0.481447
O O5 0.703572 0.736639 0.736506
O O6 0.776654 0.814926 0.574442
O O7 0.603022 0.000000 0.791241
O O8 0.412070 0.768868 0.915084
O O9 0.719246 0.500000 0.780755
O O10 0.883341 0.736662 0.676563
O O11 0.500000 0.725318 0.000000
O O12 0.916487 0.242393 0.861156
O O13 0.930542 0.231155 0.742283
O O14 0.820582 0.000000 0.893120
O O15 0.850910 0.000000 0.083815
O O16 0.000000 0.762561 0.000000
O O17 0.900736 0.764608 0.981020
O O18 0.981100 0.000000 0.172972
O O19 0.920222 0.000000 0.685511
#
# Coordination Sequence:
#
# PCOD8063587 Si02
#       7
#     4   4   4   4   4   4   4
#     4   9  14  20  31  47  69  99 137 183 233 278
#     4  10  20  34  53  73  96 129 165 197 241 294
#     4  11  22  35  54  79 101 124 159 202 247 287
#     4   9  18  31  44  61  88 120 158 204 238 276
#     4   9  14  20  31  47  69  99 137 183 233 278
#     4   9  16  24  35  52  75 106 146 192 236 271
#     4  10  20  34  53  73  96 129 165 197 241 294
#
# _framework density 18.540872
#
# number of rings (size 3 to 8) (size 9 to 14) (size 15 to 20)
#    0.000    2.429    2.857    0.857    0.000    4.000 
#    0.000    5.714    0.000    0.000    0.000    0.000 
#    0.000    0.000    0.000    0.000    0.000    5.714 
#
# Total GULP energy -347159.786658 kJ/mol
# GULP energy per Si atom -12398.563809 kJ/mol
# Density = 1.849867 g / cm^3
# Si number density = 18.540872 Si / 1000 Ang^3
#
#
#
# Elastic Constant Matrix: (Units=GPa)
#
#
# Indices 1 2 3 4 5 6 
#
# 1 166.6568 15.3080 91.3344 0.0000 -8.0899 0.0000
# 2 15.3080 20.1787 17.1062 0.0000 0.3631 0.0000
# 3 91.3344 17.1062 175.2947 0.0000 9.7619 0.0000
# 4 0.0000 0.0000 0.0000 9.8726 0.0000 2.3945
# 5 -8.0899 0.3631 9.7619 0.0000 21.5088 0.0000
# 6 0.0000 0.0000 0.0000 2.3945 0.0000 -1.8958
#
#
#
# Elastic Compliance Matrix: (Units=1/GPa)
#
#
# Indices 1 2 3 4 5 6 
#
# 1 0.009189 -0.002994 -0.004813 0.000000 0.005691 0.000000
# 2 -0.002994 0.055050 -0.003794 0.000000 -0.000334 0.000000
# 3 -0.004813 -0.003794 0.008905 0.000000 -0.005787 0.000000
# 4 0.000000 0.000000 0.000000 0.077538 0.000000 0.097934
# 5 0.005691 -0.000334 -0.005787 0.000000 0.051265 0.000000
# 6 0.000000 0.000000 0.000000 0.097934 0.000000 -0.403791
#
#
# Mechanical properties :
#
#
# Convention : Reuss Voigt Hill
#
# Bulk Modulus (GPa) = 20.02235 67.73639 43.87937
# Shear Modulus (GPa) = -30.86505 21.78922 -4.53791
#
# Velocity S-wave (km/s) = -4.08450 3.43184 -1.56615
# Velocity P-wave (km/s) = 3.37961 7.23299 4.52186
#
# Compressibility (1/GPa) = 0.04994418
#
# Stress axis : x y z
#
# Youngs Moduli (GPa) = 108.82486 18.16518 112.30008
#
# Poissons Ratio (x) = 0.05438 0.54046
# Poissons Ratio (y) = 0.32578 0.42604
# Poissons Ratio (z) = 0.52373 0.06891
#
# Static dielectric constant tensor:
#      x y z
#    x 3.544500 0.000000 0.039820 
#    y 0.000000 2.711480 0.000000 
#    z 0.039820 0.000000 3.740440 
# 
# 
# High freq. dielectric constant tensor:
#      x y z
#    x 1.717830 0.000000 0.004670 
#    y 0.000000 1.643590 0.000000 
#    z 0.004670 0.000000 1.740790 
# 
# From -- ./inp_files/90343.got.cif
#   From: 2010.06.25/outbox.cif.g09.slc.cpg/sg10_46_cif.got.tgz:90343.got - 2010.06.27 22:07:45.
