data_PCOD8063069
_publ_section_title
;
Structure prediction by ZEFSAII (Michael W. Deem and Ramdas Pophale) SiO2 
 PCOD8063069
Probable space group: P 2/M
;
_chemical_formula_sum "Si O2"
_cell_formula_units_Z 32
_cell_length_a 25.934215
_cell_length_b 9.006900
_cell_length_c 15.011755
_cell_angle_alpha 90.000000
_cell_angle_beta 26.886842
_cell_angle_gamma 90.000000
_cell_volume 1585.766302
_symmetry_space_group_name_H-M "P 2/M"
_symmetry_group_IT_number 10
_symmetry_cell_setting 'monoclinic'
loop_
_space_group_symop_operation_xyz
x,y,z
-x,y,-z
-x,-y,-z
x,-y,z
loop_
_atom_site_type_symbol
_atom_site_label
_atom_site_fract_x
_atom_site_fract_y
_atom_site_fract_z
Si Si1 0.462349 0.176148 0.276599
Si Si2 0.888355 0.332765 0.788909
Si Si3 0.826683 0.826513 0.053383
Si Si4 0.569224 0.176207 0.478395
Si Si5 0.261889 0.825299 0.462916
Si Si6 0.023167 0.675296 0.863418
Si Si7 0.657520 0.826598 0.850122
Si Si8 0.849038 0.333287 0.650596
O O1 0.480144 0.235485 0.350547
O O2 0.335884 0.217885 0.435861
O O3 0.474600 0.000000 0.257978
O O4 0.556027 0.247935 0.065038
O O5 0.867399 0.500000 0.857107
O O6 0.826750 0.311110 0.789579
O O7 0.021435 0.303266 0.573445
O O8 0.837059 0.210445 0.933293
O O9 0.700746 0.774600 0.275173
O O10 0.845859 0.000000 0.040629
O O11 0.920334 0.736046 0.963114
O O12 0.500000 0.244002 0.500000
O O13 0.560207 0.000000 0.487521
O O14 0.142961 0.739727 0.645953
O O15 0.338266 0.776344 0.259592
O O16 0.234487 0.000000 0.501571
O O17 0.028077 0.500000 0.844440
O O18 0.000000 0.724471 0.000000
O O19 0.777866 0.787376 0.707571
O O20 0.637923 0.000000 0.883811
O O21 0.813487 0.500000 0.677142
#
# Coordination Sequence:
#
# PCOD8063069 Si02
#       8
#     4   4   4   4   4   4   4   4
#     4   9  18  34  55  78 113 153 185 230 287 337
#     4   9  19  36  55  75 108 150 187 228 279 336
#     4  11  22  35  58  88 113 142 185 234 283 335
#     4   9  19  34  53  81 114 147 185 228 280 336
#     4  10  20  36  58  86 116 147 189 235 283 341
#     4  11  24  40  59  83 114 153 190 230 283 339
#     4  10  20  32  54  84 112 144 186 234 285 336
#     4   9  19  35  53  75 107 150 191 226 276 337
#
# _framework density 20.17952
#
# number of rings (size 3 to 8) (size 9 to 14) (size 15 to 20)
#    0.000    2.250    0.000    3.375    1.750    7.000 
#    0.000    1.875    0.000    4.500    0.000    0.000 
#    0.000    0.000    0.000    0.000    0.000    0.000 
#
# Total GULP energy -396708.501254 kJ/mol
# GULP energy per Si atom -12397.140664 kJ/mol
# Density = 2.013359 g / cm^3
# Si number density = 20.179520 Si / 1000 Ang^3
#
#
#
# Elastic Constant Matrix: (Units=GPa)
#
#
# Indices 1 2 3 4 5 6 
#
# 1 125.8189 20.5728 52.6950 0.0000 8.9225 0.0000
# 2 20.5728 22.0096 31.7591 0.0000 6.6323 0.0000
# 3 52.6950 31.7591 97.4308 0.0000 16.8145 0.0000
# 4 0.0000 0.0000 0.0000 9.2576 0.0000 8.7558
# 5 8.9225 6.6323 16.8145 0.0000 33.1475 0.0000
# 6 0.0000 0.0000 0.0000 8.7558 0.0000 19.7469
#
#
#
# Elastic Compliance Matrix: (Units=1/GPa)
#
#
# Indices 1 2 3 4 5 6 
#
# 1 0.010382 -0.003042 -0.004654 0.000000 0.000175 0.000000
# 2 -0.003042 0.086999 -0.026139 0.000000 -0.003329 0.000000
# 3 -0.004654 -0.026139 0.022119 0.000000 -0.004737 0.000000
# 4 0.000000 0.000000 0.000000 0.186037 0.000000 -0.082489
# 5 0.000175 -0.003329 -0.004737 0.000000 0.033190 0.000000
# 6 0.000000 0.000000 0.000000 -0.082489 0.000000 0.087217
#
#
# Mechanical properties :
#
#
# Convention : Reuss Voigt Hill
#
# Bulk Modulus (GPa) = 19.29370 50.59035 34.94203
# Shear Modulus (GPa) = 9.78686 21.77923 15.78305
#
# Velocity S-wave (km/s) = 2.20464 3.28879 2.79970
# Velocity P-wave (km/s) = 4.00779 6.28857 5.27297
#
# Compressibility (1/GPa) = 0.05183038
#
# Stress axis : x y z
#
# Youngs Moduli (GPa) = 96.32119 11.49442 45.21085
#
# Poissons Ratio (x) = 0.03496 0.21040
# Poissons Ratio (y) = 0.29299 1.18177
# Poissons Ratio (z) = 0.44824 0.30045
#
# Static dielectric constant tensor:
#      x y z
#    x 3.939570 0.000000 0.218990 
#    y 0.000000 3.303070 0.000000 
#    z 0.218990 0.000000 3.797200 
# 
# 
# High freq. dielectric constant tensor:
#      x y z
#    x 1.803970 0.000000 0.007260 
#    y 0.000000 1.748400 0.000000 
#    z 0.007260 0.000000 1.795090 
# 
# From -- ./inp_files/71492.got.cif
#   From: 2010.06.25/outbox.cif.g09.slc.cpg/sg10_36_cif.got.tgz:71492.got - 2010.06.27 22:07:45.
