data_PCOD8063435
_publ_section_title
;
Structure prediction by ZEFSAII (Michael W. Deem and Ramdas Pophale) SiO2 
 PCOD8063435
Probable space group: P 2/M
;
_chemical_formula_sum "Si O2"
_cell_formula_units_Z 32
_cell_length_a 9.877885
_cell_length_b 14.331218
_cell_length_c 19.947649
_cell_angle_alpha 90.000000
_cell_angle_beta 44.509583
_cell_angle_gamma 90.000000
_cell_volume 1979.586533
_symmetry_space_group_name_H-M "P 2/M"
_symmetry_group_IT_number 10
_symmetry_cell_setting 'monoclinic'
loop_
_space_group_symop_operation_xyz
x,y,z
-x,y,-z
-x,-y,-z
x,-y,z
loop_
_atom_site_type_symbol
_atom_site_label
_atom_site_fract_x
_atom_site_fract_y
_atom_site_fract_z
Si Si1 0.342723 0.708559 0.279303
Si Si2 0.797851 0.609487 0.309496
Si Si3 0.981942 0.389847 0.109674
Si Si4 0.056998 0.609465 0.595773
Si Si5 0.173112 0.897867 0.347587
Si Si6 0.414922 0.291626 0.406403
Si Si7 0.252582 0.897902 0.476219
Si Si8 0.310790 0.610415 0.900598
O O1 0.296641 0.814326 0.271040
O O2 0.444747 0.706450 0.315915
O O3 0.485520 0.663811 0.173976
O O4 0.148323 0.649371 0.352834
O O5 0.754661 0.500000 0.317113
O O6 0.936155 0.646520 0.200608
O O7 0.904955 0.633544 0.340108
O O8 0.593099 0.660922 0.380797
O O9 0.979768 0.500000 0.108316
O O10 0.816336 0.355568 0.117581
O O11 0.194921 0.358483 0.008931
O O12 0.058113 0.500000 0.582160
O O13 0.218582 0.654385 0.491951
O O14 0.200734 0.893006 0.416883
O O15 0.945826 0.883345 0.412049
O O16 0.240495 0.000000 0.296610
O O17 0.401665 0.185373 0.439515
O O18 0.342621 0.000000 0.461974
O O19 0.351380 0.500000 0.884689
#
# Coordination Sequence:
#
# PCOD8063435 Si02
#       8
#     4   4   4   4   4   4   4   4
#     4  11  19  29  47  73  93 115 151 196 233 260
#     4  10  20  34  47  61  90 132 164 181 215 275
#     4   8  15  30  48  65  86 119 156 190 225 262
#     4  11  23  32  40  63 100 129 152 185 223 266
#     4   8  14  26  43  64  92 119 144 182 231 276
#     4  11  19  30  48  67  89 126 160 184 219 266
#     4   8  14  26  44  65  88 115 150 192 228 259
#     4   9  16  27  47  72  93 111 147 197 230 260
#
# _framework density 16.164992000000002
#
# number of rings (size 3 to 8) (size 9 to 14) (size 15 to 20)
#    0.000    2.500    2.500    3.000    0.000    3.000 
#    0.000    0.625    0.000    5.250    0.000    2.625 
#    0.000    1.000    0.000    0.000    0.000    0.000 
#
# Total GULP energy -396604.394174 kJ/mol
# GULP energy per Si atom -12393.887318 kJ/mol
# Density = 1.612820 g / cm^3
# Si number density = 16.164992 Si / 1000 Ang^3
#
#
#
# Elastic Constant Matrix: (Units=GPa)
#
#
# Indices 1 2 3 4 5 6 
#
# 1 25.2028 19.3088 6.3658 0.0000 1.7425 0.0000
# 2 19.3088 90.1909 39.4695 0.0000 -11.2725 0.0000
# 3 6.3658 39.4695 92.8506 0.0000 -7.2317 0.0000
# 4 0.0000 0.0000 0.0000 7.2413 0.0000 -0.8254
# 5 1.7425 -11.2725 -7.2317 0.0000 13.1409 0.0000
# 6 0.0000 0.0000 0.0000 -0.8254 0.0000 11.3023
#
#
#
# Elastic Compliance Matrix: (Units=1/GPa)
#
#
# Indices 1 2 3 4 5 6 
#
# 1 0.051084 -0.013555 0.000863 0.000000 -0.017927 0.000000
# 2 -0.013555 0.018288 -0.005728 0.000000 0.014333 0.000000
# 3 0.000863 -0.005728 0.013325 0.000000 0.002305 0.000000
# 4 0.000000 0.000000 0.000000 0.139256 0.000000 0.010170
# 5 -0.017927 0.014333 0.002305 0.000000 0.092038 0.000000
# 6 0.000000 0.000000 0.000000 0.010170 0.000000 0.089221
#
#
# Mechanical properties :
#
#
# Convention : Reuss Voigt Hill
#
# Bulk Modulus (GPa) = 21.80642 37.61470 29.71056
# Shear Modulus (GPa) = 10.98087 15.87692 13.42889
#
# Velocity S-wave (km/s) = 2.60916 3.13737 2.88538
# Velocity P-wave (km/s) = 4.75354 6.03688 5.43323
#
# Compressibility (1/GPa) = 0.04585806
#
# Stress axis : x y z
#
# Youngs Moduli (GPa) = 19.57541 54.68153 75.04528
#
# Poissons Ratio (x) = 0.74121 -0.06480
# Poissons Ratio (y) = 0.26534 0.42988
# Poissons Ratio (z) = -0.01690 0.31323
#
# Static dielectric constant tensor:
#      x y z
#    x 2.806200 0.000000 0.032830 
#    y 0.000000 3.245080 0.000000 
#    z 0.032830 0.000000 3.228360 
# 
# 
# High freq. dielectric constant tensor:
#      x y z
#    x 1.593320 0.000000 -0.006880 
#    y 0.000000 1.609710 0.000000 
#    z -0.006880 0.000000 1.608800 
# 
# From -- ./inp_files/29052.got.cif
#   From: 2010.06.25/outbox.cif.g09.slc.cpg/sg10_15_cif.got.tgz:29052.got - 2010.06.27 22:07:45.
