data_PCOD8063432
_publ_section_title
;
Structure prediction by ZEFSAII (Michael W. Deem and Ramdas Pophale) SiO2 
 PCOD8063432
Probable space group: P 2/M
;
_chemical_formula_sum "Si O2"
_cell_formula_units_Z 28
_cell_length_a 11.917950
_cell_length_b 8.875725
_cell_length_c 14.233468
_cell_angle_alpha 90.000000
_cell_angle_beta 106.587419
_cell_angle_gamma 90.000000
_cell_volume 1442.966545
_symmetry_space_group_name_H-M "P 2/M"
_symmetry_group_IT_number 10
_symmetry_cell_setting 'monoclinic'
loop_
_space_group_symop_operation_xyz
x,y,z
-x,y,-z
-x,-y,-z
x,-y,z
loop_
_atom_site_type_symbol
_atom_site_label
_atom_site_fract_x
_atom_site_fract_y
_atom_site_fract_z
Si Si1 0.385042 0.179235 0.418352
Si Si2 0.656669 0.323126 0.792806
Si Si3 0.216350 0.174941 0.858956
Si Si4 0.922394 0.820695 0.347801
Si Si5 0.833846 0.820744 0.521059
Si Si6 0.521496 0.172844 0.112084
Si Si7 0.866339 0.322289 0.973568
O O1 0.500000 0.236878 0.500000
O O2 0.371259 0.240894 0.310697
O O3 0.280308 0.245032 0.456651
O O4 0.384129 0.000000 0.410982
O O5 0.652433 0.500000 0.774516
O O6 0.554403 0.280322 0.840605
O O7 0.785428 0.275865 0.864551
O O8 0.123488 0.241851 0.762187
O O9 0.341047 0.199123 0.838232
O O10 0.196109 0.000000 0.877108
O O11 0.201640 0.262537 0.951979
O O12 0.842889 0.762289 0.415930
O O13 0.054437 0.763239 0.393091
O O14 0.916155 0.000000 0.345144
O O15 0.831250 0.000000 0.521018
O O16 0.484859 0.000000 0.123270
O O17 0.500000 0.217291 0.000000
O O18 0.872804 0.500000 0.984001
O O19 0.000000 0.256672 0.000000
#
# Coordination Sequence:
#
# PCOD8063432 Si02
#       7
#     4   4   4   4   4   4   4
#     4  10  22  37  58  85 113 147 187 233 286 337
#     4  11  24  40  59  81 111 154 195 234 282 338
#     4  10  20  33  57  88 112 141 182 235 286 330
#     4   8  15  28  50  79 109 138 174 222 274 328
#     4   8  15  30  50  76 109 142 176 219 274 332
#     4  10  20  36  57  83 114 142 180 235 287 332
#     4  10  23  41  57  78 114 157 193 228 279 341
#
# _framework density 19.40447
#
# number of rings (size 3 to 8) (size 9 to 14) (size 15 to 20)
#    0.000    2.429    1.429    1.286    4.000    2.000 
#    0.000    0.000    0.000    0.000    0.000    2.000 
#    0.000    0.000    0.000    0.000    0.000    0.000 
#
# Total GULP energy -347067.577501 kJ/mol
# GULP energy per Si atom -12395.270625 kJ/mol
# Density = 1.936030 g / cm^3
# Si number density = 19.404470 Si / 1000 Ang^3
#
#
#
# Elastic Constant Matrix: (Units=GPa)
#
#
# Indices 1 2 3 4 5 6 
#
# 1 130.0981 20.6869 65.5164 0.0000 1.3650 0.0000
# 2 20.6869 18.4545 28.8481 0.0000 2.2871 0.0000
# 3 65.5164 28.8481 142.0822 0.0000 20.3723 0.0000
# 4 0.0000 0.0000 0.0000 11.4380 0.0000 1.1067
# 5 1.3650 2.2871 20.3723 0.0000 24.5571 0.0000
# 6 0.0000 0.0000 0.0000 1.1067 0.0000 15.1929
#
#
#
# Elastic Compliance Matrix: (Units=1/GPa)
#
#
# Indices 1 2 3 4 5 6 
#
# 1 0.010718 -0.005772 -0.004270 0.000000 0.003484 0.000000
# 2 -0.005772 0.083499 -0.015008 0.000000 0.004995 0.000000
# 3 -0.004270 -0.015008 0.013416 0.000000 -0.009494 0.000000
# 4 0.000000 0.000000 0.000000 0.088048 0.000000 -0.006414
# 5 0.003484 0.004995 -0.009494 0.000000 0.047939 0.000000
# 6 0.000000 0.000000 0.000000 -0.006414 0.000000 0.066287
#
#
# Mechanical properties :
#
#
# Convention : Reuss Voigt Hill
#
# Bulk Modulus (GPa) = 17.38126 57.85974 37.62050
# Shear Modulus (GPa) = 13.18617 21.94317 17.56467
#
# Velocity S-wave (km/s) = 2.60963 3.36643 3.01190
# Velocity P-wave (km/s) = 4.24936 6.70768 5.61471
#
# Compressibility (1/GPa) = 0.05753322
#
# Stress axis : x y z
#
# Youngs Moduli (GPa) = 93.30095 11.97616 74.53933
#
# Poissons Ratio (x) = 0.06912 0.31828
# Poissons Ratio (y) = 0.53849 1.11871
# Poissons Ratio (z) = 0.39839 0.17974
#
# Static dielectric constant tensor:
#      x y z
#    x 3.938320 0.000000 0.166560 
#    y 0.000000 3.103860 0.000000 
#    z 0.166560 0.000000 3.789400 
# 
# 
# High freq. dielectric constant tensor:
#      x y z
#    x 1.765980 0.000000 0.007130 
#    y 0.000000 1.710380 0.000000 
#    z 0.007130 0.000000 1.767900 
# 
# From -- ./inp_files/49411.got.cif
#   From: 2010.06.25/outbox.cif.g09.slc.cpg/sg10_25_cif.got.tgz:49411.got - 2010.06.27 22:07:45.
