data_PCOD8063966
_publ_section_title
;
Structure prediction by ZEFSAII (Michael W. Deem and Ramdas Pophale) SiO2 
 PCOD8063966
Probable space group: P 2/M
;
_chemical_formula_sum "Si O2"
_cell_formula_units_Z 16
_cell_length_a 5.224654
_cell_length_b 15.316461
_cell_length_c 10.703253
_cell_angle_alpha 90.000000
_cell_angle_beta 77.881003
_cell_angle_gamma 90.000000
_cell_volume 837.420230
_symmetry_space_group_name_H-M "P 2/M"
_symmetry_group_IT_number 10
_symmetry_cell_setting 'monoclinic'
loop_
_space_group_symop_operation_xyz
x,y,z
-x,y,-z
-x,-y,-z
x,-y,z
loop_
_atom_site_type_symbol
_atom_site_label
_atom_site_fract_x
_atom_site_fract_y
_atom_site_fract_z
Si Si1 0.949701 0.750543 0.229321
Si Si2 0.661460 0.598033 0.358833
Si Si3 0.779381 0.099605 0.419222
Si Si4 0.501863 0.680944 0.862518
O O1 0.892098 0.670111 0.332119
O O2 0.867975 0.843254 0.293318
O O3 0.767433 0.736240 0.125571
O O4 0.256001 0.748530 0.167391
O O5 0.500000 0.615568 0.500000
O O6 0.778137 0.500000 0.347084
O O7 0.481564 0.609932 0.251594
O O8 0.500000 0.133265 0.500000
O O9 0.000000 0.109713 0.500000
O O10 0.752432 0.000000 0.375888
O O11 0.500000 0.635535 0.000000
#
# Coordination Sequence:
#
# PCOD8063966 Si02
#       4
#     4   4   4   4
#     4  10  21  35  60  80 114 149 185 232 286 322
#     4   9  21  37  57  87 114 146 187 233 286 336
#     4  10  20  34  57  89 119 146 184 232 284 340
#     4  10  22  38  57  80 111 156 194 228 274 333
#
# _framework density 19.106299
#
# number of rings (size 3 to 8) (size 9 to 14) (size 15 to 20)
#    1.500    0.750    0.000    3.000    3.500    1.500 
#    0.000    3.750    0.000    4.500    0.000    0.000 
#    0.000    0.000    0.000    0.000    0.000    0.000 
#
# Total GULP energy -198210.232475 kJ/mol
# GULP energy per Si atom -12388.139530 kJ/mol
# Density = 1.906281 g / cm^3
# Si number density = 19.106299 Si / 1000 Ang^3
#
#
#
# Elastic Constant Matrix: (Units=GPa)
#
#
# Indices 1 2 3 4 5 6 
#
# 1 102.7505 8.3097 4.4821 0.0000 0.9808 0.0000
# 2 8.3097 66.8264 22.8684 0.0000 0.7291 0.0000
# 3 4.4821 22.8684 112.8422 0.0000 8.6079 0.0000
# 4 0.0000 0.0000 0.0000 9.9030 0.0000 8.9352
# 5 0.9808 0.7291 8.6079 0.0000 21.1217 0.0000
# 6 0.0000 0.0000 0.0000 8.9352 0.0000 25.1224
#
#
#
# Elastic Compliance Matrix: (Units=1/GPa)
#
#
# Indices 1 2 3 4 5 6 
#
# 1 0.009836 -0.001177 -0.000124 0.000000 -0.000365 0.000000
# 2 -0.001177 0.016233 -0.003307 0.000000 0.000842 0.000000
# 3 -0.000124 -0.003307 0.009834 0.000000 -0.003888 0.000000
# 4 0.000000 0.000000 0.000000 0.148697 0.000000 -0.052887
# 5 -0.000365 0.000842 -0.003888 0.000000 0.048917 0.000000
# 6 0.000000 0.000000 0.000000 -0.052887 0.000000 0.058615
#
#
# Mechanical properties :
#
#
# Convention : Reuss Voigt Hill
#
# Bulk Modulus (GPa) = 37.47196 39.30442 38.38819
# Shear Modulus (GPa) = 16.11634 27.68002 21.89818
#
# Velocity S-wave (km/s) = 2.90747 3.81036 3.38912
# Velocity P-wave (km/s) = 5.56113 6.32254 5.95402
#
# Compressibility (1/GPa) = 0.02668662
#
# Stress axis : x y z
#
# Youngs Moduli (GPa) = 101.66342 61.60280 101.69137
#
# Poissons Ratio (x) = 0.07248 0.01265
# Poissons Ratio (y) = 0.11962 0.33632
# Poissons Ratio (z) = 0.01265 0.20374
#
# Static dielectric constant tensor:
#      x y z
#    x 3.432920 0.000000 0.019040 
#    y 0.000000 3.304650 0.000000 
#    z 0.019040 0.000000 3.311890 
# 
# 
# High freq. dielectric constant tensor:
#      x y z
#    x 1.748160 0.000000 0.004020 
#    y 0.000000 1.719930 0.000000 
#    z 0.004020 0.000000 1.731200 
# 
# From -- ./inp_files/3696.got.cif
#   From: 2010.06.25/outbox.cif.g09.slc.cpg/sg10_2_cif.got.tgz:3696.got - 2010.06.27 22:07:45.
