data_PCOD8063553
_publ_section_title
;
Structure prediction by ZEFSAII (Michael W. Deem and Ramdas Pophale) SiO2 
 PCOD8063553
Probable space group: P 2/M
;
_chemical_formula_sum "Si O2"
_cell_formula_units_Z 32
_cell_length_a 8.437366
_cell_length_b 14.066612
_cell_length_c 16.140494
_cell_angle_alpha 90.000000
_cell_angle_beta 59.248604
_cell_angle_gamma 90.000000
_cell_volume 1646.286867
_symmetry_space_group_name_H-M "P 2/M"
_symmetry_group_IT_number 10
_symmetry_cell_setting 'monoclinic'
loop_
_space_group_symop_operation_xyz
x,y,z
-x,y,-z
-x,-y,-z
x,-y,z
loop_
_atom_site_type_symbol
_atom_site_label
_atom_site_fract_x
_atom_site_fract_y
_atom_site_fract_z
Si Si1 0.875095 0.109560 0.111443
Si Si2 0.213866 0.388478 0.423281
Si Si3 0.165224 0.395980 0.893223
Si Si4 0.484133 0.234895 0.410886
Si Si5 0.517822 0.394092 0.898372
Si Si6 0.120315 0.259074 0.758349
Si Si7 0.455127 0.889380 0.261835
Si Si8 0.783269 0.272306 0.741178
O O1 0.929624 0.160017 0.182742
O O2 0.653337 0.126820 0.162859
O O3 0.922577 0.000000 0.110795
O O4 0.000000 0.148233 0.000000
O O5 0.270851 0.500000 0.414943
O O6 0.336401 0.321773 0.450763
O O7 0.250632 0.347637 0.322653
O O8 0.000000 0.374580 0.500000
O O9 0.217827 0.500000 0.846024
O O10 0.340950 0.352424 0.895208
O O11 0.092394 0.338309 0.834850
O O12 0.000000 0.402521 0.000000
O O13 0.500000 0.194615 0.500000
O O14 0.676305 0.276351 0.329050
O O15 0.441436 0.147183 0.360599
O O16 0.563452 0.500000 0.852544
O O17 0.680857 0.319134 0.845564
O O18 0.500000 0.400808 0.000000
O O19 0.995521 0.265303 0.709978
O O20 0.298691 0.831958 0.254268
O O21 0.402924 0.000000 0.275527
#
# Coordination Sequence:
#
# PCOD8063553 Si02
#       8
#     4   4   4   4   4   4   4   4
#     4   9  18  35  57  79 106 140 179 225 276 328
#     4  10  21  38  59  82 111 145 179 220 272 327
#     4  10  20  34  52  75 105 141 182 225 266 314
#     4  10  21  38  59  83 110 139 179 226 273 326
#     4  10  20  34  52  76 108 145 184 224 268 320
#     4  11  22  34  54  80 108 144 181 223 269 321
#     4   9  20  38  59  82 108 143 183 226 278 331
#     4  11  22  35  54  78 110 145 181 225 270 323
#
# _framework density 19.437681000000001
#
# number of rings (size 3 to 8) (size 9 to 14) (size 15 to 20)
#    0.000    2.000    0.000    4.500    0.000    5.500 
#    0.000    0.000    0.000   15.375    0.000    0.000 
#    0.000    0.000    0.000    0.000    0.000    0.000 
#
# Total GULP energy -396537.902466 kJ/mol
# GULP energy per Si atom -12391.809452 kJ/mol
# Density = 1.939344 g / cm^3
# Si number density = 19.437681 Si / 1000 Ang^3
#
#
#
# Elastic Constant Matrix: (Units=GPa)
#
#
# Indices 1 2 3 4 5 6 
#
# 1 96.7528 42.8533 21.5949 0.0000 6.2261 0.0000
# 2 42.8533 113.8991 39.0702 0.0000 -1.6497 0.0000
# 3 21.5949 39.0702 78.7736 0.0000 0.2014 0.0000
# 4 0.0000 0.0000 0.0000 -58.4252 0.0000 -100.5056
# 5 6.2261 -1.6497 0.2014 0.0000 29.5449 0.0000
# 6 0.0000 0.0000 0.0000 -100.5056 0.0000 -81.0795
#
#
#
# Elastic Compliance Matrix: (Units=1/GPa)
#
#
# Indices 1 2 3 4 5 6 
#
# 1 0.012763 -0.004394 -0.001312 0.000000 -0.002926 0.000000
# 2 -0.004394 0.012104 -0.004803 0.000000 0.001635 0.000000
# 3 -0.001312 -0.004803 0.015437 0.000000 -0.000097 0.000000
# 4 0.000000 0.000000 0.000000 0.015115 0.000000 -0.018736
# 5 -0.002926 0.001635 -0.000097 0.000000 0.034555 0.000000
# 6 0.000000 0.000000 0.000000 -0.018736 0.000000 0.010891
#
#
# Mechanical properties :
#
#
# Convention : Reuss Voigt Hill
#
# Bulk Modulus (GPa) = 51.85220 55.16247 53.50733
# Shear Modulus (GPa) = 38.96745 -9.59813 14.68466
#
# Velocity S-wave (km/s) = 4.48229 -2.22455 2.75157
# Velocity P-wave (km/s) = 7.31587 4.67361 6.13859
#
# Compressibility (1/GPa) = 0.01928559
#
# Stress axis : x y z
#
# Youngs Moduli (GPa) = 78.35142 82.61577 64.78079
#
# Poissons Ratio (x) = 0.36304 0.08498
# Poissons Ratio (y) = 0.34430 0.31114
# Poissons Ratio (z) = 0.10279 0.39680
#
# Static dielectric constant tensor:
#      x y z
#    x 5.524420 0.000000 1.539930 
#    y 0.000000 3.618740 0.000000 
#    z 1.539930 0.000000 4.925550 
# 
# 
# High freq. dielectric constant tensor:
#      x y z
#    x 1.753440 0.000000 -0.006420 
#    y 0.000000 1.756350 0.000000 
#    z -0.006420 0.000000 1.757640 
# 
# From -- ./inp_files/61840.got.cif
#   From: 2010.06.25/outbox.cif.g09.slc.cpg/sg10_31_cif.got.tgz:61840.got - 2010.06.27 22:07:45.
