data_PCOD8063055
_publ_section_title
;
Structure prediction by ZEFSAII (Michael W. Deem and Ramdas Pophale) SiO2 
 PCOD8063055
Probable space group: P 2/M
;
_chemical_formula_sum "Si O2"
_cell_formula_units_Z 32
_cell_length_a 14.495239
_cell_length_b 8.867291
_cell_length_c 28.409178
_cell_angle_alpha 90.000000
_cell_angle_beta 151.197600
_cell_angle_gamma 90.000000
_cell_volume 1759.272580
_symmetry_space_group_name_H-M "P 2/M"
_symmetry_group_IT_number 10
_symmetry_cell_setting 'monoclinic'
loop_
_space_group_symop_operation_xyz
x,y,z
-x,y,-z
-x,-y,-z
x,-y,z
loop_
_atom_site_type_symbol
_atom_site_label
_atom_site_fract_x
_atom_site_fract_y
_atom_site_fract_z
Si Si1 0.594748 0.178392 0.994146
Si Si2 0.616329 0.678235 0.684054
Si Si3 0.069756 0.327511 0.309368
Si Si4 0.395970 0.829786 0.502924
Si Si5 0.970376 0.178445 0.806752
Si Si6 0.878995 0.679467 0.376687
Si Si7 0.697700 0.328249 0.200173
Si Si8 0.273921 0.678865 0.593334
O O1 0.487486 0.237431 0.899804
O O2 0.582999 0.000000 0.989415
O O3 0.500000 0.242512 0.000000
O O4 0.813724 0.233905 0.087396
O O5 0.642306 0.500000 0.696742
O O6 0.520289 0.727923 0.592751
O O7 0.477996 0.735560 0.664555
O O8 0.826826 0.754218 0.782209
O O9 0.135988 0.500000 0.331841
O O10 0.190859 0.250103 0.405114
O O11 0.100197 0.236798 0.275145
O O12 0.850106 0.318445 0.226388
O O13 0.500000 0.832214 0.500000
O O14 0.371141 0.000000 0.511469
O O15 0.953609 0.000000 0.799514
O O16 0.885583 0.500000 0.375439
O O17 0.784100 0.745310 0.286664
O O18 0.750072 0.732603 0.363472
O O19 0.096576 0.740009 0.481971
O O20 0.635750 0.500000 0.181933
O O21 0.264753 0.500000 0.587339
#
# Coordination Sequence:
#
# PCOD8063055 Si02
#       8
#     4   4   4   4   4   4   4   4
#     4  10  21  37  54  71  98 139 181 216 257 313
#     4  11  21  33  52  77 103 134 173 216 259 301
#     4  11  21  32  49  75 103 132 168 212 255 299
#     4  11  22  33  46  67 100 141 176 202 241 300
#     4  11  22  36  51  69  98 138 177 209 252 310
#     4   8  14  29  52  80 109 136 164 203 257 312
#     4  10  20  32  53  82 107 129 166 219 268 307
#     4   8  15  29  52  79 109 138 166 202 252 313
#
# _framework density 18.189337999999999
#
# number of rings (size 3 to 8) (size 9 to 14) (size 15 to 20)
#    0.000    2.000    2.500    3.000    0.000    4.250 
#    0.000    0.000    0.000    2.250    0.000   10.500 
#    0.000    0.000    0.000    0.000    0.000    0.000 
#
# Total GULP energy -396717.376277 kJ/mol
# GULP energy per Si atom -12397.418009 kJ/mol
# Density = 1.814794 g / cm^3
# Si number density = 18.189338 Si / 1000 Ang^3
#
#
#
# Elastic Constant Matrix: (Units=GPa)
#
#
# Indices 1 2 3 4 5 6 
#
# 1 110.6577 24.3171 52.7925 0.0000 17.1016 0.0000
# 2 24.3171 43.9010 23.1672 0.0000 12.6347 0.0000
# 3 52.7925 23.1672 109.9017 0.0000 15.6613 0.0000
# 4 0.0000 0.0000 0.0000 23.1795 0.0000 10.3287
# 5 17.1016 12.6347 15.6613 0.0000 31.8901 0.0000
# 6 0.0000 0.0000 0.0000 10.3287 0.0000 9.4923
#
#
#
# Elastic Compliance Matrix: (Units=1/GPa)
#
#
# Indices 1 2 3 4 5 6 
#
# 1 0.012605 -0.003554 -0.004885 0.000000 -0.002952 0.000000
# 2 -0.003554 0.028718 -0.003222 0.000000 -0.007890 0.000000
# 3 -0.004885 -0.003222 0.012440 0.000000 -0.002213 0.000000
# 4 0.000000 0.000000 0.000000 0.083747 0.000000 -0.091125
# 5 -0.002952 -0.007890 -0.002213 0.000000 0.037154 0.000000
# 6 0.000000 0.000000 0.000000 -0.091125 0.000000 0.204502
#
#
# Mechanical properties :
#
#
# Convention : Reuss Voigt Hill
#
# Bulk Modulus (GPa) = 32.85105 51.66822 42.25963
# Shear Modulus (GPa) = 12.11725 23.85798 17.98761
#
# Velocity S-wave (km/s) = 2.58383 3.62559 3.14811
# Velocity P-wave (km/s) = 5.19629 6.78189 6.04133
#
# Compressibility (1/GPa) = 0.03044043
#
# Stress axis : x y z
#
# Youngs Moduli (GPa) = 79.33570 34.82106 80.38499
#
# Poissons Ratio (x) = 0.12377 0.39267
# Poissons Ratio (y) = 0.28199 0.25901
# Poissons Ratio (z) = 0.38754 0.11220
#
# Static dielectric constant tensor:
#      x y z
#    x 3.579680 0.000000 0.180310 
#    y 0.000000 3.202240 0.000000 
#    z 0.180310 0.000000 3.419300 
# 
# 
# High freq. dielectric constant tensor:
#      x y z
#    x 1.695860 0.000000 0.015020 
#    y 0.000000 1.684390 0.000000 
#    z 0.015020 0.000000 1.693970 
# 
# From -- ./inp_files/66207.got.cif
#   From: 2010.06.25/outbox.cif.g09.slc.cpg/sg10_34_cif.got.tgz:66207.got - 2010.06.27 22:07:45.
