data_PCOD8063021
_publ_section_title
;
Structure prediction by ZEFSAII (Michael W. Deem and Ramdas Pophale) SiO2 
 PCOD8063021
Probable space group: P 2/M
;
_chemical_formula_sum "Si O2"
_cell_formula_units_Z 32
_cell_length_a 17.033828
_cell_length_b 14.265214
_cell_length_c 11.004831
_cell_angle_alpha 90.000000
_cell_angle_beta 146.262862
_cell_angle_gamma 90.000000
_cell_volume 1485.138484
_symmetry_space_group_name_H-M "P 2/M"
_symmetry_group_IT_number 10
_symmetry_cell_setting 'monoclinic'
loop_
_space_group_symop_operation_xyz
x,y,z
-x,y,-z
-x,-y,-z
x,-y,z
loop_
_atom_site_type_symbol
_atom_site_label
_atom_site_fract_x
_atom_site_fract_y
_atom_site_fract_z
Si Si1 0.456810 0.606756 0.316056
Si Si2 0.151198 0.330588 0.927828
Si Si3 0.415957 0.889473 0.515642
Si Si4 0.851248 0.790757 0.280583
Si Si5 0.154549 0.244391 0.185215
Si Si6 0.568004 0.110743 0.961217
Si Si7 0.712944 0.392977 0.489050
Si Si8 0.136028 0.603674 0.551102
O O1 0.500000 0.658277 0.500000
O O2 0.495027 0.500000 0.383195
O O3 0.558653 0.642560 0.337489
O O4 0.294549 0.617628 0.069507
O O5 0.155256 0.226436 0.872161
O O6 0.010852 0.387841 0.712723
O O7 0.162064 0.315910 0.083798
O O8 0.500000 0.863144 0.500000
O O9 0.265007 0.839899 0.318492
O O10 0.495385 0.854496 0.741748
O O11 0.389645 0.000000 0.487895
O O12 0.850463 0.684040 0.331504
O O13 0.000000 0.841861 0.500000
O O14 0.728456 0.854745 0.173140
O O15 0.175532 0.315181 0.323832
O O16 0.000000 0.197390 0.000000
O O17 0.568532 0.000000 0.962532
O O18 0.500000 0.148576 0.000000
O O19 0.746894 0.500000 0.576787
O O20 0.727965 0.388961 0.362714
O O21 0.137240 0.500000 0.614175
#
# Coordination Sequence:
#
# PCOD8063021 Si02
#       8
#     4   4   4   4   4   4   4   4
#     4  10  20  32  50  79 113 150 200 252 300 347
#     4  11  22  36  56  89 118 162 208 254 302 366
#     4  10  24  45  69  96 129 167 205 254 325 390
#     4  10  24  39  61  90 122 159 210 256 311 363
#     4  12  24  37  63  94 126 163 208 254 313 366
#     4  10  23  43  69  96 122 162 210 257 317 382
#     4  10  22  37  55  84 122 161 203 250 303 362
#     4  10  22  41  59  81 124 171 211 251 305 371
#
# _framework density 21.546811000000002
#
# number of rings (size 3 to 8) (size 9 to 14) (size 15 to 20)
#    0.000    1.625    2.500    1.125    5.250    4.000 
#    0.000    0.000    0.000    7.875    0.000    0.000 
#    0.000    0.000    0.000    0.000    0.000    0.000 
#
# Total GULP energy -396532.654854 kJ/mol
# GULP energy per Si atom -12391.645464 kJ/mol
# Density = 2.149777 g / cm^3
# Si number density = 21.546811 Si / 1000 Ang^3
#
#
#
# Elastic Constant Matrix: (Units=GPa)
#
#
# Indices 1 2 3 4 5 6 
#
# 1 127.0541 13.9334 41.8558 0.0000 18.5141 0.0000
# 2 13.9334 31.5555 19.9819 0.0000 8.1707 0.0000
# 3 41.8558 19.9819 92.6978 0.0000 21.4897 0.0000
# 4 0.0000 0.0000 0.0000 20.4918 0.0000 3.2141
# 5 18.5141 8.1707 21.4897 0.0000 43.5281 0.0000
# 6 0.0000 0.0000 0.0000 3.2141 0.0000 7.8215
#
#
#
# Elastic Compliance Matrix: (Units=1/GPa)
#
#
# Indices 1 2 3 4 5 6 
#
# 1 0.009477 -0.001444 -0.003497 0.000000 -0.002034 0.000000
# 2 -0.001444 0.037363 -0.006683 0.000000 -0.003100 0.000000
# 3 -0.003497 -0.006683 0.014874 0.000000 -0.004601 0.000000
# 4 0.000000 0.000000 0.000000 0.052162 0.000000 -0.021435
# 5 -0.002034 -0.003100 -0.004601 0.000000 0.026692 0.000000
# 6 0.000000 0.000000 0.000000 -0.021435 0.000000 0.136660
#
#
# Mechanical properties :
#
#
# Convention : Reuss Voigt Hill
#
# Bulk Modulus (GPa) = 25.99692 44.76105 35.37899
# Shear Modulus (GPa) = 15.95926 26.07072 21.01499
#
# Velocity S-wave (km/s) = 2.72449 3.48222 3.12640
# Velocity P-wave (km/s) = 4.68921 6.08167 5.43026
#
# Compressibility (1/GPa) = 0.03846609
#
# Stress axis : x y z
#
# Youngs Moduli (GPa) = 105.51595 26.76480 67.23185
#
# Poissons Ratio (x) = 0.03865 0.23508
# Poissons Ratio (y) = 0.15237 0.44933
# Poissons Ratio (z) = 0.36894 0.17888
#
# Static dielectric constant tensor:
#      x y z
#    x 4.313560 0.000000 0.064030 
#    y 0.000000 3.569390 0.000000 
#    z 0.064030 0.000000 3.919450 
# 
# 
# High freq. dielectric constant tensor:
#      x y z
#    x 1.867590 0.000000 0.006670 
#    y 0.000000 1.825360 0.000000 
#    z 0.006670 0.000000 1.838930 
# 
# From -- ./inp_files/54042.got.cif
#   From: 2010.06.25/outbox.cif.g09.slc.cpg/sg10_28_cif.got.tgz:54042.got - 2010.06.27 22:07:45.
