data_PCOD8063307
_publ_section_title
;
Structure prediction by ZEFSAII (Michael W. Deem and Ramdas Pophale) SiO2 
 PCOD8063307
Probable space group: P 2/M
;
_chemical_formula_sum "Si O2"
_cell_formula_units_Z 28
_cell_length_a 14.128352
_cell_length_b 12.465353
_cell_length_c 9.426699
_cell_angle_alpha 90.000000
_cell_angle_beta 63.197489
_cell_angle_gamma 90.000000
_cell_volume 1481.822196
_symmetry_space_group_name_H-M "P 2/M"
_symmetry_group_IT_number 10
_symmetry_cell_setting 'monoclinic'
loop_
_space_group_symop_operation_xyz
x,y,z
-x,y,-z
-x,-y,-z
x,-y,z
loop_
_atom_site_type_symbol
_atom_site_label
_atom_site_fract_x
_atom_site_fract_y
_atom_site_fract_z
Si Si1 0.674266 0.878018 0.230997
Si Si2 0.898492 0.126961 0.976140
Si Si3 0.882936 0.500000 0.937119
Si Si4 0.293627 0.877627 0.478339
Si Si5 0.139595 0.695420 0.540160
Si Si6 0.106926 0.300102 0.247803
Si Si7 0.135953 0.500000 0.731939
Si Si8 0.511707 0.871905 0.832755
O O1 0.793754 0.834510 0.130713
O O2 0.642710 0.868320 0.416651
O O3 0.584818 0.820975 0.194265
O O4 0.677289 0.000000 0.177376
O O5 0.907292 0.000000 0.944059
O O6 0.887799 0.183651 0.830371
O O7 0.000000 0.167634 0.000000
O O8 0.844214 0.391871 0.885875
O O9 0.009929 0.500000 0.840842
O O10 0.826051 0.500000 0.130011
O O11 0.186664 0.808445 0.560042
O O12 0.374699 0.833710 0.304664
O O13 0.257622 0.000000 0.474678
O O14 0.171147 0.689402 0.352075
O O15 0.183644 0.600595 0.611245
O O16 0.015298 0.683967 0.636777
O O17 0.509720 0.000000 0.826030
O O18 0.500000 0.828846 0.000000
#
# Coordination Sequence:
#
# PCOD8063307 Si02
#       8
#     4   4   2   4   4   4   2   4
#     4   9  18  32  50  71 102 144 182 218 257 305
#     4  10  21  33  50  77 114 151 178 209 255 322
#     4   9  19  33  57  77  94 136 182 238 259 301
#     4  10  20  33  52  78 108 139 176 216 268 320
#     4  10  21  35  51  77 108 143 172 223 268 315
#     4  10  21  34  52  75 108 141 182 216 266 314
#     4   9  19  35  55  75 101 133 184 222 270 312
#     4   9  18  32  51  74 102 136 180 229 268 306
#
# _framework density 18.895654
#
# number of rings (size 3 to 8) (size 9 to 14) (size 15 to 20)
#    0.000    2.429    0.000    1.714    8.000    5.714 
#    0.000    1.429    0.000    0.000    0.000    3.500 
#    0.000    0.000    0.000    0.000    0.000    0.000 
#
# Total GULP energy -346929.764107 kJ/mol
# GULP energy per Si atom -12390.348718 kJ/mol
# Density = 1.885265 g / cm^3
# Si number density = 18.895654 Si / 1000 Ang^3
#
#
#
# Elastic Constant Matrix: (Units=GPa)
#
#
# Indices 1 2 3 4 5 6 
#
# 1 58.2043 28.4999 27.3673 0.0000 9.8535 0.0000
# 2 28.4999 82.4048 45.8096 0.0000 9.3885 0.0000
# 3 27.3673 45.8096 126.4357 0.0000 22.7097 0.0000
# 4 0.0000 0.0000 0.0000 29.3441 0.0000 3.8935
# 5 9.8535 9.3885 22.7097 0.0000 25.5305 0.0000
# 6 0.0000 0.0000 0.0000 3.8935 0.0000 7.5822
#
#
#
# Elastic Compliance Matrix: (Units=1/GPa)
#
#
# Indices 1 2 3 4 5 6 
#
# 1 0.021720 -0.006051 -0.001670 0.000000 -0.004672 0.000000
# 2 -0.006051 0.016896 -0.004898 0.000000 0.000479 0.000000
# 3 -0.001670 -0.004898 0.011432 0.000000 -0.007724 0.000000
# 4 0.000000 0.000000 0.000000 0.036570 0.000000 -0.018779
# 5 -0.004672 0.000479 -0.007724 0.000000 0.047666 0.000000
# 6 0.000000 0.000000 0.000000 -0.018779 0.000000 0.141531
#
#
# Mechanical properties :
#
#
# Convention : Reuss Voigt Hill
#
# Bulk Modulus (GPa) = 40.30505 52.26648 46.28576
# Shear Modulus (GPa) = 16.16424 23.51589 19.84007
#
# Velocity S-wave (km/s) = 2.92798 3.53159 3.24386
# Velocity P-wave (km/s) = 5.72777 6.65959 6.21118
#
# Compressibility (1/GPa) = 0.02481079
#
# Stress axis : x y z
#
# Youngs Moduli (GPa) = 46.04057 59.18422 87.47018
#
# Poissons Ratio (x) = 0.35815 0.14604
# Poissons Ratio (y) = 0.27861 0.42843
# Poissons Ratio (z) = 0.07687 0.28989
#
# Static dielectric constant tensor:
#      x y z
#    x 3.332500 0.000000 0.163560 
#    y 0.000000 3.201840 0.000000 
#    z 0.163560 0.000000 3.753900 
# 
# 
# High freq. dielectric constant tensor:
#      x y z
#    x 1.705470 0.000000 0.016490 
#    y 0.000000 1.696430 0.000000 
#    z 0.016490 0.000000 1.748580 
# 
# From -- ./inp_files/28260.got.cif
#   From: 2010.06.25/outbox.cif.g09.slc.cpg/sg10_15_cif.got.tgz:28260.got - 2010.06.27 22:07:45.
