data_PCOD8063755
_publ_section_title
;
Structure prediction by ZEFSAII (Michael W. Deem and Ramdas Pophale) SiO2 
 PCOD8063755
Probable space group: P 2/M
;
_chemical_formula_sum "Si O2"
_cell_formula_units_Z 32
_cell_length_a 11.293683
_cell_length_b 12.655745
_cell_length_c 12.820848
_cell_angle_alpha 90.000000
_cell_angle_beta 63.514606
_cell_angle_gamma 90.000000
_cell_volume 1640.160789
_symmetry_space_group_name_H-M "P 2/M"
_symmetry_group_IT_number 10
_symmetry_cell_setting 'monoclinic'
loop_
_space_group_symop_operation_xyz
x,y,z
-x,y,-z
-x,-y,-z
x,-y,z
loop_
_atom_site_type_symbol
_atom_site_label
_atom_site_fract_x
_atom_site_fract_y
_atom_site_fract_z
Si Si1 0.462742 0.618275 0.246527
Si Si2 0.044810 0.879358 0.364123
Si Si3 0.104587 0.621478 0.102713
Si Si4 0.742963 0.735620 0.797762
Si Si5 0.276068 0.265438 0.862495
Si Si6 0.362196 0.619997 0.511288
Si Si7 0.863183 0.254686 0.287539
Si Si8 0.360858 0.117433 0.997768
O O1 0.460836 0.500000 0.200388
O O2 0.399297 0.701310 0.190110
O O3 0.615271 0.645829 0.210749
O O4 0.369212 0.622912 0.383873
O O5 0.163939 0.793854 0.322588
O O6 0.000000 0.881121 0.500000
O O7 0.934439 0.838558 0.324362
O O8 0.084526 0.000000 0.316341
O O9 0.092973 0.500000 0.074828
O O10 0.196447 0.632510 0.169636
O O11 0.962728 0.663453 0.194450
O O12 0.161412 0.684308 0.980029
O O13 0.740850 0.824217 0.887716
O O14 0.218713 0.211662 0.780049
O O15 0.359728 0.174256 0.886781
O O16 0.500000 0.668557 0.500000
O O17 0.346336 0.500000 0.558970
O O18 0.235453 0.686392 0.595077
O O19 0.309569 0.000000 0.999377
O O20 0.500000 0.120055 0.000000
#
# Coordination Sequence:
#
# PCOD8063755 Si02
#       8
#     4   4   4   4   4   4   4   4
#     4  11  21  34  56  85 119 155 191 232 282 339
#     4  10  22  41  64  85 109 147 193 241 295 344
#     4  10  22  36  55  83 118 157 195 232 277 336
#     4  10  20  37  57  84 112 149 193 239 283 333
#     4  11  22  36  55  86 119 152 189 235 287 339
#     4  10  20  34  54  81 113 152 189 223 274 339
#     4  11  22  38  60  84 117 150 191 238 284 337
#     4  10  20  36  56  79 109 146 188 231 280 336
#
# _framework density 19.510283000000001
#
# number of rings (size 3 to 8) (size 9 to 14) (size 15 to 20)
#    0.000    1.625    2.500    2.625    0.000    2.500 
#    0.000    1.875    0.000   10.875    0.000    0.000 
#    0.000    0.000    0.000    0.000    0.000    0.000 
#
# Total GULP energy -396598.709468 kJ/mol
# GULP energy per Si atom -12393.709671 kJ/mol
# Density = 1.946588 g / cm^3
# Si number density = 19.510283 Si / 1000 Ang^3
#
#
#
# Elastic Constant Matrix: (Units=GPa)
#
#
# Indices 1 2 3 4 5 6 
#
# 1 90.3530 31.9962 25.8515 0.0000 5.6702 0.0000
# 2 31.9962 102.8412 32.9600 0.0000 9.6354 0.0000
# 3 25.8515 32.9600 80.8784 0.0000 -0.6044 0.0000
# 4 0.0000 0.0000 0.0000 20.9007 0.0000 -0.0894
# 5 5.6702 9.6354 -0.6044 0.0000 38.1241 0.0000
# 6 0.0000 0.0000 0.0000 -0.0894 0.0000 21.7590
#
#
#
# Elastic Compliance Matrix: (Units=1/GPa)
#
#
# Indices 1 2 3 4 5 6 
#
# 1 0.013053 -0.002997 -0.002960 0.000000 -0.001231 0.000000
# 2 -0.002997 0.012203 -0.004035 0.000000 -0.002702 0.000000
# 3 -0.002960 -0.004035 0.014967 0.000000 0.001697 0.000000
# 4 0.000000 0.000000 0.000000 0.047846 0.000000 0.000197
# 5 -0.001231 -0.002702 0.001697 0.000000 0.027123 0.000000
# 6 0.000000 0.000000 0.000000 0.000197 0.000000 0.045959
#
#
# Mechanical properties :
#
#
# Convention : Reuss Voigt Hill
#
# Bulk Modulus (GPa) = 49.41018 50.63202 50.02110
# Shear Modulus (GPa) = 26.61245 28.37442 27.49343
#
# Velocity S-wave (km/s) = 3.69727 3.81771 3.75797
# Velocity P-wave (km/s) = 6.60353 6.74099 6.67262
#
# Compressibility (1/GPa) = 0.02023875
#
# Stress axis : x y z
#
# Youngs Moduli (GPa) = 76.60942 81.94968 66.81159
#
# Poissons Ratio (x) = 0.24562 0.19776
# Poissons Ratio (y) = 0.22961 0.26959
# Poissons Ratio (z) = 0.22677 0.33067
#
# Static dielectric constant tensor:
#      x y z
#    x 3.676430 0.000000 0.023540 
#    y 0.000000 3.554480 0.000000 
#    z 0.023540 0.000000 3.592730 
# 
# 
# High freq. dielectric constant tensor:
#      x y z
#    x 1.763800 0.000000 0.000510 
#    y 0.000000 1.746030 0.000000 
#    z 0.000510 0.000000 1.767380 
# 
# From -- ./inp_files/46976.got.cif
#   From: 2010.06.25/outbox.cif.g09.slc.cpg/sg10_24_cif.got.tgz:46976.got - 2010.06.27 22:07:45.
