data_PCOD8063061
_publ_section_title
;
Structure prediction by ZEFSAII (Michael W. Deem and Ramdas Pophale) SiO2 
 PCOD8063061
Probable space group: P 2/M
;
_chemical_formula_sum "Si O2"
_cell_formula_units_Z 28
_cell_length_a 17.338509
_cell_length_b 7.622948
_cell_length_c 18.670163
_cell_angle_alpha 90.000000
_cell_angle_beta 32.254174
_cell_angle_gamma 90.000000
_cell_volume 1316.923629
_symmetry_space_group_name_H-M "P 2/M"
_symmetry_group_IT_number 10
_symmetry_cell_setting 'monoclinic'
loop_
_space_group_symop_operation_xyz
x,y,z
-x,y,-z
-x,-y,-z
x,-y,z
loop_
_atom_site_type_symbol
_atom_site_label
_atom_site_fract_x
_atom_site_fract_y
_atom_site_fract_z
Si Si1 0.958030 0.500000 0.615174
Si Si2 0.866552 0.800041 0.448219
Si Si3 0.542303 0.706212 0.693198
Si Si4 0.564071 0.709374 0.376039
Si Si5 0.647281 0.500000 0.928464
Si Si6 0.994733 0.798846 0.196329
Si Si7 0.121995 0.697518 0.857503
Si Si8 0.311839 0.799386 0.990192
O O1 0.785927 0.500000 0.766268
O O2 0.000000 0.500000 0.500000
O O3 0.026061 0.676176 0.593240
O O4 0.700706 0.757906 0.596142
O O5 0.893192 0.766125 0.343908
O O6 0.902853 0.000000 0.441174
O O7 0.518989 0.500000 0.716259
O O8 0.520198 0.774214 0.628858
O O9 0.426931 0.795880 0.835775
O O10 0.500000 0.787260 0.500000
O O11 0.563034 0.500000 0.380573
O O12 0.725370 0.789443 0.247206
O O13 0.500000 0.500000 0.000000
O O14 0.643539 0.674788 0.979575
O O15 0.920404 0.689688 0.192200
O O16 0.998803 0.000000 0.169563
O O17 0.157097 0.731260 0.083126
O O18 0.136862 0.500000 0.874597
O O19 0.000000 0.797227 0.000000
O O20 0.298782 0.000000 0.028743
#
# Coordination Sequence:
#
# PCOD8063061 Si02
#       8
#     2   4   4   4   2   4   4   4
#     4  12  28  48  76 106 136 171 210 258 328 399
#     4  11  24  44  68 100 135 173 221 268 321 389
#     4  11  21  37  67  96 132 182 230 277 330 386
#     4   9  18  32  50  86 128 170 223 277 330 383
#     4  12  28  48  76 106 136 170 212 258 326 406
#     4  10  22  39  62  89 123 175 224 267 327 388
#     4  10  20  32  53  85 122 165 218 274 329 376
#     4  11  24  44  68  99 137 174 220 273 327 390
#
# _framework density 21.261673999999999
#
# number of rings (size 3 to 8) (size 9 to 14) (size 15 to 20)
#    0.000    1.429    2.857    2.143    4.000    3.143 
#    0.000    1.429    0.000    3.857    0.000    0.000 
#    0.000    0.000    0.000    0.000    0.000    0.000 
#
# Total GULP energy -347208.946733 kJ/mol
# GULP energy per Si atom -12400.319526 kJ/mol
# Density = 2.121328 g / cm^3
# Si number density = 21.261674 Si / 1000 Ang^3
#
#
#
# Elastic Constant Matrix: (Units=GPa)
#
#
# Indices 1 2 3 4 5 6 
#
# 1 103.5595 34.2205 31.6221 0.0000 -9.2650 0.0000
# 2 34.2205 80.5743 15.3807 0.0000 1.0970 0.0000
# 3 31.6221 15.3807 136.8642 0.0000 -11.6044 0.0000
# 4 0.0000 0.0000 0.0000 18.1956 0.0000 1.7208
# 5 -9.2650 1.0970 -11.6044 0.0000 44.1572 0.0000
# 6 0.0000 0.0000 0.0000 1.7208 0.0000 1.3291
#
#
#
# Elastic Compliance Matrix: (Units=1/GPa)
#
#
# Indices 1 2 3 4 5 6 
#
# 1 0.012046 -0.004749 -0.002071 0.000000 0.002101 0.000000
# 2 -0.004749 0.014577 -0.000671 0.000000 -0.001535 0.000000
# 3 -0.002071 -0.000671 0.008003 0.000000 0.001685 0.000000
# 4 0.000000 0.000000 0.000000 0.062627 0.000000 -0.081084
# 5 0.002101 -0.001535 0.001685 0.000000 0.023568 0.000000
# 6 0.000000 0.000000 0.000000 -0.081084 0.000000 0.857358
#
#
# Mechanical properties :
#
#
# Convention : Reuss Voigt Hill
#
# Bulk Modulus (GPa) = 50.90813 53.71605 52.31209
# Shear Modulus (GPa) = 5.00145 28.72136 16.86141
#
# Velocity S-wave (km/s) = 1.53539 3.67938 2.81916
# Velocity P-wave (km/s) = 5.20950 6.58556 5.93752
#
# Compressibility (1/GPa) = 0.01964323
#
# Stress axis : x y z
#
# Youngs Moduli (GPa) = 83.01431 68.60152 124.94699
#
# Poissons Ratio (x) = 0.32581 0.25881
# Poissons Ratio (y) = 0.39426 0.08384
# Poissons Ratio (z) = 0.17195 0.04603
#
# Static dielectric constant tensor:
#      x y z
#    x 3.805660 0.000000 0.083390 
#    y 0.000000 3.795820 0.000000 
#    z 0.083390 0.000000 4.333020 
# 
# 
# High freq. dielectric constant tensor:
#      x y z
#    x 1.819270 0.000000 -0.006380 
#    y 0.000000 1.827440 0.000000 
#    z -0.006380 0.000000 1.854640 
# 
# From -- ./inp_files/77737.got.cif
#   From: 2010.06.25/outbox.cif.g09.slc.cpg/sg10_39_cif.got.tgz:77737.got - 2010.06.27 22:07:45.
