data_PCOD8063953
_publ_section_title
;
Structure prediction by ZEFSAII (Michael W. Deem and Ramdas Pophale) SiO2 
 PCOD8063953
Probable space group: P 2/M
;
_chemical_formula_sum "Si O2"
_cell_formula_units_Z 32
_cell_length_a 16.804329
_cell_length_b 8.845765
_cell_length_c 28.463468
_cell_angle_alpha 90.000000
_cell_angle_beta 158.377658
_cell_angle_gamma 90.000000
_cell_volume 1559.073736
_symmetry_space_group_name_H-M "P 2/M"
_symmetry_group_IT_number 10
_symmetry_cell_setting 'monoclinic'
loop_
_space_group_symop_operation_xyz
x,y,z
-x,y,-z
-x,-y,-z
x,-y,z
loop_
_atom_site_type_symbol
_atom_site_label
_atom_site_fract_x
_atom_site_fract_y
_atom_site_fract_z
Si Si1 0.797679 0.325695 0.090500
Si Si2 0.244211 0.823957 0.646459
Si Si3 0.100300 0.334692 0.099474
Si Si4 0.598116 0.665651 0.355961
Si Si5 0.624042 0.821649 0.177025
Si Si6 0.919768 0.675883 0.260726
Si Si7 0.349483 0.178666 0.520238
Si Si8 0.799617 0.320965 0.747627
O O1 0.748294 0.500000 0.050844
O O2 0.783622 0.297963 0.138441
O O3 0.041843 0.282745 0.208401
O O4 0.623606 0.222597 0.968511
O O5 0.389233 0.739680 0.688118
O O6 0.307411 0.768568 0.733194
O O7 0.000000 0.781752 0.500000
O O8 0.289777 0.000000 0.666356
O O9 0.985241 0.500000 0.037277
O O10 0.350942 0.355146 0.230709
O O11 0.073107 0.258370 0.135779
O O12 0.000000 0.241183 0.000000
O O13 0.711217 0.500000 0.418598
O O14 0.695829 0.769117 0.450939
O O15 0.780085 0.737809 0.226767
O O16 0.654237 0.000000 0.187384
O O17 0.968855 0.500000 0.295642
O O18 0.146062 0.762899 0.378941
O O19 0.567314 0.241496 0.615366
O O20 0.360995 0.000000 0.525595
O O21 0.756158 0.500000 0.728694
#
# Coordination Sequence:
#
# PCOD8063953 Si02
#       8
#     4   4   4   4   4   4   4   4
#     4  10  23  41  63  89 120 160 201 254 308 356
#     4  10  22  39  57  81 118 159 196 239 293 350
#     4   8  15  28  50  80 110 143 183 228 275 330
#     4  10  20  34  57  86 115 151 195 239 285 343
#     4  11  24  40  61  90 124 162 201 248 306 363
#     4  11  23  41  64  88 115 153 208 258 304 361
#     4  11  22  38  61  88 123 160 196 247 309 363
#     4   9  19  37  59  85 120 158 201 247 298 356
#
# _framework density 20.525006999999999
#
# number of rings (size 3 to 8) (size 9 to 14) (size 15 to 20)
#    0.000    2.000    0.000    4.125    1.750    5.750 
#    0.000    2.500    0.000    1.875    0.000    0.000 
#    0.000    0.000    0.000    0.000    0.000    0.000 
#
# Total GULP energy -396684.238489 kJ/mol
# GULP energy per Si atom -12396.382453 kJ/mol
# Density = 2.047829 g / cm^3
# Si number density = 20.525007 Si / 1000 Ang^3
#
#
#
# Elastic Constant Matrix: (Units=GPa)
#
#
# Indices 1 2 3 4 5 6 
#
# 1 104.6022 36.1225 31.5351 0.0000 -7.1215 0.0000
# 2 36.1225 79.2788 39.8594 0.0000 -4.2843 0.0000
# 3 31.5351 39.8594 99.4505 0.0000 -9.6777 0.0000
# 4 0.0000 0.0000 0.0000 30.9443 0.0000 -4.0066
# 5 -7.1215 -4.2843 -9.6777 0.0000 26.4708 0.0000
# 6 0.0000 0.0000 0.0000 -4.0066 0.0000 25.7558
#
#
#
# Elastic Compliance Matrix: (Units=1/GPa)
#
#
# Indices 1 2 3 4 5 6 
#
# 1 0.011724 -0.004338 -0.001805 0.000000 0.001792 0.000000
# 2 -0.004338 0.017403 -0.005640 0.000000 -0.000412 0.000000
# 3 -0.001805 -0.005640 0.013222 0.000000 0.003436 0.000000
# 4 0.000000 0.000000 0.000000 0.032980 0.000000 0.005130
# 5 0.001792 -0.000412 0.003436 0.000000 0.039449 0.000000
# 6 0.000000 0.000000 0.000000 0.005130 0.000000 0.039624
#
#
# Mechanical properties :
#
#
# Convention : Reuss Voigt Hill
#
# Bulk Modulus (GPa) = 53.23328 55.37395 54.30361
# Shear Modulus (GPa) = 27.13998 28.35514 27.74756
#
# Velocity S-wave (km/s) = 3.64027 3.72088 3.68080
# Velocity P-wave (km/s) = 6.60764 6.74516 6.67676
#
# Compressibility (1/GPa) = 0.01878524
#
# Stress axis : x y z
#
# Youngs Moduli (GPa) = 85.29449 57.45973 75.62989
#
# Poissons Ratio (x) = 0.24925 0.13649
# Poissons Ratio (y) = 0.36999 0.42654
# Poissons Ratio (z) = 0.15393 0.32407
#
# Static dielectric constant tensor:
#      x y z
#    x 4.153910 0.000000 -0.273900 
#    y 0.000000 3.599310 0.000000 
#    z -0.273900 0.000000 3.816850 
# 
# 
# High freq. dielectric constant tensor:
#      x y z
#    x 1.810130 0.000000 -0.006720 
#    y 0.000000 1.784770 0.000000 
#    z -0.006720 0.000000 1.805960 
# 
# From -- ./inp_files/89603.got.cif
#   From: 2010.06.25/outbox.cif.g09.slc.cpg/sg10_45_cif.got.tgz:89603.got - 2010.06.27 22:07:45.
