data_PCOD8063862
_publ_section_title
;
Structure prediction by ZEFSAII (Michael W. Deem and Ramdas Pophale) SiO2 
 PCOD8063862
Probable space group: P 2/M
;
_chemical_formula_sum "Si O2"
_cell_formula_units_Z 32
_cell_length_a 12.178128
_cell_length_b 8.881037
_cell_length_c 22.041458
_cell_angle_alpha 90.000000
_cell_angle_beta 45.425453
_cell_angle_gamma 90.000000
_cell_volume 1698.128629
_symmetry_space_group_name_H-M "P 2/M"
_symmetry_group_IT_number 10
_symmetry_cell_setting 'monoclinic'
loop_
_space_group_symop_operation_xyz
x,y,z
-x,y,-z
-x,-y,-z
x,-y,z
loop_
_atom_site_type_symbol
_atom_site_label
_atom_site_fract_x
_atom_site_fract_y
_atom_site_fract_z
Si Si1 0.497633 0.176962 0.206090
Si Si2 0.384273 0.823157 0.597926
Si Si3 0.221703 0.175168 0.226418
Si Si4 0.604654 0.323065 0.281725
Si Si5 0.324246 0.336431 0.073568
Si Si6 0.042363 0.673588 0.861989
Si Si7 0.939685 0.326302 0.284546
Si Si8 0.767797 0.175639 0.011008
O O1 0.342000 0.227983 0.231586
O O2 0.495884 0.262081 0.270567
O O3 0.494755 0.000000 0.218526
O O4 0.654958 0.221927 0.109537
O O5 0.500000 0.776372 0.500000
O O6 0.448410 0.749176 0.634563
O O7 0.215550 0.765987 0.645612
O O8 0.376938 0.000000 0.610706
O O9 0.303220 0.206003 0.131012
O O10 0.062460 0.269948 0.287625
O O11 0.182705 0.000000 0.248159
O O12 0.585559 0.500000 0.294975
O O13 0.780692 0.276808 0.199975
O O14 0.243856 0.500000 0.121383
O O15 0.269574 0.281633 0.030240
O O16 0.500000 0.372065 0.000000
O O17 0.020824 0.500000 0.888464
O O18 0.992129 0.700963 0.810271
O O19 0.948941 0.778221 0.947124
O O20 0.898869 0.500000 0.310653
O O21 0.748677 0.000000 0.003743
#
# Coordination Sequence:
#
# PCOD8063862 Si02
#       8
#     4   4   4   4   4   4   4   4
#     4  10  23  38  51  74 109 150 195 236 277 329
#     4  10  21  39  66  95 118 142 172 212 268 330
#     4  11  21  34  53  76 108 149 190 234 280 327
#     4  10  22  39  59  81 109 146 184 226 277 332
#     4  11  21  31  46  70 102 142 189 244 289 323
#     4   9  19  34  50  74 106 141 184 234 284 327
#     4  10  20  34  55  86 118 145 179 226 278 327
#     4  11  21  32  49  73 102 144 194 240 284 326
#
# _framework density 18.844273999999999
#
# number of rings (size 3 to 8) (size 9 to 14) (size 15 to 20)
#    0.000    1.750    2.500    3.000    0.000    6.500 
#    0.000    2.500    0.000    0.750    0.000    5.250 
#    0.000    0.000    0.000    0.000    0.000    0.000 
#
# Total GULP energy -396663.964356 kJ/mol
# GULP energy per Si atom -12395.748886 kJ/mol
# Density = 1.880138 g / cm^3
# Si number density = 18.844274 Si / 1000 Ang^3
#
#
#
# Elastic Constant Matrix: (Units=GPa)
#
#
# Indices 1 2 3 4 5 6 
#
# 1 100.8361 34.3739 44.3673 0.0000 15.9217 0.0000
# 2 34.3739 61.8856 40.4728 0.0000 8.0439 0.0000
# 3 44.3673 40.4728 93.5944 0.0000 4.0877 0.0000
# 4 0.0000 0.0000 0.0000 22.3913 0.0000 -2.4354
# 5 15.9217 8.0439 4.0877 0.0000 18.2546 0.0000
# 6 0.0000 0.0000 0.0000 -2.4354 0.0000 30.9053
#
#
#
# Elastic Compliance Matrix: (Units=1/GPa)
#
#
# Indices 1 2 3 4 5 6 
#
# 1 0.015047 -0.003684 -0.005087 0.000000 -0.010362 0.000000
# 2 -0.003684 0.024596 -0.008641 0.000000 -0.005690 0.000000
# 3 -0.005087 -0.008641 0.016635 0.000000 0.004520 0.000000
# 4 0.000000 0.000000 0.000000 0.045046 0.000000 0.003550
# 5 -0.010362 -0.005690 0.004520 0.000000 0.065313 0.000000
# 6 0.000000 0.000000 0.000000 0.003550 0.000000 0.032637
#
#
# Mechanical properties :
#
#
# Convention : Reuss Voigt Hill
#
# Bulk Modulus (GPa) = 46.61229 54.97158 50.79193
# Shear Modulus (GPa) = 20.72528 23.45039 22.08783
#
# Velocity S-wave (km/s) = 3.31995 3.53148 3.42734
# Velocity P-wave (km/s) = 6.28373 6.77224 6.53256
#
# Compressibility (1/GPa) = 0.02145357
#
# Stress axis : x y z
#
# Youngs Moduli (GPa) = 66.45643 40.65717 60.11316
#
# Poissons Ratio (x) = 0.14978 0.30582
# Poissons Ratio (y) = 0.24482 0.51944
# Poissons Ratio (z) = 0.33809 0.35132
#
# Static dielectric constant tensor:
#      x y z
#    x 3.586200 0.000000 -0.110430 
#    y 0.000000 3.408140 0.000000 
#    z -0.110430 0.000000 3.187070 
# 
# 
# High freq. dielectric constant tensor:
#      x y z
#    x 1.736250 0.000000 -0.013730 
#    y 0.000000 1.741900 0.000000 
#    z -0.013730 0.000000 1.696930 
# 
# From -- ./inp_files/83557.got.cif
#   From: 2010.06.25/outbox.cif.g09.slc.cpg/sg10_42_cif.got.tgz:83557.got - 2010.06.27 22:07:45.
