data_PCOD8063733
_publ_section_title
;
Structure prediction by ZEFSAII (Michael W. Deem and Ramdas Pophale) SiO2 
 PCOD8063733
Probable space group: P 2/M
;
_chemical_formula_sum "Si O2"
_cell_formula_units_Z 32
_cell_length_a 14.487134
_cell_length_b 9.629802
_cell_length_c 25.569009
_cell_angle_alpha 90.000000
_cell_angle_beta 150.133423
_cell_angle_gamma 90.000000
_cell_volume 1776.345088
_symmetry_space_group_name_H-M "P 2/M"
_symmetry_group_IT_number 10
_symmetry_cell_setting 'monoclinic'
loop_
_space_group_symop_operation_xyz
x,y,z
-x,y,-z
-x,-y,-z
x,-y,z
loop_
_atom_site_type_symbol
_atom_site_label
_atom_site_fract_x
_atom_site_fract_y
_atom_site_fract_z
Si Si1 0.863223 0.163217 0.563582
Si Si2 0.175744 0.662357 0.973669
Si Si3 0.153992 0.158786 0.224009
Si Si4 0.500118 0.156951 0.322316
Si Si5 0.707504 0.835280 0.597246
Si Si6 0.539345 0.659881 0.797136
Si Si7 0.219101 0.662501 0.719969
Si Si8 0.492348 0.664858 0.053944
O O1 0.698880 0.197425 0.442898
O O2 0.809458 0.218960 0.595029
O O3 0.036388 0.246220 0.625682
O O4 0.909083 0.000000 0.587573
O O5 0.130703 0.500000 0.945913
O O6 0.279576 0.692565 0.079129
O O7 0.306736 0.717102 0.991171
O O8 0.986275 0.746945 0.877759
O O9 0.355816 0.175198 0.298292
O O10 0.170756 0.209022 0.292523
O O11 0.085120 0.000000 0.187284
O O12 0.445352 0.252668 0.247473
O O13 0.500325 0.000000 0.301497
O O14 0.500000 0.771747 0.500000
O O15 0.688973 0.000000 0.585217
O O16 0.538227 0.500000 0.780351
O O17 0.351523 0.695843 0.736013
O O18 0.167416 0.500000 0.695986
O O19 0.324943 0.709438 0.824704
O O20 0.484465 0.500000 0.048339
O O21 0.500000 0.731130 0.000000
#
# Coordination Sequence:
#
# PCOD8063733 Si02
#       8
#     4   4   4   4   4   4   4   4
#     4  10  20  34  54  80 107 137 174 213 258 311
#     4   9  19  35  54  77 104 136 174 213 259 311
#     4  10  20  34  54  80 107 137 174 213 258 311
#     4  10  21  36  55  78 103 137 179 218 258 306
#     4   9  16  32  55  74 103 144 174 205 255 314
#     4   9  20  39  57  74 103 141 176 214 262 312
#     4   9  19  35  54  77 104 136 174 213 259 311
#     4   8  15  30  51  73 100 135 171 207 251 306
#
# _framework density 18.014517999999999
#
# number of rings (size 3 to 8) (size 9 to 14) (size 15 to 20)
#    0.000    2.750    1.250    1.500    1.750    3.000 
#    0.000    6.875    0.000    1.500    0.000    0.000 
#    0.000    0.000    0.000    0.000    0.000    0.000 
#
# Total GULP energy -396764.386053 kJ/mol
# GULP energy per Si atom -12398.887064 kJ/mol
# Density = 1.797352 g / cm^3
# Si number density = 18.014518 Si / 1000 Ang^3
#
#
#
# Elastic Constant Matrix: (Units=GPa)
#
#
# Indices 1 2 3 4 5 6 
#
# 1 49.2996 24.6156 24.6524 0.0000 -19.3503 0.0000
# 2 24.6156 49.8594 45.9276 0.0000 -4.0509 0.0000
# 3 24.6524 45.9276 100.5598 0.0000 2.4459 0.0000
# 4 0.0000 0.0000 0.0000 37.6654 0.0000 -2.7429
# 5 -19.3503 -4.0509 2.4459 0.0000 32.6777 0.0000
# 6 0.0000 0.0000 0.0000 -2.7429 0.0000 29.7271
#
#
#
# Elastic Compliance Matrix: (Units=1/GPa)
#
#
# Indices 1 2 3 4 5 6 
#
# 1 0.036563 -0.013283 -0.003390 0.000000 0.020258 0.000000
# 2 -0.013283 0.040457 -0.015180 0.000000 -0.001714 0.000000
# 3 -0.003390 -0.015180 0.017835 0.000000 -0.005224 0.000000
# 4 0.000000 0.000000 0.000000 0.026729 0.000000 0.002466
# 5 0.020258 -0.001714 -0.005224 0.000000 0.042776 0.000000
# 6 0.000000 0.000000 0.000000 0.002466 0.000000 0.033867
#
#
# Mechanical properties :
#
#
# Convention : Reuss Voigt Hill
#
# Bulk Modulus (GPa) = 32.10156 43.34555 37.72356
# Shear Modulus (GPa) = 18.36107 26.98227 22.67167
#
# Velocity S-wave (km/s) = 3.19601 3.87435 3.55141
# Velocity P-wave (km/s) = 5.61051 6.64288 6.14840
#
# Compressibility (1/GPa) = 0.03115113
#
# Stress axis : x y z
#
# Youngs Moduli (GPa) = 27.35042 24.71731 56.06874
#
# Poissons Ratio (x) = 0.32831 0.19005
# Poissons Ratio (y) = 0.36329 0.85111
# Poissons Ratio (z) = 0.09271 0.37520
#
# Static dielectric constant tensor:
#      x y z
#    x 3.409150 0.000000 -0.092700 
#    y 0.000000 2.988650 0.000000 
#    z -0.092700 0.000000 3.296320 
# 
# 
# High freq. dielectric constant tensor:
#      x y z
#    x 1.701840 0.000000 -0.003140 
#    y 0.000000 1.665560 0.000000 
#    z -0.003140 0.000000 1.703720 
# 
# From -- ./inp_files/72174.got.cif
#   From: 2010.06.25/outbox.cif.g09.slc.cpg/sg10_37_cif.got.tgz:72174.got - 2010.06.27 22:07:45.
