data_PCOD8063708
_publ_section_title
;
Structure prediction by ZEFSAII (Michael W. Deem and Ramdas Pophale) SiO2 
 PCOD8063708
Probable space group: P 2/M
;
_chemical_formula_sum "Si O2"
_cell_formula_units_Z 32
_cell_length_a 19.978894
_cell_length_b 9.195099
_cell_length_c 25.231618
_cell_angle_alpha 90.000000
_cell_angle_beta 21.133143
_cell_angle_gamma 90.000000
_cell_volume 1671.175630
_symmetry_space_group_name_H-M "P 2/M"
_symmetry_group_IT_number 10
_symmetry_cell_setting 'monoclinic'
loop_
_space_group_symop_operation_xyz
x,y,z
-x,y,-z
-x,-y,-z
x,-y,z
loop_
_atom_site_type_symbol
_atom_site_label
_atom_site_fract_x
_atom_site_fract_y
_atom_site_fract_z
Si Si1 0.769687 0.339685 0.483796
Si Si2 0.045611 0.171033 0.566602
Si Si3 0.094069 0.171156 0.985779
Si Si4 0.412656 0.171407 0.232100
Si Si5 0.221662 0.333435 0.735145
Si Si6 0.369987 0.827757 0.144088
Si Si7 0.586813 0.665553 0.517068
Si Si8 0.398874 0.339210 0.819328
O O1 0.855475 0.500000 0.408093
O O2 0.920039 0.238023 0.400596
O O3 0.694968 0.258263 0.485671
O O4 0.602870 0.359425 0.647241
O O5 0.204207 0.214778 0.406376
O O6 0.842213 0.230054 0.700997
O O7 0.043133 0.000000 0.575399
O O8 0.951195 0.225156 0.135889
O O9 0.127942 0.000000 0.963192
O O10 0.284911 0.252768 0.858157
O O11 0.000000 0.220559 0.000000
O O12 0.442776 0.218805 0.148612
O O13 0.577820 0.249999 0.143040
O O14 0.440432 0.000000 0.219067
O O15 0.170803 0.500000 0.788094
O O16 0.286770 0.327444 0.627318
O O17 0.382969 0.269350 0.654891
O O18 0.368751 0.000000 0.140204
O O19 0.500000 0.764357 0.000000
O O20 0.552377 0.500000 0.560365
O O21 0.310762 0.500000 0.895005
#
# Coordination Sequence:
#
# PCOD8063708 Si02
#       8
#     4   4   4   4   4   4   4   4
#     4   9  17  31  51  75 101 129 164 209 256 299
#     4   9  17  30  50  76 101 130 174 211 248 306
#     4  11  23  36  50  73 105 137 170 214 262 302
#     4   9  17  32  54  76 102 136 170 215 263 305
#     4   9  17  32  53  73  95 130 173 211 251 307
#     4   9  17  31  52  77 104 135 172 212 255 309
#     4   8  15  30  52  74  97 128 168 210 254 303
#     4  10  20  34  54  78 102 133 174 212 251 307
#
# _framework density 19.148195999999999
#
# number of rings (size 3 to 8) (size 9 to 14) (size 15 to 20)
#    0.000    2.750    0.000    2.625    0.000    4.000 
#    2.250    3.125    0.000    3.750    0.000    0.000 
#    0.000    0.000    0.000    0.000    0.000    0.000 
#
# Total GULP energy -396487.013087 kJ/mol
# GULP energy per Si atom -12390.219159 kJ/mol
# Density = 1.910461 g / cm^3
# Si number density = 19.148196 Si / 1000 Ang^3
#
#
#
# Elastic Constant Matrix: (Units=GPa)
#
#
# Indices 1 2 3 4 5 6 
#
# 1 147.7619 38.6884 25.2638 0.0000 -7.6666 0.0000
# 2 38.6884 54.6021 22.7084 0.0000 -8.0969 0.0000
# 3 25.2638 22.7084 50.0716 0.0000 -5.4801 0.0000
# 4 0.0000 0.0000 0.0000 18.4448 0.0000 -3.8187
# 5 -7.6666 -8.0969 -5.4801 0.0000 22.8425 0.0000
# 6 0.0000 0.0000 0.0000 -3.8187 0.0000 26.2051
#
#
#
# Elastic Compliance Matrix: (Units=1/GPa)
#
#
# Indices 1 2 3 4 5 6 
#
# 1 0.008462 -0.005129 -0.001881 0.000000 0.000571 0.000000
# 2 -0.005129 0.026425 -0.008791 0.000000 0.005537 0.000000
# 3 -0.001881 -0.008791 0.025158 0.000000 0.002288 0.000000
# 4 0.000000 0.000000 0.000000 0.055902 0.000000 0.008146
# 5 0.000571 0.005537 0.002288 0.000000 0.046481 0.000000
# 6 0.000000 0.000000 0.000000 0.008146 0.000000 0.039348
#
#
# Mechanical properties :
#
#
# Convention : Reuss Voigt Hill
#
# Bulk Modulus (GPa) = 35.15693 47.30631 41.23162
# Shear Modulus (GPa) = 20.58821 24.55014 22.56917
#
# Velocity S-wave (km/s) = 3.28259 3.58454 3.43688
# Velocity P-wave (km/s) = 5.72429 6.47232 6.10976
#
# Compressibility (1/GPa) = 0.02844389
#
# Stress axis : x y z
#
# Youngs Moduli (GPa) = 118.17973 37.84265 39.74940
#
# Poissons Ratio (x) = 0.19408 0.07477
# Poissons Ratio (y) = 0.60610 0.34943
# Poissons Ratio (z) = 0.22229 0.33266
#
# Static dielectric constant tensor:
#      x y z
#    x 3.722350 0.000000 -0.080470 
#    y 0.000000 3.383290 0.000000 
#    z -0.080470 0.000000 3.414970 
# 
# 
# High freq. dielectric constant tensor:
#      x y z
#    x 1.756710 0.000000 -0.006010 
#    y 0.000000 1.709960 0.000000 
#    z -0.006010 0.000000 1.725770 
# 
# From -- ./inp_files/93681.got.cif
#   From: 2010.06.25/outbox.cif.g09.slc.cpg/sg10_47_cif.got.tgz:93681.got - 2010.06.27 22:07:45.
