data_PCOD8063810
_publ_section_title
;
Structure prediction by ZEFSAII (Michael W. Deem and Ramdas Pophale) SiO2 
 PCOD8063810
Probable space group: P 2/M
;
_chemical_formula_sum "Si O2"
_cell_formula_units_Z 32
_cell_length_a 12.734275
_cell_length_b 14.290584
_cell_length_c 18.456642
_cell_angle_alpha 90.000000
_cell_angle_beta 149.616380
_cell_angle_gamma 90.000000
_cell_volume 1698.809547
_symmetry_space_group_name_H-M "P 2/M"
_symmetry_group_IT_number 10
_symmetry_cell_setting 'monoclinic'
loop_
_space_group_symop_operation_xyz
x,y,z
-x,y,-z
-x,-y,-z
x,-y,z
loop_
_atom_site_type_symbol
_atom_site_label
_atom_site_fract_x
_atom_site_fract_y
_atom_site_fract_z
Si Si1 0.211855 0.264685 0.670990
Si Si2 0.983492 0.397301 0.335149
Si Si3 0.057254 0.101475 0.834538
Si Si4 0.170727 0.278068 0.332883
Si Si5 0.479011 0.107633 0.903262
Si Si6 0.179294 0.897201 0.158158
Si Si7 0.404465 0.723707 0.330123
Si Si8 0.592976 0.395597 0.325944
O O1 0.172002 0.326735 0.718403
O O2 0.313687 0.168726 0.759763
O O3 0.378882 0.323065 0.723170
O O4 0.000000 0.243045 0.500000
O O5 0.880517 0.500000 0.268175
O O6 0.038691 0.363725 0.286672
O O7 0.189764 0.403791 0.504816
O O8 0.963188 0.184687 0.730510
O O9 0.912387 0.093801 0.817187
O O10 0.050153 0.000000 0.789101
O O11 0.294701 0.122783 0.998100
O O12 0.382018 0.264630 0.501348
O O13 0.218268 0.298736 0.276295
O O14 0.405226 0.000000 0.853364
O O15 0.500000 0.137810 0.000000
O O16 0.365980 0.823065 0.267818
O O17 0.259216 0.000000 0.179805
O O18 0.000000 0.858282 0.000000
O O19 0.418170 0.642739 0.277753
O O20 0.526234 0.500000 0.259686
#
# Coordination Sequence:
#
# PCOD8063810 Si02
#       8
#     4   4   4   4   4   4   4   4
#     4  10  20  34  55  82 106 134 175 220 262 304
#     4   9  17  31  52  76 102 133 172 217 260 307
#     4   9  18  32  50  71  98 136 170 200 248 311
#     4   9  17  31  50  76 105 131 172 216 256 303
#     4  10  21  36  55  78 106 142 177 207 256 321
#     4   9  18  31  48  71  99 132 170 205 246 304
#     4   9  18  30  49  78 104 134 170 213 261 303
#     4   9  18  32  51  76 105 136 171 213 262 311
#
# _framework density 18.836718999999999
#
# number of rings (size 3 to 8) (size 9 to 14) (size 15 to 20)
#    0.000    2.750    0.000    1.125    1.750    2.750 
#    0.000    5.000    0.000   11.625    0.000    0.000 
#    0.000    0.000    0.000    0.000    0.000    0.000 
#
# Total GULP energy -396563.326464 kJ/mol
# GULP energy per Si atom -12392.603952 kJ/mol
# Density = 1.879385 g / cm^3
# Si number density = 18.836719 Si / 1000 Ang^3
#
#
#
# Elastic Constant Matrix: (Units=GPa)
#
#
# Indices 1 2 3 4 5 6 
#
# 1 77.6461 55.7419 27.0260 0.0000 2.0590 0.0000
# 2 55.7419 136.2517 45.0248 0.0000 0.1157 0.0000
# 3 27.0260 45.0248 35.8094 0.0000 0.1776 0.0000
# 4 0.0000 0.0000 0.0000 18.6246 0.0000 3.4708
# 5 2.0590 0.1157 0.1776 0.0000 20.0290 0.0000
# 6 0.0000 0.0000 0.0000 3.4708 0.0000 22.6475
#
#
#
# Elastic Compliance Matrix: (Units=1/GPa)
#
#
# Indices 1 2 3 4 5 6 
#
# 1 0.019565 -0.005348 -0.008031 0.000000 -0.001909 0.000000
# 2 -0.005348 0.014019 -0.013593 0.000000 0.000589 0.000000
# 3 -0.008031 -0.013593 0.051076 0.000000 0.000451 0.000000
# 4 0.000000 0.000000 0.000000 0.055271 0.000000 -0.008470
# 5 -0.001909 0.000589 0.000451 0.000000 0.050117 0.000000
# 6 0.000000 0.000000 0.000000 -0.008470 0.000000 0.045453
#
#
# Mechanical properties :
#
#
# Convention : Reuss Voigt Hill
#
# Bulk Modulus (GPa) = 32.55873 56.14363 44.35118
# Shear Modulus (GPa) = 16.68429 20.38785 18.53607
#
# Velocity S-wave (km/s) = 2.97935 3.29347 3.14034
# Velocity P-wave (km/s) = 5.39978 6.65828 6.06178
#
# Compressibility (1/GPa) = 0.03071373
#
# Stress axis : x y z
#
# Youngs Moduli (GPa) = 51.11241 71.33305 19.57878
#
# Poissons Ratio (x) = 0.38152 0.15725
# Poissons Ratio (y) = 0.27337 0.26613
# Poissons Ratio (z) = 0.41051 0.96961
#
# Static dielectric constant tensor:
#      x y z
#    x 3.765090 0.000000 -0.155100 
#    y 0.000000 3.935050 0.000000 
#    z -0.155100 0.000000 3.533320 
# 
# 
# High freq. dielectric constant tensor:
#      x y z
#    x 1.737280 0.000000 0.005400 
#    y 0.000000 1.737130 0.000000 
#    z 0.005400 0.000000 1.690570 
# 
# From -- ./inp_files/77040.got.cif
#   From: 2010.06.25/outbox.cif.g09.slc.cpg/sg10_39_cif.got.tgz:77040.got - 2010.06.27 22:07:45.
