data_PCOD8063506
_publ_section_title
;
Structure prediction by ZEFSAII (Michael W. Deem and Ramdas Pophale) SiO2 
 PCOD8063506
Probable space group: P 2/M
;
_chemical_formula_sum "Si O2"
_cell_formula_units_Z 28
_cell_length_a 15.522016
_cell_length_b 8.783372
_cell_length_c 23.176023
_cell_angle_alpha 90.000000
_cell_angle_beta 27.018781
_cell_angle_gamma 90.000000
_cell_volume 1435.404689
_symmetry_space_group_name_H-M "P 2/M"
_symmetry_group_IT_number 10
_symmetry_cell_setting 'monoclinic'
loop_
_space_group_symop_operation_xyz
x,y,z
-x,y,-z
-x,-y,-z
x,-y,z
loop_
_atom_site_type_symbol
_atom_site_label
_atom_site_fract_x
_atom_site_fract_y
_atom_site_fract_z
Si Si1 0.236190 0.675044 0.555939
Si Si2 0.745873 0.678872 0.685454
Si Si3 0.792618 0.176218 0.114264
Si Si4 0.675590 0.323084 0.068240
Si Si5 0.053423 0.324296 0.782664
Si Si6 0.379718 0.175965 0.660871
Si Si7 0.105115 0.179476 0.517951
O O1 0.246023 0.500000 0.530177
O O2 0.077290 0.698565 0.699952
O O3 0.436213 0.724963 0.464781
O O4 0.187247 0.781022 0.531338
O O5 0.790601 0.500000 0.661516
O O6 0.531614 0.715474 0.834129
O O7 0.774233 0.735631 0.603070
O O8 0.886356 0.767151 0.644798
O O9 0.688107 0.246689 0.122637
O O10 0.663093 0.206341 0.246723
O O11 0.820199 0.000000 0.084511
O O12 0.000000 0.251317 0.000000
O O13 0.694780 0.500000 0.068307
O O14 0.841222 0.268540 0.925921
O O15 0.086882 0.500000 0.779741
O O16 0.201573 0.222901 0.728952
O O17 0.423750 0.000000 0.622382
O O18 0.120092 0.000000 0.498876
#
# Coordination Sequence:
#
# PCOD8063506 Si02
#       7
#     4   4   4   4   4   4   4
#     4  11  23  39  58  79 109 149 190 232 277 327
#     4  10  20  37  62  89 115 144 179 224 280 335
#     4  10  20  34  51  77 112 147 179 219 275 328
#     4  10  21  36  57  84 111 145 187 228 273 327
#     4  10  22  39  56  78 111 150 190 230 273 326
#     4  11  22  36  56  82 112 147 188 233 278 329
#     4  11  22  38  60  87 115 143 181 229 278 330
#
# _framework density 19.506695000000001
#
# number of rings (size 3 to 8) (size 9 to 14) (size 15 to 20)
#    0.000    1.571    1.429    4.714    0.000    7.714 
#    0.000    0.714    0.000    4.286    0.000    0.000 
#    0.000    0.000    0.000    0.000    0.000    0.000 
#
# Total GULP energy -347273.311907 kJ/mol
# GULP energy per Si atom -12402.618282 kJ/mol
# Density = 1.946230 g / cm^3
# Si number density = 19.506695 Si / 1000 Ang^3
#
#
#
# Elastic Constant Matrix: (Units=GPa)
#
#
# Indices 1 2 3 4 5 6 
#
# 1 59.3197 20.8514 35.9068 0.0000 -7.2498 0.0000
# 2 20.8514 58.1297 26.0916 0.0000 -1.1603 0.0000
# 3 35.9068 26.0916 107.6920 0.0000 -15.7664 0.0000
# 4 0.0000 0.0000 0.0000 17.3931 0.0000 -2.7263
# 5 -7.2498 -1.1603 -15.7664 0.0000 16.2397 0.0000
# 6 0.0000 0.0000 0.0000 -2.7263 0.0000 54.9803
#
#
#
# Elastic Compliance Matrix: (Units=1/GPa)
#
#
# Indices 1 2 3 4 5 6 
#
# 1 0.022727 -0.005552 -0.005601 0.000000 0.004311 0.000000
# 2 -0.005552 0.020849 -0.003899 0.000000 -0.004774 0.000000
# 3 -0.005601 -0.003899 0.013628 0.000000 0.010452 0.000000
# 4 0.000000 0.000000 0.000000 0.057944 0.000000 0.002873
# 5 0.004311 -0.004774 0.010452 0.000000 0.073308 0.000000
# 6 0.000000 0.000000 0.000000 0.002873 0.000000 0.018331
#
#
# Mechanical properties :
#
#
# Convention : Reuss Voigt Hill
#
# Bulk Modulus (GPa) = 36.90136 43.42678 40.16407
# Shear Modulus (GPa) = 20.33134 27.20872 23.77003
#
# Velocity S-wave (km/s) = 3.23193 3.73881 3.49457
# Velocity P-wave (km/s) = 5.73459 6.39915 6.07596
#
# Compressibility (1/GPa) = 0.02709927
#
# Stress axis : x y z
#
# Youngs Moduli (GPa) = 44.00093 47.96316 73.37716
#
# Poissons Ratio (x) = 0.26629 0.41101
# Poissons Ratio (y) = 0.24429 0.28611
# Poissons Ratio (z) = 0.24646 0.18702
#
# Static dielectric constant tensor:
#      x y z
#    x 3.409600 0.000000 -0.128340 
#    y 0.000000 3.564010 0.000000 
#    z -0.128340 0.000000 3.856760 
# 
# 
# High freq. dielectric constant tensor:
#      x y z
#    x 1.747680 0.000000 -0.008820 
#    y 0.000000 1.762490 0.000000 
#    z -0.008820 0.000000 1.767670 
# 
# From -- ./inp_files/49166.got.cif
#   From: 2010.06.25/outbox.cif.g09.slc.cpg/sg10_25_cif.got.tgz:49166.got - 2010.06.27 22:07:45.
