data_PCOD8063839
_publ_section_title
;
Structure prediction by ZEFSAII (Michael W. Deem and Ramdas Pophale) SiO2 
 PCOD8063839
Probable space group: P 2/M
;
_chemical_formula_sum "Si O2"
_cell_formula_units_Z 32
_cell_length_a 12.713291
_cell_length_b 8.697228
_cell_length_c 31.475225
_cell_angle_alpha 90.000000
_cell_angle_beta 152.597067
_cell_angle_gamma 90.000000
_cell_volume 1601.758305
_symmetry_space_group_name_H-M "P 2/M"
_symmetry_group_IT_number 10
_symmetry_cell_setting 'monoclinic'
loop_
_space_group_symop_operation_xyz
x,y,z
-x,y,-z
-x,-y,-z
x,-y,z
loop_
_atom_site_type_symbol
_atom_site_label
_atom_site_fract_x
_atom_site_fract_y
_atom_site_fract_z
Si Si1 0.554513 0.172039 0.144833
Si Si2 0.563761 0.682841 0.287219
Si Si3 0.941042 0.319332 0.569142
Si Si4 0.756263 0.678911 0.901575
Si Si5 0.356609 0.675860 0.906907
Si Si6 0.165516 0.321228 0.292559
Si Si7 0.444566 0.180659 0.623851
Si Si8 0.082399 0.824565 0.350612
O O1 0.408317 0.294069 0.117994
O O2 0.532088 0.211960 0.087464
O O3 0.812166 0.190527 0.252001
O O4 0.463440 0.000000 0.120063
O O5 0.558489 0.500000 0.292916
O O6 0.360759 0.741947 0.183395
O O7 0.518826 0.770425 0.314621
O O8 0.803255 0.732777 0.351608
O O9 0.930071 0.500000 0.572113
O O10 0.777660 0.269656 0.472346
O O11 0.845077 0.241776 0.577749
O O12 0.793204 0.500000 0.908344
O O13 0.000000 0.758261 0.000000
O O14 0.384666 0.500000 0.901994
O O15 0.088295 0.712626 0.816372
O O16 0.500000 0.710401 0.000000
O O17 0.229596 0.500000 0.312125
O O18 0.333520 0.223484 0.323704
O O19 0.193070 0.270620 0.351601
O O20 0.401102 0.000000 0.605242
O O21 0.166098 0.000000 0.376852
#
# Coordination Sequence:
#
# PCOD8063839 Si02
#       8
#     4   4   4   4   4   4   4   4
#     4  10  20  34  55  83 118 153 187 237 296 352
#     4  10  22  41  63  87 118 157 202 249 294 350
#     4  11  22  39  65  91 116 154 204 249 294 354
#     4  10  21  38  61  88 117 154 200 246 292 345
#     4   9  19  36  60  86 112 150 199 245 290 347
#     4  10  21  39  61  85 118 157 200 246 296 353
#     4  12  26  41  59  86 123 161 197 246 304 360
#     4  10  20  36  60  89 120 153 192 241 297 354
#
# _framework density 19.978045999999999
#
# number of rings (size 3 to 8) (size 9 to 14) (size 15 to 20)
#    0.000    1.750    1.250    3.000    0.000    6.500 
#    0.000    7.500    0.000    0.000    0.000    0.000 
#    0.000    0.000    0.000    0.000    0.000    0.000 
#
# Total GULP energy -396868.858944 kJ/mol
# GULP energy per Si atom -12402.151842 kJ/mol
# Density = 1.993257 g / cm^3
# Si number density = 19.978046 Si / 1000 Ang^3
#
#
#
# Elastic Constant Matrix: (Units=GPa)
#
#
# Indices 1 2 3 4 5 6 
#
# 1 105.8432 22.3443 50.9272 0.0000 -5.5826 0.0000
# 2 22.3443 33.6734 22.7732 0.0000 1.4572 0.0000
# 3 50.9272 22.7732 113.6073 0.0000 -16.7279 0.0000
# 4 0.0000 0.0000 0.0000 16.4643 0.0000 3.0537
# 5 -5.5826 1.4572 -16.7279 0.0000 20.0364 0.0000
# 6 0.0000 0.0000 0.0000 3.0537 0.0000 26.6428
#
#
#
# Elastic Compliance Matrix: (Units=1/GPa)
#
#
# Indices 1 2 3 4 5 6 
#
# 1 0.012828 -0.005359 -0.004666 0.000000 0.000068 0.000000
# 2 -0.005359 0.038221 -0.006714 0.000000 -0.009878 0.000000
# 3 -0.004666 -0.006714 0.013819 0.000000 0.010725 0.000000
# 4 0.000000 0.000000 0.000000 0.062057 0.000000 -0.007113
# 5 0.000068 -0.009878 0.010725 0.000000 0.059601 0.000000
# 6 0.000000 0.000000 0.000000 -0.007113 0.000000 0.038349
#
#
# Mechanical properties :
#
#
# Convention : Reuss Voigt Hill
#
# Bulk Modulus (GPa) = 31.85738 49.46815 40.66277
# Shear Modulus (GPa) = 18.60001 23.10061 20.85031
#
# Velocity S-wave (km/s) = 3.05458 3.40413 3.23408
# Velocity P-wave (km/s) = 5.33117 6.34554 5.86034
#
# Compressibility (1/GPa) = 0.03138990
#
# Stress axis : x y z
#
# Youngs Moduli (GPa) = 77.95388 26.16340 72.36426
#
# Poissons Ratio (x) = 0.14022 0.33766
# Poissons Ratio (y) = 0.41779 0.48583
# Poissons Ratio (z) = 0.36374 0.17565
#
# Static dielectric constant tensor:
#      x y z
#    x 3.606920 0.000000 -0.049990 
#    y 0.000000 3.599770 0.000000 
#    z -0.049990 0.000000 3.798860 
# 
# 
# High freq. dielectric constant tensor:
#      x y z
#    x 1.782940 0.000000 -0.006480 
#    y 0.000000 1.777070 0.000000 
#    z -0.006480 0.000000 1.783110 
# 
# From -- ./inp_files/58305.got.cif
#   From: 2010.06.25/outbox.cif.g09.slc.cpg/sg10_30_cif.got.tgz:58305.got - 2010.06.27 22:07:45.
