data_PCOD8063259
_publ_section_title
;
Structure prediction by ZEFSAII (Michael W. Deem and Ramdas Pophale) SiO2 
 PCOD8063259
Probable space group: P 2/M
;
_chemical_formula_sum "Si O2"
_cell_formula_units_Z 24
_cell_length_a 21.086549
_cell_length_b 9.444638
_cell_length_c 7.865371
_cell_angle_alpha 90.000000
_cell_angle_beta 55.190841
_cell_angle_gamma 90.000000
_cell_volume 1286.127008
_symmetry_space_group_name_H-M "P 2/M"
_symmetry_group_IT_number 10
_symmetry_cell_setting 'monoclinic'
loop_
_space_group_symop_operation_xyz
x,y,z
-x,y,-z
-x,-y,-z
x,-y,z
loop_
_atom_site_type_symbol
_atom_site_label
_atom_site_fract_x
_atom_site_fract_y
_atom_site_fract_z
Si Si1 0.092321 0.662361 0.049238
Si Si2 0.519741 0.348981 0.282020
Si Si3 0.165753 0.831700 0.243727
Si Si4 0.424023 0.847833 0.230854
Si Si5 0.658769 0.162975 0.965968
Si Si6 0.910357 0.662350 0.334525
O O1 0.116432 0.500000 0.049888
O O2 0.133581 0.766289 0.118640
O O3 0.001521 0.680210 0.213399
O O4 0.115106 0.702688 0.819658
O O5 0.500000 0.387184 0.500000
O O6 0.532869 0.500000 0.165274
O O7 0.440993 0.274291 0.338301
O O8 0.596719 0.255940 0.160323
O O9 0.255992 0.793912 0.108645
O O10 0.128186 0.765756 0.469967
O O11 0.150696 0.000000 0.268230
O O12 0.351086 0.810894 0.222217
O O13 0.409978 0.000000 0.343145
O O14 0.500000 0.857505 0.000000
O O15 0.641079 0.000000 0.036633
O O16 0.886755 0.500000 0.409717
#
# Coordination Sequence:
#
# PCOD8063259 Si02
#       6
#     4   4   4   4   4   4
#     4   9  19  37  59  81 109 146 190 229 266 327
#     4  10  20  33  51  78 105 128 166 219 265 306
#     4  11  22  35  54  83 117 146 180 229 280 324
#     4   8  15  31  53  70  91 128 170 204 242 303
#     4   9  20  37  52  72 103 139 175 209 256 321
#     4   9  19  37  59  81 107 147 191 227 269 327
#
# _framework density 18.660677
#
# number of rings (size 3 to 8) (size 9 to 14) (size 15 to 20)
#    0.000    2.667    0.000    3.500    0.000    9.000 
#    3.000    1.667    0.000    0.000    0.000    0.000 
#    0.000    0.000    0.000    0.000    0.000    0.000 
#
# Total GULP energy -297367.894494 kJ/mol
# GULP energy per Si atom -12390.328937 kJ/mol
# Density = 1.861820 g / cm^3
# Si number density = 18.660677 Si / 1000 Ang^3
#
#
#
# Elastic Constant Matrix: (Units=GPa)
#
#
# Indices 1 2 3 4 5 6 
#
# 1 128.7014 78.2114 52.7464 0.0000 11.8649 0.0000
# 2 78.2114 128.8903 54.4671 0.0000 10.6591 0.0000
# 3 52.7464 54.4671 64.4091 0.0000 13.3700 0.0000
# 4 0.0000 0.0000 0.0000 44.1766 0.0000 -19.4170
# 5 11.8649 10.6591 13.3700 0.0000 22.9947 0.0000
# 6 0.0000 0.0000 0.0000 -19.4170 0.0000 58.2021
#
#
#
# Elastic Compliance Matrix: (Units=1/GPa)
#
#
# Indices 1 2 3 4 5 6 
#
# 1 0.013927 -0.005657 -0.006453 0.000000 -0.000812 0.000000
# 2 -0.005657 0.014374 -0.007671 0.000000 0.000716 0.000000
# 3 -0.006453 -0.007671 0.029419 0.000000 -0.010220 0.000000
# 4 0.000000 0.000000 0.000000 0.026526 0.000000 0.008849
# 5 -0.000812 0.000716 -0.010220 0.000000 0.049517 0.000000
# 6 0.000000 0.000000 0.000000 0.008849 0.000000 0.020134
#
#
# Mechanical properties :
#
#
# Convention : Reuss Voigt Hill
#
# Bulk Modulus (GPa) = 55.07385 76.98342 66.02864
# Shear Modulus (GPa) = 25.06123 34.17972 29.62048
#
# Velocity S-wave (km/s) = 3.66867 4.28441 3.98844
# Velocity P-wave (km/s) = 6.89368 8.11288 7.52801
#
# Compressibility (1/GPa) = 0.01815744
#
# Stress axis : x y z
#
# Youngs Moduli (GPa) = 71.80197 69.57170 33.99201
#
# Poissons Ratio (x) = 0.39357 0.21935
# Poissons Ratio (y) = 0.40618 0.26075
# Poissons Ratio (z) = 0.46334 0.53368
#
# Static dielectric constant tensor:
#      x y z
#    x 3.904500 0.000000 0.124430 
#    y 0.000000 3.618890 0.000000 
#    z 0.124430 0.000000 3.151760 
# 
# 
# High freq. dielectric constant tensor:
#      x y z
#    x 1.729920 0.000000 0.012480 
#    y 0.000000 1.734430 0.000000 
#    z 0.012480 0.000000 1.697080 
# 
# From -- ./inp_files/35649.got.cif
#   From: 2010.06.25/outbox.cif.g09.slc.cpg/sg10_18_cif.got.tgz:35649.got - 2010.06.27 22:07:45.
