data_PCOD8063754
_publ_section_title
;
Structure prediction by ZEFSAII (Michael W. Deem and Ramdas Pophale) SiO2 
 PCOD8063754
Probable space group: P 2/M
;
_chemical_formula_sum "Si O2"
_cell_formula_units_Z 32
_cell_length_a 14.251371
_cell_length_b 9.114018
_cell_length_c 24.571659
_cell_angle_alpha 90.000000
_cell_angle_beta 29.910016
_cell_angle_gamma 90.000000
_cell_volume 1591.429819
_symmetry_space_group_name_H-M "P 2/M"
_symmetry_group_IT_number 10
_symmetry_cell_setting 'monoclinic'
loop_
_space_group_symop_operation_xyz
x,y,z
-x,y,-z
-x,-y,-z
x,-y,z
loop_
_atom_site_type_symbol
_atom_site_label
_atom_site_fract_x
_atom_site_fract_y
_atom_site_fract_z
Si Si1 0.961862 0.827836 0.458302
Si Si2 0.995091 0.674913 0.167215
Si Si3 0.584659 0.666021 0.191997
Si Si4 0.082254 0.171424 0.017878
Si Si5 0.459646 0.170400 0.356494
Si Si6 0.586654 0.325721 0.012691
Si Si7 0.636932 0.828484 0.382602
Si Si8 0.298376 0.665646 0.247139
O O1 0.756335 0.782190 0.541145
O O2 0.000000 0.768360 0.500000
O O3 0.107090 0.757757 0.342517
O O4 0.993047 0.000000 0.440696
O O5 0.982164 0.500000 0.169341
O O6 0.959524 0.748410 0.125911
O O7 0.830170 0.735760 0.289295
O O8 0.198058 0.728932 0.087921
O O9 0.660085 0.500000 0.159460
O O10 0.585141 0.739881 0.250795
O O11 0.379265 0.669844 0.267954
O O12 0.712789 0.755750 0.085219
O O13 0.091848 0.000000 0.026593
O O14 0.000000 0.203501 0.000000
O O15 0.526681 0.209418 0.382857
O O16 0.488614 0.000000 0.327855
O O17 0.590040 0.500000 0.012469
O O18 0.450279 0.266425 0.128888
O O19 0.500000 0.265736 0.000000
O O20 0.500000 0.779276 0.500000
O O21 0.687260 0.000000 0.361435
O O22 0.249284 0.500000 0.254288
#
# Coordination Sequence:
#
# PCOD8063754 Si02
#       8
#     4   4   4   4   4   4   4   4
#     4  10  20  34  54  81 112 151 192 235 285 341
#     4  11  22  39  63  91 119 150 195 247 293 344
#     4  11  21  34  55  85 118 149 189 241 292 344
#     4  11  23  37  56  84 118 158 197 234 290 357
#     4  10  21  38  58  82 115 156 198 238 294 356
#     4   9  19  38  61  85 117 155 190 230 288 352
#     4  10  23  43  63  83 114 157 199 242 290 345
#     4  10  20  35  55  82 114 150 188 231 285 342
#
# _framework density 20.107703999999998
#
# number of rings (size 3 to 8) (size 9 to 14) (size 15 to 20)
#    0.000    1.750    2.500    1.875    0.000    7.000 
#    0.000    0.000    0.000    2.625    0.000    0.000 
#    0.000    0.000    0.000    0.000    0.000    0.000 
#
# Total GULP energy -396843.452562 kJ/mol
# GULP energy per Si atom -12401.357893 kJ/mol
# Density = 2.006194 g / cm^3
# Si number density = 20.107704 Si / 1000 Ang^3
#
#
#
# Elastic Constant Matrix: (Units=GPa)
#
#
# Indices 1 2 3 4 5 6 
#
# 1 87.4857 28.1560 45.4446 0.0000 5.6762 0.0000
# 2 28.1560 61.4714 48.3374 0.0000 0.9916 0.0000
# 3 45.4446 48.3374 152.9028 0.0000 2.6514 0.0000
# 4 0.0000 0.0000 0.0000 39.9574 0.0000 -2.4203
# 5 5.6762 0.9916 2.6514 0.0000 33.0073 0.0000
# 6 0.0000 0.0000 0.0000 -2.4203 0.0000 17.5266
#
#
#
# Elastic Compliance Matrix: (Units=1/GPa)
#
#
# Indices 1 2 3 4 5 6 
#
# 1 0.014461 -0.004310 -0.002899 0.000000 -0.002125 0.000000
# 2 -0.004310 0.022934 -0.005979 0.000000 0.000532 0.000000
# 3 -0.002899 -0.005979 0.009293 0.000000 -0.000068 0.000000
# 4 0.000000 0.000000 0.000000 0.025238 0.000000 0.003485
# 5 -0.002125 0.000532 -0.000068 0.000000 0.030651 0.000000
# 6 0.000000 0.000000 0.000000 0.003485 0.000000 0.057537
#
#
# Mechanical properties :
#
#
# Convention : Reuss Voigt Hill
#
# Bulk Modulus (GPa) = 49.22747 60.63732 54.93239
# Shear Modulus (GPa) = 25.87180 30.09305 27.98242
#
# Velocity S-wave (km/s) = 3.59090 3.87278 3.73450
# Velocity P-wave (km/s) = 6.45970 7.08658 6.78039
#
# Compressibility (1/GPa) = 0.02031386
#
# Stress axis : x y z
#
# Youngs Moduli (GPa) = 69.15092 43.60250 107.61031
#
# Poissons Ratio (x) = 0.18793 0.31192
# Poissons Ratio (y) = 0.29805 0.64335
# Poissons Ratio (z) = 0.20044 0.26068
#
# Static dielectric constant tensor:
#      x y z
#    x 3.627710 0.000000 -0.047330 
#    y 0.000000 3.432140 0.000000 
#    z -0.047330 0.000000 3.759740 
# 
# 
# High freq. dielectric constant tensor:
#      x y z
#    x 1.778860 0.000000 -0.006290 
#    y 0.000000 1.766550 0.000000 
#    z -0.006290 0.000000 1.793930 
# 
# From -- ./inp_files/66609.got.cif
#   From: 2010.06.25/outbox.cif.g09.slc.cpg/sg10_34_cif.got.tgz:66609.got - 2010.06.27 22:07:45.
