data_PCOD8063990
_publ_section_title
;
Structure prediction by ZEFSAII (Michael W. Deem and Ramdas Pophale) SiO2 
 PCOD8063990
Probable space group: P 2/M
;
_chemical_formula_sum "Si O2"
_cell_formula_units_Z 32
_cell_length_a 23.861120
_cell_length_b 8.936559
_cell_length_c 14.198647
_cell_angle_alpha 90.000000
_cell_angle_beta 33.062119
_cell_angle_gamma 90.000000
_cell_volume 1651.737658
_symmetry_space_group_name_H-M "P 2/M"
_symmetry_group_IT_number 10
_symmetry_cell_setting 'monoclinic'
loop_
_space_group_symop_operation_xyz
x,y,z
-x,y,-z
-x,-y,-z
x,-y,z
loop_
_atom_site_type_symbol
_atom_site_label
_atom_site_fract_x
_atom_site_fract_y
_atom_site_fract_z
Si Si1 0.670417 0.176897 0.160675
Si Si2 0.865516 0.822284 0.772579
Si Si3 0.493762 0.673348 0.293934
Si Si4 0.446332 0.822921 0.172101
Si Si5 0.909934 0.821862 0.503883
Si Si6 0.786508 0.822655 0.500654
Si Si7 0.297839 0.670119 0.690637
Si Si8 0.115327 0.327353 0.814488
O O1 0.569303 0.252319 0.262346
O O2 0.681050 0.216145 0.255029
O O3 0.660334 0.000000 0.163797
O O4 0.769416 0.242061 0.965916
O O5 0.858866 0.766877 0.673700
O O6 0.972155 0.764541 0.668476
O O7 0.863604 0.000000 0.778442
O O8 0.521103 0.500000 0.246200
O O9 0.506666 0.748899 0.173888
O O10 0.378368 0.699545 0.493355
O O11 0.329779 0.762582 0.334679
O O12 0.452127 0.000000 0.177219
O O13 0.500000 0.772356 0.000000
O O14 0.845200 0.754410 0.508659
O O15 0.908820 0.000000 0.502536
O O16 0.845389 0.773735 0.325113
O O17 0.786246 0.000000 0.505954
O O18 0.308302 0.500000 0.713162
O O19 0.184614 0.700995 0.809119
O O20 0.120938 0.500000 0.775353
O O21 0.000000 0.277295 0.000000
#
# Coordination Sequence:
#
# PCOD8063990 Si02
#       8
#     4   4   4   4   4   4   4   4
#     4  11  23  35  58  89 113 140 184 239 290 337
#     4   8  16  31  51  79 113 146 178 221 272 332
#     4  11  23  41  61  80 110 153 193 232 280 341
#     4  10  22  38  59  89 121 152 189 239 293 341
#     4   8  15  30  52  78 112 148 180 214 271 336
#     4  10  20  34  59  89 116 148 186 237 289 336
#     4  10  22  41  59  78 110 150 190 232 281 340
#     4  10  22  40  60  82 114 158 196 231 283 342
#
# _framework density 19.373536000000001
#
# number of rings (size 3 to 8) (size 9 to 14) (size 15 to 20)
#    0.000    2.250    1.250    1.875    3.500    3.500 
#    0.000    0.000    0.000    0.000    0.000    4.375 
#    0.000    0.000    0.000    0.000    0.000    0.000 
#
# Total GULP energy -396851.303084 kJ/mol
# GULP energy per Si atom -12401.603221 kJ/mol
# Density = 1.932944 g / cm^3
# Si number density = 19.373536 Si / 1000 Ang^3
#
#
#
# Elastic Constant Matrix: (Units=GPa)
#
#
# Indices 1 2 3 4 5 6 
#
# 1 129.2173 28.0074 47.2502 0.0000 -3.1981 0.0000
# 2 28.0074 35.1857 27.0739 0.0000 0.3764 0.0000
# 3 47.2502 27.0739 109.2367 0.0000 -0.3517 0.0000
# 4 0.0000 0.0000 0.0000 14.9889 0.0000 -3.3452
# 5 -3.1981 0.3764 -0.3517 0.0000 29.6539 0.0000
# 6 0.0000 0.0000 0.0000 -3.3452 0.0000 19.3454
#
#
#
# Elastic Compliance Matrix: (Units=1/GPa)
#
#
# Indices 1 2 3 4 5 6 
#
# 1 0.010093 -0.005794 -0.002926 0.000000 0.001127 0.000000
# 2 -0.005794 0.038453 -0.007028 0.000000 -0.001196 0.000000
# 3 -0.002926 -0.007028 0.012162 0.000000 -0.000082 0.000000
# 4 0.000000 0.000000 0.000000 0.069394 0.000000 0.011999
# 5 0.001127 -0.001196 -0.000082 0.000000 0.033858 0.000000
# 6 0.000000 0.000000 0.000000 0.011999 0.000000 0.053767
#
#
# Mechanical properties :
#
#
# Convention : Reuss Voigt Hill
#
# Bulk Modulus (GPa) = 34.23342 53.14473 43.68908
# Shear Modulus (GPa) = 19.30799 24.21818 21.76309
#
# Velocity S-wave (km/s) = 3.16035 3.53946 3.35526
# Velocity P-wave (km/s) = 5.57007 6.64792 6.13272
#
# Compressibility (1/GPa) = 0.02921122
#
# Stress axis : x y z
#
# Youngs Moduli (GPa) = 99.08287 26.00549 82.22614
#
# Poissons Ratio (x) = 0.15068 0.24058
# Poissons Ratio (y) = 0.57412 0.57789
# Poissons Ratio (z) = 0.28990 0.18277
#
# Static dielectric constant tensor:
#      x y z
#    x 3.698460 0.000000 -0.146810 
#    y 0.000000 3.181660 0.000000 
#    z -0.146810 0.000000 3.747910 
# 
# 
# High freq. dielectric constant tensor:
#      x y z
#    x 1.766970 0.000000 -0.004340 
#    y 0.000000 1.720980 0.000000 
#    z -0.004340 0.000000 1.762280 
# 
# From -- ./inp_files/71412.got.cif
#   From: 2010.06.25/outbox.cif.g09.slc.cpg/sg10_36_cif.got.tgz:71412.got - 2010.06.27 22:07:45.
