data_PCOD8063092
_publ_section_title
;
Structure prediction by ZEFSAII (Michael W. Deem and Ramdas Pophale) SiO2 
 PCOD8063092
Probable space group: P 2/M
;
_chemical_formula_sum "Si O2"
_cell_formula_units_Z 28
_cell_length_a 14.521319
_cell_length_b 8.952715
_cell_length_c 18.885521
_cell_angle_alpha 90.000000
_cell_angle_beta 38.464093
_cell_angle_gamma 90.000000
_cell_volume 1527.203735
_symmetry_space_group_name_H-M "P 2/M"
_symmetry_group_IT_number 10
_symmetry_cell_setting 'monoclinic'
loop_
_space_group_symop_operation_xyz
x,y,z
-x,y,-z
-x,-y,-z
x,-y,z
loop_
_atom_site_type_symbol
_atom_site_label
_atom_site_fract_x
_atom_site_fract_y
_atom_site_fract_z
Si Si1 0.174079 0.326569 0.299828
Si Si2 0.973877 0.673626 0.226534
Si Si3 0.323952 0.823521 0.336750
Si Si4 0.367562 0.825473 0.904156
Si Si5 0.156520 0.669332 0.552690
Si Si6 0.742952 0.826577 0.883174
Si Si7 0.952004 0.176550 0.950469
O O1 0.203672 0.500000 0.292694
O O2 0.204097 0.244136 0.355225
O O3 0.285229 0.266532 0.171548
O O4 0.006765 0.291560 0.377737
O O5 0.024218 0.500000 0.194844
O O6 0.102855 0.781584 0.174972
O O7 0.936409 0.734957 0.170430
O O8 0.839702 0.691654 0.363988
O O9 0.487104 0.756955 0.220920
O O10 0.277935 0.776296 0.443787
O O11 0.321713 0.000000 0.330917
O O12 0.365415 0.000000 0.891004
O O13 0.378789 0.793484 0.982264
O O14 0.215674 0.762427 0.961293
O O15 0.196869 0.500000 0.508283
O O16 0.744531 0.000000 0.861389
O O17 0.966221 0.000000 0.928238
O O18 0.000000 0.220827 0.000000
#
# Coordination Sequence:
#
# PCOD8063092 Si02
#       7
#     4   4   4   4   4   4   4
#     4  10  20  33  47  66  94 125 162 207 245 273
#     4   9  17  30  49  73 100 125 151 191 240 280
#     4  11  21  31  46  67  93 127 164 199 235 279
#     4   8  17  32  47  69  99 124 149 191 243 283
#     4   9  19  34  48  64  92 128 162 199 237 270
#     4   9  16  30  50  68  92 125 161 198 236 281
#     4   9  17  32  56  80  99 121 151 188 231 283
#
# _framework density 18.334161999999999
#
# number of rings (size 3 to 8) (size 9 to 14) (size 15 to 20)
#    0.000    2.714    0.000    3.857    0.000    6.000 
#    0.000   10.000    0.000    0.857    0.000    6.000 
#    0.000    0.000    0.000    0.000    0.000    0.000 
#
# Total GULP energy -346995.198772 kJ/mol
# GULP energy per Si atom -12392.685670 kJ/mol
# Density = 1.829243 g / cm^3
# Si number density = 18.334162 Si / 1000 Ang^3
#
#
#
# Elastic Constant Matrix: (Units=GPa)
#
#
# Indices 1 2 3 4 5 6 
#
# 1 40.1021 20.0231 38.5802 0.0000 20.2734 0.0000
# 2 20.0231 60.5762 51.9673 0.0000 9.1551 0.0000
# 3 38.5802 51.9673 138.4137 0.0000 22.8729 0.0000
# 4 0.0000 0.0000 0.0000 26.0764 0.0000 11.7831
# 5 20.2734 9.1551 22.8729 0.0000 26.2181 0.0000
# 6 0.0000 0.0000 0.0000 11.7831 0.0000 13.1534
#
#
#
# Elastic Compliance Matrix: (Units=1/GPa)
#
#
# Indices 1 2 3 4 5 6 
#
# 1 0.049788 -0.006291 -0.006446 0.000000 -0.030679 0.000000
# 2 -0.006291 0.025155 -0.008230 0.000000 0.003260 0.000000
# 3 -0.006446 -0.008230 0.012634 0.000000 -0.003164 0.000000
# 4 0.000000 0.000000 0.000000 0.064430 0.000000 -0.057718
# 5 -0.030679 0.003260 -0.003164 0.000000 0.063486 0.000000
# 6 0.000000 0.000000 0.000000 -0.057718 0.000000 0.127732
#
#
# Mechanical properties :
#
#
# Convention : Reuss Voigt Hill
#
# Bulk Modulus (GPa) = 21.90843 51.13701 36.52272
# Shear Modulus (GPa) = 12.48837 21.65766 17.07301
#
# Velocity S-wave (km/s) = 2.61272 3.44069 3.05489
# Velocity P-wave (km/s) = 4.59099 6.61337 5.69271
#
# Compressibility (1/GPa) = 0.04564453
#
# Stress axis : x y z
#
# Youngs Moduli (GPa) = 20.08507 39.75366 79.15082
#
# Poissons Ratio (x) = 0.25008 0.51021
# Poissons Ratio (y) = 0.12635 0.65139
# Poissons Ratio (z) = 0.12947 0.32716
#
# Static dielectric constant tensor:
#      x y z
#    x 3.176430 0.000000 0.306480 
#    y 0.000000 3.299710 0.000000 
#    z 0.306480 0.000000 3.803830 
# 
# 
# High freq. dielectric constant tensor:
#      x y z
#    x 1.666770 0.000000 0.027680 
#    y 0.000000 1.704170 0.000000 
#    z 0.027680 0.000000 1.717580 
# 
# From -- ./inp_files/54667.got.cif
#   From: 2010.06.25/outbox.cif.g09.slc.cpg/sg10_28_cif.got.tgz:54667.got - 2010.06.27 22:07:45.
