data_PCOD8063436
_publ_section_title
;
Structure prediction by ZEFSAII (Michael W. Deem and Ramdas Pophale) SiO2 
 PCOD8063436
Probable space group: P 2/M
;
_chemical_formula_sum "Si O2"
_cell_formula_units_Z 32
_cell_length_a 14.811104
_cell_length_b 14.389315
_cell_length_c 9.909210
_cell_angle_alpha 90.000000
_cell_angle_beta 70.073234
_cell_angle_gamma 90.000000
_cell_volume 1985.427531
_symmetry_space_group_name_H-M "P 2/M"
_symmetry_group_IT_number 10
_symmetry_cell_setting 'monoclinic'
loop_
_space_group_symop_operation_xyz
x,y,z
-x,y,-z
-x,-y,-z
x,-y,z
loop_
_atom_site_type_symbol
_atom_site_label
_atom_site_fract_x
_atom_site_fract_y
_atom_site_fract_z
Si Si1 0.099916 0.290054 0.180653
Si Si2 0.814191 0.607640 0.112823
Si Si3 0.028325 0.898548 0.270828
Si Si4 0.597974 0.609919 0.619709
Si Si5 0.088574 0.391977 0.649907
Si Si6 0.225108 0.290910 0.371870
Si Si7 0.613284 0.390402 0.306794
Si Si8 0.846936 0.101777 0.524742
O O1 0.067268 0.185013 0.158133
O O2 0.190587 0.291533 0.234720
O O3 0.013826 0.341885 0.301294
O O4 0.125770 0.337473 0.027687
O O5 0.817196 0.500000 0.070095
O O6 0.861716 0.624866 0.232397
O O7 0.704270 0.646004 0.174574
O O8 0.085279 0.893333 0.380884
O O9 0.915060 0.884639 0.359195
O O10 0.044850 0.000000 0.193425
O O11 0.616153 0.500000 0.626520
O O12 0.668295 0.665848 0.682946
O O13 0.487527 0.636253 0.713024
O O14 0.618353 0.645978 0.457697
O O15 0.072220 0.500000 0.629555
O O16 0.154813 0.352380 0.498504
O O17 0.229882 0.185292 0.427685
O O18 0.620860 0.500000 0.315943
O O19 0.795676 0.000000 0.543407
#
# Coordination Sequence:
#
# PCOD8063436 Si02
#       8
#     4   4   4   4   4   4   4   4
#     4  11  21  30  44  69  97 124 150 186 229 270
#     4  10  20  34  47  62  90 130 164 183 214 272
#     4   8  14  27  45  63  86 119 155 188 223 264
#     4   9  16  28  48  71  90 112 152 198 228 260
#     4  11  21  32  44  62  94 133 162 179 209 269
#     4  11  19  29  47  73  94 114 152 195 234 263
#     4   8  15  30  49  65  84 118 161 194 220 260
#     4   8  14  26  44  65  90 117 148 188 228 269
#
# _framework density 16.117435
#
# number of rings (size 3 to 8) (size 9 to 14) (size 15 to 20)
#    0.000    2.500    2.500    3.000    0.000    3.500 
#    0.000    0.625    0.000    4.500    0.000    2.625 
#    0.000    4.000    0.000    0.000    0.000    0.000 
#
# Total GULP energy -396600.904884 kJ/mol
# GULP energy per Si atom -12393.778278 kJ/mol
# Density = 1.608075 g / cm^3
# Si number density = 16.117435 Si / 1000 Ang^3
#
#
#
# Elastic Constant Matrix: (Units=GPa)
#
#
# Indices 1 2 3 4 5 6 
#
# 1 68.2654 27.2085 -4.0067 0.0000 -1.8800 0.0000
# 2 27.2085 91.8733 13.6621 0.0000 2.6115 0.0000
# 3 -4.0067 13.6621 30.2368 0.0000 -2.5690 0.0000
# 4 0.0000 0.0000 0.0000 11.7176 0.0000 -6.1034
# 5 -1.8800 2.6115 -2.5690 0.0000 12.5696 0.0000
# 6 0.0000 0.0000 0.0000 -6.1034 0.0000 3.1407
#
#
#
# Elastic Compliance Matrix: (Units=1/GPa)
#
#
# Indices 1 2 3 4 5 6 
#
# 1 0.017573 -0.006173 0.005546 0.000000 0.005044 0.000000
# 2 -0.006173 0.013996 -0.007599 0.000000 -0.005384 0.000000
# 3 0.005546 -0.007599 0.038107 0.000000 0.010197 0.000000
# 4 0.000000 0.000000 0.000000 -6.986029 0.000000-13.575972
# 5 0.005044 -0.005384 0.010197 0.000000 0.083514 0.000000
# 6 0.000000 0.000000 0.000000-13.575972 0.000000-26.063831
#
#
# Mechanical properties :
#
#
# Convention : Reuss Voigt Hill
#
# Bulk Modulus (GPa) = 18.78805 29.34480 24.06642
# Shear Modulus (GPa) = -0.15215 15.71969 7.78377
#
# Velocity S-wave (km/s) = -0.30758 3.12640 2.19998
# Velocity P-wave (km/s) = 3.39943 5.59276 4.62791
#
# Compressibility (1/GPa) = 0.05322531
#
# Stress axis : x y z
#
# Youngs Moduli (GPa) = 56.90442 71.45080 26.24177
#
# Poissons Ratio (x) = 0.44103 -0.14554
# Poissons Ratio (y) = 0.35124 0.19941
# Poissons Ratio (z) = -0.31561 0.54296
#
# Static dielectric constant tensor:
#      x y z
#    x 3.154520 0.000000 -0.137220 
#    y 0.000000 3.266600 0.000000 
#    z -0.137220 0.000000 2.795910 
# 
# 
# High freq. dielectric constant tensor:
#      x y z
#    x 1.604970 0.000000 -0.002480 
#    y 0.000000 1.609230 0.000000 
#    z -0.002480 0.000000 1.591210 
# 
# From -- ./inp_files/29039.got.cif
#   From: 2010.06.25/outbox.cif.g09.slc.cpg/sg10_15_cif.got.tgz:29039.got - 2010.06.27 22:07:45.
