data_PCOD8063430
_publ_section_title
;
Structure prediction by ZEFSAII (Michael W. Deem and Ramdas Pophale) SiO2 
 PCOD8063430
Probable space group: P 2/M
;
_chemical_formula_sum "Si O2"
_cell_formula_units_Z 28
_cell_length_a 14.156863
_cell_length_b 10.399628
_cell_length_c 15.348513
_cell_angle_alpha 90.000000
_cell_angle_beta 40.960973
_cell_angle_gamma 90.000000
_cell_volume 1481.335809
_symmetry_space_group_name_H-M "P 2/M"
_symmetry_group_IT_number 10
_symmetry_cell_setting 'monoclinic'
loop_
_space_group_symop_operation_xyz
x,y,z
-x,y,-z
-x,-y,-z
x,-y,z
loop_
_atom_site_type_symbol
_atom_site_label
_atom_site_fract_x
_atom_site_fract_y
_atom_site_fract_z
Si Si1 0.033979 0.858672 0.876922
Si Si2 0.840278 0.346606 0.600717
Si Si3 0.836588 0.654454 0.938935
Si Si4 0.312979 0.354185 0.462371
Si Si5 0.364676 0.357535 0.770932
Si Si6 0.659065 0.796778 0.383152
Si Si7 0.337828 0.652331 0.112805
O O1 0.206061 0.881771 0.741769
O O2 0.978724 0.744348 0.850818
O O3 0.963917 0.000000 0.907069
O O4 0.000000 0.817123 0.000000
O O5 0.836652 0.500000 0.606593
O O6 0.788510 0.298484 0.542507
O O7 0.741919 0.290725 0.746779
O O8 0.000000 0.291850 0.500000
O O9 0.872602 0.500000 0.916575
O O10 0.754419 0.691332 0.907631
O O11 0.736126 0.709321 0.087162
O O12 0.270863 0.500000 0.518200
O O13 0.471910 0.350710 0.309923
O O14 0.297566 0.263377 0.555368
O O15 0.304318 0.500000 0.810665
O O16 0.357316 0.312209 0.677510
O O17 0.500000 0.867325 0.500000
O O18 0.347415 0.500000 0.111225
O O19 0.500000 0.709970 0.000000
#
# Coordination Sequence:
#
# PCOD8063430 Si02
#       7
#     4   4   4   4   4   4   4
#     4  11  24  41  57  78 112 148 180 222 278 331
#     4   9  17  27  39  64 103 142 174 208 258 317
#     4  10  20  33  57  86 112 143 185 227 270 319
#     4   9  17  28  47  73 111 147 173 215 273 322
#     4   9  16  29  47  76 110 139 171 218 271 318
#     4  10  20  34  53  77 101 137 184 223 262 324
#     4   9  17  30  49  76 109 143 178 220 267 316
#
# _framework density 18.901859000000002
#
# number of rings (size 3 to 8) (size 9 to 14) (size 15 to 20)
#    0.000    2.429    1.429    1.286    2.000    6.857 
#    0.000    0.000    0.000    0.429    0.000    2.000 
#    0.000    0.000    0.000    0.000    0.000    0.000 
#
# Total GULP energy -346870.180334 kJ/mol
# GULP energy per Si atom -12388.220726 kJ/mol
# Density = 1.885884 g / cm^3
# Si number density = 18.901859 Si / 1000 Ang^3
#
#
#
# Elastic Constant Matrix: (Units=GPa)
#
#
# Indices 1 2 3 4 5 6 
#
# 1 143.9159 37.8429 52.2114 0.0000 3.7401 0.0000
# 2 37.8429 49.0016 14.5561 0.0000 -2.6796 0.0000
# 3 52.2114 14.5561 114.6074 0.0000 -0.4854 0.0000
# 4 0.0000 0.0000 0.0000 180.0234 0.0000 -19.2749
# 5 3.7401 -2.6796 -0.4854 0.0000 31.0062 0.0000
# 6 0.0000 0.0000 0.0000 -19.2749 0.0000 8.9780
#
#
#
# Elastic Compliance Matrix: (Units=1/GPa)
#
#
# Indices 1 2 3 4 5 6 
#
# 1 0.010161 -0.006830 -0.003769 0.000000 -0.001875 0.000000
# 2 -0.006830 0.025898 -0.000165 0.000000 0.003059 0.000000
# 3 -0.003769 -0.000165 0.010466 0.000000 0.000604 0.000000
# 4 0.000000 0.000000 0.000000 0.007213 0.000000 0.015485
# 5 -0.001875 0.003059 0.000604 0.000000 0.032752 0.000000
# 6 0.000000 0.000000 0.000000 0.015485 0.000000 0.144628
#
#
# Mechanical properties :
#
#
# Convention : Reuss Voigt Hill
#
# Bulk Modulus (GPa) = 40.00481 57.41619 48.71050
# Shear Modulus (GPa) = 19.15873 57.52916 38.34394
#
# Velocity S-wave (km/s) = 3.18715 5.52284 4.50886
# Velocity P-wave (km/s) = 5.89528 8.43273 7.27548
#
# Compressibility (1/GPa) = 0.02499699
#
# Stress axis : x y z
#
# Youngs Moduli (GPa) = 98.41967 38.61282 95.54613
#
# Poissons Ratio (x) = 0.26371 0.36015
# Poissons Ratio (y) = 0.67217 0.01576
# Poissons Ratio (z) = 0.37098 0.00637
#
# Static dielectric constant tensor:
#      x y z
#    x 3.572070 0.000000 -0.140970 
#    y 0.000000 2.881580 0.000000 
#    z -0.140970 0.000000 3.761270 
# 
# 
# High freq. dielectric constant tensor:
#      x y z
#    x 1.740260 0.000000 -0.002230 
#    y 0.000000 1.666440 0.000000 
#    z -0.002230 0.000000 1.752560 
# 
# From -- ./inp_files/46025.got.cif
#   From: 2010.06.25/outbox.cif.g09.slc.cpg/sg10_24_cif.got.tgz:46025.got - 2010.06.27 22:07:45.
