data_PCOD8063784
_publ_section_title
;
Structure prediction by ZEFSAII (Michael W. Deem and Ramdas Pophale) SiO2 
 PCOD8063784
Probable space group: P 2/M
;
_chemical_formula_sum "Si O2"
_cell_formula_units_Z 32
_cell_length_a 12.651746
_cell_length_b 11.117695
_cell_length_c 24.971054
_cell_angle_alpha 90.000000
_cell_angle_beta 26.878037
_cell_angle_gamma 90.000000
_cell_volume 1587.923988
_symmetry_space_group_name_H-M "P 2/M"
_symmetry_group_IT_number 10
_symmetry_cell_setting 'monoclinic'
loop_
_space_group_symop_operation_xyz
x,y,z
-x,y,-z
-x,-y,-z
x,-y,z
loop_
_atom_site_type_symbol
_atom_site_label
_atom_site_fract_x
_atom_site_fract_y
_atom_site_fract_z
Si Si1 0.360862 0.863499 0.926900
Si Si2 0.730274 0.635398 0.107797
Si Si3 0.856699 0.227157 0.723318
Si Si4 0.750456 0.134975 0.385226
Si Si5 0.966187 0.773423 0.180771
Si Si6 0.741557 0.635909 0.877087
Si Si7 0.419729 0.635428 0.707260
Si Si8 0.951486 0.639708 0.462036
O O1 0.334571 0.748184 0.899963
O O2 0.624466 0.855494 0.830763
O O3 0.334663 0.000000 0.913679
O O4 0.158571 0.852508 0.062767
O O5 0.685892 0.500000 0.102507
O O6 0.575326 0.648016 0.230901
O O7 0.000000 0.646981 0.000000
O O8 0.844830 0.329227 0.773459
O O9 0.089319 0.156233 0.634936
O O10 0.885440 0.284952 0.651705
O O11 0.500000 0.208067 0.500000
O O12 0.881451 0.151686 0.269874
O O13 0.676013 0.000000 0.422967
O O14 0.754537 0.734079 0.238259
O O15 0.082224 0.654023 0.153083
O O16 0.678938 0.500000 0.899341
O O17 0.500000 0.706721 0.000000
O O18 0.340427 0.500000 0.727262
O O19 0.680967 0.660259 0.568428
O O20 0.021390 0.500000 0.425982
O O21 0.000000 0.687145 0.500000
#
# Coordination Sequence:
#
# PCOD8063784 Si02
#       8
#     4   4   4   4   4   4   4   4
#     4  12  25  39  59  91 128 167 208 255 313 373
#     4  10  21  39  63  91 122 163 207 252 310 371
#     4  11  22  39  60  85 120 166 203 252 308 373
#     4  10  22  40  61  82 109 152 207 257 303 363
#     4  11  21  37  57  87 120 160 196 252 308 374
#     4  10  20  34  54  86 121 155 199 248 300 359
#     4  10  20  37  61  90 123 157 200 254 312 370
#     4  10  21  38  62  91 121 156 203 257 310 370
#
# _framework density 20.152097999999999
#
# number of rings (size 3 to 8) (size 9 to 14) (size 15 to 20)
#    0.000    1.500    2.500    3.000    0.000    2.750 
#    0.000    1.875    0.000   14.250    0.000    0.000 
#    0.000    0.000    0.000    0.000    0.000    0.000 
#
# Total GULP energy -396478.841158 kJ/mol
# GULP energy per Si atom -12389.963786 kJ/mol
# Density = 2.010623 g / cm^3
# Si number density = 20.152098 Si / 1000 Ang^3
#
#
#
# Elastic Constant Matrix: (Units=GPa)
#
#
# Indices 1 2 3 4 5 6 
#
# 1 102.8992 47.9980 35.4698 0.0000 -5.0008 0.0000
# 2 47.9980 106.7345 29.1216 0.0000 -1.7795 0.0000
# 3 35.4698 29.1216 101.7865 0.0000 -6.1535 0.0000
# 4 0.0000 0.0000 0.0000 10.4592 0.0000 -6.6256
# 5 -5.0008 -1.7795 -6.1535 0.0000 36.9951 0.0000
# 6 0.0000 0.0000 0.0000 -6.6256 0.0000 7.3659
#
#
#
# Elastic Compliance Matrix: (Units=1/GPa)
#
#
# Indices 1 2 3 4 5 6 
#
# 1 0.013200 -0.005077 -0.003085 0.000000 0.001027 0.000000
# 2 -0.005077 0.012115 -0.001721 0.000000 -0.000390 0.000000
# 3 -0.003085 -0.001721 0.011477 0.000000 0.001409 0.000000
# 4 0.000000 0.000000 0.000000 0.222246 0.000000 0.199907
# 5 0.001027 -0.000390 0.001409 0.000000 0.027385 0.000000
# 6 0.000000 0.000000 0.000000 0.199907 0.000000 0.315575
#
#
# Mechanical properties :
#
#
# Convention : Reuss Voigt Hill
#
# Bulk Modulus (GPa) = 58.73183 59.62209 59.17696
# Shear Modulus (GPa) = 7.96891 24.21943 16.09417
#
# Velocity S-wave (km/s) = 1.99072 3.47051 2.82908
# Velocity P-wave (km/s) = 5.87295 6.76088 6.33250
#
# Compressibility (1/GPa) = 0.01702654
#
# Stress axis : x y z
#
# Youngs Moduli (GPa) = 75.75855 82.54165 87.13061
#
# Poissons Ratio (x) = 0.41907 0.26881
# Poissons Ratio (y) = 0.38463 0.14991
# Poissons Ratio (z) = 0.23373 0.14202
#
# Static dielectric constant tensor:
#      x y z
#    x 3.537380 0.000000 -0.042590 
#    y 0.000000 3.465890 0.000000 
#    z -0.042590 0.000000 3.822010 
# 
# 
# High freq. dielectric constant tensor:
#      x y z
#    x 1.780510 0.000000 -0.010400 
#    y 0.000000 1.764930 0.000000 
#    z -0.010400 0.000000 1.811020 
# 
# From -- ./inp_files/88916.got.cif
#   From: 2010.06.25/outbox.cif.g09.slc.cpg/sg10_45_cif.got.tgz:88916.got - 2010.06.27 22:07:45.
