data_PCOD8063626
_publ_section_title
;
Structure prediction by ZEFSAII (Michael W. Deem and Ramdas Pophale) SiO2 
 PCOD8063626
Probable space group: P 2/M
;
_chemical_formula_sum "Si O2"
_cell_formula_units_Z 28
_cell_length_a 13.383098
_cell_length_b 14.375569
_cell_length_c 8.993492
_cell_angle_alpha 90.000000
_cell_angle_beta 71.335185
_cell_angle_gamma 90.000000
_cell_volume 1639.255453
_symmetry_space_group_name_H-M "P 2/M"
_symmetry_group_IT_number 10
_symmetry_cell_setting 'monoclinic'
loop_
_space_group_symop_operation_xyz
x,y,z
-x,y,-z
-x,-y,-z
x,-y,z
loop_
_atom_site_type_symbol
_atom_site_label
_atom_site_fract_x
_atom_site_fract_y
_atom_site_fract_z
Si Si1 0.832433 0.898935 0.639956
Si Si2 0.948478 0.101298 0.293789
Si Si3 0.189385 0.610240 0.562578
Si Si4 0.388785 0.393202 0.973965
Si Si5 0.397376 0.610518 0.632679
Si Si6 0.992027 0.294085 0.170053
Si Si7 0.209277 0.293301 0.239369
O O1 0.851666 0.885454 0.454619
O O2 0.762188 0.814048 0.734437
O O3 0.944376 0.896170 0.666000
O O4 0.777910 0.000000 0.695228
O O5 0.947787 0.187789 0.180724
O O6 0.937129 0.000000 0.218024
O O7 0.189209 0.500000 0.552493
O O8 0.293073 0.646658 0.599144
O O9 0.085984 0.642216 0.698606
O O10 0.188213 0.649303 0.397791
O O11 0.350344 0.500000 0.992902
O O12 0.396645 0.353992 0.802816
O O13 0.500000 0.383096 0.000000
O O14 0.306666 0.332381 0.103036
O O15 0.500000 0.651730 0.500000
O O16 0.402947 0.500000 0.628321
O O17 0.105999 0.299939 0.188597
O O18 0.000000 0.333980 0.000000
#
# Coordination Sequence:
#
# PCOD8063626 Si02
#       7
#     4   4   4   4   4   4   4
#     4   8  14  27  49  72  94 124 162 203 245 291
#     4   8  14  28  48  69  95 126 162 204 246 287
#     4  11  22  34  49  70  98 134 172 205 242 293
#     4  10  20  34  53  77 102 128 165 209 247 287
#     4   9  18  34  53  72  96 127 164 207 249 284
#     4  11  22  33  46  71 105 136 166 203 247 301
#     4  11  20  33  52  73  99 132 167 205 249 296
#
# _framework density 17.080926999999999
#
# number of rings (size 3 to 8) (size 9 to 14) (size 15 to 20)
#    0.000    2.286    1.429    3.429    0.000    4.571 
#    0.000    0.000    0.000    0.429    0.000    0.000 
#    0.000    4.000    0.000    0.000    0.000    0.000 
#
# Total GULP energy -347083.565797 kJ/mol
# GULP energy per Si atom -12395.841636 kJ/mol
# Density = 1.704205 g / cm^3
# Si number density = 17.080927 Si / 1000 Ang^3
#
#
#
# Elastic Constant Matrix: (Units=GPa)
#
#
# Indices 1 2 3 4 5 6 
#
# 1 56.5724 33.9611 34.0967 0.0000 -1.7205 0.0000
# 2 33.9611 96.6214 49.6900 0.0000 -10.5025 0.0000
# 3 34.0967 49.6900 131.5213 0.0000 -5.1160 0.0000
# 4 0.0000 0.0000 0.0000 29.3165 0.0000 1.5940
# 5 -1.7205 -10.5025 -5.1160 0.0000 30.3793 0.0000
# 6 0.0000 0.0000 0.0000 1.5940 0.0000 14.3096
#
#
#
# Elastic Compliance Matrix: (Units=1/GPa)
#
#
# Indices 1 2 3 4 5 6 
#
# 1 0.023867 -0.006636 -0.003742 0.000000 -0.001572 0.000000
# 2 -0.006636 0.015105 -0.003823 0.000000 0.004202 0.000000
# 3 -0.003742 -0.003823 0.010024 0.000000 0.000154 0.000000
# 4 0.000000 0.000000 0.000000 0.034318 0.000000 -0.003823
# 5 -0.001572 0.004202 0.000154 0.000000 0.034307 0.000000
# 6 0.000000 0.000000 0.000000 -0.003823 0.000000 0.070309
#
#
# Mechanical properties :
#
#
# Convention : Reuss Voigt Hill
#
# Bulk Modulus (GPa) = 48.55517 57.80119 53.17818
# Shear Modulus (GPa) = 22.40184 25.93223 24.16703
#
# Velocity S-wave (km/s) = 3.62541 3.90063 3.76554
# Velocity P-wave (km/s) = 6.78329 7.36204 7.07858
#
# Compressibility (1/GPa) = 0.02059513
#
# Stress axis : x y z
#
# Youngs Moduli (GPa) = 41.89833 66.20368 99.76312
#
# Poissons Ratio (x) = 0.43931 0.37328
# Poissons Ratio (y) = 0.27802 0.38140
# Poissons Ratio (z) = 0.15677 0.25310
#
# Static dielectric constant tensor:
#      x y z
#    x 3.020080 0.000000 0.024180 
#    y 0.000000 3.453510 0.000000 
#    z 0.024180 0.000000 3.222830 
# 
# 
# High freq. dielectric constant tensor:
#      x y z
#    x 1.632640 0.000000 0.005310 
#    y 0.000000 1.650850 0.000000 
#    z 0.005310 0.000000 1.664230 
# 
# From -- ./inp_files/24867.got.cif
#   From: 2010.06.25/outbox.cif.g09.slc.cpg/sg10_13_cif.got.tgz:24867.got - 2010.06.27 22:07:45.
