data_PCOD8063209
_publ_section_title
;
Structure prediction by ZEFSAII (Michael W. Deem and Ramdas Pophale) SiO2 
 PCOD8063209
Probable space group: P 2/M
;
_chemical_formula_sum "Si O2"
_cell_formula_units_Z 28
_cell_length_a 15.104883
_cell_length_b 8.987413
_cell_length_c 11.850344
_cell_angle_alpha 90.000000
_cell_angle_beta 120.171638
_cell_angle_gamma 90.000000
_cell_volume 1390.784763
_symmetry_space_group_name_H-M "P 2/M"
_symmetry_group_IT_number 10
_symmetry_cell_setting 'monoclinic'
loop_
_space_group_symop_operation_xyz
x,y,z
-x,y,-z
-x,-y,-z
x,-y,z
loop_
_atom_site_type_symbol
_atom_site_label
_atom_site_fract_x
_atom_site_fract_y
_atom_site_fract_z
Si Si1 0.205557 0.165046 0.464272
Si Si2 0.178036 0.823395 0.874497
Si Si3 0.504168 0.325201 0.877285
Si Si4 0.006451 0.325474 0.372264
Si Si5 0.312285 0.835281 0.754910
Si Si6 0.617871 0.826387 0.592121
Si Si7 0.696726 0.322593 0.862695
O O1 0.115777 0.283790 0.385788
O O2 0.219485 0.164091 0.607754
O O3 0.314172 0.205276 0.475429
O O4 0.170666 0.000000 0.401446
O O5 0.269413 0.778360 0.847325
O O6 0.074249 0.759730 0.756947
O O7 0.167519 0.000000 0.881466
O O8 0.203723 0.748830 0.012402
O O9 0.511717 0.500000 0.884977
O O10 0.397211 0.273542 0.755439
O O11 0.598293 0.261729 0.867459
O O12 0.500000 0.255892 0.000000
O O13 0.987325 0.500000 0.348185
O O14 0.000000 0.277039 0.500000
O O15 0.359471 0.000000 0.797686
O O16 0.500000 0.768798 0.500000
O O17 0.680309 0.736174 0.726574
O O18 0.614554 0.000000 0.622376
O O19 0.707987 0.500000 0.869201
#
# Coordination Sequence:
#
# PCOD8063209 Si02
#       7
#     4   4   4   4   4   4   4
#     4  10  21  39  62  89 120 157 203 253 302 353
#     4  11  22  37  60  88 120 157 199 248 302 361
#     4  10  20  33  50  77 116 156 191 235 295 359
#     4  11  23  38  60  91 126 163 200 247 306 366
#     4  10  20  33  55  86 116 151 195 245 297 354
#     4  10  22  42  67  91 122 162 207 255 299 355
#     4  11  23  39  59  85 123 163 202 251 306 364
#
# _framework density 20.132517
#
# number of rings (size 3 to 8) (size 9 to 14) (size 15 to 20)
#    0.000    1.571    2.857    2.143    0.000    5.143 
#    0.000    0.714    0.000    4.286    0.000    0.000 
#    0.000    0.000    0.000    0.000    0.000    0.000 
#
# Total GULP energy -347090.564416 kJ/mol
# GULP energy per Si atom -12396.091586 kJ/mol
# Density = 2.008669 g / cm^3
# Si number density = 20.132517 Si / 1000 Ang^3
#
#
#
# Elastic Constant Matrix: (Units=GPa)
#
#
# Indices 1 2 3 4 5 6 
#
# 1 79.3321 26.5900 26.7150 0.0000 11.5553 0.0000
# 2 26.5900 62.7065 45.3564 0.0000 5.4355 0.0000
# 3 26.7150 45.3564 118.6047 0.0000 8.5523 0.0000
# 4 0.0000 0.0000 0.0000 31.5046 0.0000 3.2620
# 5 11.5553 5.4355 8.5523 0.0000 30.3538 0.0000
# 6 0.0000 0.0000 0.0000 3.2620 0.0000 29.1333
#
#
#
# Elastic Compliance Matrix: (Units=1/GPa)
#
#
# Indices 1 2 3 4 5 6 
#
# 1 0.015441 -0.005354 -0.001098 0.000000 -0.004610 0.000000
# 2 -0.005354 0.023978 -0.007963 0.000000 -0.000012 0.000000
# 3 -0.001098 -0.007963 0.011831 0.000000 -0.001489 0.000000
# 4 0.000000 0.000000 0.000000 0.032114 0.000000 -0.003596
# 5 -0.004610 -0.000012 -0.001489 0.000000 0.035122 0.000000
# 6 0.000000 0.000000 0.000000 -0.003596 0.000000 0.034728
#
#
# Mechanical properties :
#
#
# Convention : Reuss Voigt Hill
#
# Bulk Modulus (GPa) = 44.60118 50.88511 47.74314
# Shear Modulus (GPa) = 26.38293 28.99713 27.69003
#
# Velocity S-wave (km/s) = 3.62396 3.79926 3.71265
# Velocity P-wave (km/s) = 6.30180 6.67651 6.49186
#
# Compressibility (1/GPa) = 0.02242093
#
# Stress axis : x y z
#
# Youngs Moduli (GPa) = 64.76285 41.70463 84.52158
#
# Poissons Ratio (x) = 0.22327 0.09283
# Poissons Ratio (y) = 0.34671 0.67304
# Poissons Ratio (z) = 0.07113 0.33209
#
# Static dielectric constant tensor:
#      x y z
#    x 3.581360 0.000000 0.011620 
#    y 0.000000 3.512000 0.000000 
#    z 0.011620 0.000000 3.660020 
# 
# 
# High freq. dielectric constant tensor:
#      x y z
#    x 1.773660 0.000000 0.007710 
#    y 0.000000 1.781040 0.000000 
#    z 0.007710 0.000000 1.785710 
# 
# From -- ./inp_files/50027.got.cif
#   From: 2010.06.25/outbox.cif.g09.slc.cpg/sg10_26_cif.got.tgz:50027.got - 2010.06.27 22:07:45.
