data_PCOD8063916
_publ_section_title
;
Structure prediction by ZEFSAII (Michael W. Deem and Ramdas Pophale) SiO2 
 PCOD8063916
Probable space group: P 2/M
;
_chemical_formula_sum "Si O2"
_cell_formula_units_Z 28
_cell_length_a 14.217089
_cell_length_b 8.732473
_cell_length_c 13.206512
_cell_angle_alpha 90.000000
_cell_angle_beta 56.689646
_cell_angle_gamma 90.000000
_cell_volume 1370.221232
_symmetry_space_group_name_H-M "P 2/M"
_symmetry_group_IT_number 10
_symmetry_cell_setting 'monoclinic'
loop_
_space_group_symop_operation_xyz
x,y,z
-x,y,-z
-x,-y,-z
x,-y,z
loop_
_atom_site_type_symbol
_atom_site_label
_atom_site_fract_x
_atom_site_fract_y
_atom_site_fract_z
Si Si1 0.812463 0.325498 0.286138
Si Si2 0.761004 0.178741 0.791075
Si Si3 0.602941 0.178361 0.510266
Si Si4 0.610706 0.677834 0.722988
Si Si5 0.061088 0.324178 0.183949
Si Si6 0.395313 0.173366 0.929947
Si Si7 0.819277 0.174757 0.071770
O O1 0.769076 0.500000 0.318559
O O2 0.719789 0.211952 0.385325
O O3 0.838284 0.285236 0.154844
O O4 0.927772 0.305562 0.281027
O O5 0.717604 0.234512 0.707749
O O6 0.875881 0.266058 0.752344
O O7 0.787963 0.000000 0.772935
O O8 0.665653 0.219016 0.930081
O O9 0.500000 0.229313 0.500000
O O10 0.593954 0.272991 0.617939
O O11 0.595436 0.000000 0.541118
O O12 0.637108 0.500000 0.712443
O O13 0.498538 0.713175 0.852673
O O14 0.093354 0.500000 0.143311
O O15 0.097088 0.222857 0.066921
O O16 0.309644 0.189339 0.887374
O O17 0.442236 0.000000 0.908378
O O18 0.846870 0.000000 0.085346
#
# Coordination Sequence:
#
# PCOD8063916 Si02
#       7
#     4   4   4   4   4   4   4
#     4  11  23  38  58  85 117 152 190 237 290 339
#     4  10  21  38  60  85 116 153 192 235 282 337
#     4  11  25  44  64  85 112 148 191 237 282 334
#     4  12  24  37  58  86 116 151 190 235 287 341
#     4  10  21  37  57  85 120 152 187 236 289 338
#     4   9  19  35  55  83 118 153 190 234 282 333
#     4  10  20  34  56  86 119 156 195 234 280 338
#
# _framework density 20.434657000000001
#
# number of rings (size 3 to 8) (size 9 to 14) (size 15 to 20)
#    0.000    1.571    0.000    6.000    0.000   13.714 
#    0.000    0.714    0.000    4.286    0.000    0.000 
#    0.000    0.000    0.000    0.000    0.000    0.000 
#
# Total GULP energy -347364.281845 kJ/mol
# GULP energy per Si atom -12405.867209 kJ/mol
# Density = 2.038815 g / cm^3
# Si number density = 20.434657 Si / 1000 Ang^3
#
#
#
# Elastic Constant Matrix: (Units=GPa)
#
#
# Indices 1 2 3 4 5 6 
#
# 1 122.4568 44.2331 42.5425 0.0000 5.3859 0.0000
# 2 44.2331 82.5688 20.8370 0.0000 -1.3078 0.0000
# 3 42.5425 20.8370 44.7193 0.0000 4.3668 0.0000
# 4 0.0000 0.0000 0.0000 29.9155 0.0000 0.9064
# 5 5.3859 -1.3078 4.3668 0.0000 30.4394 0.0000
# 6 0.0000 0.0000 0.0000 0.9064 0.0000 32.4439
#
#
#
# Elastic Compliance Matrix: (Units=1/GPa)
#
#
# Indices 1 2 3 4 5 6 
#
# 1 0.013583 -0.004600 -0.010674 0.000000 -0.001070 0.000000
# 2 -0.004600 0.015353 -0.002963 0.000000 0.001899 0.000000
# 3 -0.010674 -0.002963 0.034204 0.000000 -0.003146 0.000000
# 4 0.000000 0.000000 0.000000 0.033456 0.000000 -0.000935
# 5 -0.001070 0.001899 -0.003146 0.000000 0.033574 0.000000
# 6 0.000000 0.000000 0.000000 -0.000935 0.000000 0.030849
#
#
# Mechanical properties :
#
#
# Convention : Reuss Voigt Hill
#
# Bulk Modulus (GPa) = 37.50109 51.66336 44.58222
# Shear Modulus (GPa) = 24.22692 28.03524 26.13108
#
# Velocity S-wave (km/s) = 3.44696 3.70800 3.57986
# Velocity P-wave (km/s) = 5.85095 6.60828 6.24111
#
# Compressibility (1/GPa) = 0.02666589
#
# Stress axis : x y z
#
# Youngs Moduli (GPa) = 73.62160 65.13304 29.23619
#
# Poissons Ratio (x) = 0.29960 0.31207
# Poissons Ratio (y) = 0.33864 0.08664
# Poissons Ratio (z) = 0.78584 0.19301
#
# Static dielectric constant tensor:
#      x y z
#    x 3.955680 0.000000 0.097620 
#    y 0.000000 3.712300 0.000000 
#    z 0.097620 0.000000 3.434870 
# 
# 
# High freq. dielectric constant tensor:
#      x y z
#    x 1.814530 0.000000 0.006540 
#    y 0.000000 1.806620 0.000000 
#    z 0.006540 0.000000 1.772230 
# 
# From -- ./inp_files/49540.got.cif
#   From: 2010.06.25/outbox.cif.g09.slc.cpg/sg10_25_cif.got.tgz:49540.got - 2010.06.27 22:07:45.
