data_PCOD8063690
_publ_section_title
;
Structure prediction by ZEFSAII (Michael W. Deem and Ramdas Pophale) SiO2 
 PCOD8063690
Probable space group: P 2/M
;
_chemical_formula_sum "Si O2"
_cell_formula_units_Z 28
_cell_length_a 14.867744
_cell_length_b 12.661580
_cell_length_c 8.828130
_cell_angle_alpha 90.000000
_cell_angle_beta 120.931807
_cell_angle_gamma 90.000000
_cell_volume 1425.533592
_symmetry_space_group_name_H-M "P 2/M"
_symmetry_group_IT_number 10
_symmetry_cell_setting 'monoclinic'
loop_
_space_group_symop_operation_xyz
x,y,z
-x,y,-z
-x,-y,-z
x,-y,z
loop_
_atom_site_type_symbol
_atom_site_label
_atom_site_fract_x
_atom_site_fract_y
_atom_site_fract_z
Si Si1 0.196973 0.378423 0.568192
Si Si2 0.084804 0.211553 0.681120
Si Si3 0.062558 0.291228 0.191859
Si Si4 0.570302 0.878912 0.421013
Si Si5 0.776283 0.120484 0.771515
Si Si6 0.404668 0.268417 0.829201
Si Si7 0.287312 0.118448 0.954894
O O1 0.187135 0.500000 0.604343
O O2 0.133805 0.312296 0.637057
O O3 0.146650 0.362425 0.356558
O O4 0.320330 0.347115 0.680375
O O5 0.168651 0.122364 0.790776
O O6 0.000000 0.155600 0.500000
O O7 0.031400 0.252541 0.785508
O O8 0.123318 0.191433 0.174372
O O9 0.000000 0.350761 0.000000
O O10 0.500000 0.839265 0.500000
O O11 0.693910 0.868517 0.563125
O O12 0.544998 0.806261 0.255745
O O13 0.540617 0.000000 0.356262
O O14 0.815672 0.000000 0.821917
O O15 0.714478 0.154096 0.871005
O O16 0.355578 0.196867 0.916827
O O17 0.500000 0.329089 0.000000
O O18 0.330659 0.000000 0.974304
#
# Coordination Sequence:
#
# PCOD8063690 Si02
#       7
#     4   4   4   4   4   4   4
#     4  10  23  43  62  83 111 144 190 248 300 346
#     4   9  20  35  54  81 112 153 189 231 286 339
#     4  11  20  36  61  85 116 149 191 236 283 340
#     4  10  20  35  57  87 120 154 189 227 280 339
#     4  10  20  34  54  84 121 158 190 226 277 337
#     4  11  22  38  61  86 112 153 192 238 285 340
#     4  10  20  34  53  83 121 156 193 230 268 332
#
# _framework density 19.641767999999999
#
# number of rings (size 3 to 8) (size 9 to 14) (size 15 to 20)
#    0.000    1.857    2.857    1.286    0.000    6.571 
#    0.000    0.000    0.000    0.429    0.000    0.000 
#    0.000    0.000    0.000    0.000    0.000    0.000 
#
# Total GULP energy -347071.336671 kJ/mol
# GULP energy per Si atom -12395.404881 kJ/mol
# Density = 1.959706 g / cm^3
# Si number density = 19.641768 Si / 1000 Ang^3
#
#
#
# Elastic Constant Matrix: (Units=GPa)
#
#
# Indices 1 2 3 4 5 6 
#
# 1 66.0472 14.0355 29.5189 0.0000 0.1903 0.0000
# 2 14.0355 53.4965 17.8833 0.0000 -3.2075 0.0000
# 3 29.5189 17.8833 129.5900 0.0000 12.3692 0.0000
# 4 0.0000 0.0000 0.0000 12.6875 0.0000 -0.3255
# 5 0.1903 -3.2075 12.3692 0.0000 38.5041 0.0000
# 6 0.0000 0.0000 0.0000 -0.3255 0.0000 10.9875
#
#
#
# Elastic Compliance Matrix: (Units=1/GPa)
#
#
# Indices 1 2 3 4 5 6 
#
# 1 0.017451 -0.003331 -0.003591 0.000000 0.000790 0.000000
# 2 -0.003331 0.020484 -0.002303 0.000000 0.002463 0.000000
# 3 -0.003591 -0.002303 0.009150 0.000000 -0.003113 0.000000
# 4 0.000000 0.000000 0.000000 0.078878 0.000000 0.002337
# 5 0.000790 0.002463 -0.003113 0.000000 0.027173 0.000000
# 6 0.000000 0.000000 0.000000 0.002337 0.000000 0.091082
#
#
# Mechanical properties :
#
#
# Convention : Reuss Voigt Hill
#
# Bulk Modulus (GPa) = 34.92187 41.33433 38.12810
# Shear Modulus (GPa) = 18.36804 24.94889 21.65847
#
# Velocity S-wave (km/s) = 3.06134 3.56785 3.32426
# Velocity P-wave (km/s) = 5.50579 6.16948 5.84706
#
# Compressibility (1/GPa) = 0.02863535
#
# Stress axis : x y z
#
# Youngs Moduli (GPa) = 57.30292 48.81793 109.29432
#
# Poissons Ratio (x) = 0.16260 0.39246
# Poissons Ratio (y) = 0.19086 0.25172
# Poissons Ratio (z) = 0.20577 0.11244
#
# Static dielectric constant tensor:
#      x y z
#    x 3.638990 0.000000 0.139080 
#    y 0.000000 3.113410 0.000000 
#    z 0.139080 0.000000 4.034360 
# 
# 
# High freq. dielectric constant tensor:
#      x y z
#    x 1.773260 0.000000 0.006560 
#    y 0.000000 1.715140 0.000000 
#    z 0.006560 0.000000 1.792310 
# 
# From -- ./inp_files/28461.got.cif
#   From: 2010.06.25/outbox.cif.g09.slc.cpg/sg10_15_cif.got.tgz:28461.got - 2010.06.27 22:07:45.
