data_PCOD8063081
_publ_section_title
;
Structure prediction by ZEFSAII (Michael W. Deem and Ramdas Pophale) SiO2 
 PCOD8063081
Probable space group: P 2/M
;
_chemical_formula_sum "Si O2"
_cell_formula_units_Z 24
_cell_length_a 11.714355
_cell_length_b 9.457906
_cell_length_c 20.438436
_cell_angle_alpha 90.000000
_cell_angle_beta 140.528556
_cell_angle_gamma 90.000000
_cell_volume 1439.490656
_symmetry_space_group_name_H-M "P 2/M"
_symmetry_group_IT_number 10
_symmetry_cell_setting 'monoclinic'
loop_
_space_group_symop_operation_xyz
x,y,z
-x,y,-z
-x,-y,-z
x,-y,z
loop_
_atom_site_type_symbol
_atom_site_label
_atom_site_fract_x
_atom_site_fract_y
_atom_site_fract_z
Si Si1 0.050516 0.838685 0.277116
Si Si2 0.381800 0.335035 0.633035
Si Si3 0.658253 0.161523 0.264379
Si Si4 0.653084 0.168647 0.115779
Si Si5 0.075342 0.843316 0.440908
Si Si6 0.620773 0.335314 0.614027
O O1 0.096950 0.825491 0.373458
O O2 0.189483 0.744213 0.298226
O O3 0.847846 0.780516 0.176016
O O4 0.067807 0.000000 0.260564
O O5 0.363229 0.500000 0.638956
O O6 0.444478 0.256997 0.727439
O O7 0.188658 0.277169 0.526081
O O8 0.524504 0.302567 0.639671
O O9 0.614664 0.221979 0.172613
O O10 0.870204 0.173047 0.371861
O O11 0.592258 0.000000 0.241741
O O12 0.656237 0.000000 0.119307
O O13 0.500000 0.228722 0.000000
O O14 0.144675 0.000000 0.492208
O O15 0.500000 0.279203 0.500000
O O16 0.660076 0.500000 0.621510
#
# Coordination Sequence:
#
# PCOD8063081 Si02
#       6
#     4   4   4   4   4   4
#     4   9  17  29  49  75  95 119 159 198 232 276
#     4  11  21  30  43  64  93 130 164 191 225 273
#     4   9  18  31  47  69  95 122 152 189 237 284
#     4   8  15  31  55  78  97 117 147 195 249 290
#     4   9  17  29  44  65  95 125 153 189 231 276
#     4  10  20  33  45  62  95 135 167 194 229 271
#
# _framework density 16.672564000000001
#
# number of rings (size 3 to 8) (size 9 to 14) (size 15 to 20)
#    0.000    2.667    1.667    3.000    0.000    4.333 
#    0.000    2.500    0.000    3.000    0.000    7.000 
#    0.000    0.000    0.000    0.000    0.000    0.000 
#
# Total GULP energy -297541.800564 kJ/mol
# GULP energy per Si atom -12397.575024 kJ/mol
# Density = 1.663462 g / cm^3
# Si number density = 16.672564 Si / 1000 Ang^3
#
#
#
# Elastic Constant Matrix: (Units=GPa)
#
#
# Indices 1 2 3 4 5 6 
#
# 1 108.8967 56.9253 54.4674 0.0000 -6.8402 0.0000
# 2 56.9253 65.3645 38.3019 0.0000 -4.4887 0.0000
# 3 54.4674 38.3019 97.9995 0.0000 0.6385 0.0000
# 4 0.0000 0.0000 0.0000 6.5585 0.0000 -5.1651
# 5 -6.8402 -4.4887 0.6385 0.0000 10.3334 0.0000
# 6 0.0000 0.0000 0.0000 -5.1651 0.0000 25.3338
#
#
#
# Elastic Compliance Matrix: (Units=1/GPa)
#
#
# Indices 1 2 3 4 5 6 
#
# 1 0.019258 -0.012914 -0.005705 0.000000 0.007491 0.000000
# 2 -0.012914 0.029398 -0.004342 0.000000 0.004490 0.000000
# 3 -0.005705 -0.004342 0.015115 0.000000 -0.006596 0.000000
# 4 0.000000 0.000000 0.000000 0.181640 0.000000 0.037033
# 5 0.007491 0.004490 -0.006596 0.000000 0.104090 0.000000
# 6 0.000000 0.000000 0.000000 0.037033 0.000000 0.047023
#
#
# Mechanical properties :
#
#
# Convention : Reuss Voigt Hill
#
# Bulk Modulus (GPa) = 56.02408 63.51664 59.77036
# Shear Modulus (GPa) = 11.15090 16.61620 13.88355
#
# Velocity S-wave (km/s) = 2.58896 3.16035 2.88882
# Velocity P-wave (km/s) = 6.52782 7.17609 6.85962
#
# Compressibility (1/GPa) = 0.01784947
#
# Stress axis : x y z
#
# Youngs Moduli (GPa) = 51.92730 34.01601 66.16122
#
# Poissons Ratio (x) = 0.43929 0.37743
# Poissons Ratio (y) = 0.67059 0.28724
# Poissons Ratio (z) = 0.29623 0.14768
#
# Static dielectric constant tensor:
#      x y z
#    x 3.192870 0.000000 -0.094620 
#    y 0.000000 2.968940 0.000000 
#    z -0.094620 0.000000 3.060840 
# 
# 
# High freq. dielectric constant tensor:
#      x y z
#    x 1.645900 0.000000 -0.009110 
#    y 0.000000 1.624270 0.000000 
#    z -0.009110 0.000000 1.611340 
# 
# From -- ./inp_files/45127.got.cif
#   From: 2010.06.25/outbox.cif.g09.slc.cpg/sg10_23_cif.got.tgz:45127.got - 2010.06.27 22:07:45.
