data_PCOD8063342
_publ_section_title
;
Structure prediction by ZEFSAII (Michael W. Deem and Ramdas Pophale) SiO2 
 PCOD8063342
Probable space group: P 2/M
;
_chemical_formula_sum "Si O2"
_cell_formula_units_Z 32
_cell_length_a 12.622949
_cell_length_b 9.064697
_cell_length_c 33.930411
_cell_angle_alpha 90.000000
_cell_angle_beta 155.817603
_cell_angle_gamma 90.000000
_cell_volume 1590.407987
_symmetry_space_group_name_H-M "P 2/M"
_symmetry_group_IT_number 10
_symmetry_cell_setting 'monoclinic'
loop_
_space_group_symop_operation_xyz
x,y,z
-x,y,-z
-x,-y,-z
x,-y,z
loop_
_atom_site_type_symbol
_atom_site_label
_atom_site_fract_x
_atom_site_fract_y
_atom_site_fract_z
Si Si1 0.782227 0.826716 0.805914
Si Si2 0.060704 0.176329 0.976661
Si Si3 0.199388 0.172605 0.602075
Si Si4 0.354861 0.332266 0.373427
Si Si5 0.032095 0.824223 0.813212
Si Si6 0.076764 0.168501 0.342827
Si Si7 0.590116 0.832041 0.122042
Si Si8 0.058193 0.332391 0.416492
O O1 0.496811 0.784580 0.693222
O O2 0.999736 0.772393 0.847778
O O3 0.806894 0.000000 0.816643
O O4 0.846169 0.768140 0.871844
O O5 0.331716 0.243583 0.051783
O O6 0.072682 0.000000 0.983915
O O7 0.000000 0.240193 0.000000
O O8 0.000000 0.216027 0.500000
O O9 0.141754 0.272717 0.619778
O O10 0.172050 0.000000 0.603239
O O11 0.253828 0.500000 0.337706
O O12 0.218272 0.235975 0.294047
O O13 0.658261 0.322674 0.468506
O O14 0.298883 0.265512 0.397653
O O15 0.296341 0.766383 0.881219
O O16 0.020956 0.000000 0.805116
O O17 0.810492 0.184439 0.229158
O O18 0.025651 0.227161 0.368572
O O19 0.170646 0.000000 0.376371
O O20 0.514938 0.000000 0.088168
O O21 0.989249 0.500000 0.381455
#
# Coordination Sequence:
#
# PCOD8063342 Si02
#       8
#     4   4   4   4   4   4   4   4
#     4   9  18  31  50  77 106 142 181 223 277 325
#     4   9  17  28  46  75 112 144 171 216 276 329
#     4  10  21  36  54  77 104 138 183 229 274 323
#     4  10  20  34  51  75 108 142 178 218 267 324
#     4   9  17  32  53  77 107 136 176 225 269 322
#     4  10  20  33  53  79 107 139 179 224 268 318
#     4   8  16  29  47  76 107 137 170 214 270 321
#     4  11  23  35  50  74 105 143 182 223 271 326
#
# _framework density 20.120622999999998
#
# number of rings (size 3 to 8) (size 9 to 14) (size 15 to 20)
#    0.000    2.500    0.000    3.000    1.750    5.250 
#    0.000    3.125    0.000    0.000    0.000   13.125 
#    0.000    0.000    0.000    0.000    0.000    0.000 
#
# Total GULP energy -396537.534694 kJ/mol
# GULP energy per Si atom -12391.797959 kJ/mol
# Density = 2.007483 g / cm^3
# Si number density = 20.120623 Si / 1000 Ang^3
#
#
#
# Elastic Constant Matrix: (Units=GPa)
#
#
# Indices 1 2 3 4 5 6 
#
# 1 160.5509 11.8092 64.5205 0.0000 -3.5178 0.0000
# 2 11.8092 25.7473 11.2926 0.0000 3.7390 0.0000
# 3 64.5205 11.2926 76.7619 0.0000 -0.5197 0.0000
# 4 0.0000 0.0000 0.0000 7.4823 0.0000 3.1543
# 5 -3.5178 3.7390 -0.5197 0.0000 33.9651 0.0000
# 6 0.0000 0.0000 0.0000 3.1543 0.0000 11.7943
#
#
#
# Elastic Compliance Matrix: (Units=1/GPa)
#
#
# Indices 1 2 3 4 5 6 
#
# 1 0.009457 -0.001065 -0.007786 0.000000 0.000978 0.000000
# 2 -0.001065 0.042390 -0.005374 0.000000 -0.004859 0.000000
# 3 -0.007786 -0.005374 0.020363 0.000000 0.000097 0.000000
# 4 0.000000 0.000000 0.000000 0.150631 0.000000 -0.040285
# 5 0.000978 -0.004859 0.000097 0.000000 0.030080 0.000000
# 6 0.000000 0.000000 0.000000 -0.040285 0.000000 0.095561
#
#
# Mechanical properties :
#
#
# Convention : Reuss Voigt Hill
#
# Bulk Modulus (GPa) = 22.85154 48.70053 35.77604
# Shear Modulus (GPa) = 12.77084 22.34421 17.55753
#
# Velocity S-wave (km/s) = 2.52209 3.33605 2.95721
# Velocity P-wave (km/s) = 4.45681 6.25266 5.42950
#
# Compressibility (1/GPa) = 0.04376073
#
# Stress axis : x y z
#
# Youngs Moduli (GPa) = 105.74024 23.59049 49.10947
#
# Poissons Ratio (x) = 0.02512 0.38235
# Poissons Ratio (y) = 0.11259 0.26392
# Poissons Ratio (z) = 0.82327 0.12678
#
# Static dielectric constant tensor:
#      x y z
#    x 4.063570 0.000000 0.009920 
#    y 0.000000 3.261740 0.000000 
#    z 0.009920 0.000000 3.668240 
# 
# 
# High freq. dielectric constant tensor:
#      x y z
#    x 1.801620 0.000000 0.000040 
#    y 0.000000 1.734250 0.000000 
#    z 0.000040 0.000000 1.781090 
# 
# From -- ./inp_files/89635.got.cif
#   From: 2010.06.25/outbox.cif.g09.slc.cpg/sg10_45_cif.got.tgz:89635.got - 2010.06.27 22:07:45.
