data_PCOD8063094
_publ_section_title
;
Structure prediction by ZEFSAII (Michael W. Deem and Ramdas Pophale) SiO2 
 PCOD8063094
Probable space group: P 2/M
;
_chemical_formula_sum "Si O2"
_cell_formula_units_Z 32
_cell_length_a 18.845990
_cell_length_b 8.997850
_cell_length_c 23.219607
_cell_angle_alpha 90.000000
_cell_angle_beta 151.368758
_cell_angle_gamma 90.000000
_cell_volume 1886.699220
_symmetry_space_group_name_H-M "P 2/M"
_symmetry_group_IT_number 10
_symmetry_cell_setting 'monoclinic'
loop_
_space_group_symop_operation_xyz
x,y,z
-x,y,-z
-x,-y,-z
x,-y,z
loop_
_atom_site_type_symbol
_atom_site_label
_atom_site_fract_x
_atom_site_fract_y
_atom_site_fract_z
Si Si1 0.434354 0.164112 0.079925
Si Si2 0.370537 0.333805 0.860902
Si Si3 0.639379 0.829881 0.676190
Si Si4 0.161999 0.327130 0.092200
Si Si5 0.019631 0.675561 0.247550
Si Si6 0.806682 0.176284 0.006220
Si Si7 0.696079 0.169891 0.584876
Si Si8 0.174653 0.834091 0.802707
O O1 0.568287 0.270694 0.156224
O O2 0.501571 0.000000 0.136788
O O3 0.353240 0.220235 0.080318
O O4 0.311025 0.159121 0.943034
O O5 0.315037 0.500000 0.810172
O O6 0.229959 0.239121 0.782482
O O7 0.500000 0.330130 0.000000
O O8 0.719223 0.715822 0.775165
O O9 0.464151 0.804604 0.557281
O O10 0.692212 0.792729 0.649620
O O11 0.679919 0.000000 0.720791
O O12 0.178192 0.500000 0.088220
O O13 0.193246 0.228467 0.058878
O O14 0.000000 0.288941 0.000000
O O15 0.999532 0.500000 0.231827
O O16 0.191579 0.719518 0.366802
O O17 0.938471 0.745106 0.134529
O O18 0.955594 0.736744 0.262093
O O19 0.831932 0.000000 0.028606
O O20 0.747310 0.000000 0.612213
O O21 0.115654 0.000000 0.747756
#
# Coordination Sequence:
#
# PCOD8063094 Si02
#       8
#     4   4   4   4   4   4   4   4
#     4   8  15  26  39  56  79 112 152 188 223 266
#     4   9  15  22  35  56  82 113 147 184 226 269
#     4   9  19  35  54  72  90 118 156 193 227 272
#     4  11  23  35  48  70  98 124 152 190 235 278
#     4  11  20  29  44  68  96 123 153 191 236 279
#     4  10  20  33  48  65  89 124 162 195 228 273
#     4   9  18  34  53  71  91 118 154 191 229 275
#     4   9  16  26  39  56  83 119 155 188 221 265
#
# _framework density 16.960837000000001
#
# number of rings (size 3 to 8) (size 9 to 14) (size 15 to 20)
#    0.000    2.500    0.000    4.875    0.000    9.000 
#    0.000    1.250    0.000    0.000    0.000    0.000 
#    0.000    1.000    0.000   10.500    0.000    7.375 
#
# Total GULP energy -396769.057830 kJ/mol
# GULP energy per Si atom -12399.033057 kJ/mol
# Density = 1.692223 g / cm^3
# Si number density = 16.960837 Si / 1000 Ang^3
#
#
#
# Elastic Constant Matrix: (Units=GPa)
#
#
# Indices 1 2 3 4 5 6 
#
# 1 112.8970 60.9761 37.3123 0.0000 22.1100 0.0000
# 2 60.9761 115.9178 33.8993 0.0000 14.0461 0.0000
# 3 37.3123 33.8993 52.0621 0.0000 9.5610 0.0000
# 4 0.0000 0.0000 0.0000 19.7073 0.0000 3.4760
# 5 22.1100 14.0461 9.5610 0.0000 18.1173 0.0000
# 6 0.0000 0.0000 0.0000 3.4760 0.0000 27.9275
#
#
#
# Elastic Compliance Matrix: (Units=1/GPa)
#
#
# Indices 1 2 3 4 5 6 
#
# 1 0.016040 -0.005231 -0.005802 0.000000 -0.012458 0.000000
# 2 -0.005231 0.012804 -0.004360 0.000000 -0.001242 0.000000
# 3 -0.005802 -0.004360 0.026890 0.000000 -0.003730 0.000000
# 4 0.000000 0.000000 0.000000 0.051882 0.000000 -0.006457
# 5 -0.012458 -0.001242 -0.003730 0.000000 0.073330 0.000000
# 6 0.000000 0.000000 0.000000 -0.006457 0.000000 0.036611
#
#
# Mechanical properties :
#
#
# Convention : Reuss Voigt Hill
#
# Bulk Modulus (GPa) = 40.08318 60.58359 50.33338
# Shear Modulus (GPa) = 19.48112 23.06303 21.27208
#
# Velocity S-wave (km/s) = 3.39277 3.69152 3.54529
# Velocity P-wave (km/s) = 6.24755 7.34622 6.81905
#
# Compressibility (1/GPa) = 0.02494812
#
# Stress axis : x y z
#
# Youngs Moduli (GPa) = 62.34262 78.09954 37.18891
#
# Poissons Ratio (x) = 0.40858 0.21576
# Poissons Ratio (y) = 0.32614 0.16214
# Poissons Ratio (z) = 0.36170 0.34050
#
# Static dielectric constant tensor:
#      x y z
#    x 3.321320 0.000000 0.250800 
#    y 0.000000 3.270560 0.000000 
#    z 0.250800 0.000000 2.728600 
# 
# 
# High freq. dielectric constant tensor:
#      x y z
#    x 1.658430 0.000000 0.027680 
#    y 0.000000 1.664260 0.000000 
#    z 0.027680 0.000000 1.598590 
# 
# From -- ./inp_files/89926.got.cif
#   From: 2010.06.25/outbox.cif.g09.slc.cpg/sg10_45_cif.got.tgz:89926.got - 2010.06.27 22:07:45.
