data_PCOD8063379
_publ_section_title
;
Structure prediction by ZEFSAII (Michael W. Deem and Ramdas Pophale) SiO2 
 PCOD8063379
Probable space group: P 2/M
;
_chemical_formula_sum "Si O2"
_cell_formula_units_Z 32
_cell_length_a 14.327008
_cell_length_b 16.980081
_cell_length_c 11.644572
_cell_angle_alpha 90.000000
_cell_angle_beta 144.375361
_cell_angle_gamma 90.000000
_cell_volume 1650.039245
_symmetry_space_group_name_H-M "P 2/M"
_symmetry_group_IT_number 10
_symmetry_cell_setting 'monoclinic'
loop_
_space_group_symop_operation_xyz
x,y,z
-x,y,-z
-x,-y,-z
x,-y,z
loop_
_atom_site_type_symbol
_atom_site_label
_atom_site_fract_x
_atom_site_fract_y
_atom_site_fract_z
Si Si1 0.285841 0.730858 0.680216
Si Si2 0.652211 0.239400 0.002484
Si Si3 0.810625 0.085857 0.791446
Si Si4 0.316734 0.408754 0.335650
Si Si5 0.777519 0.908746 0.012108
Si Si6 0.873329 0.324396 0.049413
Si Si7 0.912170 0.820247 0.699109
Si Si8 0.164002 0.410625 0.426220
O O1 0.260470 0.747469 0.788711
O O2 0.177512 0.792799 0.503987
O O3 0.228561 0.642530 0.594863
O O4 0.467632 0.740259 0.824276
O O5 0.671370 0.147824 0.985971
O O6 0.731107 0.298996 0.991570
O O7 0.779518 0.148516 0.658428
O O8 0.747341 0.000000 0.689156
O O9 0.727286 0.108682 0.828818
O O10 0.000000 0.082432 0.000000
O O11 0.500000 0.383311 0.500000
O O12 0.290587 0.500000 0.275816
O O13 0.272106 0.393128 0.422665
O O14 0.200192 0.355274 0.142586
O O15 0.965983 0.889275 0.217223
O O16 0.747716 0.000000 0.015026
O O17 0.988577 0.249975 0.140955
O O18 0.978046 0.393229 0.212626
O O19 0.180624 0.500000 0.483952
#
# Coordination Sequence:
#
# PCOD8063379 Si02
#       8
#     4   4   4   4   4   4   4   4
#     4  10  22  40  56  75 106 145 187 229 273 327
#     4  10  22  40  56  74 107 147 185 227 276 327
#     4   8  14  28  50  78 109 135 164 208 263 318
#     4  10  20  34  53  80 114 146 176 214 265 326
#     4   9  18  34  56  81 110 142 177 221 274 328
#     4  10  20  33  54  81 108 141 180 224 274 321
#     4   9  18  31  54  81 106 140 181 223 269 321
#     4  10  21  37  58  83 111 140 177 226 275 324
#
# _framework density 19.393478000000002
#
# number of rings (size 3 to 8) (size 9 to 14) (size 15 to 20)
#    0.000    2.500    0.000    2.625    0.000   14.500 
#    0.000   10.000    0.000    1.500    0.000    0.000 
#    0.000    0.500    0.000    0.000    0.000    0.000 
#
# Total GULP energy -396744.751791 kJ/mol
# GULP energy per Si atom -12398.273493 kJ/mol
# Density = 1.934934 g / cm^3
# Si number density = 19.393478 Si / 1000 Ang^3
#
#
#
# Elastic Constant Matrix: (Units=GPa)
#
#
# Indices 1 2 3 4 5 6 
#
# 1 51.3253 31.3553 0.0360 0.0000 -10.1363 0.0000
# 2 31.3553 93.4596 27.1753 0.0000 -16.8289 0.0000
# 3 0.0360 27.1753 59.2702 0.0000 -9.4224 0.0000
# 4 0.0000 0.0000 0.0000 12.4359 0.0000 -3.3708
# 5 -10.1363 -16.8289 -9.4224 0.0000 24.4449 0.0000
# 6 0.0000 0.0000 0.0000 -3.3708 0.0000 30.3952
#
#
#
# Elastic Compliance Matrix: (Units=1/GPa)
#
#
# Indices 1 2 3 4 5 6 
#
# 1 0.026407 -0.009190 0.005255 0.000000 0.006648 0.000000
# 2 -0.009190 0.016679 -0.006841 0.000000 0.005035 0.000000
# 3 0.005255 -0.006841 0.020883 0.000000 0.005518 0.000000
# 4 0.000000 0.000000 0.000000 0.082905 0.000000 0.009194
# 5 0.006648 0.005035 0.005518 0.000000 0.049258 0.000000
# 6 0.000000 0.000000 0.000000 0.009194 0.000000 0.033920
#
#
# Mechanical properties :
#
#
# Convention : Reuss Voigt Hill
#
# Bulk Modulus (GPa) = 23.57660 35.68760 29.63210
# Shear Modulus (GPa) = 18.81513 23.15444 20.98479
#
# Velocity S-wave (km/s) = 3.11815 3.45908 3.29303
# Velocity P-wave (km/s) = 5.01469 5.86476 5.45631
#
# Compressibility (1/GPa) = 0.04241493
#
# Stress axis : x y z
#
# Youngs Moduli (GPa) = 37.86834 59.95597 47.88664
#
# Poissons Ratio (x) = 0.55101 -0.25162
# Poissons Ratio (y) = 0.34802 0.32761
# Poissons Ratio (z) = -0.19898 0.41018
#
# Static dielectric constant tensor:
#      x y z
#    x 3.591380 0.000000 -0.031020 
#    y 0.000000 3.688300 0.000000 
#    z -0.031020 0.000000 3.392070 
# 
# 
# High freq. dielectric constant tensor:
#      x y z
#    x 1.749210 0.000000 -0.000570 
#    y 0.000000 1.760370 0.000000 
#    z -0.000570 0.000000 1.736270 
# 
# From -- ./inp_files/51974.got.cif
#   From: 2010.06.25/outbox.cif.g09.slc.cpg/sg10_26_cif.got.tgz:51974.got - 2010.06.27 22:07:45.
