data_PCOD8063336
_publ_section_title
;
Structure prediction by ZEFSAII (Michael W. Deem and Ramdas Pophale) SiO2 
 PCOD8063336
Probable space group: P 2/M
;
_chemical_formula_sum "Si O2"
_cell_formula_units_Z 32
_cell_length_a 23.005963
_cell_length_b 13.999722
_cell_length_c 16.098270
_cell_angle_alpha 90.000000
_cell_angle_beta 160.582915
_cell_angle_gamma 90.000000
_cell_volume 1723.675123
_symmetry_space_group_name_H-M "P 2/M"
_symmetry_group_IT_number 10
_symmetry_cell_setting 'monoclinic'
loop_
_space_group_symop_operation_xyz
x,y,z
-x,y,-z
-x,-y,-z
x,-y,z
loop_
_atom_site_type_symbol
_atom_site_label
_atom_site_fract_x
_atom_site_fract_y
_atom_site_fract_z
Si Si1 0.668684 0.890931 0.669393
Si Si2 0.224280 0.887684 0.609698
Si Si3 0.967564 0.392478 0.274708
Si Si4 0.131573 0.204059 0.924518
Si Si5 0.658159 0.386717 0.157745
Si Si6 0.457428 0.887666 0.073532
Si Si7 0.356178 0.607497 0.049964
Si Si8 0.541681 0.795742 0.747297
O O1 0.500000 0.886654 0.500000
O O2 0.629831 0.836158 0.530534
O O3 0.723063 0.000000 0.723652
O O4 0.829596 0.836685 0.931197
O O5 0.310681 0.847485 0.811565
O O6 0.039057 0.840961 0.345055
O O7 0.198710 0.000000 0.583737
O O8 0.350934 0.863335 0.703481
O O9 0.974913 0.500000 0.247017
O O10 0.891015 0.319594 0.102389
O O11 0.157781 0.352896 0.556522
O O12 0.845169 0.391205 0.191379
O O13 0.288901 0.174164 0.076447
O O14 0.654933 0.500000 0.154485
O O15 0.500000 0.344086 0.000000
O O16 0.636479 0.352770 0.033920
O O17 0.432882 0.000000 0.049696
O O18 0.434308 0.841058 0.130986
O O19 0.433619 0.500000 0.162532
O O20 0.471389 0.680221 0.261137
#
# Coordination Sequence:
#
# PCOD8063336 Si02
#       8
#     4   4   4   4   4   4   4   4
#     4   9  18  34  54  76 102 129 165 221 272 303
#     4   9  19  35  52  73 104 136 163 203 263 317
#     4   9  18  32  48  70 104 139 170 209 254 298
#     4  10  20  33  53  77 100 133 177 213 253 307
#     4   9  17  29  47  71  98 133 174 209 245 296
#     4   9  19  35  52  73 104 136 163 203 263 317
#     4   9  18  32  48  70 104 139 170 209 254 298
#     4  10  20  33  53  77 100 133 177 213 253 307
#
# _framework density 18.564983000000002
#
# number of rings (size 3 to 8) (size 9 to 14) (size 15 to 20)
#    0.000    2.750    0.000    1.875    1.750    4.500 
#    0.000    2.500    0.000    6.000    0.000    0.000 
#    0.000    6.000    0.000    0.000    0.000    0.000 
#
# Total GULP energy -396683.712246 kJ/mol
# GULP energy per Si atom -12396.366008 kJ/mol
# Density = 1.852273 g / cm^3
# Si number density = 18.564983 Si / 1000 Ang^3
#
#
#
# Elastic Constant Matrix: (Units=GPa)
#
#
# Indices 1 2 3 4 5 6 
#
# 1 69.2545 50.5013 62.5287 0.0000 -11.7426 0.0000
# 2 50.5013 86.4750 61.9837 0.0000 -21.2186 0.0000
# 3 62.5287 61.9837 85.4559 0.0000 -23.1593 0.0000
# 4 0.0000 0.0000 0.0000 27.8925 0.0000 -7.3267
# 5 -11.7426 -21.2186 -23.1593 0.0000 24.4632 0.0000
# 6 0.0000 0.0000 0.0000 -7.3267 0.0000 23.2172
#
#
#
# Elastic Compliance Matrix: (Units=1/GPa)
#
#
# Indices 1 2 3 4 5 6 
#
# 1 0.047627 -0.007551 -0.033562 0.000000 -0.015461 0.000000
# 2 -0.007551 0.025924 -0.010985 0.000000 0.008461 0.000000
# 3 -0.033562 -0.010985 0.050144 0.000000 0.021833 0.000000
# 4 0.000000 0.000000 0.000000 0.039092 0.000000 0.012336
# 5 -0.015461 0.008461 0.021833 0.000000 0.061465 0.000000
# 6 0.000000 0.000000 0.000000 0.012336 0.000000 0.046965
#
#
# Mechanical properties :
#
#
# Convention : Reuss Voigt Hill
#
# Bulk Modulus (GPa) = 51.28544 65.69030 58.48787
# Shear Modulus (GPa) = 13.09199 19.52602 16.30901
#
# Velocity S-wave (km/s) = 2.65844 3.24661 2.96714
# Velocity P-wave (km/s) = 6.09162 7.03667 6.58113
#
# Compressibility (1/GPa) = 0.01949871
#
# Stress axis : x y z
#
# Youngs Moduli (GPa) = 20.99661 38.57421 19.94247
#
# Poissons Ratio (x) = 0.29128 0.66931
# Poissons Ratio (y) = 0.15855 0.21907
# Poissons Ratio (z) = 0.70469 0.42374
#
# Static dielectric constant tensor:
#      x y z
#    x 3.346220 0.000000 -0.026110 
#    y 0.000000 3.637960 0.000000 
#    z -0.026110 0.000000 3.359190 
# 
# 
# High freq. dielectric constant tensor:
#      x y z
#    x 1.700550 0.000000 0.001420 
#    y 0.000000 1.736830 0.000000 
#    z 0.001420 0.000000 1.699010 
# 
# From -- ./inp_files/25356.got.cif
#   From: 2010.06.25/outbox.cif.g09.slc.cpg/sg10_13_cif.got.tgz:25356.got - 2010.06.27 22:07:45.
