data_PCOD8063123
_publ_section_title
;
Structure prediction by ZEFSAII (Michael W. Deem and Ramdas Pophale) SiO2 
 PCOD8063123
Probable space group: P 2/M
;
_chemical_formula_sum "Si O2"
_cell_formula_units_Z 32
_cell_length_a 9.640104
_cell_length_b 17.197872
_cell_length_c 23.877190
_cell_angle_alpha 90.000000
_cell_angle_beta 26.107127
_cell_angle_gamma 90.000000
_cell_volume 1741.977465
_symmetry_space_group_name_H-M "P 2/M"
_symmetry_group_IT_number 10
_symmetry_cell_setting 'monoclinic'
loop_
_space_group_symop_operation_xyz
x,y,z
-x,y,-z
-x,-y,-z
x,-y,z
loop_
_atom_site_type_symbol
_atom_site_label
_atom_site_fract_x
_atom_site_fract_y
_atom_site_fract_z
Si Si1 0.912005 0.588983 0.718847
Si Si2 0.276046 0.231225 0.330576
Si Si3 0.388516 0.802644 0.675273
Si Si4 0.806512 0.727909 0.926032
Si Si5 0.288360 0.331222 0.491649
Si Si6 0.671223 0.691820 0.096281
Si Si7 0.154619 0.413302 0.754257
Si Si8 0.886465 0.084548 0.478558
O O1 0.929344 0.500000 0.692285
O O2 0.568571 0.621352 0.827421
O O3 0.194610 0.637418 0.587116
O O4 0.961203 0.596497 0.766927
O O5 0.410966 0.224603 0.343544
O O6 0.546783 0.247073 0.187280
O O7 0.033935 0.303515 0.421009
O O8 0.101725 0.151806 0.372878
O O9 0.464964 0.741759 0.597027
O O10 0.516505 0.887865 0.611547
O O11 0.018591 0.799656 0.825013
O O12 0.009871 0.648052 0.850357
O O13 0.500000 0.721564 0.000000
O O14 0.717735 0.741637 0.022600
O O15 0.471277 0.398957 0.391170
O O16 0.000000 0.656990 0.000000
O O17 0.111113 0.500000 0.794470
O O18 0.000000 0.072751 0.500000
O O19 0.910524 0.000000 0.439090
#
# Coordination Sequence:
#
# PCOD8063123 Si02
#       8
#     4   4   4   4   4   4   4   4
#     4  10  20  33  49  70  98 130 169 219 267 306
#     4   9  17  31  52  76 103 135 165 206 254 296
#     4   9  17  31  52  76 104 134 165 207 252 296
#     4  11  21  35  53  75  98 132 181 213 243 299
#     4   9  17  28  49  72  96 125 166 204 255 310
#     4  11  21  35  54  70  99 139 172 211 254 298
#     4  10  20  33  50  70  97 131 168 220 269 303
#     4   8  14  27  52  84 110 131 160 200 247 299
#
# _framework density 18.369928000000002
#
# number of rings (size 3 to 8) (size 9 to 14) (size 15 to 20)
#    0.000    2.375    2.500    1.875    0.000    2.000 
#    0.000    0.000    0.000    6.000    0.000    0.875 
#    0.000    0.000    0.000    0.000    0.000    0.000 
#
# Total GULP energy -396513.231018 kJ/mol
# GULP energy per Si atom -12391.038469 kJ/mol
# Density = 1.832812 g / cm^3
# Si number density = 18.369928 Si / 1000 Ang^3
#
#
#
# Elastic Constant Matrix: (Units=GPa)
#
#
# Indices 1 2 3 4 5 6 
#
# 1 36.1370 15.2249 19.2223 0.0000 0.0505 0.0000
# 2 15.2249 98.2213 33.4986 0.0000 -2.7079 0.0000
# 3 19.2223 33.4986 101.2273 0.0000 -6.7762 0.0000
# 4 0.0000 0.0000 0.0000 13.7936 0.0000 1.0900
# 5 0.0505 -2.7079 -6.7762 0.0000 26.3227 0.0000
# 6 0.0000 0.0000 0.0000 1.0900 0.0000 5.8351
#
#
#
# Elastic Compliance Matrix: (Units=1/GPa)
#
#
# Indices 1 2 3 4 5 6 
#
# 1 0.031735 -0.003237 -0.005069 0.000000 -0.001699 0.000000
# 2 -0.003237 0.011808 -0.003267 0.000000 0.000380 0.000000
# 3 -0.005069 -0.003267 0.012109 0.000000 0.002791 0.000000
# 4 0.000000 0.000000 0.000000 0.073583 0.000000 -0.013745
# 5 -0.001699 0.000380 0.002791 0.000000 0.038751 0.000000
# 6 0.000000 0.000000 0.000000 -0.013745 0.000000 0.173944
#
#
# Mechanical properties :
#
#
# Convention : Reuss Voigt Hill
#
# Bulk Modulus (GPa) = 30.76403 41.27524 36.01963
# Shear Modulus (GPa) = 13.30101 20.36627 16.83364
#
# Velocity S-wave (km/s) = 2.69376 3.33329 3.03044
# Velocity P-wave (km/s) = 5.14378 6.11000 5.64759
#
# Compressibility (1/GPa) = 0.03250550
#
# Stress axis : x y z
#
# Youngs Moduli (GPa) = 31.51103 84.69066 82.58106
#
# Poissons Ratio (x) = 0.27416 0.41858
# Poissons Ratio (y) = 0.10201 0.26982
# Poissons Ratio (z) = 0.15972 0.27671
#
# Static dielectric constant tensor:
#      x y z
#    x 3.166190 0.000000 0.028050 
#    y 0.000000 3.471490 0.000000 
#    z 0.028050 0.000000 3.707050 
# 
# 
# High freq. dielectric constant tensor:
#      x y z
#    x 1.688230 0.000000 -0.002550 
#    y 0.000000 1.680910 0.000000 
#    z -0.002550 0.000000 1.725300 
# 
# From -- ./inp_files/95157.got.cif
#   From: 2010.06.25/outbox.cif.g09.slc.cpg/sg10_48_cif.got.tgz:95157.got - 2010.06.27 22:07:45.
