data_PCOD8063018
_publ_section_title
;
Structure prediction by ZEFSAII (Michael W. Deem and Ramdas Pophale) SiO2 
 PCOD8063018
Probable space group: P 2/M
;
_chemical_formula_sum "Si O2"
_cell_formula_units_Z 28
_cell_length_a 14.106485
_cell_length_b 8.791824
_cell_length_c 16.697898
_cell_angle_alpha 90.000000
_cell_angle_beta 46.140398
_cell_angle_gamma 90.000000
_cell_volume 1493.203019
_symmetry_space_group_name_H-M "P 2/M"
_symmetry_group_IT_number 10
_symmetry_cell_setting 'monoclinic'
loop_
_space_group_symop_operation_xyz
x,y,z
-x,y,-z
-x,-y,-z
x,-y,z
loop_
_atom_site_type_symbol
_atom_site_label
_atom_site_fract_x
_atom_site_fract_y
_atom_site_fract_z
Si Si1 0.252538 0.823916 0.068684
Si Si2 0.036791 0.178487 0.723244
Si Si3 0.490690 0.181971 0.625738
Si Si4 0.663149 0.328143 0.825760
Si Si5 0.963543 0.673681 0.608678
Si Si6 0.536056 0.823623 0.177761
Si Si7 0.303348 0.319212 0.606744
O O1 0.343788 0.744141 0.081839
O O2 0.101697 0.765597 0.156768
O O3 0.251820 0.000000 0.092029
O O4 0.318022 0.792670 0.943763
O O5 0.151276 0.271505 0.700109
O O6 0.037033 0.219238 0.629187
O O7 0.060898 0.000000 0.721009
O O8 0.472877 0.240439 0.727069
O O9 0.371715 0.254927 0.646017
O O10 0.629080 0.244379 0.511101
O O11 0.486171 0.000000 0.620561
O O12 0.616455 0.500000 0.861908
O O13 0.808746 0.312644 0.707131
O O14 0.571419 0.249226 0.815634
O O15 0.011653 0.500000 0.593108
O O16 0.000000 0.734903 0.500000
O O17 0.504026 0.000000 0.198393
O O18 0.318424 0.500000 0.594255
#
# Coordination Sequence:
#
# PCOD8063018 Si02
#       7
#     4   4   4   4   4   4   4
#     4   9  19  37  56  77 108 146 184 221 265 316
#     4  10  20  35  57  80 104 141 183 222 264 316
#     4  10  21  38  59  84 109 136 179 228 267 317
#     4  10  20  32  50  78 111 147 184 219 264 315
#     4   9  19  34  49  73 109 145 179 220 265 317
#     4  10  21  36  56  80 108 142 181 225 270 315
#     4  11  22  38  59  81 110 143 174 216 277 333
#
# _framework density 18.751635
#
# number of rings (size 3 to 8) (size 9 to 14) (size 15 to 20)
#    0.000    2.143    0.000    3.857    2.000    4.857 
#    0.000    0.714    0.000    4.286    0.000    0.000 
#    0.000    0.000    0.000    0.000    0.000    0.000 
#
# Total GULP energy -347224.660077 kJ/mol
# GULP energy per Si atom -12400.880717 kJ/mol
# Density = 1.870896 g / cm^3
# Si number density = 18.751635 Si / 1000 Ang^3
#
#
#
# Elastic Constant Matrix: (Units=GPa)
#
#
# Indices 1 2 3 4 5 6 
#
# 1 112.0378 37.3740 60.1548 0.0000 -1.1342 0.0000
# 2 37.3740 62.2914 40.3969 0.0000 4.8988 0.0000
# 3 60.1548 40.3969 107.8115 0.0000 21.6258 0.0000
# 4 0.0000 0.0000 0.0000 14.1367 0.0000 -14.1636
# 5 -1.1342 4.8988 21.6258 0.0000 18.6151 0.0000
# 6 0.0000 0.0000 0.0000 -14.1636 0.0000 9.0218
#
#
#
# Elastic Compliance Matrix: (Units=1/GPa)
#
#
# Indices 1 2 3 4 5 6 
#
# 1 0.015814 -0.004043 -0.010060 0.000000 0.013714 0.000000
# 2 -0.004043 0.022569 -0.006467 0.000000 0.001327 0.000000
# 3 -0.010060 -0.006467 0.022287 0.000000 -0.024802 0.000000
# 4 0.000000 0.000000 0.000000 -0.123469 0.000000 -0.193838
# 5 0.013714 0.001327 -0.024802 0.000000 0.083020 0.000000
# 6 0.000000 0.000000 0.000000 -0.193838 0.000000 -0.193469
#
#
# Mechanical properties :
#
#
# Convention : Reuss Voigt Hill
#
# Bulk Modulus (GPa) = 51.20241 61.99912 56.60076
# Shear Modulus (GPa) = -39.80950 17.96905 -10.92023
#
# Velocity S-wave (km/s) = -4.61259 3.09894 -2.41583
# Velocity P-wave (km/s) = 1.00155 6.77788 4.74007
#
# Compressibility (1/GPa) = 0.01953033
#
# Stress axis : x y z
#
# Youngs Moduli (GPa) = 63.23361 44.30887 44.86973
#
# Poissons Ratio (x) = 0.17914 0.45139
# Poissons Ratio (y) = 0.25565 0.29017
# Poissons Ratio (z) = 0.63612 0.28654
#
# Static dielectric constant tensor:
#      x y z
#    x 3.420250 0.000000 -0.104320 
#    y 0.000000 3.494650 0.000000 
#    z -0.104320 0.000000 3.786530 
# 
# 
# High freq. dielectric constant tensor:
#      x y z
#    x 1.721800 0.000000 -0.008250 
#    y 0.000000 1.731890 0.000000 
#    z -0.008250 0.000000 1.731620 
# 
# From -- ./inp_files/49350.got.cif
#   From: 2010.06.25/outbox.cif.g09.slc.cpg/sg10_25_cif.got.tgz:49350.got - 2010.06.27 22:07:45.
