data_PCOD8063032
_publ_section_title
;
Structure prediction by ZEFSAII (Michael W. Deem and Ramdas Pophale) SiO2 
 PCOD8063032
Probable space group: P 2/M
;
_chemical_formula_sum "Si O2"
_cell_formula_units_Z 30
_cell_length_a 30.431610
_cell_length_b 10.082599
_cell_length_c 16.149753
_cell_angle_alpha 90.000000
_cell_angle_beta 19.148190
_cell_angle_gamma 90.000000
_cell_volume 1625.375752
_symmetry_space_group_name_H-M "P 2/M"
_symmetry_group_IT_number 10
_symmetry_cell_setting 'monoclinic'
loop_
_space_group_symop_operation_xyz
x,y,z
-x,y,-z
-x,-y,-z
x,-y,z
loop_
_atom_site_type_symbol
_atom_site_label
_atom_site_fract_x
_atom_site_fract_y
_atom_site_fract_z
Si Si1 0.250535 0.351140 0.356605
Si Si2 0.122760 0.156898 0.455359
Si Si3 0.143465 0.649943 0.720213
Si Si4 0.573490 0.154893 0.536735
Si Si5 0.500000 0.763817 0.000000
Si Si6 0.283501 0.843356 0.006375
Si Si7 0.184384 0.842304 0.007046
Si Si8 0.347029 0.853658 0.423217
O O1 0.244466 0.500000 0.328912
O O2 0.216411 0.239313 0.350682
O O3 0.145810 0.334894 0.617376
O O4 0.394490 0.331680 0.142882
O O5 0.968068 0.204079 0.740875
O O6 0.139361 0.000000 0.444705
O O7 0.177301 0.192656 0.267073
O O8 0.174265 0.500000 0.693224
O O9 0.239052 0.741934 0.602599
O O10 0.000000 0.700592 0.000000
O O11 0.432938 0.217487 0.754849
O O12 0.574939 0.184112 0.631987
O O13 0.572309 0.000000 0.519551
O O14 0.706644 0.213299 0.253674
O O15 0.442729 0.858615 0.173206
O O16 0.298116 0.000000 0.975017
O O17 0.226352 0.785874 0.022188
O O18 0.183996 0.000000 0.009004
O O19 0.281774 0.000000 0.549113
#
# Coordination Sequence:
#
# PCOD8063032 Si02
#       8
#     4   4   4   4   2   4   4   4
#     4  10  21  36  55  76 100 135 175 214 256 306
#     4  10  20  32  51  80 108 133 167 216 265 310
#     4   9  20  37  53  70  98 137 178 212 249 307
#     4   9  17  28  45  73 105 135 171 214 257 305
#     4  10  20  36  54  74 104 138 176 212 252 310
#     4   9  16  29  48  71 102 140 174 206 252 312
#     4   9  17  29  47  72 104 138 171 209 257 310
#     4  10  20  32  51  78 107 134 166 213 265 308
#
# _framework density 18.457270999999999
#
# number of rings (size 3 to 8) (size 9 to 14) (size 15 to 20)
#    0.000    2.533    0.000    2.000    1.867    7.733 
#    0.000    0.000    0.000    1.600    0.000    0.000 
#    0.000    4.267    0.000    0.000    0.000    0.000 
#
# Total GULP energy -371791.917152 kJ/mol
# GULP energy per Si atom -12393.063905 kJ/mol
# Density = 1.841526 g / cm^3
# Si number density = 18.457271 Si / 1000 Ang^3
#
#
#
# Elastic Constant Matrix: (Units=GPa)
#
#
# Indices 1 2 3 4 5 6 
#
# 1 118.1503 33.2978 46.8581 0.0000 -9.9357 0.0000
# 2 33.2978 42.3627 19.3138 0.0000 -3.2928 0.0000
# 3 46.8581 19.3138 121.4775 0.0000 -12.9195 0.0000
# 4 0.0000 0.0000 0.0000 15.3920 0.0000 8.9470
# 5 -9.9357 -3.2928 -12.9195 0.0000 5.7302 0.0000
# 6 0.0000 0.0000 0.0000 8.9470 0.0000 14.7499
#
#
#
# Elastic Compliance Matrix: (Units=1/GPa)
#
#
# Indices 1 2 3 4 5 6 
#
# 1 0.012641 -0.007934 -0.002326 0.000000 0.012115 0.000000
# 2 -0.007934 0.030660 -0.001846 0.000000 -0.000301 0.000000
# 3 -0.002326 -0.001846 0.011682 0.000000 0.021245 0.000000
# 4 0.000000 0.000000 0.000000 0.100352 0.000000 -0.060872
# 5 0.012115 -0.000301 0.021245 0.000000 0.243245 0.000000
# 6 0.000000 0.000000 0.000000 -0.060872 0.000000 0.104721
#
#
# Mechanical properties :
#
#
# Convention : Reuss Voigt Hill
#
# Bulk Modulus (GPa) = 32.49852 53.43666 42.96759
# Shear Modulus (GPa) = 9.29763 19.34249 14.32006
#
# Velocity S-wave (km/s) = 2.24685 3.24073 2.78843
# Velocity P-wave (km/s) = 4.93728 6.55878 5.80492
#
# Compressibility (1/GPa) = 0.03077063
#
# Stress axis : x y z
#
# Youngs Moduli (GPa) = 79.10686 32.61559 85.59965
#
# Poissons Ratio (x) = 0.25877 0.19913
# Poissons Ratio (y) = 0.62763 0.15804
# Poissons Ratio (z) = 0.18403 0.06022
#
# Static dielectric constant tensor:
#      x y z
#    x 3.476810 0.000000 0.042510 
#    y 0.000000 3.023610 0.000000 
#    z 0.042510 0.000000 3.741890 
# 
# 
# High freq. dielectric constant tensor:
#      x y z
#    x 1.719770 0.000000 0.002970 
#    y 0.000000 1.662670 0.000000 
#    z 0.002970 0.000000 1.731610 
# 
# From -- ./inp_files/72663.got.cif
#   From: 2010.06.25/outbox.cif.g09.slc.cpg/sg10_37_cif.got.tgz:72663.got - 2010.06.27 22:07:45.
