data_PCOD8063875
_publ_section_title
;
Structure prediction by ZEFSAII (Michael W. Deem and Ramdas Pophale) SiO2 
 PCOD8063875
Probable space group: P 2/M
;
_chemical_formula_sum "Si O2"
_cell_formula_units_Z 28
_cell_length_a 15.739904
_cell_length_b 9.291983
_cell_length_c 20.068884
_cell_angle_alpha 90.000000
_cell_angle_beta 30.074595
_cell_angle_gamma 90.000000
_cell_volume 1470.894688
_symmetry_space_group_name_H-M "P 2/M"
_symmetry_group_IT_number 10
_symmetry_cell_setting 'monoclinic'
loop_
_space_group_symop_operation_xyz
x,y,z
-x,y,-z
-x,-y,-z
x,-y,z
loop_
_atom_site_type_symbol
_atom_site_label
_atom_site_fract_x
_atom_site_fract_y
_atom_site_fract_z
Si Si1 0.322196 0.334867 0.938084
Si Si2 0.112826 0.333453 0.599200
Si Si3 0.638101 0.169887 0.351167
Si Si4 0.497998 0.332763 0.682716
Si Si5 0.090392 0.168463 0.372012
Si Si6 0.475734 0.831868 0.091363
Si Si7 0.932142 0.666128 0.218789
O O1 0.365310 0.500000 0.923903
O O2 0.413523 0.283635 0.808905
O O3 0.386780 0.244262 0.956275
O O4 0.122763 0.310766 0.064771
O O5 0.064454 0.500000 0.625366
O O6 0.302843 0.302342 0.446217
O O7 0.983435 0.245288 0.642340
O O8 0.090039 0.281060 0.690361
O O9 0.500000 0.212779 0.500000
O O10 0.582007 0.234797 0.319464
O O11 0.817661 0.236818 0.249005
O O12 0.658013 0.000000 0.330300
O O13 0.461942 0.500000 0.690789
O O14 0.288091 0.205331 0.244399
O O15 0.000000 0.226622 0.500000
O O16 0.058338 0.000000 0.384202
O O17 0.513979 0.000000 0.068794
O O18 0.500000 0.774390 0.000000
O O19 0.875354 0.500000 0.250916
#
# Coordination Sequence:
#
# PCOD8063875 Si02
#       7
#     4   4   4   4   4   4   4
#     4  10  22  38  58  86 114 146 189 233 279 331
#     4  10  20  34  56  82 106 142 187 228 275 328
#     4  11  23  38  59  88 114 143 188 231 274 331
#     4  10  21  38  59  83 115 150 184 229 284 334
#     4  10  21  35  52  77 109 144 182 227 279 329
#     4  10  21  37  56  79 111 152 190 227 279 336
#     4  10  21  38  59  83 113 146 183 228 279 331
#
# _framework density 19.036034999999998
#
# number of rings (size 3 to 8) (size 9 to 14) (size 15 to 20)
#    0.000    1.857    1.429    2.143    0.000    4.571 
#    0.000    2.857    0.000    0.000    0.000    0.000 
#    0.000    0.000    0.000    0.000    0.000    0.000 
#
# Total GULP energy -347374.074949 kJ/mol
# GULP energy per Si atom -12406.216962 kJ/mol
# Density = 1.899271 g / cm^3
# Si number density = 19.036035 Si / 1000 Ang^3
#
#
#
# Elastic Constant Matrix: (Units=GPa)
#
#
# Indices 1 2 3 4 5 6 
#
# 1 95.4970 47.5370 13.9207 0.0000 -1.6343 0.0000
# 2 47.5370 56.4342 21.2499 0.0000 -5.6979 0.0000
# 3 13.9207 21.2499 78.8140 0.0000 13.7783 0.0000
# 4 0.0000 0.0000 0.0000 12.9082 0.0000 3.2452
# 5 -1.6343 -5.6979 13.7783 0.0000 31.7201 0.0000
# 6 0.0000 0.0000 0.0000 3.2452 0.0000 36.8776
#
#
#
# Elastic Compliance Matrix: (Units=1/GPa)
#
#
# Indices 1 2 3 4 5 6 
#
# 1 0.018304 -0.016306 0.001635 0.000000 -0.002696 0.000000
# 2 -0.016306 0.035498 -0.008288 0.000000 0.009137 0.000000
# 3 0.001635 -0.008288 0.016102 0.000000 -0.008399 0.000000
# 4 0.000000 0.000000 0.000000 0.079223 0.000000 -0.006972
# 5 -0.002696 0.009137 -0.008399 0.000000 0.036676 0.000000
# 6 0.000000 0.000000 0.000000 -0.006972 0.000000 0.027730
#
#
# Mechanical properties :
#
#
# Convention : Reuss Voigt Hill
#
# Bulk Modulus (GPa) = 41.69149 44.01780 42.85464
# Shear Modulus (GPa) = 18.69522 26.17037 22.43279
#
# Velocity S-wave (km/s) = 3.13724 3.71183 3.43656
# Velocity P-wave (km/s) = 5.92216 6.44545 6.18934
#
# Compressibility (1/GPa) = 0.02398571
#
# Stress axis : x y z
#
# Youngs Moduli (GPa) = 54.63294 28.17032 62.10261
#
# Poissons Ratio (x) = 0.45935 -0.10153
# Poissons Ratio (y) = 0.89084 0.51472
# Poissons Ratio (z) = -0.08931 0.23348
#
# Static dielectric constant tensor:
#      x y z
#    x 3.392300 0.000000 0.127360 
#    y 0.000000 3.379050 0.000000 
#    z 0.127360 0.000000 3.803640 
# 
# 
# High freq. dielectric constant tensor:
#      x y z
#    x 1.745010 0.000000 0.001910 
#    y 0.000000 1.731970 0.000000 
#    z 0.001910 0.000000 1.754820 
# 
# From -- ./inp_files/37272.got.cif
#   From: 2010.06.25/outbox.cif.g09.slc.cpg/sg10_19_cif.got.tgz:37272.got - 2010.06.27 22:07:45.
