data_PCOD8063696
_publ_section_title
;
Structure prediction by ZEFSAII (Michael W. Deem and Ramdas Pophale) SiO2 
 PCOD8063696
Probable space group: P 2/M
;
_chemical_formula_sum "Si O2"
_cell_formula_units_Z 26
_cell_length_a 7.297962
_cell_length_b 9.814898
_cell_length_c 23.907250
_cell_angle_alpha 90.000000
_cell_angle_beta 47.556064
_cell_angle_gamma 90.000000
_cell_volume 1263.679428
_symmetry_space_group_name_H-M "P 2/M"
_symmetry_group_IT_number 10
_symmetry_cell_setting 'monoclinic'
loop_
_space_group_symop_operation_xyz
x,y,z
-x,y,-z
-x,-y,-z
x,-y,z
loop_
_atom_site_type_symbol
_atom_site_label
_atom_site_fract_x
_atom_site_fract_y
_atom_site_fract_z
Si Si1 0.685891 0.659537 0.288218
Si Si2 0.132981 0.656176 0.419314
Si Si3 0.055676 0.850795 0.153805
Si Si4 0.500000 0.267757 0.000000
Si Si5 0.024190 0.345971 0.322020
Si Si6 0.283588 0.649421 0.931971
Si Si7 0.385965 0.151707 0.194990
O O1 0.700372 0.500000 0.269241
O O2 0.405580 0.717236 0.349527
O O3 0.834149 0.741078 0.208756
O O4 0.799105 0.687457 0.326752
O O5 0.182648 0.500000 0.425517
O O6 0.950897 0.668756 0.402729
O O7 0.000000 0.728817 0.500000
O O8 0.209573 0.857102 0.178531
O O9 0.938904 0.000000 0.165557
O O10 0.248372 0.817882 0.063991
O O11 0.559576 0.355874 0.042638
O O12 0.120778 0.500000 0.290447
O O13 0.250321 0.240926 0.269575
O O14 0.320538 0.500000 0.896839
O O15 0.364880 0.768609 0.873200
O O16 0.000000 0.681315 0.000000
O O17 0.450545 0.000000 0.203878
#
# Coordination Sequence:
#
# PCOD8063696 Si02
#       7
#     4   4   4   2   4   4   4
#     4   9  18  32  51  75 101 132 171 209 249 301
#     4   9  18  32  51  78 107 131 163 209 254 299
#     4   9  18  33  53  75 102 136 172 211 254 300
#     4  10  20  34  54  76 102 136 172 212 256 298
#     4   9  17  31  52  74  98 130 164 203 250 296
#     4  10  21  35  51  73 100 131 169 211 254 300
#     4   9  18  33  52  73  99 132 169 208 250 299
#
# _framework density 20.574836999999999
#
# number of rings (size 3 to 8) (size 9 to 14) (size 15 to 20)
#    0.000    2.769    0.000    0.923    0.000    7.077 
#    0.000    8.462    0.000    1.846    0.000    4.308 
#    0.000    0.000    0.000    0.000    0.000    0.000 
#
# Total GULP energy -322163.279010 kJ/mol
# GULP energy per Si atom -12390.895347 kJ/mol
# Density = 2.052801 g / cm^3
# Si number density = 20.574837 Si / 1000 Ang^3
#
#
#
# Elastic Constant Matrix: (Units=GPa)
#
#
# Indices 1 2 3 4 5 6 
#
# 1 48.8052 7.0935 15.5893 0.0000 -4.1244 0.0000
# 2 7.0935 105.7465 37.8343 0.0000 -7.1480 0.0000
# 3 15.5893 37.8343 106.0683 0.0000 -6.7810 0.0000
# 4 0.0000 0.0000 0.0000 13.4585 0.0000 10.7011
# 5 -4.1244 -7.1480 -6.7810 0.0000 30.5494 0.0000
# 6 0.0000 0.0000 0.0000 10.7011 0.0000 44.4629
#
#
#
# Elastic Compliance Matrix: (Units=1/GPa)
#
#
# Indices 1 2 3 4 5 6 
#
# 1 0.021656 -0.000247 -0.002954 0.000000 0.002210 0.000000
# 2 -0.000247 0.010931 -0.003755 0.000000 0.001691 0.000000
# 3 -0.002954 -0.003755 0.011280 0.000000 0.001226 0.000000
# 4 0.000000 0.000000 0.000000 0.091886 0.000000 -0.022115
# 5 0.002210 0.001691 0.001226 0.000000 0.033700 0.000000
# 6 0.000000 0.000000 0.000000 -0.022115 0.000000 0.027813
#
#
# Mechanical properties :
#
#
# Convention : Reuss Voigt Hill
#
# Bulk Modulus (GPa) = 33.38157 42.40600 37.89379
# Shear Modulus (GPa) = 22.60804 31.03436 26.82120
#
# Velocity S-wave (km/s) = 3.31844 3.88798 3.61445
# Velocity P-wave (km/s) = 5.56259 6.38831 5.98970
#
# Compressibility (1/GPa) = 0.02995665
#
# Stress axis : x y z
#
# Youngs Moduli (GPa) = 46.17728 91.48496 88.65510
#
# Poissons Ratio (x) = 0.02255 0.26185
# Poissons Ratio (y) = 0.01138 0.33287
# Poissons Ratio (z) = 0.13639 0.34349
#
# Static dielectric constant tensor:
#      x y z
#    x 3.639360 0.000000 0.004750 
#    y 0.000000 3.849050 0.000000 
#    z 0.004750 0.000000 3.752200 
# 
# 
# High freq. dielectric constant tensor:
#      x y z
#    x 1.804410 0.000000 0.004130 
#    y 0.000000 1.780590 0.000000 
#    z 0.004130 0.000000 1.789640 
# 
# From -- ./inp_files/74366.got.cif
#   From: 2010.06.25/outbox.cif.g09.slc.cpg/sg10_38_cif.got.tgz:74366.got - 2010.06.27 22:07:45.
