data_PCOD8063549
_publ_section_title
;
Structure prediction by ZEFSAII (Michael W. Deem and Ramdas Pophale) SiO2 
 PCOD8063549
Probable space group: P 2/M
;
_chemical_formula_sum "Si O2"
_cell_formula_units_Z 32
_cell_length_a 10.017973
_cell_length_b 17.764104
_cell_length_c 12.660442
_cell_angle_alpha 90.000000
_cell_angle_beta 132.612438
_cell_angle_gamma 90.000000
_cell_volume 1658.137032
_symmetry_space_group_name_H-M "P 2/M"
_symmetry_group_IT_number 10
_symmetry_cell_setting 'monoclinic'
loop_
_space_group_symop_operation_xyz
x,y,z
-x,y,-z
-x,-y,-z
x,-y,z
loop_
_atom_site_type_symbol
_atom_site_label
_atom_site_fract_x
_atom_site_fract_y
_atom_site_fract_z
Si Si1 0.155690 0.412250 0.870626
Si Si2 0.905632 0.842878 0.837855
Si Si3 0.420153 0.411323 0.201439
Si Si4 0.134393 0.675358 0.170244
Si Si5 0.538867 0.913431 0.633810
Si Si6 0.783922 0.910895 0.122929
Si Si7 0.186141 0.588983 0.649062
Si Si8 0.557731 0.910914 0.194872
O O1 0.110729 0.500000 0.853482
O O2 0.212075 0.386723 0.784083
O O3 0.967585 0.369840 0.792811
O O4 0.320876 0.391627 0.037484
O O5 0.824193 0.760328 0.769734
O O6 0.751830 0.905566 0.766783
O O7 0.036387 0.865944 0.811664
O O8 0.000000 0.842464 0.000000
O O9 0.404451 0.500000 0.216397
O O10 0.323254 0.365623 0.243555
O O11 0.629971 0.384007 0.311348
O O12 0.000000 0.674775 0.000000
O O13 0.500000 0.872809 0.500000
O O14 0.432763 0.878070 0.679545
O O15 0.481600 0.000000 0.594580
O O16 0.732243 0.889363 0.216924
O O17 0.816184 0.000000 0.129470
O O18 0.623800 0.882100 0.960420
O O19 0.175064 0.500000 0.634079
O O20 0.000000 0.623896 0.500000
O O21 0.540954 0.000000 0.192717
#
# Coordination Sequence:
#
# PCOD8063549 Si02
#       8
#     4   4   4   4   4   4   4   4
#     4   9  16  30  52  72  95 131 171 210 252 303
#     4  11  20  32  51  74 102 130 169 216 260 307
#     4   9  16  30  52  74  98 132 169 206 256 309
#     4   9  19  32  48  74 104 128 168 216 255 299
#     4  10  20  34  52  75 104 137 173 211 253 306
#     4   9  16  28  51  78 100 127 166 210 252 300
#     4   9  17  29  48  76 103 125 161 213 258 300
#     4   8  15  29  49  75 102 127 163 208 251 298
#
# _framework density 19.298766000000001
#
# number of rings (size 3 to 8) (size 9 to 14) (size 15 to 20)
#    0.000    2.750    1.250    1.875    0.000    3.500 
#    0.000    3.750    2.750    6.000    0.000    0.000 
#    0.000    0.000    0.000    0.000    0.000    0.125 
#
# Total GULP energy -396527.696544 kJ/mol
# GULP energy per Si atom -12391.490517 kJ/mol
# Density = 1.925484 g / cm^3
# Si number density = 19.298766 Si / 1000 Ang^3
#
#
#
# Elastic Constant Matrix: (Units=GPa)
#
#
# Indices 1 2 3 4 5 6 
#
# 1 176.4434 37.5203 49.9511 0.0000 -2.6672 0.0000
# 2 37.5203 37.5703 19.1316 0.0000 -0.8810 0.0000
# 3 49.9511 19.1316 65.0069 0.0000 -2.8353 0.0000
# 4 0.0000 0.0000 0.0000 9.0173 0.0000 -1.3694
# 5 -2.6672 -0.8810 -2.8353 0.0000 32.2509 0.0000
# 6 0.0000 0.0000 0.0000 -1.3694 0.0000 6.8927
#
#
#
# Elastic Compliance Matrix: (Units=1/GPa)
#
#
# Indices 1 2 3 4 5 6 
#
# 1 0.008213 -0.005868 -0.004579 0.000000 0.000116 0.000000
# 2 -0.005868 0.035501 -0.005941 0.000000 -0.000038 0.000000
# 3 -0.004579 -0.005941 0.020706 0.000000 0.001279 0.000000
# 4 0.000000 0.000000 0.000000 0.114347 0.000000 0.022717
# 5 0.000116 -0.000038 0.001279 0.000000 0.031128 0.000000
# 6 0.000000 0.000000 0.000000 0.022717 0.000000 0.149594
#
#
# Mechanical properties :
#
#
# Convention : Reuss Voigt Hill
#
# Bulk Modulus (GPa) = 31.60092 54.69185 43.14639
# Shear Modulus (GPa) = 12.41268 21.12670 16.76969
#
# Velocity S-wave (km/s) = 2.53886 3.31224 2.95100
# Velocity P-wave (km/s) = 5.00045 6.55965 5.83239
#
# Compressibility (1/GPa) = 0.03164464
#
# Stress axis : x y z
#
# Youngs Moduli (GPa) = 121.75100 28.16804 48.29578
#
# Poissons Ratio (x) = 0.16529 0.22115
# Poissons Ratio (y) = 0.71444 0.28691
# Poissons Ratio (z) = 0.55752 0.16734
#
# Static dielectric constant tensor:
#      x y z
#    x 3.846700 0.000000 -0.119580 
#    y 0.000000 3.246470 0.000000 
#    z -0.119580 0.000000 3.296380 
# 
# 
# High freq. dielectric constant tensor:
#      x y z
#    x 1.768450 0.000000 -0.006450 
#    y 0.000000 1.709640 0.000000 
#    z -0.006450 0.000000 1.719050 
# 
# From -- ./inp_files/26058.got.cif
#   From: 2010.06.25/outbox.cif.g09.slc.cpg/sg10_14_cif.got.tgz:26058.got - 2010.06.27 22:07:45.
