data_PCOD8063251
_publ_section_title
;
Structure prediction by ZEFSAII (Michael W. Deem and Ramdas Pophale) SiO2 
 PCOD8063251
Probable space group: P 2/M
;
_chemical_formula_sum "Si O2"
_cell_formula_units_Z 24
_cell_length_a 24.572692
_cell_length_b 8.949363
_cell_length_c 18.778868
_cell_angle_alpha 90.000000
_cell_angle_beta 19.000961
_cell_angle_gamma 90.000000
_cell_volume 1344.551193
_symmetry_space_group_name_H-M "P 2/M"
_symmetry_group_IT_number 10
_symmetry_cell_setting 'monoclinic'
loop_
_space_group_symop_operation_xyz
x,y,z
-x,y,-z
-x,-y,-z
x,-y,z
loop_
_atom_site_type_symbol
_atom_site_label
_atom_site_fract_x
_atom_site_fract_y
_atom_site_fract_z
Si Si1 0.650219 0.174047 0.867197
Si Si2 0.656969 0.322724 0.010059
Si Si3 0.818576 0.675703 0.199257
Si Si4 0.507409 0.175816 0.657165
Si Si5 0.024205 0.335154 0.553895
Si Si6 0.334929 0.664328 0.751240
O O1 0.824553 0.223753 0.613886
O O2 0.661121 0.000000 0.871464
O O3 0.500000 0.211894 0.000000
O O4 0.618904 0.262891 0.978451
O O5 0.635103 0.500000 0.035690
O O6 0.524242 0.249701 0.227338
O O7 0.844346 0.278577 0.805652
O O8 0.784372 0.500000 0.253861
O O9 0.685348 0.768057 0.409336
O O10 0.809013 0.714463 0.126365
O O11 0.000000 0.725934 0.000000
O O12 0.358600 0.220377 0.786481
O O13 0.510497 0.000000 0.661947
O O14 0.067426 0.500000 0.530905
O O15 0.000000 0.346108 0.500000
O O16 0.500000 0.655279 0.500000
O O17 0.296034 0.500000 0.831882
#
# Coordination Sequence:
#
# PCOD8063251 Si02
#       6
#     4   4   4   4   4   4
#     4  10  20  33  51  77 107 135 163 200 250 305
#     4  10  20  35  54  74  98 130 172 214 249 293
#     4   9  18  34  55  76 100 134 172 206 246 299
#     4  11  21  32  50  76 104 132 165 208 258 302
#     4   8  16  31  51  73  94 124 167 206 239 285
#     4   8  15  30  51  72  95 126 165 203 238 288
#
# _framework density 17.849823000000001
#
# number of rings (size 3 to 8) (size 9 to 14) (size 15 to 20)
#    0.000    2.667    0.000    4.500    0.000    8.333 
#    0.000    1.667    0.000    2.000    0.000    0.000 
#    0.000    0.000    0.000    0.000    0.000    0.000 
#
# Total GULP energy -297478.873479 kJ/mol
# GULP energy per Si atom -12394.953062 kJ/mol
# Density = 1.780920 g / cm^3
# Si number density = 17.849823 Si / 1000 Ang^3
#
#
#
# Elastic Constant Matrix: (Units=GPa)
#
#
# Indices 1 2 3 4 5 6 
#
# 1 97.8245 58.9992 54.8031 0.0000 -14.7561 0.0000
# 2 58.9992 115.4901 55.8298 0.0000 -3.1284 0.0000
# 3 54.8031 55.8298 80.2601 0.0000 -8.5425 0.0000
# 4 0.0000 0.0000 0.0000 16.8500 0.0000 -3.4621
# 5 -14.7561 -3.1284 -8.5425 0.0000 31.2456 0.0000
# 6 0.0000 0.0000 0.0000 -3.4621 0.0000 21.4750
#
#
#
# Elastic Compliance Matrix: (Units=1/GPa)
#
#
# Indices 1 2 3 4 5 6 
#
# 1 0.019375 -0.005505 -0.008740 0.000000 0.006210 0.000000
# 2 -0.005505 0.014654 -0.006752 0.000000 -0.002979 0.000000
# 3 -0.008740 -0.006752 0.023290 0.000000 0.001564 0.000000
# 4 0.000000 0.000000 0.000000 0.061380 0.000000 0.009895
# 5 0.006210 -0.002979 0.001564 0.000000 0.035066 0.000000
# 6 0.000000 0.000000 0.000000 0.009895 0.000000 0.048161
#
#
# Mechanical properties :
#
#
# Convention : Reuss Voigt Hill
#
# Bulk Modulus (GPa) = 65.24422 70.31542 67.77982
# Shear Modulus (GPa) = 20.07797 22.17696 21.12747
#
# Velocity S-wave (km/s) = 3.35748 3.52862 3.44412
# Velocity P-wave (km/s) = 7.18758 7.48865 7.33966
#
# Compressibility (1/GPa) = 0.01532703
#
# Stress axis : x y z
#
# Youngs Moduli (GPa) = 51.61226 68.23953 42.93673
#
# Poissons Ratio (x) = 0.37566 0.37525
# Poissons Ratio (y) = 0.28413 0.28990
# Poissons Ratio (z) = 0.45107 0.46074
#
# Static dielectric constant tensor:
#      x y z
#    x 3.450030 0.000000 -0.159790 
#    y 0.000000 3.273750 0.000000 
#    z -0.159790 0.000000 3.440120 
# 
# 
# High freq. dielectric constant tensor:
#      x y z
#    x 1.678350 0.000000 -0.006410 
#    y 0.000000 1.689990 0.000000 
#    z -0.006410 0.000000 1.675830 
# 
# From -- ./inp_files/31202.got.cif
#   From: 2010.06.25/outbox.cif.g09.slc.cpg/sg10_16_cif.got.tgz:31202.got - 2010.06.27 22:07:45.
