data_PCOD8063374
_publ_section_title
;
Structure prediction by ZEFSAII (Michael W. Deem and Ramdas Pophale) SiO2 
 PCOD8063374
Probable space group: P 2/M
;
_chemical_formula_sum "Si O2"
_cell_formula_units_Z 32
_cell_length_a 12.112009
_cell_length_b 9.295843
_cell_length_c 27.936638
_cell_angle_alpha 90.000000
_cell_angle_beta 32.793390
_cell_angle_gamma 90.000000
_cell_volume 1703.596617
_symmetry_space_group_name_H-M "P 2/M"
_symmetry_group_IT_number 10
_symmetry_cell_setting 'monoclinic'
loop_
_space_group_symop_operation_xyz
x,y,z
-x,y,-z
-x,-y,-z
x,-y,z
loop_
_atom_site_type_symbol
_atom_site_label
_atom_site_fract_x
_atom_site_fract_y
_atom_site_fract_z
Si Si1 0.576547 0.834666 0.193068
Si Si2 0.227014 0.667780 0.364109
Si Si3 0.466091 0.831596 0.566622
Si Si4 0.049058 0.165291 0.767558
Si Si5 0.076841 0.833556 0.865969
Si Si6 0.635801 0.669938 0.904950
Si Si7 0.759920 0.331871 0.531781
Si Si8 0.351242 0.834100 0.942867
O O1 0.364930 0.751867 0.276080
O O2 0.744498 0.763815 0.167255
O O3 0.661611 0.817247 0.109045
O O4 0.534927 0.000000 0.221317
O O5 0.266892 0.500000 0.343674
O O6 0.283929 0.715169 0.397513
O O7 0.994893 0.704908 0.435329
O O8 0.500000 0.777941 0.500000
O O9 0.232473 0.795975 0.665001
O O10 0.618994 0.753182 0.546597
O O11 0.510864 0.000000 0.555287
O O12 0.131996 0.191728 0.790777
O O13 0.863258 0.271015 0.825924
O O14 0.977077 0.000000 0.787488
O O15 0.063742 0.000000 0.885092
O O16 0.855955 0.767649 0.959188
O O17 0.646072 0.500000 0.895092
O O18 0.538322 0.740045 0.893553
O O19 0.500000 0.715786 0.000000
O O20 0.716868 0.500000 0.540751
O O21 0.384633 0.000000 0.946080
#
# Coordination Sequence:
#
# PCOD8063374 Si02
#       8
#     4   4   4   4   4   4   4   4
#     4  10  20  33  53  84 114 140 178 223 272 328
#     4   9  19  36  56  80 110 144 181 224 272 324
#     4  10  22  38  56  84 118 144 177 234 289 327
#     4  10  20  36  60  83 107 147 188 222 274 337
#     4   9  17  32  55  80 106 139 182 224 263 319
#     4  11  23  38  56  80 110 141 184 239 279 315
#     4   9  19  37  59  79 105 146 190 223 264 329
#     4  10  20  35  56  79 108 147 183 221 270 328
#
# _framework density 18.783788999999999
#
# number of rings (size 3 to 8) (size 9 to 14) (size 15 to 20)
#    0.000    2.250    1.250    2.250    0.000    6.250 
#    0.000    6.250    0.000    1.500    0.000    0.000 
#    0.000    0.000    0.000    0.000    0.000    0.000 
#
# Total GULP energy -396859.830453 kJ/mol
# GULP energy per Si atom -12401.869702 kJ/mol
# Density = 1.874104 g / cm^3
# Si number density = 18.783789 Si / 1000 Ang^3
#
#
#
# Elastic Constant Matrix: (Units=GPa)
#
#
# Indices 1 2 3 4 5 6 
#
# 1 87.8472 39.4877 43.3702 0.0000 -9.7836 0.0000
# 2 39.4877 56.3155 43.3444 0.0000 -6.6540 0.0000
# 3 43.3702 43.3444 119.1490 0.0000 3.6021 0.0000
# 4 0.0000 0.0000 0.0000 25.6980 0.0000 -0.3395
# 5 -9.7836 -6.6540 3.6021 0.0000 29.2780 0.0000
# 6 0.0000 0.0000 0.0000 -0.3395 0.0000 26.6952
#
#
#
# Elastic Compliance Matrix: (Units=1/GPa)
#
#
# Indices 1 2 3 4 5 6 
#
# 1 0.017638 -0.009506 -0.003087 0.000000 0.004113 0.000000
# 2 -0.009506 0.031183 -0.008032 0.000000 0.004899 0.000000
# 3 -0.003087 -0.008032 0.012571 0.000000 -0.004403 0.000000
# 4 0.000000 0.000000 0.000000 0.038920 0.000000 0.000495
# 5 0.004113 0.004899 -0.004403 0.000000 0.037185 0.000000
# 6 0.000000 0.000000 0.000000 0.000495 0.000000 0.037466
#
#
# Mechanical properties :
#
#
# Convention : Reuss Voigt Hill
#
# Bulk Modulus (GPa) = 49.64260 57.30182 53.47221
# Shear Modulus (GPa) = 22.42876 25.47487 23.95181
#
# Velocity S-wave (km/s) = 3.45925 3.68668 3.57477
# Velocity P-wave (km/s) = 6.51468 6.97813 6.75038
#
# Compressibility (1/GPa) = 0.02014399
#
# Stress axis : x y z
#
# Youngs Moduli (GPa) = 56.69440 32.06837 79.54610
#
# Poissons Ratio (x) = 0.30485 0.24552
# Poissons Ratio (y) = 0.53895 0.63890
# Poissons Ratio (z) = 0.17499 0.25757
#
# Static dielectric constant tensor:
#      x y z
#    x 3.422660 0.000000 -0.002230 
#    y 0.000000 3.210770 0.000000 
#    z -0.002230 0.000000 3.520670 
# 
# 
# High freq. dielectric constant tensor:
#      x y z
#    x 1.733120 0.000000 -0.002400 
#    y 0.000000 1.706920 0.000000 
#    z -0.002400 0.000000 1.738120 
# 
# From -- ./inp_files/58262.got.cif
#   From: 2010.06.25/outbox.cif.g09.slc.cpg/sg10_30_cif.got.tgz:58262.got - 2010.06.27 22:07:45.
