data_PCOD8063677
_publ_section_title
;
Structure prediction by ZEFSAII (Michael W. Deem and Ramdas Pophale) SiO2 
 PCOD8063677
Probable space group: P 2/M
;
_chemical_formula_sum "Si O2"
_cell_formula_units_Z 26
_cell_length_a 19.116744
_cell_length_b 9.666143
_cell_length_c 9.111530
_cell_angle_alpha 90.000000
_cell_angle_beta 128.808488
_cell_angle_gamma 90.000000
_cell_volume 1311.996105
_symmetry_space_group_name_H-M "P 2/M"
_symmetry_group_IT_number 10
_symmetry_cell_setting 'monoclinic'
loop_
_space_group_symop_operation_xyz
x,y,z
-x,y,-z
-x,-y,-z
x,-y,z
loop_
_atom_site_type_symbol
_atom_site_label
_atom_site_fract_x
_atom_site_fract_y
_atom_site_fract_z
Si Si1 0.317177 0.340408 0.235963
Si Si2 0.653172 0.653807 0.398050
Si Si3 0.216009 0.838091 0.608760
Si Si4 0.067875 0.663289 0.300223
Si Si5 0.121556 0.662744 0.046903
Si Si6 0.500000 0.252446 0.000000
Si Si7 0.357680 0.847304 0.033148
O O1 0.316693 0.500000 0.188259
O O2 0.366934 0.318204 0.456836
O O3 0.372124 0.259895 0.183690
O O4 0.215603 0.278159 0.110208
O O5 0.696676 0.500000 0.438928
O O6 0.722460 0.769060 0.435586
O O7 0.561032 0.653369 0.185654
O O8 0.121094 0.756209 0.489214
O O9 0.202548 0.000000 0.554355
O O10 0.263404 0.816761 0.827906
O O11 0.082759 0.500000 0.349481
O O12 0.961856 0.701709 0.168912
O O13 0.103895 0.713110 0.189116
O O14 0.129983 0.500000 0.068504
O O15 0.562094 0.157909 0.979092
O O16 0.356903 0.000000 0.100640
#
# Coordination Sequence:
#
# PCOD8063677 Si02
#       7
#     4   4   4   4   4   2   4
#     4  10  20  36  57  84 114 144 179 226 276 324
#     4  10  20  36  60  85 112 141 178 226 277 330
#     4  10  20  34  53  80 112 149 190 228 269 321
#     4   9  15  29  55  81 109 147 188 228 268 314
#     4   8  15  29  52  82 113 144 181 226 272 319
#     4  10  22  40  62  86 106 136 184 230 272 330
#     4  10  23  41  58  77 109 149 185 224 275 330
#
# _framework density 19.817131
#
# number of rings (size 3 to 8) (size 9 to 14) (size 15 to 20)
#    0.000    2.462    1.538    1.846    0.000    5.538 
#    0.000    5.385    0.000    4.615    0.000    0.000 
#    0.000    0.000    0.000    0.000    0.000    0.000 
#
# Total GULP energy -322272.326143 kJ/mol
# GULP energy per Si atom -12395.089467 kJ/mol
# Density = 1.977203 g / cm^3
# Si number density = 19.817131 Si / 1000 Ang^3
#
#
#
# Elastic Constant Matrix: (Units=GPa)
#
#
# Indices 1 2 3 4 5 6 
#
# 1 69.4580 25.1031 44.2336 0.0000 -0.4430 0.0000
# 2 25.1031 99.5936 55.2549 0.0000 -7.7669 0.0000
# 3 44.2336 55.2549 115.6198 0.0000 9.3768 0.0000
# 4 0.0000 0.0000 0.0000 17.7595 0.0000 -5.2667
# 5 -0.4430 -7.7669 9.3768 0.0000 32.1452 0.0000
# 6 0.0000 0.0000 0.0000 -5.2667 0.0000 14.8653
#
#
#
# Elastic Compliance Matrix: (Units=1/GPa)
#
#
# Indices 1 2 3 4 5 6 
#
# 1 0.019255 -0.000673 -0.007224 0.000000 0.002210 0.000000
# 2 -0.000673 0.014642 -0.007196 0.000000 0.005628 0.000000
# 3 -0.007224 -0.007196 0.015365 0.000000 -0.006320 0.000000
# 4 0.000000 0.000000 0.000000 0.062919 0.000000 0.022292
# 5 0.002210 0.005628 -0.006320 0.000000 0.034343 0.000000
# 6 0.000000 0.000000 0.000000 0.022292 0.000000 0.075168
#
#
# Mechanical properties :
#
#
# Convention : Reuss Voigt Hill
#
# Bulk Modulus (GPa) = 52.42582 59.31717 55.87149
# Shear Modulus (GPa) = 19.36209 23.62599 21.49404
#
# Velocity S-wave (km/s) = 3.12915 3.45657 3.29693
# Velocity P-wave (km/s) = 6.29029 6.77700 6.53817
#
# Compressibility (1/GPa) = 0.01907457
#
# Stress axis : x y z
#
# Youngs Moduli (GPa) = 51.93408 68.29744 65.08486
#
# Poissons Ratio (x) = 0.04596 0.47019
# Poissons Ratio (y) = 0.03495 0.46837
# Poissons Ratio (z) = 0.37518 0.49149
#
# Static dielectric constant tensor:
#      x y z
#    x 3.581330 0.000000 0.340390 
#    y 0.000000 3.357310 0.000000 
#    z 0.340390 0.000000 3.845800 
# 
# 
# High freq. dielectric constant tensor:
#      x y z
#    x 1.749350 0.000000 0.016490 
#    y 0.000000 1.749590 0.000000 
#    z 0.016490 0.000000 1.780510 
# 
# From -- ./inp_files/33980.got.cif
#   From: 2010.06.25/outbox.cif.g09.slc.cpg/sg10_17_cif.got.tgz:33980.got - 2010.06.27 22:07:45.
