data_PCOD8063538
_publ_section_title
;
Structure prediction by ZEFSAII (Michael W. Deem and Ramdas Pophale) SiO2 
 PCOD8063538
Probable space group: P 2/M
;
_chemical_formula_sum "Si O2"
_cell_formula_units_Z 28
_cell_length_a 14.418247
_cell_length_b 12.220156
_cell_length_c 9.368250
_cell_angle_alpha 90.000000
_cell_angle_beta 119.774165
_cell_angle_gamma 90.000000
_cell_volume 1432.722665
_symmetry_space_group_name_H-M "P 2/M"
_symmetry_group_IT_number 10
_symmetry_cell_setting 'monoclinic'
loop_
_space_group_symop_operation_xyz
x,y,z
-x,y,-z
-x,-y,-z
x,-y,z
loop_
_atom_site_type_symbol
_atom_site_label
_atom_site_fract_x
_atom_site_fract_y
_atom_site_fract_z
Si Si1 0.623935 0.127463 0.591234
Si Si2 0.098050 0.621558 0.991114
Si Si3 0.750356 0.250787 0.437462
Si Si4 0.272870 0.778068 0.056340
Si Si5 0.134009 0.876329 0.718090
Si Si6 0.019400 0.683490 0.363696
Si Si7 0.373611 0.374960 0.897584
O O1 0.500000 0.157254 0.500000
O O2 0.684299 0.197449 0.516280
O O3 0.658530 0.155111 0.778426
O O4 0.644420 0.000000 0.574198
O O5 0.125535 0.500000 0.068008
O O6 0.056994 0.614856 0.797518
O O7 0.198092 0.698608 0.092123
O O8 0.000000 0.675912 0.000000
O O9 0.796562 0.159990 0.365448
O O10 0.854385 0.315262 0.581044
O O11 0.672987 0.331850 0.289166
O O12 0.206663 0.865492 0.914592
O O13 0.338783 0.700056 0.002180
O O14 0.025842 0.807606 0.658004
O O15 0.097782 0.000000 0.670521
O O16 0.000000 0.624344 0.500000
O O17 0.333611 0.500000 0.888960
O O18 0.500000 0.370040 0.000000
#
# Coordination Sequence:
#
# PCOD8063538 Si02
#       7
#     4   4   4   4   4   4   4
#     4  11  23  37  54  78 108 142 179 220 266 312
#     4  10  20  34  52  74 103 138 172 207 253 314
#     4  10  20  35  55  79 109 140 173 219 266 311
#     4  10  20  36  56  77 106 140 176 218 262 313
#     4   9  18  33  54  79 105 137 175 213 259 316
#     4   9  19  32  50  78 105 131 167 212 261 312
#     4  10  21  38  59  80 103 137 181 225 268 312
#
# _framework density 19.543210999999999
#
# number of rings (size 3 to 8) (size 9 to 14) (size 15 to 20)
#    0.000    2.143    0.000    3.857    0.000    4.000 
#    0.000    1.429    0.000   15.429    0.000    0.000 
#    0.000    0.000    0.000    0.000    0.000    0.000 
#
# Total GULP energy -347040.165325 kJ/mol
# GULP energy per Si atom -12394.291619 kJ/mol
# Density = 1.949873 g / cm^3
# Si number density = 19.543211 Si / 1000 Ang^3
#
#
#
# Elastic Constant Matrix: (Units=GPa)
#
#
# Indices 1 2 3 4 5 6 
#
# 1 94.1921 17.1580 18.3262 0.0000 4.3691 0.0000
# 2 17.1580 52.3350 -1.7907 0.0000 2.8438 0.0000
# 3 18.3262 -1.7907 81.7678 0.0000 10.6583 0.0000
# 4 0.0000 0.0000 0.0000 6.0471 0.0000 -28.5453
# 5 4.3691 2.8438 10.6583 0.0000 35.7858 0.0000
# 6 0.0000 0.0000 0.0000 -28.5453 0.0000 -33.7851
#
#
#
# Elastic Compliance Matrix: (Units=1/GPa)
#
#
# Indices 1 2 3 4 5 6 
#
# 1 0.011882 -0.003970 -0.002707 0.000000 -0.000329 0.000000
# 2 -0.003970 0.020550 0.001550 0.000000 -0.001610 0.000000
# 3 -0.002707 0.001550 0.013362 0.000000 -0.003772 0.000000
# 4 0.000000 0.000000 0.000000 0.033151 0.000000 -0.028009
# 5 -0.000329 -0.001610 -0.003772 0.000000 0.029236 0.000000
# 6 0.000000 0.000000 0.000000 -0.028009 0.000000 -0.005934
#
#
# Mechanical properties :
#
#
# Convention : Reuss Voigt Hill
#
# Bulk Modulus (GPa) = 28.13841 32.85353 30.49597
# Shear Modulus (GPa) = 40.20983 14.58300 27.39642
#
# Velocity S-wave (km/s) = 4.54087 2.73462 3.74817
# Velocity P-wave (km/s) = 6.47472 5.17861 5.86259
#
# Compressibility (1/GPa) = 0.03553861
#
# Stress axis : x y z
#
# Youngs Moduli (GPa) = 84.16267 48.66224 74.83834
#
# Poissons Ratio (x) = 0.19320 0.20259
# Poissons Ratio (y) = 0.33414 -0.11598
# Poissons Ratio (z) = 0.22783 -0.07541
#
# Static dielectric constant tensor:
#      x y z
#    x 3.621540 0.000000 -0.077330 
#    y 0.000000 3.401360 0.000000 
#    z -0.077330 0.000000 3.935270 
# 
# 
# High freq. dielectric constant tensor:
#      x y z
#    x 1.763210 0.000000 0.004000 
#    y 0.000000 1.751360 0.000000 
#    z 0.004000 0.000000 1.773920 
# 
# From -- ./inp_files/28498.got.cif
#   From: 2010.06.25/outbox.cif.g09.slc.cpg/sg10_15_cif.got.tgz:28498.got - 2010.06.27 22:07:45.
