data_PCOD8063565
_publ_section_title
;
Structure prediction by ZEFSAII (Michael W. Deem and Ramdas Pophale) SiO2 
 PCOD8063565
Probable space group: P 2/M
;
_chemical_formula_sum "Si O2"
_cell_formula_units_Z 28
_cell_length_a 5.433580
_cell_length_b 9.442240
_cell_length_c 26.098849
_cell_angle_alpha 90.000000
_cell_angle_beta 71.842548
_cell_angle_gamma 90.000000
_cell_volume 1272.328298
_symmetry_space_group_name_H-M "P 2/M"
_symmetry_group_IT_number 10
_symmetry_cell_setting 'monoclinic'
loop_
_space_group_symop_operation_xyz
x,y,z
-x,y,-z
-x,-y,-z
x,-y,z
loop_
_atom_site_type_symbol
_atom_site_label
_atom_site_fract_x
_atom_site_fract_y
_atom_site_fract_z
Si Si1 0.164254 0.155502 0.852337
Si Si2 0.583814 0.343596 0.796757
Si Si3 0.269489 0.154841 0.960994
Si Si4 0.681724 0.654591 0.905542
Si Si5 0.940040 0.168394 0.709966
Si Si6 0.707286 0.831088 0.528537
Si Si7 0.471556 0.167091 0.350119
O O1 0.342395 0.239221 0.799090
O O2 0.297175 0.132691 0.898476
O O3 0.917571 0.244622 0.881134
O O4 0.101603 0.000000 0.832403
O O5 0.569039 0.500000 0.770878
O O6 0.551785 0.369863 0.859015
O O7 0.847217 0.258806 0.765373
O O8 0.496089 0.267217 0.959080
O O9 0.311069 0.000000 0.984546
O O10 0.000000 0.219131 0.000000
O O11 0.760928 0.500000 0.922721
O O12 0.233644 0.217687 0.679494
O O13 0.738904 0.216823 0.678331
O O14 0.922799 0.000000 0.721165
O O15 0.500000 0.774609 0.500000
O O16 0.616077 0.771296 0.589395
O O17 0.000000 0.774605 0.500000
O O18 0.708993 0.000000 0.527456
O O19 0.468976 0.000000 0.353230
#
# Coordination Sequence:
#
# PCOD8063565 Si02
#       7
#     4   4   4   4   4   4   4
#     4  10  20  35  57  80 103 135 176 220 267 327
#     4  10  22  38  54  75 103 138 180 226 274 328
#     4   9  19  36  55  77 105 137 175 219 266 322
#     4  10  21  36  54  77 106 138 174 222 273 328
#     4  10  20  34  52  76 108 147 184 230 284 336
#     4   9  15  24  42  68 102 145 182 219 274 334
#     4   9  18  31  47  74 111 145 185 231 278 335
#
# _framework density 22.006896999999999
#
# number of rings (size 3 to 8) (size 9 to 14) (size 15 to 20)
#    0.000    2.429    0.000    2.143    2.000    6.571 
#    0.000    2.857    0.000    0.000    0.000    0.000 
#    0.000   11.429    0.000    0.000    0.000    0.000 
#
# Total GULP energy -346889.011975 kJ/mol
# GULP energy per Si atom -12388.893285 kJ/mol
# Density = 2.195681 g / cm^3
# Si number density = 22.006897 Si / 1000 Ang^3
#
#
#
# Elastic Constant Matrix: (Units=GPa)
#
#
# Indices 1 2 3 4 5 6 
#
# 1 117.7190 29.5308 31.1952 0.0000 -36.6099 0.0000
# 2 29.5308 136.5814 28.2851 0.0000 -35.8523 0.0000
# 3 31.1952 28.2851 98.5535 0.0000 -35.2839 0.0000
# 4 0.0000 0.0000 0.0000 28.9311 0.0000 -4.7460
# 5 -36.6099 -35.8523 -35.2839 0.0000 49.7866 0.0000
# 6 0.0000 0.0000 0.0000 -4.7460 0.0000 18.6250
#
#
#
# Elastic Compliance Matrix: (Units=1/GPa)
#
#
# Indices 1 2 3 4 5 6 
#
# 1 0.011069 -0.000296 -0.000778 0.000000 0.007374 0.000000
# 2 -0.000296 0.009045 -0.000333 0.000000 0.006060 0.000000
# 3 -0.000778 -0.000333 0.013665 0.000000 0.008873 0.000000
# 4 0.000000 0.000000 0.000000 0.036073 0.000000 0.009192
# 5 0.007374 0.006060 0.008873 0.000000 0.036160 0.000000
# 6 0.000000 0.000000 0.000000 0.009192 0.000000 0.056034
#
#
# Mechanical properties :
#
#
# Convention : Reuss Voigt Hill
#
# Bulk Modulus (GPa) = 32.29500 58.98622 45.64061
# Shear Modulus (GPa) = 28.54171 37.05807 32.79989
#
# Velocity S-wave (km/s) = 3.60522 4.10802 3.86481
# Velocity P-wave (km/s) = 5.66012 7.02587 6.37965
#
# Compressibility (1/GPa) = 0.03096455
#
# Stress axis : x y z
#
# Youngs Moduli (GPa) = 90.34434 110.55394 73.17864
#
# Poissons Ratio (x) = 0.03276 0.05697
# Poissons Ratio (y) = 0.02677 0.02434
# Poissons Ratio (z) = 0.07033 0.03677
#
# Static dielectric constant tensor:
#      x y z
#    x 4.096980 0.000000 0.094060 
#    y 0.000000 4.112710 0.000000 
#    z 0.094060 0.000000 4.308000 
# 
# 
# High freq. dielectric constant tensor:
#      x y z
#    x 1.864130 0.000000 -0.011670 
#    y 0.000000 1.831130 0.000000 
#    z -0.011670 0.000000 1.863040 
# 
# From -- ./inp_files/13588.got.cif
#   From: 2010.06.25/outbox.cif.g09.slc.cpg/sg10_7_cif.got.tgz:13588.got - 2010.06.27 22:07:45.
