data_PCOD8063352
_publ_section_title
;
Structure prediction by ZEFSAII (Michael W. Deem and Ramdas Pophale) SiO2 
 PCOD8063352
Probable space group: P 2/M
;
_chemical_formula_sum "Si O2"
_cell_formula_units_Z 28
_cell_length_a 20.373310
_cell_length_b 8.843767
_cell_length_c 14.611382
_cell_angle_alpha 90.000000
_cell_angle_beta 32.694371
_cell_angle_gamma 90.000000
_cell_volume 1422.036379
_symmetry_space_group_name_H-M "P 2/M"
_symmetry_group_IT_number 10
_symmetry_cell_setting 'monoclinic'
loop_
_space_group_symop_operation_xyz
x,y,z
-x,y,-z
-x,-y,-z
x,-y,z
loop_
_atom_site_type_symbol
_atom_site_label
_atom_site_fract_x
_atom_site_fract_y
_atom_site_fract_z
Si Si1 0.798889 0.325070 0.997003
Si Si2 0.311933 0.671661 0.064265
Si Si3 0.933172 0.677692 0.300810
Si Si4 0.745535 0.323960 0.666925
Si Si5 0.563003 0.176958 0.752969
Si Si6 0.639054 0.178462 0.331823
Si Si7 0.276454 0.321720 0.586637
O O1 0.787853 0.500000 0.039770
O O2 0.695270 0.230885 0.169970
O O3 0.781498 0.305718 0.908866
O O4 0.931352 0.253990 0.865487
O O5 0.363231 0.500000 0.005634
O O6 0.238449 0.705618 0.244069
O O7 0.421307 0.788196 0.926336
O O8 0.949866 0.500000 0.289531
O O9 0.864419 0.736042 0.473152
O O10 0.853673 0.721986 0.305229
O O11 0.724611 0.500000 0.668368
O O12 0.627729 0.235057 0.769027
O O13 0.614706 0.258076 0.602375
O O14 0.583335 0.000000 0.717737
O O15 0.500000 0.235300 0.500000
O O16 0.718919 0.251005 0.318549
O O17 0.645761 0.000000 0.332672
O O18 0.292281 0.500000 0.575125
#
# Coordination Sequence:
#
# PCOD8063352 Si02
#       7
#     4   4   4   4   4   4   4
#     4  10  21  37  57  81 109 142 181 223 268 321
#     4  10  20  33  53  80 109 145 186 226 268 316
#     4   8  17  35  57  82 109 138 177 224 270 315
#     4   9  18  34  55  79 109 144 183 226 269 316
#     4  11  21  33  52  80 113 145 180 224 273 324
#     4  11  24  40  57  81 112 143 176 218 269 322
#     4  10  20  37  61  83 107 141 179 222 270 320
#
# _framework density 19.690073000000002
#
# number of rings (size 3 to 8) (size 9 to 14) (size 15 to 20)
#    0.000    2.143    0.000    4.286    0.000    7.429 
#    0.000    9.286    0.000    0.000    0.000    6.000 
#    0.000    0.000    0.000    0.000    0.000    0.000 
#
# Total GULP energy -347247.438155 kJ/mol
# GULP energy per Si atom -12401.694220 kJ/mol
# Density = 1.964526 g / cm^3
# Si number density = 19.690073 Si / 1000 Ang^3
#
#
#
# Elastic Constant Matrix: (Units=GPa)
#
#
# Indices 1 2 3 4 5 6 
#
# 1 115.8917 35.3960 52.9108 0.0000 6.2218 0.0000
# 2 35.3960 61.6676 29.4919 0.0000 -1.8106 0.0000
# 3 52.9108 29.4919 97.3956 0.0000 -13.5335 0.0000
# 4 0.0000 0.0000 0.0000 11.1400 0.0000 0.6399
# 5 6.2218 -1.8106 -13.5335 0.0000 35.6093 0.0000
# 6 0.0000 0.0000 0.0000 0.6399 0.0000 12.0583
#
#
#
# Elastic Compliance Matrix: (Units=1/GPa)
#
#
# Indices 1 2 3 4 5 6 
#
# 1 0.013296 -0.004666 -0.006510 0.000000 -0.005035 0.000000
# 2 -0.004666 0.020656 -0.003653 0.000000 0.000477 0.000000
# 3 -0.006510 -0.003653 0.015881 0.000000 0.006987 0.000000
# 4 0.000000 0.000000 0.000000 0.090041 0.000000 -0.004779
# 5 -0.005035 0.000477 0.006987 0.000000 0.031642 0.000000
# 6 0.000000 0.000000 0.000000 -0.004779 0.000000 0.083184
#
#
# Mechanical properties :
#
#
# Convention : Reuss Voigt Hill
#
# Bulk Modulus (GPa) = 49.56896 56.72801 53.14848
# Shear Modulus (GPa) = 17.17718 22.23862 19.70790
#
# Velocity S-wave (km/s) = 2.95681 3.36435 3.16714
# Velocity P-wave (km/s) = 6.07340 6.63060 6.35811
#
# Compressibility (1/GPa) = 0.02017392
#
# Stress axis : x y z
#
# Youngs Moduli (GPa) = 75.20856 48.41318 62.96797
#
# Poissons Ratio (x) = 0.22591 0.40992
# Poissons Ratio (y) = 0.35095 0.23004
# Poissons Ratio (z) = 0.48960 0.17687
#
# Static dielectric constant tensor:
#      x y z
#    x 3.691130 0.000000 0.009060 
#    y 0.000000 3.374210 0.000000 
#    z 0.009060 0.000000 3.641210 
# 
# 
# High freq. dielectric constant tensor:
#      x y z
#    x 1.773210 0.000000 0.005910 
#    y 0.000000 1.745710 0.000000 
#    z 0.005910 0.000000 1.764790 
# 
# From -- ./inp_files/50105.got.cif
#   From: 2010.06.25/outbox.cif.g09.slc.cpg/sg10_26_cif.got.tgz:50105.got - 2010.06.27 22:07:45.
