data_PCOD8063678
_publ_section_title
;
Structure prediction by ZEFSAII (Michael W. Deem and Ramdas Pophale) SiO2 
 PCOD8063678
Probable space group: P 2/M
;
_chemical_formula_sum "Si O2"
_cell_formula_units_Z 28
_cell_length_a 28.910115
_cell_length_b 11.645955
_cell_length_c 23.025125
_cell_angle_alpha 90.000000
_cell_angle_beta 11.449924
_cell_angle_gamma 90.000000
_cell_volume 1538.907102
_symmetry_space_group_name_H-M "P 2/M"
_symmetry_group_IT_number 10
_symmetry_cell_setting 'monoclinic'
loop_
_space_group_symop_operation_xyz
x,y,z
-x,y,-z
-x,-y,-z
x,-y,z
loop_
_atom_site_type_symbol
_atom_site_label
_atom_site_fract_x
_atom_site_fract_y
_atom_site_fract_z
Si Si1 0.887709 0.739714 0.766429
Si Si2 0.504240 0.260285 0.841625
Si Si3 0.303419 0.864769 0.196582
Si Si4 0.176378 0.863784 0.735437
Si Si5 0.298688 0.867914 0.897331
Si Si6 0.381440 0.500000 0.029563
Si Si7 0.917210 0.867914 0.278814
Si Si8 0.974540 0.500000 0.436461
O O1 0.996501 0.612394 0.639206
O O2 0.055768 0.816853 0.520720
O O3 0.636330 0.735443 0.045508
O O4 0.857497 0.793922 0.866762
O O5 0.539312 0.387607 0.824982
O O6 0.754512 0.206076 0.521236
O O7 0.361687 0.183154 0.061833
O O8 0.284170 0.000000 0.215830
O O9 0.500000 0.825532 0.000000
O O10 0.437126 0.821059 0.429761
O O11 0.095364 0.821058 0.771516
O O12 0.164929 0.000000 0.752608
O O13 0.000000 0.810309 0.000000
O O14 0.296082 0.000000 0.921931
O O15 0.181349 0.856943 0.977970
O O16 0.166509 0.500000 0.250235
O O17 0.279958 0.500000 0.220042
O O18 0.831844 0.000000 0.386172
#
# Coordination Sequence:
#
# PCOD8063678 Si02
#       8
#     4   4   4   4   4   2   4   2
#     4  11  20  34  54  73 100 139 182 223 268 315
#     4  11  20  34  54  73 100 139 182 223 268 315
#     4  11  23  34  45  68 102 139 180 222 266 316
#     4   9  18  34  56  82 111 142 174 208 259 327
#     4  10  20  34  53  80 113 143 175 218 263 313
#     4   9  18  34  52  72  98 134 181 234 273 306
#     4  10  20  34  53  80 113 143 175 218 263 313
#     4   9  18  34  52  72  98 134 181 234 273 306
#
# _framework density 18.194731000000001
#
# number of rings (size 3 to 8) (size 9 to 14) (size 15 to 20)
#    0.000    1.857    2.857    2.143    0.000    5.143 
#    0.000    6.429    0.000    0.000    0.000    2.000 
#    0.000    2.286    0.000    0.000    0.000    0.000 
#
# Total GULP energy -347241.913726 kJ/mol
# GULP energy per Si atom -12401.496919 kJ/mol
# Density = 1.815332 g / cm^3
# Si number density = 18.194731 Si / 1000 Ang^3
#
#
#
# Elastic Constant Matrix: (Units=GPa)
#
#
# Indices 1 2 3 4 5 6 
#
# 1 91.3087 31.6396 61.7118 0.0000 3.0557 0.0000
# 2 31.6396 86.0850 34.8766 0.0000 5.7774 0.0000
# 3 61.7118 34.8766 100.0557 0.0000 12.5050 0.0000
# 4 0.0000 0.0000 0.0000 1.0060 0.0000 -9.4159
# 5 3.0557 5.7774 12.5050 0.0000 32.5275 0.0000
# 6 0.0000 0.0000 0.0000 -9.4159 0.0000 6.2839
#
#
#
# Elastic Compliance Matrix: (Units=1/GPa)
#
#
# Indices 1 2 3 4 5 6 
#
# 1 0.019570 -0.002740 -0.011499 0.000000 0.003069 0.000000
# 2 -0.002740 0.013922 -0.003032 0.000000 -0.001050 0.000000
# 3 -0.011499 -0.003032 0.018847 0.000000 -0.005627 0.000000
# 4 0.000000 0.000000 0.000000 -0.076319 0.000000 -0.114357
# 5 0.003069 -0.001050 -0.005627 0.000000 0.032805 0.000000
# 6 0.000000 0.000000 0.000000 -0.114357 0.000000 -0.012218
#
#
# Mechanical properties :
#
#
# Convention : Reuss Voigt Hill
#
# Bulk Modulus (GPa) = 56.18655 59.32283 57.75469
# Shear Modulus (GPa) = 134.84172 17.91158 76.37665
#
# Velocity S-wave (km/s) = 8.61807 3.14098 6.48602
# Velocity P-wave (km/s) = 11.40070 6.76975 9.37565
#
# Compressibility (1/GPa) = 0.01779785
#
# Stress axis : x y z
#
# Youngs Moduli (GPa) = 51.09797 71.82747 53.05997
#
# Poissons Ratio (x) = 0.19682 0.61013
# Poissons Ratio (y) = 0.14002 0.16086
# Poissons Ratio (z) = 0.58757 0.21776
#
# Static dielectric constant tensor:
#      x y z
#    x 3.374190 0.000000 -0.044830 
#    y 0.000000 3.302510 0.000000 
#    z -0.044830 0.000000 3.349020 
# 
# 
# High freq. dielectric constant tensor:
#      x y z
#    x 1.703290 0.000000 -0.013070 
#    y 0.000000 1.682080 0.000000 
#    z -0.013070 0.000000 1.695970 
# 
# From -- ./inp_files/77835.got.cif
#   From: 2010.06.25/outbox.cif.g09.slc.cpg/sg10_39_cif.got.tgz:77835.got - 2010.06.27 22:07:45.
