data_PCOD8063753
_publ_section_title
;
Structure prediction by ZEFSAII (Michael W. Deem and Ramdas Pophale) SiO2 
 PCOD8063753
Probable space group: P 2/M
;
_chemical_formula_sum "Si O2"
_cell_formula_units_Z 24
_cell_length_a 20.743922
_cell_length_b 8.552793
_cell_length_c 9.058419
_cell_angle_alpha 90.000000
_cell_angle_beta 48.946629
_cell_angle_gamma 90.000000
_cell_volume 1211.934373
_symmetry_space_group_name_H-M "P 2/M"
_symmetry_group_IT_number 10
_symmetry_cell_setting 'monoclinic'
loop_
_space_group_symop_operation_xyz
x,y,z
-x,y,-z
-x,-y,-z
x,-y,z
loop_
_atom_site_type_symbol
_atom_site_label
_atom_site_fract_x
_atom_site_fract_y
_atom_site_fract_z
Si Si1 0.921928 0.678447 0.946213
Si Si2 0.725434 0.820973 0.578156
Si Si3 0.913630 0.178312 0.271923
Si Si4 0.420752 0.680474 0.017588
Si Si5 0.585352 0.818647 0.288610
Si Si6 0.264677 0.682452 0.756799
O O1 0.941210 0.500000 0.879160
O O2 0.001555 0.779141 0.757718
O O3 0.916817 0.704415 0.129705
O O4 0.827384 0.727617 0.030647
O O5 0.823069 0.796450 0.490297
O O6 0.666560 0.708708 0.762910
O O7 0.717481 0.781302 0.417269
O O8 0.696330 0.000000 0.643337
O O9 0.919749 0.000000 0.207164
O O10 0.425882 0.500000 0.962440
O O11 0.500000 0.728889 0.000000
O O12 0.425611 0.788698 0.867554
O O13 0.500000 0.763439 0.500000
O O14 0.664123 0.717968 0.229363
O O15 0.603950 0.000000 0.289513
O O16 0.265437 0.500000 0.713168
#
# Coordination Sequence:
#
# PCOD8063753 Si02
#       6
#     4   4   4   4   4   4
#     4   9  16  26  44  72 105 140 177 218 262 308
#     4  10  20  34  54  81 112 145 182 223 268 317
#     4   9  16  26  44  72 105 140 177 218 262 308
#     4  11  24  40  59  82 108 140 177 219 268 321
#     4  11  24  40  59  82 108 140 177 219 268 321
#     4  10  20  34  54  81 112 145 182 223 268 317
#
# _framework density 19.803053999999999
#
# number of rings (size 3 to 8) (size 9 to 14) (size 15 to 20)
#    0.000    2.000    0.000    5.000    0.000    9.333 
#    0.000    0.000    0.000    1.000    0.000    7.000 
#    0.000    0.000    0.000    0.000    0.000    0.000 
#
# Total GULP energy -297506.279973 kJ/mol
# GULP energy per Si atom -12396.094999 kJ/mol
# Density = 1.975798 g / cm^3
# Si number density = 19.803054 Si / 1000 Ang^3
#
#
#
# Elastic Constant Matrix: (Units=GPa)
#
#
# Indices 1 2 3 4 5 6 
#
# 1 117.3495 30.9384 55.0369 0.0000 -32.0985 0.0000
# 2 30.9384 50.0620 18.7893 0.0000 -13.8795 0.0000
# 3 55.0369 18.7893 91.6104 0.0000 -24.3959 0.0000
# 4 0.0000 0.0000 0.0000 26.8906 0.0000 -3.5834
# 5 -32.0985 -13.8795 -24.3959 0.0000 35.4458 0.0000
# 6 0.0000 0.0000 0.0000 -3.5834 0.0000 29.1995
#
#
#
# Elastic Compliance Matrix: (Units=1/GPa)
#
#
# Indices 1 2 3 4 5 6 
#
# 1 0.014478 -0.004762 -0.005787 0.000000 0.007263 0.000000
# 2 -0.004762 0.024561 -0.000936 0.000000 0.004662 0.000000
# 3 -0.005787 -0.000936 0.016029 0.000000 0.005425 0.000000
# 4 0.000000 0.000000 0.000000 0.037806 0.000000 0.004640
# 5 0.007263 0.004662 0.005425 0.000000 0.040349 0.000000
# 6 0.000000 0.000000 0.000000 0.004640 0.000000 0.034817
#
#
# Mechanical properties :
#
#
# Convention : Reuss Voigt Hill
#
# Bulk Modulus (GPa) = 31.15267 52.06122 41.60694
# Shear Modulus (GPa) = 24.78834 28.59099 26.68966
#
# Velocity S-wave (km/s) = 3.54184 3.80382 3.67516
# Velocity P-wave (km/s) = 5.70013 6.75563 6.25020
#
# Compressibility (1/GPa) = 0.03209998
#
# Stress axis : x y z
#
# Youngs Moduli (GPa) = 69.07187 40.71418 62.38649
#
# Poissons Ratio (x) = 0.19386 0.36103
# Poissons Ratio (y) = 0.32889 0.05836
# Poissons Ratio (z) = 0.39972 0.03809
#
# Static dielectric constant tensor:
#      x y z
#    x 3.858020 0.000000 -0.630290 
#    y 0.000000 3.539400 0.000000 
#    z -0.630290 0.000000 3.506910 
# 
# 
# High freq. dielectric constant tensor:
#      x y z
#    x 1.766230 0.000000 -0.047040 
#    y 0.000000 1.781480 0.000000 
#    z -0.047040 0.000000 1.747650 
# 
# From -- ./inp_files/33725.got.cif
#   From: 2010.06.25/outbox.cif.g09.slc.cpg/sg10_17_cif.got.tgz:33725.got - 2010.06.27 22:07:45.
