data_PCOD8063915
_publ_section_title
;
Structure prediction by ZEFSAII (Michael W. Deem and Ramdas Pophale) SiO2 
 PCOD8063915
Probable space group: P 2/M
;
_chemical_formula_sum "Si O2"
_cell_formula_units_Z 30
_cell_length_a 25.537884
_cell_length_b 11.770969
_cell_length_c 25.417116
_cell_angle_alpha 90.000000
_cell_angle_beta 168.477123
_cell_angle_gamma 90.000000
_cell_volume 1526.265711
_symmetry_space_group_name_H-M "P 2/M"
_symmetry_group_IT_number 10
_symmetry_cell_setting 'monoclinic'
loop_
_space_group_symop_operation_xyz
x,y,z
-x,y,-z
-x,-y,-z
x,-y,z
loop_
_atom_site_type_symbol
_atom_site_label
_atom_site_fract_x
_atom_site_fract_y
_atom_site_fract_z
Si Si1 0.762212 0.634446 0.230496
Si Si2 0.129762 0.366039 0.070931
Si Si3 0.241301 0.000000 0.277387
Si Si4 0.336728 0.767060 0.431131
Si Si5 0.324161 0.870661 0.644051
Si Si6 0.639449 0.240199 0.426794
Si Si7 0.147737 0.628744 0.901686
Si Si8 0.184258 0.738240 0.830892
O O1 0.764715 0.500000 0.228362
O O2 0.000000 0.679606 0.500000
O O3 0.500000 0.679298 0.000000
O O4 0.782264 0.682929 0.192314
O O5 0.188025 0.500000 0.117694
O O6 0.402055 0.293878 0.335771
O O7 0.000000 0.347078 0.000000
O O8 0.910544 0.319664 0.814410
O O9 0.500000 0.000000 0.500000
O O10 0.244477 0.115998 0.313622
O O11 0.000000 0.000000 0.000000
O O12 0.397143 0.805546 0.550369
O O13 0.332933 0.860002 0.589035
O O14 0.567655 0.813105 0.911374
O O15 0.328284 0.000000 0.664117
O O16 0.067613 0.817229 0.416656
O O17 0.395462 0.316645 0.172530
O O18 0.893322 0.317113 0.675837
O O19 0.148922 0.500000 0.919501
O O20 0.153098 0.639582 0.843686
#
# Coordination Sequence:
#
# PCOD8063915 Si02
#       8
#     4   4   2   4   4   4   4   4
#     4  10  20  34  56  86 119 152 187 236 290 340
#     4  11  24  42  64  89 119 157 198 240 288 355
#     4  12  26  44  66  88 116 156 194 244 294 348
#     4  12  24  41  64  91 120 154 195 246 300 353
#     4  10  21  38  60  79 111 149 194 242 279 344
#     4  10  23  36  56  88 113 148 188 230 292 336
#     4  10  20  36  56  83 121 154 185 229 280 352
#     4  10  20  36  57  85 110 153 198 233 287 337
#
# _framework density 19.655819000000001
#
# number of rings (size 3 to 8) (size 9 to 14) (size 15 to 20)
#    0.000    1.467    0.000    5.600    0.933    4.267 
#    0.000    4.000    0.000    8.000    0.000    0.000 
#    0.000    0.000    0.000    0.000    0.000    0.000 
#
# Total GULP energy -371964.176401 kJ/mol
# GULP energy per Si atom -12398.805880 kJ/mol
# Density = 1.961108 g / cm^3
# Si number density = 19.655819 Si / 1000 Ang^3
#
#
#
# Elastic Constant Matrix: (Units=GPa)
#
#
# Indices 1 2 3 4 5 6 
#
# 1 126.3617 18.7190 45.7964 0.0000 -11.6776 0.0000
# 2 18.7190 71.7750 43.9524 0.0000 -2.3441 0.0000
# 3 45.7964 43.9524 195.5042 0.0000 -16.4241 0.0000
# 4 0.0000 0.0000 0.0000 47.6284 0.0000 -0.5692
# 5 -11.6776 -2.3441 -16.4241 0.0000 48.3774 0.0000
# 6 0.0000 0.0000 0.0000 -0.5692 0.0000 16.1239
#
#
#
# Elastic Compliance Matrix: (Units=1/GPa)
#
#
# Indices 1 2 3 4 5 6 
#
# 1 0.008840 -0.001236 -0.001666 0.000000 0.001508 0.000000
# 2 -0.001236 0.016340 -0.003441 0.000000 -0.000675 0.000000
# 3 -0.001666 -0.003441 0.006414 0.000000 0.001609 0.000000
# 4 0.000000 0.000000 0.000000 0.021005 0.000000 0.000742
# 5 0.001508 -0.000675 0.001609 0.000000 0.021548 0.000000
# 6 0.000000 0.000000 0.000000 0.000742 0.000000 0.062046
#
#
# Mechanical properties :
#
#
# Convention : Reuss Voigt Hill
#
# Bulk Modulus (GPa) = 52.88695 67.84181 60.36438
# Shear Modulus (GPa) = 32.22046 41.43748 36.82897
#
# Velocity S-wave (km/s) = 4.05314 4.59644 4.33331
# Velocity P-wave (km/s) = 6.99062 7.92209 7.47089
#
# Compressibility (1/GPa) = 0.01890826
#
# Stress axis : x y z
#
# Youngs Moduli (GPa) = 113.12037 61.20100 155.91103
#
# Poissons Ratio (x) = 0.07564 0.25978
# Poissons Ratio (y) = 0.13981 0.53642
# Poissons Ratio (z) = 0.18848 0.21057
#
# Static dielectric constant tensor:
#      x y z
#    x 3.646030 0.000000 -0.018170 
#    y 0.000000 3.382130 0.000000 
#    z -0.018170 0.000000 3.615820 
# 
# 
# High freq. dielectric constant tensor:
#      x y z
#    x 1.770610 0.000000 -0.000080 
#    y 0.000000 1.756970 0.000000 
#    z -0.000080 0.000000 1.792500 
# 
# From -- ./inp_files/94091.got.cif
#   From: 2010.06.25/outbox.cif.g09.slc.cpg/sg10_48_cif.got.tgz:94091.got - 2010.06.27 22:07:45.
