data_PCOD8063501
_publ_section_title
;
Structure prediction by ZEFSAII (Michael W. Deem and Ramdas Pophale) SiO2 
 PCOD8063501
Probable space group: P 2/M
;
_chemical_formula_sum "Si O2"
_cell_formula_units_Z 24
_cell_length_a 24.283780
_cell_length_b 12.791903
_cell_length_c 9.060374
_cell_angle_alpha 90.000000
_cell_angle_beta 151.399123
_cell_angle_gamma 90.000000
_cell_volume 1347.304639
_symmetry_space_group_name_H-M "P 2/M"
_symmetry_group_IT_number 10
_symmetry_cell_setting 'monoclinic'
loop_
_space_group_symop_operation_xyz
x,y,z
-x,y,-z
-x,-y,-z
x,-y,z
loop_
_atom_site_type_symbol
_atom_site_label
_atom_site_fract_x
_atom_site_fract_y
_atom_site_fract_z
Si Si1 0.441130 0.761237 0.216568
Si Si2 0.781723 0.304135 0.658640
Si Si3 0.379238 0.119121 0.795743
Si Si4 0.770341 0.378973 0.299874
Si Si5 0.997865 0.378380 0.322200
Si Si6 0.429114 0.617430 0.690415
O O1 0.500000 0.810208 0.500000
O O2 0.538869 0.692695 0.367281
O O3 0.396306 0.855048 0.008633
O O4 0.335402 0.687014 0.012612
O O5 0.722511 0.189725 0.512989
O O6 0.792584 0.353856 0.523014
O O7 0.704964 0.377134 0.584525
O O8 0.906672 0.302148 0.027481
O O9 0.338729 0.000000 0.683597
O O10 0.500000 0.139563 0.000000
O O11 0.739197 0.500000 0.209372
O O12 0.880100 0.349185 0.460631
O O13 0.967158 0.500000 0.220290
O O14 0.000000 0.352995 0.500000
O O15 0.463082 0.500000 0.725704
O O16 0.500000 0.655533 0.000000
#
# Coordination Sequence:
#
# PCOD8063501 Si02
#       6
#     4   4   4   4   4   4
#     4  11  22  34  52  81 115 144 177 219 277 327
#     4  11  19  35  56  77 103 143 184 224 264 316
#     4  10  20  38  60  81 104 135 184 232 277 327
#     4  10  20  34  51  76 109 148 186 215 253 314
#     4  10  22  35  51  78 112 150 182 214 259 318
#     4  11  19  31  51  80 111 144 177 215 261 322
#
# _framework density 17.813343
#
# number of rings (size 3 to 8) (size 9 to 14) (size 15 to 20)
#    0.000    1.500    5.000    2.500    2.333    3.000 
#    0.000    0.000    0.000    8.500    0.000    0.000 
#    0.000    0.000    0.000    0.000    0.000    0.000 
#
# Total GULP energy -297623.730919 kJ/mol
# GULP energy per Si atom -12400.988788 kJ/mol
# Density = 1.777280 g / cm^3
# Si number density = 17.813343 Si / 1000 Ang^3
#
#
#
# Elastic Constant Matrix: (Units=GPa)
#
#
# Indices 1 2 3 4 5 6 
#
# 1 94.7056 23.2507 43.5962 0.0000 20.0725 0.0000
# 2 23.2507 83.3091 34.3136 0.0000 4.6949 0.0000
# 3 43.5962 34.3136 98.8925 0.0000 -1.0548 0.0000
# 4 0.0000 0.0000 0.0000 20.1019 0.0000 4.8933
# 5 20.0725 4.6949 -1.0548 0.0000 28.7973 0.0000
# 6 0.0000 0.0000 0.0000 4.8933 0.0000 16.7860
#
#
#
# Elastic Compliance Matrix: (Units=1/GPa)
#
#
# Indices 1 2 3 4 5 6 
#
# 1 0.016517 -0.001057 -0.007038 0.000000 -0.011598 0.000000
# 2 -0.001057 0.014249 -0.004497 0.000000 -0.001751 0.000000
# 3 -0.007038 -0.004497 0.014841 0.000000 0.006183 0.000000
# 4 0.000000 0.000000 0.000000 0.053546 0.000000 -0.015609
# 5 -0.011598 -0.001751 0.006183 0.000000 0.043321 0.000000
# 6 0.000000 0.000000 0.000000 -0.015609 0.000000 0.064124
#
#
# Mechanical properties :
#
#
# Convention : Reuss Voigt Hill
#
# Bulk Modulus (GPa) = 48.96520 53.24757 51.10638
# Shear Modulus (GPa) = 20.95644 24.85350 22.90497
#
# Velocity S-wave (km/s) = 3.43366 3.73931 3.58974
# Velocity P-wave (km/s) = 6.57781 6.97138 6.77745
#
# Compressibility (1/GPa) = 0.02042267
#
# Stress axis : x y z
#
# Youngs Moduli (GPa) = 60.54506 70.17846 67.38091
#
# Poissons Ratio (x) = 0.07419 0.47424
# Poissons Ratio (y) = 0.06400 0.30300
# Poissons Ratio (z) = 0.42613 0.31558
#
# Static dielectric constant tensor:
#      x y z
#    x 3.471180 0.000000 0.121990 
#    y 0.000000 3.078290 0.000000 
#    z 0.121990 0.000000 3.214660 
# 
# 
# High freq. dielectric constant tensor:
#      x y z
#    x 1.700870 0.000000 0.005660 
#    y 0.000000 1.661600 0.000000 
#    z 0.005660 0.000000 1.679520 
# 
# From -- ./inp_files/29678.got.cif
#   From: 2010.06.25/outbox.cif.g09.slc.cpg/sg10_15_cif.got.tgz:29678.got - 2010.06.27 22:07:45.
