data_PCOD8063632
_publ_section_title
;
Structure prediction by ZEFSAII (Michael W. Deem and Ramdas Pophale) SiO2 
 PCOD8063632
Probable space group: P 2/M
;
_chemical_formula_sum "Si O2"
_cell_formula_units_Z 32
_cell_length_a 9.518144
_cell_length_b 23.379972
_cell_length_c 14.989561
_cell_angle_alpha 90.000000
_cell_angle_beta 150.817592
_cell_angle_gamma 90.000000
_cell_volume 1626.452561
_symmetry_space_group_name_H-M "P 2/M"
_symmetry_group_IT_number 10
_symmetry_cell_setting 'monoclinic'
loop_
_space_group_symop_operation_xyz
x,y,z
-x,y,-z
-x,-y,-z
x,-y,z
loop_
_atom_site_type_symbol
_atom_site_label
_atom_site_fract_x
_atom_site_fract_y
_atom_site_fract_z
Si Si1 0.166613 0.131455 0.502849
Si Si2 0.320326 0.066896 0.161234
Si Si3 0.678429 0.564718 0.852272
Si Si4 0.946156 0.328207 0.264819
Si Si5 0.705987 0.435216 0.534137
Si Si6 0.742022 0.263959 0.422364
Si Si7 0.414013 0.323964 0.096729
Si Si8 0.670400 0.936932 0.183221
O O1 0.461683 0.097259 0.648698
O O2 0.248808 0.197505 0.549255
O O3 0.000000 0.111444 0.500000
O O4 0.922118 0.109659 0.298527
O O5 0.438869 0.083691 0.129195
O O6 0.321093 0.000000 0.180929
O O7 0.000000 0.091694 0.000000
O O8 0.661864 0.500000 0.881268
O O9 0.459799 0.572454 0.650023
O O10 0.589411 0.609308 0.878848
O O11 0.000000 0.579261 0.000000
O O12 0.674960 0.313189 0.174816
O O13 0.012047 0.395723 0.305926
O O14 0.221972 0.295392 0.461544
O O15 0.875201 0.309704 0.122303
O O16 0.500000 0.416024 0.500000
O O17 0.812554 0.500000 0.606828
O O18 0.451898 0.283955 0.207111
O O19 0.000000 0.281906 0.500000
O O20 0.796872 0.000000 0.280405
O O21 0.500000 0.944281 0.000000
#
# Coordination Sequence:
#
# PCOD8063632 Si02
#       8
#     4   4   4   4   4   4   4   4
#     4   9  17  32  53  76 104 144 182 223 263 313
#     4   9  17  31  53  79 108 143 179 220 274 327
#     4  10  20  34  53  77 104 134 169 213 265 321
#     4  10  20  35  55  77 104 136 172 213 266 314
#     4  10  20  34  54  77 104 133 169 217 264 320
#     4   9  18  35  52  76 106 136 181 222 258 311
#     4  10  20  35  55  78 103 137 171 216 262 315
#     4   9  17  31  52  83 113 140 182 228 271 324
#
# _framework density 19.674721000000002
#
# number of rings (size 3 to 8) (size 9 to 14) (size 15 to 20)
#    0.000    2.500    1.250    1.125    0.000    3.500 
#    9.000    3.750    0.000    3.000    0.000    0.000 
#    0.000    0.000    0.000    0.000    0.000    0.000 
#
# Total GULP energy -396433.062254 kJ/mol
# GULP energy per Si atom -12388.533195 kJ/mol
# Density = 1.962994 g / cm^3
# Si number density = 19.674721 Si / 1000 Ang^3
#
#
#
# Elastic Constant Matrix: (Units=GPa)
#
#
# Indices 1 2 3 4 5 6 
#
# 1 40.7315 26.8769 35.1484 0.0000 -10.7658 0.0000
# 2 26.8769 100.7551 63.1328 0.0000 -4.8025 0.0000
# 3 35.1484 63.1328 131.7482 0.0000 -15.1351 0.0000
# 4 0.0000 0.0000 0.0000 19.4855 0.0000 -0.7457
# 5 -10.7658 -4.8025 -15.1351 0.0000 30.4814 0.0000
# 6 0.0000 0.0000 0.0000 -0.7457 0.0000 14.5957
#
#
#
# Elastic Compliance Matrix: (Units=1/GPa)
#
#
# Indices 1 2 3 4 5 6 
#
# 1 0.035488 -0.005355 -0.005895 0.000000 0.008763 0.000000
# 2 -0.005355 0.015034 -0.006067 0.000000 -0.002535 0.000000
# 3 -0.005895 -0.006067 0.012430 0.000000 0.003134 0.000000
# 4 0.000000 0.000000 0.000000 0.051421 0.000000 0.002627
# 5 0.008763 -0.002535 0.003134 0.000000 0.037059 0.000000
# 6 0.000000 0.000000 0.000000 0.002627 0.000000 0.068648
#
#
# Mechanical properties :
#
#
# Convention : Reuss Voigt Hill
#
# Bulk Modulus (GPa) = 35.31257 58.17232 46.74245
# Shear Modulus (GPa) = 18.92850 22.78429 20.85640
#
# Velocity S-wave (km/s) = 3.10509 3.40670 3.25939
# Velocity P-wave (km/s) = 5.55361 6.71606 6.16231
#
# Compressibility (1/GPa) = 0.02831853
#
# Stress axis : x y z
#
# Youngs Moduli (GPa) = 28.17882 66.51495 80.45013
#
# Poissons Ratio (x) = 0.35620 0.47422
# Poissons Ratio (y) = 0.15090 0.48808
# Poissons Ratio (z) = 0.16610 0.40353
#
# Static dielectric constant tensor:
#      x y z
#    x 3.402650 0.000000 -0.382250 
#    y 0.000000 3.488650 0.000000 
#    z -0.382250 0.000000 4.166930 
# 
# 
# High freq. dielectric constant tensor:
#      x y z
#    x 1.728320 0.000000 -0.015200 
#    y 0.000000 1.759000 0.000000 
#    z -0.015200 0.000000 1.775550 
# 
# From -- ./inp_files/62727.got.cif
#   From: 2010.06.25/outbox.cif.g09.slc.cpg/sg10_32_cif.got.tgz:62727.got - 2010.06.27 22:07:45.
