data_PCOD8063132
_publ_section_title
;
Structure prediction by ZEFSAII (Michael W. Deem and Ramdas Pophale) SiO2 
 PCOD8063132
Probable space group: P 2/M
;
_chemical_formula_sum "Si O2"
_cell_formula_units_Z 28
_cell_length_a 14.219581
_cell_length_b 8.799677
_cell_length_c 17.648745
_cell_angle_alpha 90.000000
_cell_angle_beta 136.367711
_cell_angle_gamma 90.000000
_cell_volume 1523.820402
_symmetry_space_group_name_H-M "P 2/M"
_symmetry_group_IT_number 10
_symmetry_cell_setting 'monoclinic'
loop_
_space_group_symop_operation_xyz
x,y,z
-x,y,-z
-x,-y,-z
x,-y,z
loop_
_atom_site_type_symbol
_atom_site_label
_atom_site_fract_x
_atom_site_fract_y
_atom_site_fract_z
Si Si1 0.901870 0.826969 0.243767
Si Si2 0.858592 0.180825 0.384850
Si Si3 0.674320 0.819893 0.838223
Si Si4 0.785752 0.172372 0.598458
Si Si5 0.865234 0.321505 0.066422
Si Si6 0.368354 0.181603 0.633236
Si Si7 0.851886 0.819138 0.798937
O O1 0.836660 0.769167 0.284590
O O2 0.850143 0.721245 0.145753
O O3 0.064012 0.817007 0.349104
O O4 0.859005 0.000000 0.199976
O O5 0.731098 0.243663 0.358812
O O6 0.000000 0.248783 0.500000
O O7 0.865756 0.000000 0.393054
O O8 0.520506 0.761400 0.737646
O O9 0.760157 0.766954 0.815261
O O10 0.681282 0.000000 0.852902
O O11 0.731840 0.739187 0.946074
O O12 0.682065 0.248787 0.477680
O O13 0.784027 0.246855 0.681582
O O14 0.738682 0.000000 0.581526
O O15 0.876540 0.500000 0.064435
O O16 0.996905 0.246745 0.103802
O O17 0.361223 0.000000 0.626700
O O18 0.867519 0.000000 0.802874
#
# Coordination Sequence:
#
# PCOD8063132 Si02
#       7
#     4   4   4   4   4   4   4
#     4   9  16  29  52  79 104 128 159 204 251 291
#     4   9  14  24  48  82 110 129 155 197 248 295
#     4  10  20  33  49  72 104 136 166 203 246 294
#     4   8  13  24  44  74 105 127 153 194 243 291
#     4  11  22  35  52  71  94 129 175 216 249 290
#     4   9  16  26  45  77 110 134 159 195 243 300
#     4   9  18  32  52  76 100 129 164 205 252 296
#
# _framework density 18.374867999999999
#
# number of rings (size 3 to 8) (size 9 to 14) (size 15 to 20)
#    0.000    2.714    1.429    2.571    0.000    2.857 
#    0.000    3.571    0.000    9.000    0.000    5.000 
#    0.000    0.000    0.000    0.000    0.000    0.000 
#
# Total GULP energy -347084.768750 kJ/mol
# GULP energy per Si atom -12395.884598 kJ/mol
# Density = 1.833305 g / cm^3
# Si number density = 18.374868 Si / 1000 Ang^3
#
#
#
# Elastic Constant Matrix: (Units=GPa)
#
#
# Indices 1 2 3 4 5 6 
#
# 1 82.9244 13.8927 62.3232 0.0000 -7.2713 0.0000
# 2 13.8927 28.2959 25.3078 0.0000 -1.5022 0.0000
# 3 62.3232 25.3078 148.4663 0.0000 -1.1231 0.0000
# 4 0.0000 0.0000 0.0000 0.0892 0.0000 -2.4673
# 5 -7.2713 -1.5022 -1.1231 0.0000 22.8682 0.0000
# 6 0.0000 0.0000 0.0000 -2.4673 0.0000 5.9192
#
#
#
# Elastic Compliance Matrix: (Units=1/GPa)
#
#
# Indices 1 2 3 4 5 6 
#
# 1 0.018385 -0.002214 -0.007300 0.000000 0.005342 0.000000
# 2 -0.002214 0.042096 -0.006233 0.000000 0.001755 0.000000
# 3 -0.007300 -0.006233 0.010846 0.000000 -0.002198 0.000000
# 4 0.000000 0.000000 0.000000 -1.064635 0.000000 -0.443781
# 5 0.005342 0.001755 -0.002198 0.000000 0.045435 0.000000
# 6 0.000000 0.000000 0.000000 -0.443781 0.000000 -0.016042
#
#
# Mechanical properties :
#
#
# Convention : Reuss Voigt Hill
#
# Bulk Modulus (GPa) = 25.10504 51.41488 38.25996
# Shear Modulus (GPa) = -5.43984 16.31952 5.43984
#
# Velocity S-wave (km/s) = -1.72247 2.98341 1.72247
# Velocity P-wave (km/s) = 3.12034 6.31739 4.98227
#
# Compressibility (1/GPa) = 0.03983263
#
# Stress axis : x y z
#
# Youngs Moduli (GPa) = 54.39294 23.75533 92.20260
#
# Poissons Ratio (x) = 0.05260 0.67305
# Poissons Ratio (y) = 0.12043 0.57470
# Poissons Ratio (z) = 0.39705 0.14807
#
# Static dielectric constant tensor:
#      x y z
#    x 3.490930 0.000000 -0.168210 
#    y 0.000000 2.799580 0.000000 
#    z -0.168210 0.000000 3.521950 
# 
# 
# High freq. dielectric constant tensor:
#      x y z
#    x 1.709480 0.000000 -0.018480 
#    y 0.000000 1.651470 0.000000 
#    z -0.018480 0.000000 1.718350 
# 
# From -- ./inp_files/68595.got.cif
#   From: 2010.06.25/outbox.cif.g09.slc.cpg/sg10_35_cif.got.tgz:68595.got - 2010.06.27 22:07:45.
