data_PCOD8063548
_publ_section_title
;
Structure prediction by ZEFSAII (Michael W. Deem and Ramdas Pophale) SiO2 
 PCOD8063548
Probable space group: P 2/M
;
_chemical_formula_sum "Si O2"
_cell_formula_units_Z 32
_cell_length_a 13.774522
_cell_length_b 9.088417
_cell_length_c 33.908379
_cell_angle_alpha 90.000000
_cell_angle_beta 24.175973
_cell_angle_gamma 90.000000
_cell_volume 1738.475871
_symmetry_space_group_name_H-M "P 2/M"
_symmetry_group_IT_number 10
_symmetry_cell_setting 'monoclinic'
loop_
_space_group_symop_operation_xyz
x,y,z
-x,y,-z
-x,-y,-z
x,-y,z
loop_
_atom_site_type_symbol
_atom_site_label
_atom_site_fract_x
_atom_site_fract_y
_atom_site_fract_z
Si Si1 0.698449 0.328038 0.955797
Si Si2 0.824202 0.168250 0.217756
Si Si3 0.425332 0.329110 0.221673
Si Si4 0.719122 0.331047 0.037527
Si Si5 0.801217 0.827468 0.136996
Si Si6 0.455985 0.169219 0.603385
Si Si7 0.243182 0.335328 0.614224
Si Si8 0.046073 0.173436 0.616132
O O1 0.719990 0.500000 0.940533
O O2 0.951999 0.261378 0.850891
O O3 0.500000 0.260898 0.000000
O O4 0.629812 0.291224 0.026594
O O5 0.740528 0.210454 0.204922
O O6 0.602510 0.196757 0.329043
O O7 0.907132 0.000000 0.188104
O O8 0.390427 0.500000 0.244347
O O9 0.502974 0.304844 0.147529
O O10 0.621222 0.263741 0.177670
O O11 0.180689 0.245056 0.320610
O O12 0.808503 0.500000 0.006229
O O13 0.933400 0.225479 0.971140
O O14 0.779774 0.000000 0.135522
O O15 0.266512 0.262266 0.648418
O O16 0.726800 0.216566 0.494771
O O17 0.422502 0.000000 0.603378
O O18 0.500000 0.338700 0.500000
O O19 0.138351 0.500000 0.657199
O O20 0.070037 0.239558 0.651128
O O21 0.010709 0.000000 0.632492
#
# Coordination Sequence:
#
# PCOD8063548 Si02
#       8
#     4   4   4   4   4   4   4   4
#     4   9  18  33  52  76 106 136 166 202 246 300
#     4   9  19  35  54  76 101 132 171 212 254 302
#     4  11  22  35  52  74 103 136 169 211 261 307
#     4   9  19  35  53  74 102 135 167 202 251 308
#     4  10  20  35  55  77 100 128 168 215 259 307
#     4   9  18  34  54  75 102 137 173 208 250 302
#     4   9  17  30  49  73 101 132 166 205 247 292
#     4  10  20  34  52  75 104 136 171 211 253 299
#
# _framework density 18.406928000000001
#
# number of rings (size 3 to 8) (size 9 to 14) (size 15 to 20)
#    0.000    2.500    0.000    1.875    0.000    6.750 
#    0.000    1.875    0.000    3.750    0.000    0.000 
#    0.000    0.000    0.000    0.000    0.000    0.000 
#
# Total GULP energy -396830.043037 kJ/mol
# GULP energy per Si atom -12400.938845 kJ/mol
# Density = 1.836503 g / cm^3
# Si number density = 18.406928 Si / 1000 Ang^3
#
#
#
# Elastic Constant Matrix: (Units=GPa)
#
#
# Indices 1 2 3 4 5 6 
#
# 1 99.7645 43.5481 47.7841 0.0000 -9.6608 0.0000
# 2 43.5481 86.6421 39.7853 0.0000 -5.7103 0.0000
# 3 47.7841 39.7853 85.0559 0.0000 2.0303 0.0000
# 4 0.0000 0.0000 0.0000 28.2876 0.0000 -6.0084
# 5 -9.6608 -5.7103 2.0303 0.0000 25.4550 0.0000
# 6 0.0000 0.0000 0.0000 -6.0084 0.0000 30.2443
#
#
#
# Elastic Compliance Matrix: (Units=1/GPa)
#
#
# Indices 1 2 3 4 5 6 
#
# 1 0.015813 -0.004381 -0.006967 0.000000 0.005574 0.000000
# 2 -0.004381 0.016300 -0.005221 0.000000 0.002410 0.000000
# 3 -0.006967 -0.005221 0.018239 0.000000 -0.005270 0.000000
# 4 0.000000 0.000000 0.000000 0.036909 0.000000 0.007332
# 5 0.005574 0.002410 -0.005270 0.000000 0.042362 0.000000
# 6 0.000000 0.000000 0.000000 0.007332 0.000000 0.034521
#
#
# Mechanical properties :
#
#
# Convention : Reuss Voigt Hill
#
# Bulk Modulus (GPa) = 58.09372 59.29972 58.69672
# Shear Modulus (GPa) = 24.62823 26.15371 25.39097
#
# Velocity S-wave (km/s) = 3.66182 3.77352 3.71809
# Velocity P-wave (km/s) = 7.03618 7.16044 7.09858
#
# Compressibility (1/GPa) = 0.01721356
#
# Stress axis : x y z
#
# Youngs Moduli (GPa) = 63.23909 61.35022 54.82757
#
# Poissons Ratio (x) = 0.26878 0.38201
# Poissons Ratio (y) = 0.27706 0.28623
# Poissons Ratio (z) = 0.44062 0.32028
#
# Static dielectric constant tensor:
#      x y z
#    x 3.449110 0.000000 0.093860 
#    y 0.000000 3.477610 0.000000 
#    z 0.093860 0.000000 3.286940 
# 
# 
# High freq. dielectric constant tensor:
#      x y z
#    x 1.710820 0.000000 0.004280 
#    y 0.000000 1.720010 0.000000 
#    z 0.004280 0.000000 1.699840 
# 
# From -- ./inp_files/71558.got.cif
#   From: 2010.06.25/outbox.cif.g09.slc.cpg/sg10_36_cif.got.tgz:71558.got - 2010.06.27 22:07:45.
