data_PCOD8063268
_publ_section_title
;
Structure prediction by ZEFSAII (Michael W. Deem and Ramdas Pophale) SiO2 
 PCOD8063268
Probable space group: P 2/M
;
_chemical_formula_sum "Si O2"
_cell_formula_units_Z 32
_cell_length_a 16.050647
_cell_length_b 19.531948
_cell_length_c 15.918247
_cell_angle_alpha 90.000000
_cell_angle_beta 17.771810
_cell_angle_gamma 90.000000
_cell_volume 1523.196816
_symmetry_space_group_name_H-M "P 2/M"
_symmetry_group_IT_number 10
_symmetry_cell_setting 'monoclinic'
loop_
_space_group_symop_operation_xyz
x,y,z
-x,y,-z
-x,-y,-z
x,-y,z
loop_
_atom_site_type_symbol
_atom_site_label
_atom_site_fract_x
_atom_site_fract_y
_atom_site_fract_z
Si Si1 0.142620 0.075049 0.567552
Si Si2 0.599708 0.108751 0.996740
Si Si3 0.018310 0.574271 0.314301
Si Si4 0.728513 0.759007 0.949998
Si Si5 0.524181 0.630313 0.882258
Si Si6 0.866846 0.417885 0.985211
Si Si7 0.630386 0.335584 0.462927
Si Si8 0.270221 0.785568 0.510023
O O1 0.164741 0.134488 0.619258
O O2 0.877859 0.075599 0.762396
O O3 0.163777 0.000000 0.590823
O O4 0.381394 0.085173 0.272878
O O5 0.648741 0.190903 0.949747
O O6 0.500000 0.085455 0.000000
O O7 0.879251 0.500000 0.446184
O O8 0.040508 0.601064 0.198050
O O9 0.830027 0.620440 0.555780
O O10 0.320586 0.565862 0.065146
O O11 0.053767 0.753862 0.651466
O O12 0.626129 0.683927 0.032336
O O13 0.576774 0.786299 0.179596
O O14 0.500000 0.656026 0.000000
O O15 0.836781 0.500000 0.029355
O O16 0.109976 0.384576 0.806697
O O17 0.580961 0.379601 0.277439
O O18 0.500000 0.315394 0.500000
O O19 0.725726 0.262561 0.411346
#
# Coordination Sequence:
#
# PCOD8063268 Si02
#       8
#     4   4   4   4   4   4   4   4
#     4  10  21  35  54  80 110 152 195 231 278 332
#     4  10  20  33  51  79 114 146 184 236 284 325
#     4  11  24  40  56  75 104 146 190 229 279 340
#     4  10  20  36  56  77 105 146 190 226 275 336
#     4  12  23  35  55  79 106 142 190 246 287 319
#     4  11  24  42  63  87 118 154 188 225 279 354
#     4  12  24  39  63  92 119 146 182 232 289 346
#     4  10  21  38  59  80 111 149 187 231 274 339
#
# _framework density 21.008448000000001
#
# number of rings (size 3 to 8) (size 9 to 14) (size 15 to 20)
#    0.000    1.250    0.000    7.125    0.000    6.500 
#    0.000    3.750    0.000    0.375    0.000    0.000 
#    0.000    8.000    0.000    0.000    0.000    2.000 
#
# Total GULP energy -396451.408674 kJ/mol
# GULP energy per Si atom -12389.106521 kJ/mol
# Density = 2.096063 g / cm^3
# Si number density = 21.008448 Si / 1000 Ang^3
#
#
#
# Elastic Constant Matrix: (Units=GPa)
#
#
# Indices 1 2 3 4 5 6 
#
# 1 77.4318 49.8688 18.0980 0.0000 -8.9430 0.0000
# 2 49.8688 143.9461 26.6288 0.0000 -1.3694 0.0000
# 3 18.0980 26.6288 115.2143 0.0000 -13.9507 0.0000
# 4 0.0000 0.0000 0.0000 25.6992 0.0000 -3.6164
# 5 -8.9430 -1.3694 -13.9507 0.0000 29.2737 0.0000
# 6 0.0000 0.0000 0.0000 -3.6164 0.0000 17.7567
#
#
#
# Elastic Compliance Matrix: (Units=1/GPa)
#
#
# Indices 1 2 3 4 5 6 
#
# 1 0.017400 -0.005832 -0.000822 0.000000 0.004651 0.000000
# 2 -0.005832 0.009218 -0.001462 0.000000 -0.002047 0.000000
# 3 -0.000822 -0.001462 0.009666 0.000000 0.004287 0.000000
# 4 0.000000 0.000000 0.000000 0.040060 0.000000 0.008159
# 5 0.004651 -0.002047 0.004287 0.000000 0.037528 0.000000
# 6 0.000000 0.000000 0.000000 0.008159 0.000000 0.057978
#
#
# Mechanical properties :
#
#
# Convention : Reuss Voigt Hill
#
# Bulk Modulus (GPa) = 49.87207 58.42037 54.14622
# Shear Modulus (GPa) = 25.67176 30.67903 28.17539
#
# Velocity S-wave (km/s) = 3.49947 3.82556 3.66614
# Velocity P-wave (km/s) = 6.33395 6.88343 6.61440
#
# Compressibility (1/GPa) = 0.02005130
#
# Stress axis : x y z
#
# Youngs Moduli (GPa) = 57.47229 108.47847 103.45873
#
# Poissons Ratio (x) = 0.63260 0.08506
# Poissons Ratio (y) = 0.33516 0.15130
# Poissons Ratio (z) = 0.04725 0.15864
#
# Static dielectric constant tensor:
#      x y z
#    x 3.465850 0.000000 -0.192200 
#    y 0.000000 4.133730 0.000000 
#    z -0.192200 0.000000 3.927510 
# 
# 
# High freq. dielectric constant tensor:
#      x y z
#    x 1.782380 0.000000 -0.020600 
#    y 0.000000 1.829290 0.000000 
#    z -0.020600 0.000000 1.842290 
# 
# From -- ./inp_files/67954.got.cif
#   From: 2010.06.25/outbox.cif.g09.slc.cpg/sg10_34_cif.got.tgz:67954.got - 2010.06.27 22:07:45.
