data_PCOD8063796
_publ_section_title
;
Structure prediction by ZEFSAII (Michael W. Deem and Ramdas Pophale) SiO2 
 PCOD8063796
Probable space group: P 2/M
;
_chemical_formula_sum "Si O2"
_cell_formula_units_Z 28
_cell_length_a 16.013127
_cell_length_b 8.793458
_cell_length_c 20.526978
_cell_angle_alpha 90.000000
_cell_angle_beta 31.793332
_cell_angle_gamma 90.000000
_cell_volume 1522.837337
_symmetry_space_group_name_H-M "P 2/M"
_symmetry_group_IT_number 10
_symmetry_cell_setting 'monoclinic'
loop_
_space_group_symop_operation_xyz
x,y,z
-x,y,-z
-x,-y,-z
x,-y,z
loop_
_atom_site_type_symbol
_atom_site_label
_atom_site_fract_x
_atom_site_fract_y
_atom_site_fract_z
Si Si1 0.420977 0.176107 0.957937
Si Si2 0.962854 0.677732 0.452000
Si Si3 0.174920 0.323183 0.874045
Si Si4 0.639496 0.828667 0.141577
Si Si5 0.670539 0.170485 0.572531
Si Si6 0.256301 0.822691 0.196756
Si Si7 0.468131 0.680884 0.595712
O O1 0.361646 0.245260 0.929499
O O2 0.589844 0.243372 0.867985
O O3 0.455139 0.000000 0.923882
O O4 0.284490 0.199975 0.101318
O O5 0.929981 0.500000 0.478185
O O6 0.113599 0.713515 0.308348
O O7 0.000000 0.743634 0.500000
O O8 0.816079 0.750742 0.511959
O O9 0.152222 0.500000 0.876473
O O10 0.258566 0.291297 0.886477
O O11 0.293140 0.260499 0.737688
O O12 0.000000 0.247101 0.000000
O O13 0.462310 0.833819 0.284743
O O14 0.712749 0.000000 0.095545
O O15 0.608582 0.255002 0.548397
O O16 0.719786 0.000000 0.518984
O O17 0.221228 0.000000 0.236084
O O18 0.500000 0.734914 0.500000
O O19 0.474775 0.500000 0.596406
#
# Coordination Sequence:
#
# PCOD8063796 Si02
#       7
#     4   4   4   4   4   4   4
#     4   8  15  30  52  75  99 130 166 206 253 303
#     4  11  23  36  50  73 106 140 174 216 261 305
#     4   9  18  33  51  73 101 131 170 212 252 306
#     4   9  17  31  52  76 100 127 165 207 252 301
#     4  10  20  34  55  80 104 134 176 219 255 307
#     4   9  17  32  53  73  99 134 170 207 249 301
#     4   9  18  35  57  77 104 144 177 212 267 320
#
# _framework density 18.38673
#
# number of rings (size 3 to 8) (size 9 to 14) (size 15 to 20)
#    0.000    2.714    0.000    2.571    0.000    3.429 
#    2.571    2.857    0.000    0.000    0.000    0.000 
#    0.000    0.000    0.000    0.000    0.000    0.000 
#
# Total GULP energy -346921.314520 kJ/mol
# GULP energy per Si atom -12390.046947 kJ/mol
# Density = 1.834488 g / cm^3
# Si number density = 18.386730 Si / 1000 Ang^3
#
#
#
# Elastic Constant Matrix: (Units=GPa)
#
#
# Indices 1 2 3 4 5 6 
#
# 1 138.0878 24.1791 74.5795 0.0000 14.2488 0.0000
# 2 24.1791 32.8747 25.2465 0.0000 -1.1490 0.0000
# 3 74.5795 25.2465 108.2414 0.0000 -5.2433 0.0000
# 4 0.0000 0.0000 0.0000 28.3184 0.0000 -5.2996
# 5 14.2488 -1.1490 -5.2433 0.0000 30.0005 0.0000
# 6 0.0000 0.0000 0.0000 -5.2996 0.0000 28.0397
#
#
#
# Elastic Compliance Matrix: (Units=1/GPa)
#
#
# Indices 1 2 3 4 5 6 
#
# 1 0.013460 -0.003362 -0.008881 0.000000 -0.008074 0.000000
# 2 -0.003362 0.037896 -0.006430 0.000000 0.001924 0.000000
# 3 -0.008881 -0.006430 0.017195 0.000000 0.006977 0.000000
# 4 0.000000 0.000000 0.000000 0.036608 0.000000 0.006919
# 5 -0.008074 0.001924 0.006977 0.000000 0.038461 0.000000
# 6 0.000000 0.000000 0.000000 0.006919 0.000000 0.036971
#
#
# Mechanical properties :
#
#
# Convention : Reuss Voigt Hill
#
# Bulk Modulus (GPa) = 32.04436 58.57936 45.31186
# Shear Modulus (GPa) = 21.89737 27.61830 24.75783
#
# Velocity S-wave (km/s) = 3.45473 3.87987 3.67346
# Velocity P-wave (km/s) = 5.77749 7.21110 6.53373
#
# Compressibility (1/GPa) = 0.03120674
#
# Stress axis : x y z
#
# Youngs Moduli (GPa) = 74.29353 26.38814 58.15476
#
# Poissons Ratio (x) = 0.08871 0.51648
# Poissons Ratio (y) = 0.24974 0.37391
# Poissons Ratio (z) = 0.65982 0.16966
#
# Static dielectric constant tensor:
#      x y z
#    x 3.711770 0.000000 0.108650 
#    y 0.000000 3.178890 0.000000 
#    z 0.108650 0.000000 3.598620 
# 
# 
# High freq. dielectric constant tensor:
#      x y z
#    x 1.715440 0.000000 0.004820 
#    y 0.000000 1.689620 0.000000 
#    z 0.004820 0.000000 1.713170 
# 
# From -- ./inp_files/49162.got.cif
#   From: 2010.06.25/outbox.cif.g09.slc.cpg/sg10_25_cif.got.tgz:49162.got - 2010.06.27 22:07:45.
