data_PCOD8063668
_publ_section_title
;
Structure prediction by ZEFSAII (Michael W. Deem and Ramdas Pophale) SiO2 
 PCOD8063668
Probable space group: P 2/M
;
_chemical_formula_sum "Si O2"
_cell_formula_units_Z 32
_cell_length_a 21.367864
_cell_length_b 9.191118
_cell_length_c 14.209952
_cell_angle_alpha 90.000000
_cell_angle_beta 35.955050
_cell_angle_gamma 90.000000
_cell_volume 1638.594179
_symmetry_space_group_name_H-M "P 2/M"
_symmetry_group_IT_number 10
_symmetry_cell_setting 'monoclinic'
loop_
_space_group_symop_operation_xyz
x,y,z
-x,y,-z
-x,-y,-z
x,-y,z
loop_
_atom_site_type_symbol
_atom_site_label
_atom_site_fract_x
_atom_site_fract_y
_atom_site_fract_z
Si Si1 0.234654 0.333984 0.359348
Si Si2 0.711929 0.170643 0.183083
Si Si3 0.410934 0.828252 0.037697
Si Si4 0.543621 0.829681 0.228914
Si Si5 0.949559 0.834847 0.857781
Si Si6 0.957138 0.159071 0.448701
Si Si7 0.161400 0.331023 0.648639
Si Si8 0.653977 0.327836 0.437976
O O1 0.265901 0.500000 0.302903
O O2 0.302032 0.231643 0.210596
O O3 0.115110 0.300552 0.473554
O O4 0.237784 0.293199 0.466367
O O5 0.647905 0.201733 0.164871
O O6 0.652381 0.259471 0.336619
O O7 0.708691 0.000000 0.211280
O O8 0.833781 0.228091 0.027279
O O9 0.405131 0.000000 0.046859
O O10 0.500000 0.766951 0.000000
O O11 0.430986 0.774000 0.907365
O O12 0.442556 0.739499 0.386176
O O13 0.513901 0.000000 0.266533
O O14 0.951678 0.824708 0.741593
O O15 0.048544 0.752199 0.786359
O O16 0.959080 0.000000 0.881194
O O17 0.000000 0.162581 0.500000
O O18 0.900701 0.000000 0.500751
O O19 0.131514 0.500000 0.682806
O O20 0.232030 0.289168 0.653108
O O21 0.637027 0.500000 0.452812
#
# Coordination Sequence:
#
# PCOD8063668 Si02
#       8
#     4   4   4   4   4   4   4   4
#     4  10  20  34  53  79 112 148 182 221 273 330
#     4  10  22  39  58  82 114 148 185 230 284 337
#     4  10  21  36  57  85 113 145 187 231 274 327
#     4  10  22  39  60  83 114 150 184 231 285 335
#     4   9  19  35  56  84 112 145 188 232 276 330
#     4   9  18  32  55  80 107 145 185 225 268 320
#     4   9  20  38  57  80 114 152 185 229 284 334
#     4  11  23  39  60  83 109 145 191 237 284 336
#
# _framework density 19.528936000000002
#
# number of rings (size 3 to 8) (size 9 to 14) (size 15 to 20)
#    0.000    2.250    0.000    1.875    1.750    5.500 
#    0.000    2.500    0.000    0.000    0.000    0.000 
#    0.000    0.000    0.000    0.000    0.000    0.000 
#
# Total GULP energy -396666.281708 kJ/mol
# GULP energy per Si atom -12395.821303 kJ/mol
# Density = 1.948449 g / cm^3
# Si number density = 19.528936 Si / 1000 Ang^3
#
#
#
# Elastic Constant Matrix: (Units=GPa)
#
#
# Indices 1 2 3 4 5 6 
#
# 1 111.0195 41.1143 46.2439 0.0000 8.4532 0.0000
# 2 41.1143 42.7507 33.6575 0.0000 0.2503 0.0000
# 3 46.2439 33.6575 103.3134 0.0000 1.6435 0.0000
# 4 0.0000 0.0000 0.0000 19.8721 0.0000 -1.6278
# 5 8.4532 0.2503 1.6435 0.0000 29.8055 0.0000
# 6 0.0000 0.0000 0.0000 -1.6278 0.0000 15.1259
#
#
#
# Elastic Compliance Matrix: (Units=1/GPa)
#
#
# Indices 1 2 3 4 5 6 
#
# 1 0.014959 -0.012295 -0.002627 0.000000 -0.003994 0.000000
# 2 -0.012295 0.041569 -0.008096 0.000000 0.003584 0.000000
# 3 -0.002627 -0.008096 0.013491 0.000000 0.000069 0.000000
# 4 0.000000 0.000000 0.000000 0.050769 0.000000 0.005464
# 5 -0.003994 0.003584 0.000069 0.000000 0.034650 0.000000
# 6 0.000000 0.000000 0.000000 0.005464 0.000000 0.066700
#
#
# Mechanical properties :
#
#
# Convention : Reuss Voigt Hill
#
# Bulk Modulus (GPa) = 41.69489 55.45724 48.57607
# Shear Modulus (GPa) = 18.10493 22.03189 20.06841
#
# Velocity S-wave (km/s) = 3.04811 3.36246 3.20914
# Velocity P-wave (km/s) = 5.81245 6.59803 6.21766
#
# Compressibility (1/GPa) = 0.02398375
#
# Stress axis : x y z
#
# Youngs Moduli (GPa) = 66.84965 24.05660 74.12099
#
# Poissons Ratio (x) = 0.29577 0.19470
# Poissons Ratio (y) = 0.82191 0.60008
# Poissons Ratio (z) = 0.17560 0.19476
#
# Static dielectric constant tensor:
#      x y z
#    x 3.902710 0.000000 0.066790 
#    y 0.000000 3.578280 0.000000 
#    z 0.066790 0.000000 3.630190 
# 
# 
# High freq. dielectric constant tensor:
#      x y z
#    x 1.763320 0.000000 0.006380 
#    y 0.000000 1.752400 0.000000 
#    z 0.006380 0.000000 1.764390 
# 
# From -- ./inp_files/71547.got.cif
#   From: 2010.06.25/outbox.cif.g09.slc.cpg/sg10_36_cif.got.tgz:71547.got - 2010.06.27 22:07:45.
