data_PCOD8063202
_publ_section_title
;
Structure prediction by ZEFSAII (Michael W. Deem and Ramdas Pophale) SiO2 
 PCOD8063202
Probable space group: P 2/M
;
_chemical_formula_sum "Si O2"
_cell_formula_units_Z 32
_cell_length_a 14.872030
_cell_length_b 9.274260
_cell_length_c 22.867097
_cell_angle_alpha 90.000000
_cell_angle_beta 147.993748
_cell_angle_gamma 90.000000
_cell_volume 1671.652843
_symmetry_space_group_name_H-M "P 2/M"
_symmetry_group_IT_number 10
_symmetry_cell_setting 'monoclinic'
loop_
_space_group_symop_operation_xyz
x,y,z
-x,y,-z
-x,-y,-z
x,-y,z
loop_
_atom_site_type_symbol
_atom_site_label
_atom_site_fract_x
_atom_site_fract_y
_atom_site_fract_z
Si Si1 0.646340 0.664771 0.623609
Si Si2 0.976894 0.830872 0.771226
Si Si3 0.086628 0.169361 0.396242
Si Si4 0.581808 0.665074 0.395397
Si Si5 0.513999 0.668966 0.226613
Si Si6 0.812090 0.668561 0.305083
Si Si7 0.717498 0.842342 0.978968
Si Si8 0.410483 0.841544 0.893872
O O1 0.500000 0.723917 0.500000
O O2 0.688732 0.500000 0.630277
O O3 0.584711 0.678749 0.656426
O O4 0.813844 0.757004 0.708897
O O5 0.998357 0.794789 0.713983
O O6 0.953836 0.000000 0.766458
O O7 0.139009 0.776215 0.898656
O O8 0.275118 0.232675 0.498883
O O9 0.989071 0.243991 0.397780
O O10 0.094277 0.000000 0.412565
O O11 0.648368 0.500000 0.431065
O O12 0.530676 0.717079 0.302647
O O13 0.488880 0.500000 0.204412
O O14 0.691615 0.714731 0.292793
O O15 0.339379 0.738895 0.105623
O O16 0.853109 0.500000 0.328306
O O17 0.720600 0.717291 0.194985
O O18 0.546276 0.865198 0.919265
O O19 0.776109 0.000000 0.987418
O O20 0.321925 0.000000 0.856569
O O21 0.500000 0.780842 0.000000
#
# Coordination Sequence:
#
# PCOD8063202 Si02
#       8
#     4   4   4   4   4   4   4   4
#     4  10  20  36  59  85 109 136 175 221 274 327
#     4  10  21  36  56  83 114 143 175 219 273 326
#     4  11  22  35  54  82 112 143 182 222 271 326
#     4  10  21  39  59  79 108 142 178 224 275 323
#     4   9  20  38  57  77 106 147 187 221 263 317
#     4  10  20  33  50  75 107 143 184 224 264 312
#     4   9  18  33  53  77 106 142 180 221 265 313
#     4   9  16  29  49  71 102 141 180 222 270 318
#
# _framework density 19.14273
#
# number of rings (size 3 to 8) (size 9 to 14) (size 15 to 20)
#    0.000    2.250    1.250    1.500    0.000    5.500 
#    0.000    5.625    0.000    3.750    0.000    0.000 
#    0.000    0.000    0.000    0.000    0.000    0.000 
#
# Total GULP energy -396573.843704 kJ/mol
# GULP energy per Si atom -12392.932616 kJ/mol
# Density = 1.909916 g / cm^3
# Si number density = 19.142730 Si / 1000 Ang^3
#
#
#
# Elastic Constant Matrix: (Units=GPa)
#
#
# Indices 1 2 3 4 5 6 
#
# 1 86.6558 37.0005 31.6403 0.0000 -8.0089 0.0000
# 2 37.0005 62.8886 40.9154 0.0000 1.2364 0.0000
# 3 31.6403 40.9154 88.4069 0.0000 -4.8855 0.0000
# 4 0.0000 0.0000 0.0000 38.5417 0.0000 6.8958
# 5 -8.0089 1.2364 -4.8855 0.0000 31.0806 0.0000
# 6 0.0000 0.0000 0.0000 6.8958 0.0000 25.2033
#
#
#
# Elastic Compliance Matrix: (Units=1/GPa)
#
#
# Indices 1 2 3 4 5 6 
#
# 1 0.016170 -0.008564 -0.001588 0.000000 0.004258 0.000000
# 2 -0.008564 0.027495 -0.009928 0.000000 -0.004861 0.000000
# 3 -0.001588 -0.009928 0.016618 0.000000 0.002598 0.000000
# 4 0.000000 0.000000 0.000000 0.027281 0.000000 -0.007464
# 5 0.004258 -0.004861 0.002598 0.000000 0.033873 0.000000
# 6 0.000000 0.000000 0.000000 -0.007464 0.000000 0.041720
#
#
# Mechanical properties :
#
#
# Convention : Reuss Voigt Hill
#
# Bulk Modulus (GPa) = 49.69795 50.78486 50.24140
# Shear Modulus (GPa) = 23.80656 27.52480 25.66568
#
# Velocity S-wave (km/s) = 3.53035 3.79604 3.66560
# Velocity P-wave (km/s) = 6.52962 6.76760 6.64968
#
# Compressibility (1/GPa) = 0.02012156
#
# Stress axis : x y z
#
# Youngs Moduli (GPa) = 61.84287 36.37062 60.17446
#
# Poissons Ratio (x) = 0.31147 0.09558
# Poissons Ratio (y) = 0.52962 0.59744
# Poissons Ratio (z) = 0.09823 0.36110
#
# Static dielectric constant tensor:
#      x y z
#    x 3.363860 0.000000 0.108550 
#    y 0.000000 3.598710 0.000000 
#    z 0.108550 0.000000 3.282430 
# 
# 
# High freq. dielectric constant tensor:
#      x y z
#    x 1.736290 0.000000 -0.000500 
#    y 0.000000 1.737260 0.000000 
#    z -0.000500 0.000000 1.738290 
# 
# From -- ./inp_files/71562.got.cif
#   From: 2010.06.25/outbox.cif.g09.slc.cpg/sg10_36_cif.got.tgz:71562.got - 2010.06.27 22:07:45.
