data_PCOD8063176
_publ_section_title
;
Structure prediction by ZEFSAII (Michael W. Deem and Ramdas Pophale) SiO2 
 PCOD8063176
Probable space group: P 2/M
;
_chemical_formula_sum "Si O2"
_cell_formula_units_Z 32
_cell_length_a 18.817448
_cell_length_b 14.148143
_cell_length_c 23.205284
_cell_angle_alpha 90.000000
_cell_angle_beta 17.885005
_cell_angle_gamma 90.000000
_cell_volume 1897.306811
_symmetry_space_group_name_H-M "P 2/M"
_symmetry_group_IT_number 10
_symmetry_cell_setting 'monoclinic'
loop_
_space_group_symop_operation_xyz
x,y,z
-x,y,-z
-x,-y,-z
x,-y,z
loop_
_atom_site_type_symbol
_atom_site_label
_atom_site_fract_x
_atom_site_fract_y
_atom_site_fract_z
Si Si1 0.078285 0.391177 0.115445
Si Si2 0.797026 0.606579 0.702969
Si Si3 0.303381 0.608825 0.502886
Si Si4 0.505200 0.293189 0.149883
Si Si5 0.878819 0.894323 0.709987
Si Si6 0.523606 0.105684 0.887608
Si Si7 0.115162 0.706813 0.539919
Si Si8 0.825822 0.387975 0.087078
O O1 0.162002 0.500000 0.053564
O O2 0.816177 0.381350 0.341922
O O3 0.240649 0.328671 0.030924
O O4 0.091924 0.353148 0.039468
O O5 0.727411 0.500000 0.772595
O O6 0.573033 0.658982 0.849913
O O7 0.000000 0.609907 0.500000
O O8 0.881268 0.658979 0.695782
O O9 0.299750 0.500000 0.484682
O O10 0.154348 0.671303 0.574061
O O11 0.566376 0.646859 0.302216
O O12 0.501406 0.179932 0.145017
O O13 0.336875 0.323646 0.331554
O O14 0.763725 0.876749 0.736283
O O15 0.084344 0.820064 0.562092
O O16 0.984554 0.000000 0.630818
O O17 0.688273 0.881385 0.905858
O O18 0.523052 0.000000 0.861591
O O19 0.837676 0.500000 0.081160
O O20 0.000000 0.343814 0.000000
#
# Coordination Sequence:
#
# PCOD8063176 Si02
#       8
#     4   4   4   4   4   4   4   4
#     4  10  20  33  50  73 102 135 167 203 247 293
#     4   9  18  28  40  61  90 129 171 207 243 283
#     4  10  20  33  50  73 102 135 167 203 247 293
#     4  11  19  30  47  67  95 130 168 212 252 288
#     4   9  18  32  47  63  89 126 168 215 260 299
#     4   9  18  32  47  63  89 126 168 215 260 299
#     4  11  19  30  47  67  95 130 168 212 252 288
#     4   9  18  34  54  75 100 129 162 201 244 297
#
# _framework density 16.866012000000001
#
# number of rings (size 3 to 8) (size 9 to 14) (size 15 to 20)
#    0.000    2.250    2.500    2.250    0.000    2.000 
#    0.000    3.750    0.000    3.000    0.000    0.000 
#    0.000    2.000    0.000    5.250    0.000    0.250 
#
# Total GULP energy -396803.773397 kJ/mol
# GULP energy per Si atom -12400.117919 kJ/mol
# Density = 1.682762 g / cm^3
# Si number density = 16.866012 Si / 1000 Ang^3
#
#
#
# Elastic Constant Matrix: (Units=GPa)
#
#
# Indices 1 2 3 4 5 6 
#
# 1 102.4848 35.6326 46.3260 0.0000 -9.8724 0.0000
# 2 35.6326 85.6316 20.6780 0.0000 -5.8101 0.0000
# 3 46.3260 20.6780 80.1546 0.0000 1.2095 0.0000
# 4 0.0000 0.0000 0.0000 19.0000 0.0000 3.2947
# 5 -9.8724 -5.8101 1.2095 0.0000 19.6754 0.0000
# 6 0.0000 0.0000 0.0000 3.2947 0.0000 10.5314
#
#
#
# Elastic Compliance Matrix: (Units=1/GPa)
#
#
# Indices 1 2 3 4 5 6 
#
# 1 0.015451 -0.004019 -0.008000 0.000000 0.007058 0.000000
# 2 -0.004019 0.013802 -0.001270 0.000000 0.002137 0.000000
# 3 -0.008000 -0.001270 0.017509 0.000000 -0.005465 0.000000
# 4 0.000000 0.000000 0.000000 0.055651 0.000000 -0.017410
# 5 0.007058 0.002137 -0.005465 0.000000 0.055333 0.000000
# 6 0.000000 0.000000 0.000000 -0.017410 0.000000 0.100401
#
#
# Mechanical properties :
#
#
# Convention : Reuss Voigt Hill
#
# Bulk Modulus (GPa) = 49.54151 52.61600 51.07876
# Shear Modulus (GPa) = 17.15549 20.88366 19.01958
#
# Velocity S-wave (km/s) = 3.19276 3.52264 3.36175
# Velocity P-wave (km/s) = 6.55965 6.91444 6.73938
#
# Compressibility (1/GPa) = 0.02018509
#
# Stress axis : x y z
#
# Youngs Moduli (GPa) = 64.72196 72.45377 57.11192
#
# Poissons Ratio (x) = 0.29117 0.45687
# Poissons Ratio (y) = 0.26010 0.07254
# Poissons Ratio (z) = 0.51775 0.09203
#
# Static dielectric constant tensor:
#      x y z
#    x 3.021900 0.000000 0.029610 
#    y 0.000000 3.070980 0.000000 
#    z 0.029610 0.000000 3.097430 
# 
# 
# High freq. dielectric constant tensor:
#      x y z
#    x 1.619920 0.000000 0.012240 
#    y 0.000000 1.628390 0.000000 
#    z 0.012240 0.000000 1.651320 
# 
# From -- ./inp_files/69277.got.cif
#   From: 2010.06.25/outbox.cif.g09.slc.cpg/sg10_35_cif.got.tgz:69277.got - 2010.06.27 22:07:45.
