data_PCOD8063498
_publ_section_title
;
Structure prediction by ZEFSAII (Michael W. Deem and Ramdas Pophale) SiO2 
 PCOD8063498
Probable space group: P 2/M
;
_chemical_formula_sum "Si O2"
_cell_formula_units_Z 32
_cell_length_a 19.057260
_cell_length_b 9.482415
_cell_length_c 27.738780
_cell_angle_alpha 90.000000
_cell_angle_beta 19.747112
_cell_angle_gamma 90.000000
_cell_volume 1693.618062
_symmetry_space_group_name_H-M "P 2/M"
_symmetry_group_IT_number 10
_symmetry_cell_setting 'monoclinic'
loop_
_space_group_symop_operation_xyz
x,y,z
-x,y,-z
-x,-y,-z
x,-y,z
loop_
_atom_site_type_symbol
_atom_site_label
_atom_site_fract_x
_atom_site_fract_y
_atom_site_fract_z
Si Si1 0.574090 0.333041 0.006034
Si Si2 0.462896 0.663425 0.423672
Si Si3 0.188226 0.167104 0.434697
Si Si4 0.069539 0.842753 0.006596
Si Si5 0.031467 0.666907 0.742273
Si Si6 0.281109 0.167391 0.268933
Si Si7 0.862525 0.663791 0.221090
Si Si8 0.503338 0.157563 0.688313
O O1 0.548906 0.500000 0.030567
O O2 0.439849 0.252083 0.132692
O O3 0.500000 0.290985 0.000000
O O4 0.814578 0.284927 0.858238
O O5 0.457683 0.500000 0.413011
O O6 0.230365 0.721753 0.583555
O O7 0.616062 0.687899 0.370385
O O8 0.557096 0.748104 0.318082
O O9 0.297969 0.217324 0.313882
O O10 0.307117 0.226920 0.404470
O O11 0.951309 0.213516 0.595244
O O12 0.199480 0.000000 0.425672
O O13 0.000134 0.740092 0.092937
O O14 0.974534 0.000000 0.075774
O O15 0.317544 0.848469 0.846782
O O16 0.000000 0.782248 0.000000
O O17 0.043791 0.500000 0.736803
O O18 0.065468 0.727020 0.774157
O O19 0.319758 0.000000 0.237337
O O20 0.916928 0.500000 0.182855
O O21 0.557195 0.000000 0.635132
#
# Coordination Sequence:
#
# PCOD8063498 Si02
#       8
#     4   4   4   4   4   4   4   4
#     4  10  22  38  55  77 109 144 172 210 268 322
#     4  10  20  35  56  79 103 137 182 224 260 303
#     4   8  17  34  56  80 106 139 173 214 265 311
#     4  10  20  34  51  75 110 144 168 204 265 321
#     4   9  20  38  56  76 105 141 177 217 267 314
#     4   9  18  36  59  80 104 135 177 221 260 307
#     4  10  20  35  57  79 102 136 181 226 259 301
#     4  10  20  34  53  77 109 144 174 209 261 319
#
# _framework density 18.894461
#
# number of rings (size 3 to 8) (size 9 to 14) (size 15 to 20)
#    0.000    2.500    1.250    1.125    3.500    2.500 
#    0.000    3.125    0.000    1.500    0.000    0.000 
#    0.000    0.000    0.000    0.000    0.000    0.000 
#
# Total GULP energy -396598.892500 kJ/mol
# GULP energy per Si atom -12393.715391 kJ/mol
# Density = 1.885146 g / cm^3
# Si number density = 18.894461 Si / 1000 Ang^3
#
#
#
# Elastic Constant Matrix: (Units=GPa)
#
#
# Indices 1 2 3 4 5 6 
#
# 1 121.0585 31.0286 44.1246 0.0000 -13.5208 0.0000
# 2 31.0286 41.1210 34.9869 0.0000 3.2103 0.0000
# 3 44.1246 34.9869 109.9764 0.0000 -0.8746 0.0000
# 4 0.0000 0.0000 0.0000 14.7756 0.0000 -17.0414
# 5 -13.5208 3.2103 -0.8746 0.0000 27.6737 0.0000
# 6 0.0000 0.0000 0.0000 -17.0414 0.0000 -9.7593
#
#
#
# Elastic Compliance Matrix: (Units=1/GPa)
#
#
# Indices 1 2 3 4 5 6 
#
# 1 0.011722 -0.007398 -0.002297 0.000000 0.006513 0.000000
# 2 -0.007398 0.038510 -0.009349 0.000000 -0.008377 0.000000
# 3 -0.002297 -0.009349 0.012992 0.000000 0.000373 0.000000
# 4 0.000000 0.000000 0.000000 0.022455 0.000000 -0.039211
# 5 0.006513 -0.008377 0.000373 0.000000 0.040301 0.000000
# 6 0.000000 0.000000 0.000000 -0.039211 0.000000 -0.033998
#
#
# Mechanical properties :
#
#
# Convention : Reuss Voigt Hill
#
# Bulk Modulus (GPa) = 39.78867 54.71511 47.25189
# Shear Modulus (GPa) = 36.11412 17.33906 26.72659
#
# Velocity S-wave (km/s) = 4.37665 3.03261 3.76509
# Velocity P-wave (km/s) = 6.82966 6.42522 6.63052
#
# Compressibility (1/GPa) = 0.02513278
#
# Stress axis : x y z
#
# Youngs Moduli (GPa) = 85.31309 25.96743 76.97084
#
# Poissons Ratio (x) = 0.19212 0.17684
# Poissons Ratio (y) = 0.63118 0.71963
# Poissons Ratio (z) = 0.19600 0.24278
#
# Static dielectric constant tensor:
#      x y z
#    x 3.908340 0.000000 -0.296480 
#    y 0.000000 3.115300 0.000000 
#    z -0.296480 0.000000 3.552630 
# 
# 
# High freq. dielectric constant tensor:
#      x y z
#    x 1.744700 0.000000 -0.009410 
#    y 0.000000 1.698250 0.000000 
#    z -0.009410 0.000000 1.738060 
# 
# From -- ./inp_files/69178.got.cif
#   From: 2010.06.25/outbox.cif.g09.slc.cpg/sg10_35_cif.got.tgz:69178.got - 2010.06.27 22:07:45.
