data_PCOD8063723
_publ_section_title
;
Structure prediction by ZEFSAII (Michael W. Deem and Ramdas Pophale) SiO2 
 PCOD8063723
Probable space group: P 2/M
;
_chemical_formula_sum "Si O2"
_cell_formula_units_Z 32
_cell_length_a 25.865944
_cell_length_b 8.904988
_cell_length_c 24.680567
_cell_angle_alpha 90.000000
_cell_angle_beta 17.063730
_cell_angle_gamma 90.000000
_cell_volume 1668.126738
_symmetry_space_group_name_H-M "P 2/M"
_symmetry_group_IT_number 10
_symmetry_cell_setting 'monoclinic'
loop_
_space_group_symop_operation_xyz
x,y,z
-x,y,-z
-x,-y,-z
x,-y,z
loop_
_atom_site_type_symbol
_atom_site_label
_atom_site_fract_x
_atom_site_fract_y
_atom_site_fract_z
Si Si1 0.295465 0.319997 0.820066
Si Si2 0.689090 0.319983 0.428029
Si Si3 0.991993 0.321373 0.201506
Si Si4 0.708248 0.336572 0.292618
Si Si5 0.697955 0.324135 0.693516
Si Si6 0.677744 0.821758 0.939302
Si Si7 0.021887 0.677320 0.293777
Si Si8 0.708043 0.835198 0.790521
O O1 0.292722 0.500000 0.819638
O O2 0.491474 0.263654 0.639343
O O3 0.236993 0.255157 0.818906
O O4 0.162696 0.259143 0.998652
O O5 0.692047 0.500000 0.421702
O O6 0.817041 0.259843 0.346949
O O7 0.755410 0.255055 0.302623
O O8 0.991861 0.500000 0.201268
O O9 0.994426 0.262473 0.260382
O O10 0.500000 0.357291 0.500000
O O11 0.799810 0.500000 0.201444
O O12 0.661500 0.500000 0.729339
O O13 0.848720 0.276060 0.500474
O O14 0.767054 0.277965 0.684215
O O15 0.518573 0.242184 0.856260
O O16 0.761344 0.775310 0.796902
O O17 0.803597 0.756434 0.858978
O O18 0.664883 0.000000 0.956796
O O19 0.053470 0.500000 0.264486
O O20 0.791387 0.000000 0.695606
O O21 0.500000 0.851029 0.000000
#
# Coordination Sequence:
#
# PCOD8063723 Si02
#       8
#     4   4   4   4   4   4   4   4
#     4   8  13  21  34  51  74 109 150 192 235 279
#     4   8  13  21  33  50  75 108 148 194 237 278
#     4   9  17  27  38  55  81 118 163 198 229 279
#     4   7  10  17  29  48  73 101 141 190 234 278
#     4  10  20  34  54  79 107 136 164 202 252 301
#     4  10  21  37  57  78 101 132 168 208 253 299
#     4  10  22  36  49  72 104 136 173 212 248 293
#     4   8  16  32  53  78 104 129 162 202 247 302
#
# _framework density 19.183195000000001
#
# number of rings (size 3 to 8) (size 9 to 14) (size 15 to 20)
#    0.000    3.250    0.000    3.000    0.000    5.750 
#    0.000    8.750    0.000    0.000    0.000    0.000 
#    0.000    0.000    0.000    2.250    0.000   18.000 
#
# Total GULP energy -396443.684528 kJ/mol
# GULP energy per Si atom -12388.865141 kJ/mol
# Density = 1.913953 g / cm^3
# Si number density = 19.183195 Si / 1000 Ang^3
#
#
#
# Elastic Constant Matrix: (Units=GPa)
#
#
# Indices 1 2 3 4 5 6 
#
# 1 139.2110 8.2754 50.1755 0.0000 3.4046 0.0000
# 2 8.2754 22.5761 13.7751 0.0000 1.6240 0.0000
# 3 50.1755 13.7751 94.5205 0.0000 7.9801 0.0000
# 4 0.0000 0.0000 0.0000 -1.6396 0.0000 -2.8996
# 5 3.4046 1.6240 7.9801 0.0000 35.0592 0.0000
# 6 0.0000 0.0000 0.0000 -2.8996 0.0000 2.1043
#
#
#
# Elastic Compliance Matrix: (Units=1/GPa)
#
#
# Indices 1 2 3 4 5 6 
#
# 1 0.008888 -0.000421 -0.004675 0.000000 0.000221 0.000000
# 2 -0.000421 0.048652 -0.006811 0.000000 -0.000663 0.000000
# 3 -0.004675 -0.006811 0.014263 0.000000 -0.002477 0.000000
# 4 0.000000 0.000000 0.000000 -0.177462 0.000000 -0.244531
# 5 0.000221 -0.000663 -0.002477 0.000000 0.029096 0.000000
# 6 0.000000 0.000000 0.000000 -0.244531 0.000000 0.138269
#
#
# Mechanical properties :
#
#
# Convention : Reuss Voigt Hill
#
# Bulk Modulus (GPa) = 20.83814 44.52883 32.68349
# Shear Modulus (GPa) = 49.25188 19.37690 34.31439
#
# Velocity S-wave (km/s) = 5.07250 3.18165 4.23398
# Velocity P-wave (km/s) = 6.72259 6.06300 6.40130
#
# Compressibility (1/GPa) = 0.04798893
#
# Stress axis : x y z
#
# Youngs Moduli (GPa) = 112.50943 20.55398 70.10960
#
# Poissons Ratio (x) = 0.00865 0.32779
# Poissons Ratio (y) = 0.04737 0.47751
# Poissons Ratio (z) = 0.52603 0.13999
#
# Static dielectric constant tensor:
#      x y z
#    x 4.011290 0.000000 0.107560 
#    y 0.000000 2.888300 0.000000 
#    z 0.107560 0.000000 3.465390 
# 
# 
# High freq. dielectric constant tensor:
#      x y z
#    x 1.758000 0.000000 0.002270 
#    y 0.000000 1.676510 0.000000 
#    z 0.002270 0.000000 1.742580 
# 
# From -- ./inp_files/90566.got.cif
#   From: 2010.06.25/outbox.cif.g09.slc.cpg/sg10_46_cif.got.tgz:90566.got - 2010.06.27 22:07:45.
