data_PCOD8063572
_publ_section_title
;
Structure prediction by ZEFSAII (Michael W. Deem and Ramdas Pophale) SiO2 
 PCOD8063572
Probable space group: P 2/M
;
_chemical_formula_sum "Si O2"
_cell_formula_units_Z 32
_cell_length_a 21.080408
_cell_length_b 8.873977
_cell_length_c 26.970356
_cell_angle_alpha 90.000000
_cell_angle_beta 160.532631
_cell_angle_gamma 90.000000
_cell_volume 1681.435262
_symmetry_space_group_name_H-M "P 2/M"
_symmetry_group_IT_number 10
_symmetry_cell_setting 'monoclinic'
loop_
_space_group_symop_operation_xyz
x,y,z
-x,y,-z
-x,-y,-z
x,-y,z
loop_
_atom_site_type_symbol
_atom_site_label
_atom_site_fract_x
_atom_site_fract_y
_atom_site_fract_z
Si Si1 0.262224 0.179618 0.153752
Si Si2 0.340658 0.678203 0.918496
Si Si3 0.145461 0.325120 0.160431
Si Si4 0.072443 0.172727 0.289802
Si Si5 0.083555 0.323421 0.399232
Si Si6 0.717378 0.837526 0.650666
Si Si7 0.470144 0.322911 0.731434
Si Si8 0.315669 0.677429 0.012098
O O1 0.299210 0.248619 0.236039
O O2 0.413188 0.235539 0.224520
O O3 0.269318 0.000000 0.160835
O O4 0.054505 0.240334 0.988140
O O5 0.349050 0.500000 0.919783
O O6 0.130631 0.735363 0.745781
O O7 0.500000 0.751879 0.000000
O O8 0.386911 0.726010 0.009496
O O9 0.120791 0.500000 0.129611
O O10 0.212773 0.303485 0.265950
O O11 0.145570 0.252055 0.393149
O O12 0.244407 0.197206 0.378529
O O13 0.029213 0.000000 0.270272
O O14 0.885306 0.243610 0.126569
O O15 0.073229 0.500000 0.382996
O O16 0.244119 0.283308 0.558832
O O17 0.500000 0.858335 0.500000
O O18 0.816930 0.000000 0.737582
O O19 0.505387 0.500000 0.749646
O O20 0.535808 0.273059 0.835259
O O21 0.281988 0.500000 0.989090
#
# Coordination Sequence:
#
# PCOD8063572 Si02
#       8
#     4   4   4   4   4   4   4   4
#     4  11  22  36  55  74  99 137 175 218 272 323
#     4   8  14  29  54  81 109 145 182 212 251 311
#     4  11  22  37  54  75 100 131 177 224 272 327
#     4  10  20  34  53  75 101 137 181 223 266 321
#     4   9  19  34  53  78 110 142 175 220 269 317
#     4  10  22  37  51  71 102 136 175 225 274 320
#     4  10  20  34  52  78 109 139 175 221 272 320
#     4   9  18  33  54  78 106 140 175 218 265 312
#
# _framework density 19.031359999999999
#
# number of rings (size 3 to 8) (size 9 to 14) (size 15 to 20)
#    0.000    2.250    0.000    4.875    1.750    4.250 
#    0.000    0.625    0.000    9.750    0.000    0.000 
#    0.000    9.000    0.000    0.000    0.000    0.000 
#
# Total GULP energy -396516.603150 kJ/mol
# GULP energy per Si atom -12391.143848 kJ/mol
# Density = 1.898804 g / cm^3
# Si number density = 19.031360 Si / 1000 Ang^3
#
#
#
# Elastic Constant Matrix: (Units=GPa)
#
#
# Indices 1 2 3 4 5 6 
#
# 1 109.2085 20.2507 61.3328 0.0000 16.9874 0.0000
# 2 20.2507 38.4209 22.2881 0.0000 -1.3251 0.0000
# 3 61.3328 22.2881 108.7873 0.0000 -6.0724 0.0000
# 4 0.0000 0.0000 0.0000 37.1979 0.0000 20.5741
# 5 16.9874 -1.3251 -6.0724 0.0000 30.6904 0.0000
# 6 0.0000 0.0000 0.0000 20.5741 0.0000 42.7841
#
#
#
# Elastic Compliance Matrix: (Units=1/GPa)
#
#
# Indices 1 2 3 4 5 6 
#
# 1 0.016911 -0.003866 -0.009377 0.000000 -0.011382 0.000000
# 2 -0.003866 0.030422 -0.003904 0.000000 0.002681 0.000000
# 3 -0.009377 -0.003904 0.015733 0.000000 0.008135 0.000000
# 4 0.000000 0.000000 0.000000 0.036624 0.000000 -0.017612
# 5 -0.011382 0.002681 0.008135 0.000000 0.040609 0.000000
# 6 0.000000 0.000000 0.000000 -0.017612 0.000000 0.031842
#
#
# Mechanical properties :
#
#
# Convention : Reuss Voigt Hill
#
# Bulk Modulus (GPa) = 34.75608 51.57332 43.16470
# Shear Modulus (GPa) = 23.14539 32.30416 27.72478
#
# Velocity S-wave (km/s) = 3.49115 4.12444 3.82094
# Velocity P-wave (km/s) = 5.87818 7.05970 6.49586
#
# Compressibility (1/GPa) = 0.02877195
#
# Stress axis : x y z
#
# Youngs Moduli (GPa) = 59.13445 32.87082 63.56123
#
# Poissons Ratio (x) = 0.12708 0.59603
# Poissons Ratio (y) = 0.22861 0.24812
# Poissons Ratio (z) = 0.55452 0.12831
#
# Static dielectric constant tensor:
#      x y z
#    x 3.984980 0.000000 -0.219480 
#    y 0.000000 3.529210 0.000000 
#    z -0.219480 0.000000 3.806580 
# 
# 
# High freq. dielectric constant tensor:
#      x y z
#    x 1.732670 0.000000 -0.006070 
#    y 0.000000 1.727860 0.000000 
#    z -0.006070 0.000000 1.734370 
# 
# From -- ./inp_files/93738.got.cif
#   From: 2010.06.25/outbox.cif.g09.slc.cpg/sg10_47_cif.got.tgz:93738.got - 2010.06.27 22:07:45.
