data_PCOD8063229
_publ_section_title
;
Structure prediction by ZEFSAII (Michael W. Deem and Ramdas Pophale) SiO2 
 PCOD8063229
Probable space group: P 2/M
;
_chemical_formula_sum "Si O2"
_cell_formula_units_Z 24
_cell_length_a 16.637762
_cell_length_b 15.522227
_cell_length_c 9.300315
_cell_angle_alpha 90.000000
_cell_angle_beta 146.981193
_cell_angle_gamma 90.000000
_cell_volume 1308.804552
_symmetry_space_group_name_H-M "P 2/M"
_symmetry_group_IT_number 10
_symmetry_cell_setting 'monoclinic'
loop_
_space_group_symop_operation_xyz
x,y,z
-x,y,-z
-x,-y,-z
x,-y,z
loop_
_atom_site_type_symbol
_atom_site_label
_atom_site_fract_x
_atom_site_fract_y
_atom_site_fract_z
Si Si1 0.834923 0.000000 0.081699
Si Si2 0.346665 0.164758 0.189490
Si Si3 0.170658 0.665057 0.589403
Si Si4 0.824506 0.500000 0.899193
Si Si5 0.170662 0.665056 0.922579
Si Si6 0.824509 0.500000 0.574332
Si Si7 0.834926 0.000000 0.423087
Si Si8 0.653340 0.164758 0.149510
O O1 0.844592 0.000000 0.266893
O O2 0.749770 0.915472 0.899514
O O3 0.999995 0.000000 0.264080
O O4 0.500000 0.163121 0.500000
O O5 0.260811 0.251082 0.103375
O O6 0.374968 0.158990 0.062448
O O7 0.191851 0.642161 0.787776
O O8 0.234411 0.585132 0.593980
O O9 0.260809 0.748917 0.679049
O O10 0.999998 0.683236 0.298158
O O11 0.765580 0.585132 0.890733
O O12 0.999999 0.500000 0.167921
O O13 0.764299 0.500000 0.646447
O O14 0.749769 0.084527 0.349806
O O15 0.500000 0.163120 0.000000
#
# Coordination Sequence:
#
# PCOD8063229 Si02
#       8
#     2   4   4   2   4   2   2   4
#     4   9  17  32  55  79 100 127 168 210 242 283
#     4  10  20  33  51  75 103 134 165 201 247 295
#     4   9  17  31  51  73  97 129 170 209 243 287
#     4   9  17  29  48  75 102 127 159 205 258 299
#     4   9  17  31  51  73  97 129 170 209 243 287
#     4   9  17  29  48  75 102 127 159 205 258 299
#     4   9  17  32  55  79 100 127 168 210 242 283
#     4  10  20  33  51  75 103 134 165 201 247 295
#
# _framework density 18.337344999999999
#
# number of rings (size 3 to 8) (size 9 to 14) (size 15 to 20)
#    0.000    2.667    0.000    2.000    0.000    7.333 
#    0.000    0.833    0.000    4.000    0.000    0.000 
#    0.000    0.000    0.000    0.000    0.000    0.000 
#
# Total GULP energy -297632.512786 kJ/mol
# GULP energy per Si atom -12401.354699 kJ/mol
# Density = 1.829561 g / cm^3
# Si number density = 18.337345 Si / 1000 Ang^3
#
#
#
# Elastic Constant Matrix: (Units=GPa)
#
#
# Indices 1 2 3 4 5 6 
#
# 1 84.7134 76.1969 41.7081 0.0000 16.3492 0.0000
# 2 76.1969 205.1428 83.2818 0.0000 8.5775 0.0000
# 3 41.7081 83.2818 107.7715 0.0000 11.5445 0.0000
# 4 0.0000 0.0000 0.0000 9.6394 0.0000 -4.2128
# 5 16.3492 8.5775 11.5445 0.0000 22.4503 0.0000
# 6 0.0000 0.0000 0.0000 -4.2128 0.0000 13.1248
#
#
#
# Elastic Compliance Matrix: (Units=1/GPa)
#
#
# Indices 1 2 3 4 5 6 
#
# 1 0.020805 -0.006526 -0.001749 0.000000 -0.011758 0.000000
# 2 -0.006526 0.009150 -0.004953 0.000000 0.003803 0.000000
# 3 -0.001749 -0.004953 0.014228 0.000000 -0.004150 0.000000
# 4 0.000000 0.000000 0.000000 0.120667 0.000000 0.038731
# 5 -0.011758 0.003803 -0.004150 0.000000 0.053787 0.000000
# 6 0.000000 0.000000 0.000000 0.038731 0.000000 0.088623
#
#
# Mechanical properties :
#
#
# Convention : Reuss Voigt Hill
#
# Bulk Modulus (GPa) = 56.41063 88.88906 72.64985
# Shear Modulus (GPa) = 14.72214 22.13897 18.43055
#
# Velocity S-wave (km/s) = 2.83653 3.47841 3.17374
# Velocity P-wave (km/s) = 6.44650 8.04438 7.28936
#
# Compressibility (1/GPa) = 0.01772715
#
# Stress axis : x y z
#
# Youngs Moduli (GPa) = 48.06614 109.28643 70.28525
#
# Poissons Ratio (x) = 0.71319 0.12293
# Poissons Ratio (y) = 0.31367 0.34811
# Poissons Ratio (z) = 0.08407 0.54128
#
# Static dielectric constant tensor:
#      x y z
#    x 3.204220 0.000000 0.015510 
#    y 0.000000 3.642130 0.000000 
#    z 0.015510 0.000000 3.216900 
# 
# 
# High freq. dielectric constant tensor:
#      x y z
#    x 1.689690 0.000000 0.004140 
#    y 0.000000 1.730670 0.000000 
#    z 0.004140 0.000000 1.693100 
# 
# From -- ./inp_files/29755.got.cif
#   From: 2010.06.25/outbox.cif.g09.slc.cpg/sg10_15_cif.got.tgz:29755.got - 2010.06.27 22:07:45.
