data_PCOD8063009
_publ_section_title
;
Structure prediction by ZEFSAII (Michael W. Deem and Ramdas Pophale) SiO2 
 PCOD8063009
Probable space group: P 2/M
;
_chemical_formula_sum "Si O2"
_cell_formula_units_Z 28
_cell_length_a 11.425975
_cell_length_b 17.912580
_cell_length_c 19.283080
_cell_angle_alpha 90.000000
_cell_angle_beta 156.413511
_cell_angle_gamma 90.000000
_cell_volume 1579.181736
_symmetry_space_group_name_H-M "P 2/M"
_symmetry_group_IT_number 10
_symmetry_cell_setting 'monoclinic'
loop_
_space_group_symop_operation_xyz
x,y,z
-x,y,-z
-x,-y,-z
x,-y,z
loop_
_atom_site_type_symbol
_atom_site_label
_atom_site_fract_x
_atom_site_fract_y
_atom_site_fract_z
Si Si1 0.620657 0.000000 0.958456
Si Si2 0.945455 0.000000 0.279485
Si Si3 0.030806 0.160474 0.714097
Si Si4 0.827897 0.290910 0.515746
Si Si5 0.491960 0.586547 0.415416
Si Si6 0.344851 0.839814 0.021885
Si Si7 0.898011 0.414821 0.021385
Si Si8 0.555714 0.709394 0.221503
O O1 0.267242 0.000000 0.769108
O O2 0.723368 0.921332 0.979553
O O3 0.745013 0.000000 0.103140
O O4 0.127263 0.078309 0.378168
O O5 0.094886 0.181010 0.829488
O O6 0.816600 0.221117 0.562837
O O7 0.340406 0.155686 0.843636
O O8 0.727110 0.365136 0.500818
O O9 0.619651 0.275651 0.337039
O O10 0.156140 0.301534 0.667632
O O11 0.500000 0.606340 0.500000
O O12 0.566387 0.500000 0.440496
O O13 0.163377 0.606439 0.215461
O O14 0.353662 0.777868 0.086454
O O15 0.799859 0.500000 0.977385
O O16 0.616355 0.366479 0.885864
O O17 0.000000 0.397081 0.000000
#
# Coordination Sequence:
#
# PCOD8063009 Si02
#       8
#     2   2   4   4   4   4   4   4
#     4   7  10  20  39  63  93 127 165 201 237 285
#     4   7  10  20  39  63  91 129 167 198 237 286
#     4   8  14  25  43  67  98 131 165 204 244 288
#     4  10  20  33  49  76 108 132 161 207 256 292
#     4  10  22  39  56  74  99 130 166 208 250 296
#     4   8  14  25  43  68  97 131 166 202 244 290
#     4  10  20  37  56  73  96 132 173 203 238 298
#     4  10  20  32  50  77 106 132 164 206 249 296
#
# _framework density 17.730701
#
# number of rings (size 3 to 8) (size 9 to 14) (size 15 to 20)
#    0.000    3.000    1.429    1.714    2.000    0.571 
#    0.000    2.143    0.000    6.857    0.000    2.000 
#    0.000    0.000    0.000    0.000    0.000    0.000 
#
# Total GULP energy -346923.278336 kJ/mol
# GULP energy per Si atom -12390.117083 kJ/mol
# Density = 1.769035 g / cm^3
# Si number density = 17.730701 Si / 1000 Ang^3
#
#
#
# Elastic Constant Matrix: (Units=GPa)
#
#
# Indices 1 2 3 4 5 6 
#
# 1 78.0406 54.1598 29.1512 0.0000 -21.8786 0.0000
# 2 54.1598 152.9999 66.4838 0.0000 -14.8814 0.0000
# 3 29.1512 66.4838 85.4281 0.0000 -26.3902 0.0000
# 4 0.0000 0.0000 0.0000 21.0767 0.0000 -12.5800
# 5 -21.8786 -14.8814 -26.3902 0.0000 22.8589 0.0000
# 6 0.0000 0.0000 0.0000 -12.5800 0.0000 15.7587
#
#
#
# Elastic Compliance Matrix: (Units=1/GPa)
#
#
# Indices 1 2 3 4 5 6 
#
# 1 0.023023 -0.008464 0.005962 0.000000 0.023409 0.000000
# 2 -0.008464 0.013204 -0.011245 0.000000 -0.012487 0.000000
# 3 0.005962 -0.011245 0.027860 0.000000 0.030549 0.000000
# 4 0.000000 0.000000 0.000000 0.090627 0.000000 0.072347
# 5 0.023409 -0.012487 0.030549 0.000000 0.093290 0.000000
# 6 0.000000 0.000000 0.000000 0.072347 0.000000 0.121211
#
#
# Mechanical properties :
#
#
# Convention : Reuss Voigt Hill
#
# Bulk Modulus (GPa) = 27.32777 68.45091 47.88934
# Shear Modulus (GPa) = 12.22769 23.05045 17.63907
#
# Velocity S-wave (km/s) = 2.62894 3.60950 3.15752
# Velocity P-wave (km/s) = 4.96601 7.48739 6.35304
#
# Compressibility (1/GPa) = 0.03659282
#
# Stress axis : x y z
#
# Youngs Moduli (GPa) = 43.43450 75.73575 35.89375
#
# Poissons Ratio (x) = 0.64100 -0.21399
# Poissons Ratio (y) = 0.36761 0.40363
# Poissons Ratio (z) = -0.25894 0.85166
#
# Static dielectric constant tensor:
#      x y z
#    x 3.002600 0.000000 -0.331010 
#    y 0.000000 3.725460 0.000000 
#    z -0.331010 0.000000 3.084220 
# 
# 
# High freq. dielectric constant tensor:
#      x y z
#    x 1.650700 0.000000 -0.024620 
#    y 0.000000 1.703070 0.000000 
#    z -0.024620 0.000000 1.661720 
# 
# From -- ./inp_files/84234.got.cif
#   From: 2010.06.25/outbox.cif.g09.slc.cpg/sg10_43_cif.got.tgz:84234.got - 2010.06.27 22:07:45.
