data_PCOD8063343
_publ_section_title
;
Structure prediction by ZEFSAII (Michael W. Deem and Ramdas Pophale) SiO2 
 PCOD8063343
Probable space group: P 2/M
;
_chemical_formula_sum "Si O2"
_cell_formula_units_Z 32
_cell_length_a 26.091220
_cell_length_b 13.420604
_cell_length_c 9.912703
_cell_angle_alpha 90.000000
_cell_angle_beta 28.398888
_cell_angle_gamma 90.000000
_cell_volume 1650.847307
_symmetry_space_group_name_H-M "P 2/M"
_symmetry_group_IT_number 10
_symmetry_cell_setting 'monoclinic'
loop_
_space_group_symop_operation_xyz
x,y,z
-x,y,-z
-x,-y,-z
x,-y,z
loop_
_atom_site_type_symbol
_atom_site_label
_atom_site_fract_x
_atom_site_fract_y
_atom_site_fract_z
Si Si1 0.971543 0.612629 0.712260
Si Si2 0.291044 0.111251 0.127761
Si Si3 0.422866 0.385249 0.305479
Si Si4 0.216562 0.751077 0.768275
Si Si5 0.700717 0.114858 0.197267
Si Si6 0.506533 0.241198 0.330563
Si Si7 0.897219 0.394358 0.334024
Si Si8 0.869867 0.810407 0.301885
O O1 0.929609 0.500000 0.791165
O O2 0.000000 0.657679 0.500000
O O3 0.073295 0.617559 0.576488
O O4 0.879413 0.674622 0.995237
O O5 0.183976 0.113625 0.468455
O O6 0.340782 0.000000 0.022706
O O7 0.256491 0.131527 0.053429
O O8 0.378424 0.192579 0.972918
O O9 0.389155 0.500000 0.417169
O O10 0.322414 0.315149 0.501164
O O11 0.485025 0.338269 0.289562
O O12 0.500000 0.383604 0.000000
O O13 0.222145 0.822124 0.884491
O O14 0.185730 0.823547 0.714834
O O15 0.579199 0.153453 0.495093
O O16 0.703855 0.000000 0.233638
O O17 0.500000 0.277841 0.500000
O O18 0.833295 0.500000 0.464948
O O19 0.829846 0.299032 0.445133
O O20 0.000000 0.399235 0.000000
O O21 0.000000 0.824378 0.000000
#
# Coordination Sequence:
#
# PCOD8063343 Si02
#       8
#     4   4   4   4   4   4   4   4
#     4  10  20  33  53  79 107 142 183 225 268 315
#     4  10  21  38  60  82 107 141 183 228 278 331
#     4  10  21  36  55  83 117 149 179 214 266 330
#     4  11  21  35  57  80 112 148 183 226 275 324
#     4   9  20  37  59  84 107 137 179 228 281 334
#     4   9  18  37  62  85 109 138 177 227 275 325
#     4   9  17  33  53  74 103 139 183 226 262 308
#     4  11  22  36  54  80 111 148 189 229 270 317
#
# _framework density 19.383986
#
# number of rings (size 3 to 8) (size 9 to 14) (size 15 to 20)
#    0.000    2.125    2.500    1.500    1.750    3.000 
#    0.000    0.625    0.000    6.000    0.000    0.000 
#    0.000    0.000    0.000    0.000    0.000    0.000 
#
# Total GULP energy -396637.558109 kJ/mol
# GULP energy per Si atom -12394.923691 kJ/mol
# Density = 1.933987 g / cm^3
# Si number density = 19.383986 Si / 1000 Ang^3
#
#
#
# Elastic Constant Matrix: (Units=GPa)
#
#
# Indices 1 2 3 4 5 6 
#
# 1 111.9345 36.0016 31.5886 0.0000 9.3288 0.0000
# 2 36.0016 76.7078 23.3182 0.0000 2.1971 0.0000
# 3 31.5886 23.3182 76.5037 0.0000 8.7010 0.0000
# 4 0.0000 0.0000 0.0000 19.1339 0.0000 7.3182
# 5 9.3288 2.1971 8.7010 0.0000 27.0116 0.0000
# 6 0.0000 0.0000 0.0000 7.3182 0.0000 23.3958
#
#
#
# Elastic Compliance Matrix: (Units=1/GPa)
#
#
# Indices 1 2 3 4 5 6 
#
# 1 0.011421 -0.004345 -0.003097 0.000000 -0.002594 0.000000
# 2 -0.004345 0.016022 -0.003230 0.000000 0.001238 0.000000
# 3 -0.003097 -0.003230 0.015760 0.000000 -0.003745 0.000000
# 4 0.000000 0.000000 0.000000 0.059366 0.000000 -0.018570
# 5 -0.002594 0.001238 -0.003745 0.000000 0.039022 0.000000
# 6 0.000000 0.000000 0.000000 -0.018570 0.000000 0.048551
#
#
# Mechanical properties :
#
#
# Convention : Reuss Voigt Hill
#
# Bulk Modulus (GPa) = 45.74501 49.66253 47.70377
# Shear Modulus (GPa) = 22.85472 25.52411 24.18941
#
# Velocity S-wave (km/s) = 3.43746 3.63266 3.53641
# Velocity P-wave (km/s) = 6.27737 6.57807 6.42948
#
# Compressibility (1/GPa) = 0.02186031
#
# Stress axis : x y z
#
# Youngs Moduli (GPa) = 87.55621 62.41358 63.45045
#
# Poissons Ratio (x) = 0.27117 0.19648
# Poissons Ratio (y) = 0.38041 0.20497
# Poissons Ratio (z) = 0.27113 0.20162
#
# Static dielectric constant tensor:
#      x y z
#    x 3.799770 0.000000 0.174820 
#    y 0.000000 3.754700 0.000000 
#    z 0.174820 0.000000 3.294540 
# 
# 
# High freq. dielectric constant tensor:
#      x y z
#    x 1.759690 0.000000 0.015760 
#    y 0.000000 1.755220 0.000000 
#    z 0.015760 0.000000 1.734940 
# 
# From -- ./inp_files/36362.got.cif
#   From: 2010.06.25/outbox.cif.g09.slc.cpg/sg10_19_cif.got.tgz:36362.got - 2010.06.27 22:07:45.
