data_PCOD8063012
_publ_section_title
;
Structure prediction by ZEFSAII (Michael W. Deem and Ramdas Pophale) SiO2 
 PCOD8063012
Probable space group: P 2/M
;
_chemical_formula_sum "Si O2"
_cell_formula_units_Z 18
_cell_length_a 5.074182
_cell_length_b 16.307901
_cell_length_c 12.463097
_cell_angle_alpha 90.000000
_cell_angle_beta 75.079016
_cell_angle_gamma 90.000000
_cell_volume 996.538084
_symmetry_space_group_name_H-M "P 2/M"
_symmetry_group_IT_number 10
_symmetry_cell_setting 'monoclinic'
loop_
_space_group_symop_operation_xyz
x,y,z
-x,y,-z
-x,-y,-z
x,-y,z
loop_
_atom_site_type_symbol
_atom_site_label
_atom_site_fract_x
_atom_site_fract_y
_atom_site_fract_z
Si Si1 0.582981 0.590960 0.868637
Si Si2 0.703238 0.000000 0.077206
Si Si3 0.856015 0.094395 0.622789
Si Si4 0.711144 0.139049 0.246399
Si Si5 0.084490 0.308421 0.868505
O O1 0.654524 0.500000 0.817007
O O2 0.328214 0.626820 0.830929
O O3 0.835466 0.652701 0.828193
O O4 0.500000 0.583680 0.000000
O O5 0.655292 0.918743 0.150923
O O6 0.500000 0.000000 0.000000
O O7 0.000000 0.000000 0.000000
O O8 0.583521 0.148912 0.666013
O O9 0.000000 0.126768 0.500000
O O10 0.065225 0.100111 0.699091
O O11 0.763558 0.000000 0.619759
O O12 0.825160 0.225175 0.195851
O O13 0.000000 0.290852 0.000000
#
# Coordination Sequence:
#
# PCOD8063012 Si02
#       5
#     4   2   4   4   4
#     4   9  17  31  50  73 104 143 180 212 255 307
#     4  12  24  36  51  74 109 152 184 206 242 314
#     4  11  22  39  59  77  99 135 186 239 285 313
#     4  12  22  38  54  79 109 142 184 221 268 317
#     4  10  20  32  50  77 111 145 173 213 257 310
#
# _framework density 18.062532000000001
#
# number of rings (size 3 to 8) (size 9 to 14) (size 15 to 20)
#    0.000    1.333    2.222    4.667    0.000    7.111 
#    0.000    0.000    0.000    0.000    0.000    0.000 
#    0.000   62.222    0.000    0.000    0.000    0.000 
#
# Total GULP energy -223236.413190 kJ/mol
# GULP energy per Si atom -12402.022955 kJ/mol
# Density = 1.802142 g / cm^3
# Si number density = 18.062532 Si / 1000 Ang^3
#
#
#
# Elastic Constant Matrix: (Units=GPa)
#
#
# Indices 1 2 3 4 5 6 
#
# 1 135.5526 43.3259 34.7979 0.0000 -18.1406 0.0000
# 2 43.3259 123.5940 43.7375 0.0000 -17.1587 0.0000
# 3 34.7979 43.7375 62.2689 0.0000 -13.8573 0.0000
# 4 0.0000 0.0000 0.0000 2.8345 0.0000 -4.6156
# 5 -18.1406 -17.1587 -13.8573 0.0000 30.6753 0.0000
# 6 0.0000 0.0000 0.0000 -4.6156 0.0000 11.1151
#
#
#
# Elastic Compliance Matrix: (Units=1/GPa)
#
#
# Indices 1 2 3 4 5 6 
#
# 1 0.009146 -0.001619 -0.003304 0.000000 0.003010 0.000000
# 2 -0.001619 0.011291 -0.006485 0.000000 0.002429 0.000000
# 3 -0.003304 -0.006485 0.023590 0.000000 0.005075 0.000000
# 4 0.000000 0.000000 0.000000 1.089473 0.000000 0.452406
# 5 0.003010 0.002429 0.005075 0.000000 0.038031 0.000000
# 6 0.000000 0.000000 0.000000 0.452406 0.000000 0.277830
#
#
# Mechanical properties :
#
#
# Convention : Reuss Voigt Hill
#
# Bulk Modulus (GPa) = 47.14637 62.79311 54.96974
# Shear Modulus (GPa) = 3.38010 22.22858 12.80434
#
# Velocity S-wave (km/s) = 1.36945 3.51186 2.66539
# Velocity P-wave (km/s) = 5.35340 7.16128 6.32230
#
# Compressibility (1/GPa) = 0.02121054
#
# Stress axis : x y z
#
# Youngs Moduli (GPa) = 109.34134 88.56814 42.38997
#
# Poissons Ratio (x) = 0.14338 0.14005
# Poissons Ratio (y) = 0.17701 0.27492
# Poissons Ratio (z) = 0.36125 0.57440
#
# Static dielectric constant tensor:
#      x y z
#    x 3.670990 0.000000 -0.050500 
#    y 0.000000 3.360850 0.000000 
#    z -0.050500 0.000000 3.224400 
# 
# 
# High freq. dielectric constant tensor:
#      x y z
#    x 1.726410 0.000000 -0.003310 
#    y 0.000000 1.693740 0.000000 
#    z -0.003310 0.000000 1.662820 
# 
# From -- ./inp_files/6648.got.cif
#   From: 2010.06.25/outbox.cif.g09.slc.cpg/sg10_4_cif.got.tgz:6648.got - 2010.06.27 22:07:45.
