data_PCOD8063116
_publ_section_title
;
Structure prediction by ZEFSAII (Michael W. Deem and Ramdas Pophale) SiO2 
 PCOD8063116
Probable space group: P 2/M
;
_chemical_formula_sum "Si O2"
_cell_formula_units_Z 32
_cell_length_a 15.699946
_cell_length_b 9.117808
_cell_length_c 28.348433
_cell_angle_alpha 90.000000
_cell_angle_beta 26.979251
_cell_angle_gamma 90.000000
_cell_volume 1841.007750
_symmetry_space_group_name_H-M "P 2/M"
_symmetry_group_IT_number 10
_symmetry_cell_setting 'monoclinic'
loop_
_space_group_symop_operation_xyz
x,y,z
-x,y,-z
-x,-y,-z
x,-y,z
loop_
_atom_site_type_symbol
_atom_site_label
_atom_site_fract_x
_atom_site_fract_y
_atom_site_fract_z
Si Si1 0.788066 0.671464 0.613802
Si Si2 0.794595 0.325239 0.352938
Si Si3 0.517597 0.827947 0.814929
Si Si4 0.491694 0.325751 0.429538
Si Si5 0.212208 0.828672 0.888539
Si Si6 0.492413 0.673408 0.926397
Si Si7 0.481731 0.328130 0.688740
Si Si8 0.789927 0.326345 0.855061
O O1 0.782404 0.500000 0.629053
O O2 0.703128 0.757724 0.700138
O O3 0.668281 0.708235 0.626316
O O4 0.000000 0.724967 0.500000
O O5 0.804594 0.500000 0.348779
O O6 0.680318 0.272838 0.363138
O O7 0.689740 0.268726 0.451948
O O8 0.002535 0.255921 0.248611
O O9 0.333510 0.790656 0.874977
O O10 0.482781 0.760605 0.882945
O O11 0.551428 0.000000 0.802559
O O12 0.485975 0.500000 0.430843
O O13 0.487657 0.262322 0.378661
O O14 0.298742 0.747123 0.800913
O O15 0.215596 0.000000 0.875703
O O16 0.000000 0.771796 0.000000
O O17 0.490236 0.500000 0.917286
O O18 0.678863 0.721491 0.862873
O O19 0.314807 0.723612 0.045587
O O20 0.441135 0.500000 0.707433
O O21 0.799686 0.500000 0.850808
#
# Coordination Sequence:
#
# PCOD8063116 Si02
#       8
#     4   4   4   4   4   4   4   4
#     4   9  18  32  49  69  94 124 156 191 231 274
#     4   8  13  23  39  61  91 121 145 174 220 270
#     4  10  20  33  49  69  93 122 155 191 232 276
#     4   8  14  23  37  62  93 118 142 179 223 266
#     4   9  19  35  50  64  88 123 158 188 225 277
#     4   9  17  30  47  68  92 117 150 188 225 269
#     4   9  17  29  46  71  97 118 150 193 231 266
#     4   8  15  27  43  63  88 119 151 183 221 269
#
# _framework density 17.381785000000001
#
# number of rings (size 3 to 8) (size 9 to 14) (size 15 to 20)
#    0.000    3.250    0.000    1.875    0.000    3.000 
#    0.000    6.250    0.000    0.000    0.000    3.500 
#    0.000    0.000    0.000    0.000    0.000    0.000 
#
# Total GULP energy -396689.015639 kJ/mol
# GULP energy per Si atom -12396.531739 kJ/mol
# Density = 1.734222 g / cm^3
# Si number density = 17.381785 Si / 1000 Ang^3
#
#
#
# Elastic Constant Matrix: (Units=GPa)
#
#
# Indices 1 2 3 4 5 6 
#
# 1 119.6586 30.3418 94.8244 0.0000 17.7958 0.0000
# 2 30.3418 30.1446 35.0545 0.0000 5.2955 0.0000
# 3 94.8244 35.0545 168.3193 0.0000 -7.9729 0.0000
# 4 0.0000 0.0000 0.0000 10.4826 0.0000 -5.3422
# 5 17.7958 5.2955 -7.9729 0.0000 35.3043 0.0000
# 6 0.0000 0.0000 0.0000 -5.3422 0.0000 10.6396
#
#
#
# Elastic Compliance Matrix: (Units=1/GPa)
#
#
# Indices 1 2 3 4 5 6 
#
# 1 0.019900 -0.005708 -0.010570 0.000000 -0.011562 0.000000
# 2 -0.005708 0.048238 -0.007113 0.000000 -0.005965 0.000000
# 3 -0.010570 -0.007113 0.013828 0.000000 0.009518 0.000000
# 4 0.000000 0.000000 0.000000 0.128202 0.000000 0.064371
# 5 -0.011562 -0.005965 0.009518 0.000000 0.037197 0.000000
# 6 0.000000 0.000000 0.000000 0.064371 0.000000 0.126310
#
#
# Mechanical properties :
#
#
# Convention : Reuss Voigt Hill
#
# Bulk Modulus (GPa) = 28.42154 70.95155 49.68655
# Shear Modulus (GPa) = 11.56912 21.81210 16.69061
#
# Velocity S-wave (km/s) = 2.58270 3.54628 3.10213
# Velocity P-wave (km/s) = 5.02798 7.59448 6.44037
#
# Compressibility (1/GPa) = 0.03518458
#
# Stress axis : x y z
#
# Youngs Moduli (GPa) = 50.25091 20.73051 72.31704
#
# Poissons Ratio (x) = 0.11832 0.76438
# Poissons Ratio (y) = 0.28682 0.51441
# Poissons Ratio (z) = 0.53115 0.14746
#
# Static dielectric constant tensor:
#      x y z
#    x 3.382350 0.000000 -0.084930 
#    y 0.000000 2.807660 0.000000 
#    z -0.084930 0.000000 3.604600 
# 
# 
# High freq. dielectric constant tensor:
#      x y z
#    x 1.674370 0.000000 0.001040 
#    y 0.000000 1.626630 0.000000 
#    z 0.001040 0.000000 1.679910 
# 
# From -- ./inp_files/93112.got.cif
#   From: 2010.06.25/outbox.cif.g09.slc.cpg/sg10_47_cif.got.tgz:93112.got - 2010.06.27 22:07:45.
