data_PCOD8063192
_publ_section_title
;
Structure prediction by ZEFSAII (Michael W. Deem and Ramdas Pophale) SiO2 
 PCOD8063192
Probable space group: P 2/M
;
_chemical_formula_sum "Si O2"
_cell_formula_units_Z 28
_cell_length_a 28.827390
_cell_length_b 9.068711
_cell_length_c 8.982315
_cell_angle_alpha 90.000000
_cell_angle_beta 38.833221
_cell_angle_gamma 90.000000
_cell_volume 1472.465754
_symmetry_space_group_name_H-M "P 2/M"
_symmetry_group_IT_number 10
_symmetry_cell_setting 'monoclinic'
loop_
_space_group_symop_operation_xyz
x,y,z
-x,y,-z
-x,-y,-z
x,-y,z
loop_
_atom_site_type_symbol
_atom_site_label
_atom_site_fract_x
_atom_site_fract_y
_atom_site_fract_z
Si Si1 0.923977 0.831277 0.765360
Si Si2 0.500000 0.666622 0.322279
Si Si3 0.076023 0.168723 0.885245
Si Si4 0.644116 0.166278 0.962552
Si Si5 0.791184 0.327251 0.600176
Si Si6 0.791184 0.327251 0.943902
Si Si7 0.355884 0.166278 0.683132
O O1 0.859864 0.725798 0.868478
O O2 0.000000 0.780188 0.500000
O O3 0.905249 0.000000 0.768960
O O4 0.933081 0.811057 0.917297
O O5 0.500000 0.667861 0.500000
O O6 0.500000 0.500000 0.261698
O O7 0.427540 0.749168 0.440770
O O8 0.572460 0.749169 0.078471
O O9 0.140136 0.274201 0.667796
O O10 0.094751 0.000000 0.795205
O O11 0.000000 0.219812 0.000000
O O12 0.717809 0.247641 0.722071
O O13 0.643943 0.000000 0.900738
O O14 0.641597 0.167118 0.146008
O O15 0.779719 0.500000 0.607251
O O16 0.805629 0.286233 0.735929
O O17 0.779719 0.500000 0.994156
O O18 0.717808 0.247641 0.188886
O O19 0.356058 0.000000 0.620450
#
# Coordination Sequence:
#
# PCOD8063192 Si02
#       7
#     4   4   4   4   4   4   4
#     4  10  21  37  57  79 102 131 168 209 254 305
#     4   9  15  23  37  61  96 133 168 209 256 303
#     4  10  21  37  57  79 102 131 168 209 254 305
#     4   9  16  26  42  65  95 132 172 212 254 300
#     4  10  20  33  50  74 104 137 172 211 257 306
#     4  10  20  33  50  74 104 137 172 211 257 306
#     4   9  16  26  42  65  95 132 172 212 254 300
#
# _framework density 19.015723000000001
#
# number of rings (size 3 to 8) (size 9 to 14) (size 15 to 20)
#    0.000    2.429    0.000    3.000    0.000    9.143 
#    0.000    0.000    0.000    0.000    0.000    1.000 
#    0.000    8.000    0.000    0.000    0.000    0.000 
#
# Total GULP energy -347272.585139 kJ/mol
# GULP energy per Si atom -12402.592326 kJ/mol
# Density = 1.897244 g / cm^3
# Si number density = 19.015723 Si / 1000 Ang^3
#
#
#
# Elastic Constant Matrix: (Units=GPa)
#
#
# Indices 1 2 3 4 5 6 
#
# 1 72.6430 49.1545 53.8747 0.0000 -28.0621 0.0000
# 2 49.1545 135.0863 64.4430 0.0000 -26.8977 0.0000
# 3 53.8747 64.4430 109.8007 0.0000 -37.3113 0.0000
# 4 0.0000 0.0000 0.0000 28.9234 0.0000 -7.6541
# 5 -28.0621 -26.8977 -37.3113 0.0000 33.6322 0.0000
# 6 0.0000 0.0000 0.0000 -7.6541 0.0000 24.5732
#
#
#
# Elastic Compliance Matrix: (Units=1/GPa)
#
#
# Indices 1 2 3 4 5 6 
#
# 1 0.025471 -0.004032 -0.006429 0.000000 0.010896 0.000000
# 2 -0.004032 0.011047 -0.004248 0.000000 0.000759 0.000000
# 3 -0.006429 -0.004248 0.018904 0.000000 0.012211 0.000000
# 4 0.000000 0.000000 0.000000 0.037680 0.000000 0.011737
# 5 0.010896 0.000759 0.012211 0.000000 0.052979 0.000000
# 6 0.000000 0.000000 0.000000 0.011737 0.000000 0.044351
#
#
# Mechanical properties :
#
#
# Convention : Reuss Voigt Hill
#
# Bulk Modulus (GPa) = 38.45255 72.49716 55.47486
# Shear Modulus (GPa) = 21.88025 27.42959 24.65492
#
# Velocity S-wave (km/s) = 3.39579 3.80211 3.60468
# Velocity P-wave (km/s) = 5.96997 7.58171 6.82359
#
# Compressibility (1/GPa) = 0.02600608
#
# Stress axis : x y z
#
# Youngs Moduli (GPa) = 39.26018 90.52101 52.89867
#
# Poissons Ratio (x) = 0.36497 0.34007
# Poissons Ratio (y) = 0.15829 0.22469
# Poissons Ratio (z) = 0.25239 0.38449
#
# Static dielectric constant tensor:
#      x y z
#    x 3.222690 0.000000 -0.327010 
#    y 0.000000 3.601540 0.000000 
#    z -0.327010 0.000000 3.408560 
# 
# 
# High freq. dielectric constant tensor:
#      x y z
#    x 1.710890 0.000000 -0.034510 
#    y 0.000000 1.749810 0.000000 
#    z -0.034510 0.000000 1.730500 
# 
# From -- ./inp_files/37087.got.cif
#   From: 2010.06.25/outbox.cif.g09.slc.cpg/sg10_19_cif.got.tgz:37087.got - 2010.06.27 22:07:45.
