data_PCOD8063749
_publ_section_title
;
Structure prediction by ZEFSAII (Michael W. Deem and Ramdas Pophale) SiO2 
 PCOD8063749
Probable space group: P 2/M
;
_chemical_formula_sum "Si O2"
_cell_formula_units_Z 32
_cell_length_a 26.743531
_cell_length_b 8.946158
_cell_length_c 21.213658
_cell_angle_alpha 90.000000
_cell_angle_beta 160.742991
_cell_angle_gamma 90.000000
_cell_volume 1673.900359
_symmetry_space_group_name_H-M "P 2/M"
_symmetry_group_IT_number 10
_symmetry_cell_setting 'monoclinic'
loop_
_space_group_symop_operation_xyz
x,y,z
-x,y,-z
-x,-y,-z
x,-y,z
loop_
_atom_site_type_symbol
_atom_site_label
_atom_site_fract_x
_atom_site_fract_y
_atom_site_fract_z
Si Si1 0.540340 0.826252 0.480889
Si Si2 0.295646 0.821642 0.092228
Si Si3 0.648658 0.332440 0.096534
Si Si4 0.413542 0.824313 0.098557
Si Si5 0.875915 0.826058 0.901561
Si Si6 0.293926 0.330999 0.699603
Si Si7 0.046095 0.677565 0.876628
Si Si8 0.755871 0.176152 0.482639
O O1 0.500000 0.750494 0.500000
O O2 0.435865 0.760218 0.301281
O O3 0.716838 0.799129 0.676630
O O4 0.500540 0.000000 0.437771
O O5 0.331482 0.767581 0.064064
O O6 0.276611 0.000000 0.073287
O O7 0.142013 0.744079 0.932639
O O8 0.701738 0.500000 0.144540
O O9 0.683862 0.233472 0.077029
O O10 0.471733 0.327558 0.899618
O O11 0.736360 0.275783 0.264219
O O12 0.588683 0.769587 0.305314
O O13 0.414074 0.000000 0.095714
O O14 0.898597 0.000000 0.946365
O O15 0.880816 0.730823 0.970931
O O16 0.000000 0.768836 0.000000
O O17 0.232550 0.500000 0.617306
O O18 0.213167 0.221727 0.553520
O O19 0.045784 0.500000 0.873107
O O20 0.875204 0.739567 0.669177
O O21 0.777958 0.000000 0.516623
#
# Coordination Sequence:
#
# PCOD8063749 Si02
#       8
#     4   4   4   4   4   4   4   4
#     4   9  16  31  57  82 101 130 174 220 262 308
#     4  10  20  37  58  79 106 140 182 225 266 317
#     4   8  14  26  47  73 108 145 177 212 259 323
#     4   9  19  32  53  83 110 136 176 230 273 312
#     4  10  21  37  61  85 106 137 177 221 267 318
#     4   8  14  27  47  74 106 144 180 214 261 316
#     4  12  25  39  54  76 111 149 181 218 267 323
#     4  10  20  34  54  81 110 141 181 226 271 320
#
# _framework density 19.117028999999999
#
# number of rings (size 3 to 8) (size 9 to 14) (size 15 to 20)
#    0.000    2.500    1.250    2.250    1.750    1.750 
#    0.000    3.750    0.000    0.750    0.000    5.250 
#    0.000    0.000    0.000    0.000    0.000    0.000 
#
# Total GULP energy -396670.057548 kJ/mol
# GULP energy per Si atom -12395.939298 kJ/mol
# Density = 1.907352 g / cm^3
# Si number density = 19.117029 Si / 1000 Ang^3
#
#
#
# Elastic Constant Matrix: (Units=GPa)
#
#
# Indices 1 2 3 4 5 6 
#
# 1 117.2744 28.7679 12.6031 0.0000 0.0799 0.0000
# 2 28.7679 56.9726 14.4792 0.0000 -0.1746 0.0000
# 3 12.6031 14.4792 29.2236 0.0000 4.1596 0.0000
# 4 0.0000 0.0000 0.0000 19.8485 0.0000 -4.0426
# 5 0.0799 -0.1746 4.1596 0.0000 26.9995 0.0000
# 6 0.0000 0.0000 0.0000 -4.0426 0.0000 19.3755
#
#
#
# Elastic Compliance Matrix: (Units=1/GPa)
#
#
# Indices 1 2 3 4 5 6 
#
# 1 0.009839 -0.004438 -0.002082 0.000000 0.000263 0.000000
# 2 -0.004438 0.022160 -0.009291 0.000000 0.001588 0.000000
# 3 -0.002082 -0.009291 0.040618 0.000000 -0.006312 0.000000
# 4 0.000000 0.000000 0.000000 0.052618 0.000000 0.010978
# 5 0.000263 0.001588 -0.006312 0.000000 0.038020 0.000000
# 6 0.000000 0.000000 0.000000 0.010978 0.000000 0.053902
#
#
# Mechanical properties :
#
#
# Convention : Reuss Voigt Hill
#
# Bulk Modulus (GPa) = 24.39330 35.01899 29.70614
# Shear Modulus (GPa) = 19.05167 23.08606 21.06886
#
# Velocity S-wave (km/s) = 3.16029 3.47885 3.32339
# Velocity P-wave (km/s) = 5.10923 5.87320 5.50449
#
# Compressibility (1/GPa) = 0.04099487
#
# Stress axis : x y z
#
# Youngs Moduli (GPa) = 101.63320 45.12713 24.61935
#
# Poissons Ratio (x) = 0.20029 0.05125
# Poissons Ratio (y) = 0.45109 0.22874
# Poissons Ratio (z) = 0.21157 0.41928
#
# Static dielectric constant tensor:
#      x y z
#    x 3.751880 0.000000 -0.273000 
#    y 0.000000 3.271640 0.000000 
#    z -0.273000 0.000000 3.478100 
# 
# 
# High freq. dielectric constant tensor:
#      x y z
#    x 1.743860 0.000000 -0.017310 
#    y 0.000000 1.715580 0.000000 
#    z -0.017310 0.000000 1.729020 
# 
# From -- ./inp_files/86987.got.cif
#   From: 2010.06.25/outbox.cif.g09.slc.cpg/sg10_44_cif.got.tgz:86987.got - 2010.06.27 22:07:45.
