data_PCOD8063146
_publ_section_title
;
Structure prediction by ZEFSAII (Michael W. Deem and Ramdas Pophale) SiO2 
 PCOD8063146
Probable space group: P 2/M
;
_chemical_formula_sum "Si O2"
_cell_formula_units_Z 28
_cell_length_a 19.503654
_cell_length_b 9.157064
_cell_length_c 14.263839
_cell_angle_alpha 90.000000
_cell_angle_beta 32.536231
_cell_angle_gamma 90.000000
_cell_volume 1370.111658
_symmetry_space_group_name_H-M "P 2/M"
_symmetry_group_IT_number 10
_symmetry_cell_setting 'monoclinic'
loop_
_space_group_symop_operation_xyz
x,y,z
-x,y,-z
-x,-y,-z
x,-y,z
loop_
_atom_site_type_symbol
_atom_site_label
_atom_site_fract_x
_atom_site_fract_y
_atom_site_fract_z
Si Si1 0.031513 0.668894 0.355819
Si Si2 0.175864 0.165925 0.526343
Si Si3 0.772972 0.666017 0.105152
Si Si4 0.594724 0.333306 0.469896
Si Si5 0.566295 0.169415 0.694703
Si Si6 0.286613 0.171233 0.998930
Si Si7 0.996795 0.165452 0.109460
O O1 0.047224 0.500000 0.309862
O O2 0.000000 0.689465 0.500000
O O3 0.911885 0.733103 0.436579
O O4 0.166247 0.749204 0.183970
O O5 0.325631 0.215949 0.352912
O O6 0.137248 0.174391 0.681626
O O7 0.160712 0.000000 0.506713
O O8 0.771375 0.500000 0.071770
O O9 0.732609 0.678539 0.260557
O O10 0.684363 0.760694 0.137334
O O11 0.913381 0.731767 0.931350
O O12 0.500000 0.269751 0.500000
O O13 0.556526 0.500000 0.536758
O O14 0.595866 0.247037 0.563599
O O15 0.421318 0.199003 0.898948
O O16 0.583924 0.000000 0.652729
O O17 0.255275 0.000000 0.028133
O O18 0.050235 0.000000 0.047498
O O19 0.000000 0.226108 0.000000
#
# Coordination Sequence:
#
# PCOD8063146 Si02
#       7
#     4   4   4   4   4   4   4
#     4  11  25  45  69  95 120 152 198 252 312 374
#     4  10  21  39  62  91 125 160 201 251 305 361
#     4  11  21  33  52  79 116 159 207 255 295 346
#     4  10  20  33  49  77 120 169 214 252 294 347
#     4  10  22  38  59  89 124 163 205 249 300 358
#     4  11  22  38  62  90 119 155 198 244 301 361
#     4  10  20  34  54  81 118 161 204 249 299 354
#
# _framework density 20.436292000000002
#
# number of rings (size 3 to 8) (size 9 to 14) (size 15 to 20)
#    0.000    1.571    2.857    2.143    0.000    5.143 
#    0.000    0.714    0.000    4.286    0.000    0.000 
#    0.000    0.000    0.000    0.000    0.000    0.000 
#
# Total GULP energy -346966.897577 kJ/mol
# GULP energy per Si atom -12391.674913 kJ/mol
# Density = 2.038978 g / cm^3
# Si number density = 20.436292 Si / 1000 Ang^3
#
#
#
# Elastic Constant Matrix: (Units=GPa)
#
#
# Indices 1 2 3 4 5 6 
#
# 1 102.5615 54.9397 58.8763 0.0000 -23.7478 0.0000
# 2 54.9397 109.6360 57.5356 0.0000 -16.0883 0.0000
# 3 58.8763 57.5356 92.9047 0.0000 -25.5660 0.0000
# 4 0.0000 0.0000 0.0000 14.8757 0.0000 4.9117
# 5 -23.7478 -16.0883 -25.5660 0.0000 37.9864 0.0000
# 6 0.0000 0.0000 0.0000 4.9117 0.0000 25.1788
#
#
#
# Elastic Compliance Matrix: (Units=1/GPa)
#
#
# Indices 1 2 3 4 5 6 
#
# 1 0.016999 -0.004230 -0.007022 0.000000 0.004109 0.000000
# 2 -0.004230 0.014566 -0.006590 0.000000 -0.000911 0.000000
# 3 -0.007022 -0.006590 0.021256 0.000000 0.007125 0.000000
# 4 0.000000 0.000000 0.000000 0.071851 0.000000 -0.014016
# 5 0.004109 -0.000911 0.007125 0.000000 0.033303 0.000000
# 6 0.000000 0.000000 0.000000 -0.014016 0.000000 0.042450
#
#
# Mechanical properties :
#
#
# Convention : Reuss Voigt Hill
#
# Bulk Modulus (GPa) = 58.35999 71.97838 65.16919
# Shear Modulus (GPa) = 20.67630 24.52488 22.60059
#
# Velocity S-wave (km/s) = 3.18424 3.46795 3.32912
# Velocity P-wave (km/s) = 6.49140 7.16470 6.83634
#
# Compressibility (1/GPa) = 0.01713503
#
# Stress axis : x y z
#
# Youngs Moduli (GPa) = 58.82742 68.65404 47.04585
#
# Poissons Ratio (x) = 0.29042 0.33036
# Poissons Ratio (y) = 0.24885 0.31005
# Poissons Ratio (z) = 0.41309 0.45246
#
# Static dielectric constant tensor:
#      x y z
#    x 3.640990 0.000000 -0.274000 
#    y 0.000000 3.691950 0.000000 
#    z -0.274000 0.000000 3.814920 
# 
# 
# High freq. dielectric constant tensor:
#      x y z
#    x 1.782480 0.000000 -0.022280 
#    y 0.000000 1.797110 0.000000 
#    z -0.022280 0.000000 1.800360 
# 
# From -- ./inp_files/70193.got.cif
#   From: 2010.06.25/outbox.cif.g09.slc.cpg/sg10_36_cif.got.tgz:70193.got - 2010.06.27 22:07:45.
