data_PCOD8063554
_publ_section_title
;
Structure prediction by ZEFSAII (Michael W. Deem and Ramdas Pophale) SiO2 
 PCOD8063554
Probable space group: P 2/M
;
_chemical_formula_sum "Si O2"
_cell_formula_units_Z 24
_cell_length_a 12.603114
_cell_length_b 9.159551
_cell_length_c 11.666610
_cell_angle_alpha 90.000000
_cell_angle_beta 89.118419
_cell_angle_gamma 90.000000
_cell_volume 1346.620804
_symmetry_space_group_name_H-M "P 2/M"
_symmetry_group_IT_number 10
_symmetry_cell_setting 'monoclinic'
loop_
_space_group_symop_operation_xyz
x,y,z
-x,y,-z
-x,-y,-z
x,-y,z
loop_
_atom_site_type_symbol
_atom_site_label
_atom_site_fract_x
_atom_site_fract_y
_atom_site_fract_z
Si Si1 0.780935 0.831375 0.268469
Si Si2 0.172602 0.673885 0.263727
Si Si3 0.395213 0.672609 0.857352
Si Si4 0.630511 0.672901 0.886680
Si Si5 0.990433 0.168907 0.132685
Si Si6 0.877170 0.828908 0.509252
O O1 0.675503 0.742702 0.240562
O O2 0.821148 0.783299 0.392453
O O3 0.871131 0.796749 0.173467
O O4 0.750618 0.000000 0.268039
O O5 0.170418 0.500000 0.269311
O O6 0.274512 0.734453 0.192626
O O7 0.067347 0.729357 0.203703
O O8 0.180350 0.738007 0.390786
O O9 0.384063 0.500000 0.848618
O O10 0.517244 0.722435 0.836546
O O11 0.356898 0.729553 0.982979
O O12 0.634076 0.500000 0.889944
O O13 0.019496 0.000000 0.156540
O O14 0.000000 0.209654 0.000000
O O15 0.000000 0.784149 0.500000
O O16 0.866104 0.000000 0.535931
#
# Coordination Sequence:
#
# PCOD8063554 Si02
#       6
#     4   4   4   4   4   4
#     4  10  20  34  52  76 104 133 172 219 259 301
#     4  11  21  33  53  80 107 131 173 224 260 301
#     4   9  17  34  58  77 102 140 175 204 255 318
#     4   8  17  34  54  78 107 139 168 207 261 313
#     4  10  20  34  52  75 106 141 171 205 261 323
#     4  10  20  38  56  69 100 147 180 208 258 314
#
# _framework density 17.822388
#
# number of rings (size 3 to 8) (size 9 to 14) (size 15 to 20)
#    0.000    2.333    1.667    2.500    0.000    2.000 
#    0.000    5.000    0.000    5.000    0.000    0.000 
#    0.000    0.000    0.000    0.000    0.000    0.000 
#
# Total GULP energy -297622.396150 kJ/mol
# GULP energy per Si atom -12400.933173 kJ/mol
# Density = 1.778182 g / cm^3
# Si number density = 17.822388 Si / 1000 Ang^3
#
#
#
# Elastic Constant Matrix: (Units=GPa)
#
#
# Indices 1 2 3 4 5 6 
#
# 1 82.5218 25.9668 33.4656 0.0000 21.4751 0.0000
# 2 25.9668 40.4596 29.7926 0.0000 8.1405 0.0000
# 3 33.4656 29.7926 93.2121 0.0000 15.2791 0.0000
# 4 0.0000 0.0000 0.0000 29.4466 0.0000 2.8856
# 5 21.4751 8.1405 15.2791 0.0000 32.8644 0.0000
# 6 0.0000 0.0000 0.0000 2.8856 0.0000 20.3445
#
#
#
# Elastic Compliance Matrix: (Units=1/GPa)
#
#
# Indices 1 2 3 4 5 6 
#
# 1 0.017832 -0.007902 -0.002476 0.000000 -0.008544 0.000000
# 2 -0.007902 0.036195 -0.008777 0.000000 0.000279 0.000000
# 3 -0.002476 -0.008777 0.014939 0.000000 -0.003154 0.000000
# 4 0.000000 0.000000 0.000000 0.034438 0.000000 -0.004885
# 5 -0.008544 0.000279 -0.003154 0.000000 0.037408 0.000000
# 6 0.000000 0.000000 0.000000 -0.004885 0.000000 0.049846
#
#
# Mechanical properties :
#
#
# Convention : Reuss Voigt Hill
#
# Bulk Modulus (GPa) = 32.62085 43.84931 38.23508
# Shear Modulus (GPa) = 20.90402 24.99565 22.94984
#
# Velocity S-wave (km/s) = 3.42849 3.74904 3.59234
# Velocity P-wave (km/s) = 5.83230 6.58766 6.22146
#
# Compressibility (1/GPa) = 0.03065524
#
# Stress axis : x y z
#
# Youngs Moduli (GPa) = 56.07863 27.62832 66.93685
#
# Poissons Ratio (x) = 0.21833 0.16573
# Poissons Ratio (y) = 0.44316 0.58752
# Poissons Ratio (z) = 0.13885 0.24250
#
# Static dielectric constant tensor:
#      x y z
#    x 3.402440 0.000000 -0.134660 
#    y 0.000000 3.057360 0.000000 
#    z -0.134660 0.000000 3.463770 
# 
# 
# High freq. dielectric constant tensor:
#      x y z
#    x 1.690590 0.000000 0.001080 
#    y 0.000000 1.670370 0.000000 
#    z 0.001080 0.000000 1.693610 
# 
# From -- ./inp_files/45118.got.cif
#   From: 2010.06.25/outbox.cif.g09.slc.cpg/sg10_23_cif.got.tgz:45118.got - 2010.06.27 22:07:45.
