data_PCOD8063994
_publ_section_title
;
Structure prediction by ZEFSAII (Michael W. Deem and Ramdas Pophale) SiO2 
 PCOD8063994
Probable space group: P 2/M
;
_chemical_formula_sum "Si O2"
_cell_formula_units_Z 22
_cell_length_a 10.838827
_cell_length_b 9.380936
_cell_length_c 11.339537
_cell_angle_alpha 90.000000
_cell_angle_beta 70.879178
_cell_angle_gamma 90.000000
_cell_volume 1089.375050
_symmetry_space_group_name_H-M "P 2/M"
_symmetry_group_IT_number 10
_symmetry_cell_setting 'monoclinic'
loop_
_space_group_symop_operation_xyz
x,y,z
-x,y,-z
-x,-y,-z
x,-y,z
loop_
_atom_site_type_symbol
_atom_site_label
_atom_site_fract_x
_atom_site_fract_y
_atom_site_fract_z
Si Si1 0.722153 0.657000 0.090679
Si Si2 0.820767 0.834882 0.261118
Si Si3 0.500000 0.755182 0.000000
Si Si4 0.296362 0.160465 0.247239
Si Si5 0.623931 0.835353 0.525985
Si Si6 0.912116 0.334594 0.821435
O O1 0.732981 0.500000 0.144973
O O2 0.721563 0.777383 0.191736
O O3 0.590261 0.658423 0.055148
O O4 0.847418 0.684374 0.969249
O O5 0.754063 0.815018 0.408588
O O6 0.949759 0.741765 0.218084
O O7 0.852028 0.000000 0.225334
O O8 0.407685 0.849948 0.112247
O O9 0.353129 0.228261 0.350684
O O10 0.176977 0.261176 0.249444
O O11 0.243026 0.000000 0.284514
O O12 0.500000 0.760496 0.500000
O O13 0.588147 0.000000 0.554813
O O14 0.929672 0.500000 0.782684
#
# Coordination Sequence:
#
# PCOD8063994 Si02
#       6
#     4   4   2   4   4   4
#     4  10  21  37  57  81 113 151 185 223 277 333
#     4  11  22  36  58  84 110 145 188 231 274 323
#     4  10  20  34  60  88 112 142 184 230 276 324
#     4  10  20  36  59  85 113 144 185 232 274 324
#     4   9  19  36  56  81 114 147 178 221 279 333
#     4  10  22  39  57  80 113 149 184 227 281 333
#
# _framework density 20.195065
#
# number of rings (size 3 to 8) (size 9 to 14) (size 15 to 20)
#    0.000    2.000    0.000    3.273    0.000    9.455 
#    0.000    5.455    0.000    3.818    0.000    0.000 
#    0.000    0.000    0.000    0.000    0.000    0.000 
#
# Total GULP energy -272794.794829 kJ/mol
# GULP energy per Si atom -12399.763401 kJ/mol
# Density = 2.014910 g / cm^3
# Si number density = 20.195065 Si / 1000 Ang^3
#
#
#
# Elastic Constant Matrix: (Units=GPa)
#
#
# Indices 1 2 3 4 5 6 
#
# 1 111.4723 43.1888 39.1197 0.0000 11.1323 0.0000
# 2 43.1888 109.4980 37.7422 0.0000 8.2609 0.0000
# 3 39.1197 37.7422 86.8397 0.0000 23.3761 0.0000
# 4 0.0000 0.0000 0.0000 13.2902 0.0000 7.8800
# 5 11.1323 8.2609 23.3761 0.0000 33.4856 0.0000
# 6 0.0000 0.0000 0.0000 7.8800 0.0000 20.2754
#
#
#
# Elastic Compliance Matrix: (Units=1/GPa)
#
#
# Indices 1 2 3 4 5 6 
#
# 1 0.011569 -0.003264 -0.003663 0.000000 -0.000484 0.000000
# 2 -0.003264 0.011678 -0.003844 0.000000 0.000888 0.000000
# 3 -0.003663 -0.003844 0.017551 0.000000 -0.010086 0.000000
# 4 0.000000 0.000000 0.000000 0.097774 0.000000 -0.038000
# 5 -0.000484 0.000888 -0.010086 0.000000 0.036847 0.000000
# 6 0.000000 0.000000 0.000000 -0.038000 0.000000 0.064089
#
#
# Mechanical properties :
#
#
# Convention : Reuss Voigt Hill
#
# Bulk Modulus (GPa) = 51.93005 60.87904 56.40455
# Shear Modulus (GPa) = 18.69372 25.92753 22.31063
#
# Velocity S-wave (km/s) = 3.04576 3.58698 3.32739
# Velocity P-wave (km/s) = 6.17567 6.88231 6.53854
#
# Compressibility (1/GPa) = 0.01925667
#
# Stress axis : x y z
#
# Youngs Moduli (GPa) = 86.43609 85.63058 56.97580
#
# Poissons Ratio (x) = 0.27951 0.20869
# Poissons Ratio (y) = 0.28214 0.21902
# Poissons Ratio (z) = 0.31660 0.32916
#
# Static dielectric constant tensor:
#      x y z
#    x 3.777550 0.000000 0.161460 
#    y 0.000000 3.469180 0.000000 
#    z 0.161460 0.000000 3.716290 
# 
# 
# High freq. dielectric constant tensor:
#      x y z
#    x 1.799480 0.000000 0.005790 
#    y 0.000000 1.771530 0.000000 
#    z 0.005790 0.000000 1.785860 
# 
# From -- ./inp_files/45035.got.cif
#   From: 2010.06.25/outbox.cif.g09.slc.cpg/sg10_23_cif.got.tgz:45035.got - 2010.06.27 22:07:45.
