data_PCOD8063327
_publ_section_title
;
Structure prediction by ZEFSAII (Michael W. Deem and Ramdas Pophale) SiO2 
 PCOD8063327
Probable space group: P 2/M
;
_chemical_formula_sum "Si O2"
_cell_formula_units_Z 32
_cell_length_a 16.369815
_cell_length_b 8.988770
_cell_length_c 24.589262
_cell_angle_alpha 90.000000
_cell_angle_beta 152.379761
_cell_angle_gamma 90.000000
_cell_volume 1677.418527
_symmetry_space_group_name_H-M "P 2/M"
_symmetry_group_IT_number 10
_symmetry_cell_setting 'monoclinic'
loop_
_space_group_symop_operation_xyz
x,y,z
-x,y,-z
-x,-y,-z
x,-y,z
loop_
_atom_site_type_symbol
_atom_site_label
_atom_site_fract_x
_atom_site_fract_y
_atom_site_fract_z
Si Si1 0.040984 0.323968 0.305356
Si Si2 0.168862 0.170676 0.488089
Si Si3 0.308261 0.676859 0.369526
Si Si4 0.693382 0.826470 0.128997
Si Si5 0.794638 0.167044 0.310838
Si Si6 0.608101 0.673505 0.295553
Si Si7 0.853011 0.323064 0.836630
Si Si8 0.775228 0.325225 0.909439
O O1 0.026387 0.500000 0.300892
O O2 0.137339 0.264037 0.415536
O O3 0.158068 0.272642 0.323343
O O4 0.843551 0.258412 0.183202
O O5 0.334861 0.237170 0.617319
O O6 0.005028 0.183262 0.433005
O O7 0.201724 0.000000 0.491002
O O8 0.500000 0.741414 0.500000
O O9 0.319545 0.500000 0.374462
O O10 0.252373 0.742750 0.277462
O O11 0.716910 0.794933 0.206313
O O12 0.713286 0.000000 0.127037
O O13 0.500000 0.765862 0.000000
O O14 0.717711 0.284750 0.307246
O O15 0.741893 0.000000 0.297870
O O16 0.633432 0.500000 0.322391
O O17 0.403882 0.716062 0.164784
O O18 0.846594 0.500000 0.827942
O O19 0.767091 0.264896 0.842354
O O20 0.056941 0.264944 0.957522
O O21 0.800118 0.500000 0.918659
#
# Coordination Sequence:
#
# PCOD8063327 Si02
#       8
#     4   4   4   4   4   4   4   4
#     4  10  20  33  52  82 110 134 174 227 278 315
#     4  10  21  37  54  70 100 144 179 207 254 323
#     4   9  18  29  47  76 109 143 174 215 271 327
#     4   9  19  37  58  76 102 146 189 217 256 324
#     4   9  19  35  51  70  99 137 177 209 250 314
#     4  11  21  30  49  81 106 126 167 222 269 307
#     4   8  14  29  47  65 101 142 172 200 250 318
#     4   8  16  28  45  71 100 135 170 208 254 308
#
# _framework density 19.076933
#
# number of rings (size 3 to 8) (size 9 to 14) (size 15 to 20)
#    0.000    2.750    0.000    3.000    1.750    5.250 
#    0.000    1.250    0.000    1.500    0.000    7.000 
#    0.000    0.000    0.000    0.000    0.000    0.000 
#
# Total GULP energy -396684.634660 kJ/mol
# GULP energy per Si atom -12396.394833 kJ/mol
# Density = 1.903351 g / cm^3
# Si number density = 19.076933 Si / 1000 Ang^3
#
#
#
# Elastic Constant Matrix: (Units=GPa)
#
#
# Indices 1 2 3 4 5 6 
#
# 1 87.4055 23.8742 48.9011 0.0000 -0.0947 0.0000
# 2 23.8742 44.0064 26.5605 0.0000 6.9565 0.0000
# 3 48.9011 26.5605 135.5339 0.0000 -1.2419 0.0000
# 4 0.0000 0.0000 0.0000 19.0891 0.0000 -5.1539
# 5 -0.0947 6.9565 -1.2419 0.0000 20.3483 0.0000
# 6 0.0000 0.0000 0.0000 -5.1539 0.0000 4.7785
#
#
#
# Elastic Compliance Matrix: (Units=1/GPa)
#
#
# Indices 1 2 3 4 5 6 
#
# 1 0.015571 -0.006085 -0.004409 0.000000 0.001884 0.000000
# 2 -0.006085 0.029962 -0.003773 0.000000 -0.010502 0.000000
# 3 -0.004409 -0.003773 0.009725 0.000000 0.001863 0.000000
# 4 0.000000 0.000000 0.000000 0.073909 0.000000 0.079716
# 5 0.001884 -0.010502 0.001863 0.000000 0.052857 0.000000
# 6 0.000000 0.000000 0.000000 0.079716 0.000000 0.295250
#
#
# Mechanical properties :
#
#
# Convention : Reuss Voigt Hill
#
# Bulk Modulus (GPa) = 37.41504 51.73525 44.57514
# Shear Modulus (GPa) = 9.71411 20.01718 14.86565
#
# Velocity S-wave (km/s) = 2.25901 3.24278 2.79453
# Velocity P-wave (km/s) = 5.14388 6.41865 5.81629
#
# Compressibility (1/GPa) = 0.02672722
#
# Stress axis : x y z
#
# Youngs Moduli (GPa) = 64.22021 33.37555 102.82552
#
# Poissons Ratio (x) = 0.20308 0.45331
# Poissons Ratio (y) = 0.39076 0.38791
# Poissons Ratio (z) = 0.28312 0.12591
#
# Static dielectric constant tensor:
#      x y z
#    x 3.448580 0.000000 0.035870 
#    y 0.000000 3.111430 0.000000 
#    z 0.035870 0.000000 3.806650 
# 
# 
# High freq. dielectric constant tensor:
#      x y z
#    x 1.738250 0.000000 0.001860 
#    y 0.000000 1.701840 0.000000 
#    z 0.001860 0.000000 1.753340 
# 
# From -- ./inp_files/89638.got.cif
#   From: 2010.06.25/outbox.cif.g09.slc.cpg/sg10_45_cif.got.tgz:89638.got - 2010.06.27 22:07:45.
