data_PCOD8063075
_publ_section_title
;
Structure prediction by ZEFSAII (Michael W. Deem and Ramdas Pophale) SiO2 
 PCOD8063075
Probable space group: P 2/M
;
_chemical_formula_sum "Si O2"
_cell_formula_units_Z 32
_cell_length_a 14.815403
_cell_length_b 9.101913
_cell_length_c 14.669705
_cell_angle_alpha 90.000000
_cell_angle_beta 119.107482
_cell_angle_gamma 90.000000
_cell_volume 1728.359948
_symmetry_space_group_name_H-M "P 2/M"
_symmetry_group_IT_number 10
_symmetry_cell_setting 'monoclinic'
loop_
_space_group_symop_operation_xyz
x,y,z
-x,y,-z
-x,-y,-z
x,-y,z
loop_
_atom_site_type_symbol
_atom_site_label
_atom_site_fract_x
_atom_site_fract_y
_atom_site_fract_z
Si Si1 0.069057 0.174064 0.787016
Si Si2 0.495296 0.324528 0.600783
Si Si3 0.288517 0.330179 0.223961
Si Si4 0.145066 0.329133 0.325155
Si Si5 0.381967 0.169472 0.937896
Si Si6 0.223841 0.325664 0.735825
Si Si7 0.723077 0.326223 0.439878
Si Si8 0.772071 0.167529 0.982139
O O1 0.121342 0.249853 0.725017
O O2 0.953920 0.230366 0.742779
O O3 0.072270 0.000000 0.773873
O O4 0.132229 0.219995 0.908459
O O5 0.500000 0.264199 0.500000
O O6 0.496959 0.500000 0.599398
O O7 0.595582 0.266586 0.705368
O O8 0.391949 0.262388 0.598386
O O9 0.294075 0.500000 0.203038
O O10 0.225982 0.300842 0.285059
O O11 0.229476 0.256854 0.111407
O O12 0.113008 0.500000 0.315429
O O13 0.197127 0.272358 0.444016
O O14 0.326080 0.273103 0.838012
O O15 0.369198 0.000000 0.900732
O O16 0.500000 0.219102 0.000000
O O17 0.333790 0.192111 0.014224
O O18 0.213262 0.500000 0.739712
O O19 0.234530 0.274152 0.636600
O O20 0.714367 0.500000 0.440782
O O21 0.787116 0.000000 0.961462
#
# Coordination Sequence:
#
# PCOD8063075 Si02
#       8
#     4   4   4   4   4   4   4   4
#     4  10  22  41  59  75 103 146 185 224 275 328
#     4   9  15  29  52  78 112 147 174 208 260 323
#     4  10  20  32  55  86 111 139 178 223 266 313
#     4  10  20  36  57  82 109 141 180 224 272 321
#     4   9  19  36  54  74 107 150 187 219 265 324
#     4  10  20  34  55  83 110 138 178 229 273 316
#     4   9  18  32  52  81 115 145 174 213 272 329
#     4   9  20  37  54  73 104 144 181 219 270 323
#
# _framework density 18.514661
#
# number of rings (size 3 to 8) (size 9 to 14) (size 15 to 20)
#    0.000    2.500    1.250    1.500    1.750    4.250 
#    0.000    6.250    0.000    1.125    0.000    0.000 
#    0.000    0.000    0.000    0.000    0.000    0.000 
#
# Total GULP energy -396808.545282 kJ/mol
# GULP energy per Si atom -12400.267040 kJ/mol
# Density = 1.847252 g / cm^3
# Si number density = 18.514661 Si / 1000 Ang^3
#
#
#
# Elastic Constant Matrix: (Units=GPa)
#
#
# Indices 1 2 3 4 5 6 
#
# 1 50.5565 29.3319 43.6281 0.0000 16.8315 0.0000
# 2 29.3319 47.6195 38.3966 0.0000 -1.9698 0.0000
# 3 43.6281 38.3966 118.6217 0.0000 -6.8515 0.0000
# 4 0.0000 0.0000 0.0000 0.6114 0.0000 3.1934
# 5 16.8315 -1.9698 -6.8515 0.0000 34.7025 0.0000
# 6 0.0000 0.0000 0.0000 3.1934 0.0000 24.1879
#
#
#
# Elastic Compliance Matrix: (Units=1/GPa)
#
#
# Indices 1 2 3 4 5 6 
#
# 1 0.058340 -0.024985 -0.015260 0.000000 -0.032727 0.000000
# 2 -0.024985 0.039118 -0.002675 0.000000 0.013810 0.000000
# 3 -0.015260 -0.002675 0.015504 0.000000 0.010311 0.000000
# 4 0.000000 0.000000 0.000000 5.268031 0.000000 -0.695514
# 5 -0.032727 0.013810 0.010311 0.000000 0.047509 0.000000
# 6 0.000000 0.000000 0.000000 -0.695514 0.000000 0.133168
#
#
# Mechanical properties :
#
#
# Convention : Reuss Voigt Hill
#
# Bulk Modulus (GPa) = 36.87015 48.83456 42.85235
# Shear Modulus (GPa) = 0.88393 18.92977 9.90685
#
# Velocity S-wave (km/s) = 0.69171 3.20100 2.31569
# Velocity P-wave (km/s) = 4.53819 6.33208 5.50865
#
# Compressibility (1/GPa) = 0.02712221
#
# Stress axis : x y z
#
# Youngs Moduli (GPa) = 17.14092 25.56383 64.49890
#
# Poissons Ratio (x) = 0.63870 0.98425
# Poissons Ratio (y) = 0.42826 0.17255
# Poissons Ratio (z) = 0.26157 0.06839
#
# Static dielectric constant tensor:
#      x y z
#    x 3.498070 0.000000 0.029840 
#    y 0.000000 3.115550 0.000000 
#    z 0.029840 0.000000 3.470220 
# 
# 
# High freq. dielectric constant tensor:
#      x y z
#    x 1.726530 0.000000 0.002110 
#    y 0.000000 1.689040 0.000000 
#    z 0.002110 0.000000 1.723250 
# 
# From -- ./inp_files/66517.got.cif
#   From: 2010.06.25/outbox.cif.g09.slc.cpg/sg10_34_cif.got.tgz:66517.got - 2010.06.27 22:07:45.
