data_PCOD8063231
_publ_section_title
;
Structure prediction by ZEFSAII (Michael W. Deem and Ramdas Pophale) SiO2 
 PCOD8063231
Probable space group: P 2/M
;
_chemical_formula_sum "Si O2"
_cell_formula_units_Z 28
_cell_length_a 7.979273
_cell_length_b 15.492674
_cell_length_c 17.715217
_cell_angle_alpha 90.000000
_cell_angle_beta 34.294113
_cell_angle_gamma 90.000000
_cell_volume 1233.913619
_symmetry_space_group_name_H-M "P 2/M"
_symmetry_group_IT_number 10
_symmetry_cell_setting 'monoclinic'
loop_
_space_group_symop_operation_xyz
x,y,z
-x,y,-z
-x,-y,-z
x,-y,z
loop_
_atom_site_type_symbol
_atom_site_label
_atom_site_fract_x
_atom_site_fract_y
_atom_site_fract_z
Si Si1 0.733833 0.403961 0.154138
Si Si2 0.955799 0.244090 0.332104
Si Si3 0.666258 0.094972 0.164583
Si Si4 0.061120 0.596302 0.390067
Si Si5 0.584442 0.820211 0.047525
Si Si6 0.010519 0.094407 0.580534
Si Si7 0.830122 0.753265 0.213192
O O1 0.810617 0.500000 0.156261
O O2 0.409523 0.404164 0.236945
O O3 0.696714 0.336912 0.235920
O O4 0.000000 0.372831 0.000000
O O5 0.902210 0.334013 0.395411
O O6 0.308237 0.227817 0.188578
O O7 0.822088 0.165137 0.431110
O O8 0.766520 0.242302 0.325961
O O9 0.784219 0.125773 0.036438
O O10 0.325049 0.084129 0.266735
O O11 0.688352 0.163414 0.224528
O O12 0.793334 0.000000 0.140071
O O13 0.930465 0.500000 0.423671
O O14 0.000000 0.621417 0.500000
O O15 0.500000 0.871908 0.000000
O O16 0.815460 0.748033 0.932897
O O17 0.000000 0.129968 0.500000
O O18 0.171554 0.000000 0.524972
#
# Coordination Sequence:
#
# PCOD8063231 Si02
#       7
#     4   4   4   4   4   4   4
#     4  10  20  36  59  82 105 139 181 223 268 317
#     4  10  20  34  54  77 105 141 176 215 265 322
#     4  10  20  33  51  75 104 139 175 214 267 323
#     4  10  21  38  59  81 107 142 183 224 267 321
#     4   9  19  34  52  76 106 141 180 220 259 306
#     4   9  18  35  56  73  94 131 179 224 261 308
#     4  11  21  33  51  78 112 140 170 218 267 318
#
# _framework density 22.692025000000001
#
# number of rings (size 3 to 8) (size 9 to 14) (size 15 to 20)
#    0.000    2.143    0.000    4.286    0.000    2.571 
#    0.000    5.714    0.000   10.286    0.000    0.000 
#    0.000    0.000    0.000    0.000    0.000    0.000 
#
# Total GULP energy -346908.699218 kJ/mol
# GULP energy per Si atom -12389.596401 kJ/mol
# Density = 2.264038 g / cm^3
# Si number density = 22.692025 Si / 1000 Ang^3
#
#
#
# Elastic Constant Matrix: (Units=GPa)
#
#
# Indices 1 2 3 4 5 6 
#
# 1 120.4431 86.0824 19.1927 0.0000 49.6234 0.0000
# 2 86.0824 181.8295 24.0424 0.0000 47.2620 0.0000
# 3 19.1927 24.0424 54.2675 0.0000 24.0781 0.0000
# 4 0.0000 0.0000 0.0000 18.6815 0.0000 5.1076
# 5 49.6234 47.2620 24.0781 0.0000 48.2320 0.0000
# 6 0.0000 0.0000 0.0000 5.1076 0.0000 9.7217
#
#
#
# Elastic Compliance Matrix: (Units=1/GPa)
#
#
# Indices 1 2 3 4 5 6 
#
# 1 0.017163 -0.004751 0.002317 0.000000 -0.014159 0.000000
# 2 -0.004751 0.008695 -0.000720 0.000000 -0.003272 0.000000
# 3 0.002317 -0.000720 0.023984 0.000000 -0.013652 0.000000
# 4 0.000000 0.000000 0.000000 0.062508 0.000000 -0.032841
# 5 -0.014159 -0.003272 -0.013652 0.000000 0.045322 0.000000
# 6 0.000000 0.000000 0.000000 -0.032841 0.000000 0.120117
#
#
# Mechanical properties :
#
#
# Convention : Reuss Voigt Hill
#
# Bulk Modulus (GPa) = 22.97086 68.35279 45.66183
# Shear Modulus (GPa) = 16.74439 30.47520 23.60980
#
# Velocity S-wave (km/s) = 2.71937 3.66866 3.22909
# Velocity P-wave (km/s) = 4.47268 6.93778 5.83685
#
# Compressibility (1/GPa) = 0.04353341
#
# Stress axis : x y z
#
# Youngs Moduli (GPa) = 58.26504 115.01139 41.69479
#
# Poissons Ratio (x) = 0.54648 -0.09662
# Poissons Ratio (y) = 0.27685 0.03002
# Poissons Ratio (z) = -0.13502 0.08279
#
# Static dielectric constant tensor:
#      x y z
#    x 4.006250 0.000000 0.060940 
#    y 0.000000 4.185400 0.000000 
#    z 0.060940 0.000000 4.293620 
# 
# 
# High freq. dielectric constant tensor:
#      x y z
#    x 1.871530 0.000000 -0.000850 
#    y 0.000000 1.889120 0.000000 
#    z -0.000850 0.000000 1.909760 
# 
# From -- ./inp_files/75285.got.cif
#   From: 2010.06.25/outbox.cif.g09.slc.cpg/sg10_38_cif.got.tgz:75285.got - 2010.06.27 22:07:45.
