data_PCOD8063155
_publ_section_title
;
Structure prediction by ZEFSAII (Michael W. Deem and Ramdas Pophale) SiO2 
 PCOD8063155
Probable space group: P 2/M
;
_chemical_formula_sum "Si O2"
_cell_formula_units_Z 28
_cell_length_a 27.071254
_cell_length_b 8.751012
_cell_length_c 9.663937
_cell_angle_alpha 90.000000
_cell_angle_beta 39.549581
_cell_angle_gamma 90.000000
_cell_volume 1457.762486
_symmetry_space_group_name_H-M "P 2/M"
_symmetry_group_IT_number 10
_symmetry_cell_setting 'monoclinic'
loop_
_space_group_symop_operation_xyz
x,y,z
-x,y,-z
-x,-y,-z
x,-y,z
loop_
_atom_site_type_symbol
_atom_site_label
_atom_site_fract_x
_atom_site_fract_y
_atom_site_fract_z
Si Si1 0.572686 0.820895 0.934176
Si Si2 0.912688 0.682128 0.709820
Si Si3 0.737806 0.318370 0.605926
Si Si4 0.688428 0.175286 0.267813
Si Si5 0.518514 0.179062 0.605740
Si Si6 0.784749 0.175251 0.795348
Si Si7 0.185372 0.677254 0.830457
O O1 0.653796 0.737182 0.732085
O O2 0.585002 0.000000 0.878321
O O3 0.500000 0.760162 0.000000
O O4 0.550645 0.785203 0.140108
O O5 0.906638 0.500000 0.715845
O O6 0.860491 0.747944 0.698926
O O7 0.000000 0.740211 0.500000
O O8 0.884489 0.745137 0.922821
O O9 0.735471 0.500000 0.619719
O O10 0.761640 0.253026 0.701817
O O11 0.802721 0.261179 0.352484
O O12 0.601557 0.235823 0.480520
O O13 0.736364 0.291047 0.256264
O O14 0.701001 0.000000 0.290238
O O15 0.711690 0.190309 0.056183
O O16 0.500000 0.260277 0.500000
O O17 0.528760 0.000000 0.559869
O O18 0.804687 0.000000 0.721692
O O19 0.170294 0.500000 0.851458
#
# Coordination Sequence:
#
# PCOD8063155 Si02
#       7
#     4   4   4   4   4   4   4
#     4  10  20  33  50  71  97 133 176 220 263 305
#     4   9  18  36  61  84 106 133 166 206 254 309
#     4  11  22  35  51  73 106 143 176 212 255 307
#     4   9  17  31  52  74  95 127 171 215 259 304
#     4   9  16  27  44  66  92 122 161 210 257 298
#     4  10  20  34  55  81 107 136 172 214 257 304
#     4   9  19  34  52  75 101 131 167 205 248 302
#
# _framework density 19.207519000000001
#
# number of rings (size 3 to 8) (size 9 to 14) (size 15 to 20)
#    0.000    2.429    0.000    2.571    0.000    5.714 
#    0.000    1.429    0.000    6.000    0.000    0.000 
#    0.000    0.000    0.000    0.000    0.000    0.000 
#
# Total GULP energy -346955.490913 kJ/mol
# GULP energy per Si atom -12391.267533 kJ/mol
# Density = 1.916380 g / cm^3
# Si number density = 19.207519 Si / 1000 Ang^3
#
#
#
# Elastic Constant Matrix: (Units=GPa)
#
#
# Indices 1 2 3 4 5 6 
#
# 1 68.0891 19.3002 35.6089 0.0000 3.7259 0.0000
# 2 19.3002 34.8099 25.4122 0.0000 0.4908 0.0000
# 3 35.6089 25.4122 98.9831 0.0000 -8.3219 0.0000
# 4 0.0000 0.0000 0.0000 17.8733 0.0000 -1.0646
# 5 3.7259 0.4908 -8.3219 0.0000 34.0284 0.0000
# 6 0.0000 0.0000 0.0000 -1.0646 0.0000 28.6854
#
#
#
# Elastic Compliance Matrix: (Units=1/GPa)
#
#
# Indices 1 2 3 4 5 6 
#
# 1 0.019754 -0.006774 -0.005657 0.000000 -0.003449 0.000000
# 2 -0.006774 0.037937 -0.007439 0.000000 -0.001625 0.000000
# 3 -0.005657 -0.007439 0.014405 0.000000 0.004250 0.000000
# 4 0.000000 0.000000 0.000000 0.056073 0.000000 0.002081
# 5 -0.003449 -0.001625 0.004250 0.000000 0.030828 0.000000
# 6 0.000000 0.000000 0.000000 0.002081 0.000000 0.034938
#
#
# Mechanical properties :
#
#
# Convention : Reuss Voigt Hill
#
# Bulk Modulus (GPa) = 30.90708 40.28051 35.59379
# Shear Modulus (GPa) = 20.45310 24.22148 22.33729
#
# Velocity S-wave (km/s) = 3.26674 3.55497 3.41390
# Velocity P-wave (km/s) = 5.50953 6.15363 5.84046
#
# Compressibility (1/GPa) = 0.03235505
#
# Stress axis : x y z
#
# Youngs Moduli (GPa) = 50.62234 26.35942 69.41943
#
# Poissons Ratio (x) = 0.17856 0.39273
# Poissons Ratio (y) = 0.34291 0.51644
# Poissons Ratio (z) = 0.28639 0.19610
#
# Static dielectric constant tensor:
#      x y z
#    x 3.445200 0.000000 0.168420 
#    y 0.000000 3.277430 0.000000 
#    z 0.168420 0.000000 3.991540 
# 
# 
# High freq. dielectric constant tensor:
#      x y z
#    x 1.735650 0.000000 0.013050 
#    y 0.000000 1.720240 0.000000 
#    z 0.013050 0.000000 1.761810 
# 
# From -- ./inp_files/37123.got.cif
#   From: 2010.06.25/outbox.cif.g09.slc.cpg/sg10_19_cif.got.tgz:37123.got - 2010.06.27 22:07:45.
