data_PCOD8063168
_publ_section_title
;
Structure prediction by ZEFSAII (Michael W. Deem and Ramdas Pophale) SiO2 
 PCOD8063168
Probable space group: P 2/M
;
_chemical_formula_sum "Si O2"
_cell_formula_units_Z 32
_cell_length_a 21.749230
_cell_length_b 9.271220
_cell_length_c 27.756422
_cell_angle_alpha 90.000000
_cell_angle_beta 18.946398
_cell_angle_gamma 90.000000
_cell_volume 1817.207022
_symmetry_space_group_name_H-M "P 2/M"
_symmetry_group_IT_number 10
_symmetry_cell_setting 'monoclinic'
loop_
_space_group_symop_operation_xyz
x,y,z
-x,y,-z
-x,-y,-z
x,-y,z
loop_
_atom_site_type_symbol
_atom_site_label
_atom_site_fract_x
_atom_site_fract_y
_atom_site_fract_z
Si Si1 0.486807 0.336339 0.307331
Si Si2 0.526896 0.668350 0.926055
Si Si3 0.213844 0.667441 0.833392
Si Si4 0.518960 0.168675 0.186579
Si Si5 0.787363 0.831957 0.665285
Si Si6 0.220303 0.667606 0.075286
Si Si7 0.787441 0.333226 0.404784
Si Si8 0.493370 0.831980 0.561416
O O1 0.488394 0.500000 0.286529
O O2 0.672561 0.306095 0.201519
O O3 0.482745 0.226426 0.266572
O O4 0.300006 0.307322 0.477598
O O5 0.572901 0.500000 0.891219
O O6 0.707171 0.748893 0.770698
O O7 0.500000 0.725465 0.000000
O O8 0.338481 0.705702 0.035563
O O9 0.221260 0.500000 0.812850
O O10 0.305381 0.758155 0.722254
O O11 0.000000 0.720690 0.000000
O O12 0.333667 0.205070 0.292479
O O13 0.559748 0.000000 0.158940
O O14 0.702841 0.243634 0.027203
O O15 0.000000 0.777022 0.500000
O O16 0.780956 0.000000 0.682170
O O17 0.237879 0.500000 0.049126
O O18 0.005575 0.713351 0.244718
O O19 0.761080 0.500000 0.409370
O O20 0.682665 0.236445 0.443150
O O21 0.500000 0.803980 0.500000
O O22 0.487783 0.000000 0.578473
#
# Coordination Sequence:
#
# PCOD8063168 Si02
#       8
#     4   4   4   4   4   4   4   4
#     4   9  18  33  52  75 101 127 160 203 246 288
#     4   9  18  32  51  76 102 127 160 203 249 295
#     4   9  19  36  56  76  98 129 170 207 240 289
#     4  10  20  33  50  73 100 131 166 202 243 293
#     4   9  19  35  51  69  97 132 169 205 240 286
#     4   9  18  34  53  73 100 131 163 203 247 289
#     4   9  19  35  54  74  97 130 169 204 241 290
#     4  10  21  35  51  75 105 132 161 202 250 295
#
# _framework density 17.609441
#
# number of rings (size 3 to 8) (size 9 to 14) (size 15 to 20)
#    0.000    2.750    0.000    1.500    0.000    6.750 
#    0.000    5.000    0.000    0.000    0.000    0.000 
#    0.000    0.000    0.000    0.000    0.000    0.000 
#
# Total GULP energy -396885.864219 kJ/mol
# GULP energy per Si atom -12402.683257 kJ/mol
# Density = 1.756936 g / cm^3
# Si number density = 17.609441 Si / 1000 Ang^3
#
#
#
# Elastic Constant Matrix: (Units=GPa)
#
#
# Indices 1 2 3 4 5 6 
#
# 1 100.6037 57.7050 72.6752 0.0000 18.6107 0.0000
# 2 57.7050 75.9643 64.5084 0.0000 10.2925 0.0000
# 3 72.6752 64.5084 174.6071 0.0000 -2.3151 0.0000
# 4 0.0000 0.0000 0.0000 -12.0767 0.0000 -11.1267
# 5 18.6107 10.2925 -2.3151 0.0000 22.1118 0.0000
# 6 0.0000 0.0000 0.0000 -11.1267 0.0000 20.8643
#
#
#
# Elastic Compliance Matrix: (Units=1/GPa)
#
#
# Indices 1 2 3 4 5 6 
#
# 1 0.022965 -0.010357 -0.005933 0.000000 -0.015129 0.000000
# 2 -0.010357 0.026175 -0.005413 0.000000 -0.004033 0.000000
# 3 -0.005933 -0.005413 0.010310 0.000000 0.008592 0.000000
# 4 0.000000 0.000000 0.000000 -0.055523 0.000000 -0.029610
# 5 -0.015129 -0.004033 0.008592 0.000000 0.060736 0.000000
# 6 0.000000 0.000000 0.000000 -0.029610 0.000000 0.032138
#
#
# Mechanical properties :
#
#
# Convention : Reuss Voigt Hill
#
# Bulk Modulus (GPa) = 62.32633 82.32804 72.32719
# Shear Modulus (GPa) = 34.35138 16.59897 25.47517
#
# Velocity S-wave (km/s) = 4.42151 3.07354 3.80765
# Velocity P-wave (km/s) = 7.84454 7.71033 7.77773
#
# Compressibility (1/GPa) = 0.01604458
#
# Stress axis : x y z
#
# Youngs Moduli (GPa) = 43.54384 38.20473 96.99154
#
# Poissons Ratio (x) = 0.39570 0.57543
# Poissons Ratio (y) = 0.45100 0.52500
# Poissons Ratio (z) = 0.25834 0.20679
#
# Static dielectric constant tensor:
#      x y z
#    x 3.190300 0.000000 -0.042980 
#    y 0.000000 3.241770 0.000000 
#    z -0.042980 0.000000 3.427440 
# 
# 
# High freq. dielectric constant tensor:
#      x y z
#    x 1.676210 0.000000 0.001370 
#    y 0.000000 1.679740 0.000000 
#    z 0.001370 0.000000 1.686670 
# 
# From -- ./inp_files/93570.got.cif
#   From: 2010.06.25/outbox.cif.g09.slc.cpg/sg10_47_cif.got.tgz:93570.got - 2010.06.27 22:07:45.
