data_PCOD8063263
_publ_section_title
;
Structure prediction by ZEFSAII (Michael W. Deem and Ramdas Pophale) SiO2 
 PCOD8063263
Probable space group: P 2/M
;
_chemical_formula_sum "Si O2"
_cell_formula_units_Z 32
_cell_length_a 14.611319
_cell_length_b 9.017832
_cell_length_c 23.512866
_cell_angle_alpha 90.000000
_cell_angle_beta 31.488257
_cell_angle_gamma 90.000000
_cell_volume 1618.217704
_symmetry_space_group_name_H-M "P 2/M"
_symmetry_group_IT_number 10
_symmetry_cell_setting 'monoclinic'
loop_
_space_group_symop_operation_xyz
x,y,z
-x,y,-z
-x,-y,-z
x,-y,z
loop_
_atom_site_type_symbol
_atom_site_label
_atom_site_fract_x
_atom_site_fract_y
_atom_site_fract_z
Si Si1 0.427644 0.824895 0.098534
Si Si2 0.798590 0.174035 0.098448
Si Si3 0.934620 0.841488 0.677224
Si Si4 0.301013 0.336634 0.626037
Si Si5 0.608568 0.827976 0.315543
Si Si6 0.187038 0.162945 0.380706
Si Si7 0.480516 0.677420 0.831104
Si Si8 0.745551 0.672597 0.471196
O O1 0.219638 0.791405 0.198716
O O2 0.507784 0.735659 0.110074
O O3 0.465334 0.000000 0.087583
O O4 0.500000 0.766511 0.000000
O O5 0.705940 0.213360 0.206646
O O6 0.702231 0.264134 0.099221
O O7 0.786371 0.000000 0.090351
O O8 0.000000 0.223938 0.000000
O O9 0.822872 0.866513 0.680220
O O10 0.082495 0.719688 0.585618
O O11 0.020052 0.000000 0.650419
O O12 0.500000 0.345395 0.500000
O O13 0.235441 0.500000 0.679111
O O14 0.274599 0.228175 0.693102
O O15 0.203547 0.279526 0.620749
O O16 0.419745 0.752752 0.414429
O O17 0.579977 0.000000 0.338982
O O18 0.358887 0.267471 0.295834
O O19 0.000000 0.233756 0.500000
O O20 0.215570 0.000000 0.395948
O O21 0.482309 0.500000 0.830525
O O22 0.707272 0.500000 0.495965
#
# Coordination Sequence:
#
# PCOD8063263 Si02
#       8
#     4   4   4   4   4   4   4   4
#     4   9  19  40  66  87 113 154 198 239 286 341
#     4  10  23  44  64  82 111 153 203 251 295 349
#     4   9  18  32  52  83 113 142 186 234 273 322
#     4   8  16  32  50  71 105 146 178 211 270 341
#     4  10  20  34  57  82 103 138 189 243 288 330
#     4   9  19  36  58  83 116 156 195 234 280 340
#     4  11  23  38  60  91 123 154 190 241 302 355
#     4  10  20  33  51  78 116 154 179 216 283 352
#
# _framework density 19.774840999999999
#
# number of rings (size 3 to 8) (size 9 to 14) (size 15 to 20)
#    0.000    2.500    0.000    3.375    1.750    6.500 
#    2.250    0.000    0.000    0.000    0.000    0.000 
#    0.000    0.000    0.000    0.000    0.000    0.000 
#
# Total GULP energy -396427.834605 kJ/mol
# GULP energy per Si atom -12388.369831 kJ/mol
# Density = 1.972983 g / cm^3
# Si number density = 19.774841 Si / 1000 Ang^3
#
#
#
# Elastic Constant Matrix: (Units=GPa)
#
#
# Indices 1 2 3 4 5 6 
#
# 1 84.1844 54.9322 50.5715 0.0000 -7.6372 0.0000
# 2 54.9322 98.5177 55.1966 0.0000 0.3509 0.0000
# 3 50.5715 55.1966 122.1836 0.0000 -4.1294 0.0000
# 4 0.0000 0.0000 0.0000 9.9419 0.0000 3.0987
# 5 -7.6372 0.3509 -4.1294 0.0000 28.3191 0.0000
# 6 0.0000 0.0000 0.0000 3.0987 0.0000 24.6079
#
#
#
# Elastic Compliance Matrix: (Units=1/GPa)
#
#
# Indices 1 2 3 4 5 6 
#
# 1 0.021021 -0.009322 -0.004315 0.000000 0.005155 0.000000
# 2 -0.009322 0.017756 -0.004277 0.000000 -0.003358 0.000000
# 3 -0.004315 -0.004277 0.011924 0.000000 0.000628 0.000000
# 4 0.000000 0.000000 0.000000 0.104693 0.000000 -0.013183
# 5 0.005155 -0.003358 0.000628 0.000000 0.036835 0.000000
# 6 0.000000 0.000000 0.000000 -0.013183 0.000000 0.042297
#
#
# Mechanical properties :
#
#
# Convention : Reuss Voigt Hill
#
# Bulk Modulus (GPa) = 67.23238 69.58738 68.40988
# Shear Modulus (GPa) = 18.16114 22.18614 20.17364
#
# Velocity S-wave (km/s) = 3.03379 3.35317 3.19747
# Velocity P-wave (km/s) = 6.80769 7.08928 6.94991
#
# Compressibility (1/GPa) = 0.01487379
#
# Stress axis : x y z
#
# Youngs Moduli (GPa) = 47.57045 56.31824 83.86682
#
# Poissons Ratio (x) = 0.52499 0.36191
# Poissons Ratio (y) = 0.44345 0.35866
# Poissons Ratio (z) = 0.20528 0.24085
#
# Static dielectric constant tensor:
#      x y z
#    x 4.322930 0.000000 0.087510 
#    y 0.000000 3.532740 0.000000 
#    z 0.087510 0.000000 3.602930 
# 
# 
# High freq. dielectric constant tensor:
#      x y z
#    x 1.767350 0.000000 0.004490 
#    y 0.000000 1.761110 0.000000 
#    z 0.004490 0.000000 1.760780 
# 
# From -- ./inp_files/89491.got.cif
#   From: 2010.06.25/outbox.cif.g09.slc.cpg/sg10_45_cif.got.tgz:89491.got - 2010.06.27 22:07:45.
