data_PCOD8063706
_publ_section_title
;
Structure prediction by ZEFSAII (Michael W. Deem and Ramdas Pophale) SiO2 
 PCOD8063706
Probable space group: P 2/M
;
_chemical_formula_sum "Si O2"
_cell_formula_units_Z 24
_cell_length_a 10.002323
_cell_length_b 15.473815
_cell_length_c 17.207075
_cell_angle_alpha 90.000000
_cell_angle_beta 152.572653
_cell_angle_gamma 90.000000
_cell_volume 1226.736821
_symmetry_space_group_name_H-M "P 2/M"
_symmetry_group_IT_number 10
_symmetry_cell_setting 'monoclinic'
loop_
_space_group_symop_operation_xyz
x,y,z
-x,y,-z
-x,-y,-z
x,-y,z
loop_
_atom_site_type_symbol
_atom_site_label
_atom_site_fract_x
_atom_site_fract_y
_atom_site_fract_z
Si Si1 0.169414 0.909839 0.509312
Si Si2 0.736763 0.399995 0.058321
Si Si3 0.232769 0.724952 0.551092
Si Si4 0.840327 0.733406 0.661028
Si Si5 0.666767 0.402579 0.846957
Si Si6 0.163258 0.903050 0.816154
O O1 0.364721 0.823240 0.613751
O O2 0.000000 0.920138 0.500000
O O3 0.916116 0.900527 0.315168
O O4 0.349585 0.000000 0.587306
O O5 0.829783 0.500000 0.114577
O O6 0.022277 0.341946 0.215846
O O7 0.500000 0.373138 0.000000
O O8 0.603039 0.382222 0.904296
O O9 0.092005 0.707526 0.393972
O O10 0.492154 0.659940 0.700313
O O11 0.000000 0.716040 0.500000
O O12 0.500000 0.737641 0.500000
O O13 0.974001 0.826149 0.757388
O O14 0.568906 0.500000 0.776787
O O15 0.000000 0.388620 0.000000
O O16 0.096730 0.000000 0.816347
O O17 0.500000 0.880187 0.000000
#
# Coordination Sequence:
#
# PCOD8063706 Si02
#       6
#     4   4   4   4   4   4
#     4   8  15  29  49  74 101 128 164 208 251 294
#     4  10  21  37  56  77 103 138 178 219 261 308
#     4  10  20  34  54  78 101 135 177 213 253 303
#     4  11  22  34  52  80 111 139 169 215 269 313
#     4  10  21  37  55  75 103 138 172 211 262 313
#     4   9  18  33  53  76 103 138 177 213 252 305
#
# _framework density 19.564098000000001
#
# number of rings (size 3 to 8) (size 9 to 14) (size 15 to 20)
#    0.000    2.333    0.000    2.500    0.000    4.333 
#    0.000    0.000    0.000    0.500    0.000    0.000 
#    0.000    0.000    0.000    0.000    0.000    0.000 
#
# Total GULP energy -297351.874169 kJ/mol
# GULP energy per Si atom -12389.661424 kJ/mol
# Density = 1.951957 g / cm^3
# Si number density = 19.564098 Si / 1000 Ang^3
#
#
#
# Elastic Constant Matrix: (Units=GPa)
#
#
# Indices 1 2 3 4 5 6 
#
# 1 51.2610 13.9185 6.7447 0.0000 0.6291 0.0000
# 2 13.9185 158.5275 80.0963 0.0000 -4.9433 0.0000
# 3 6.7447 80.0963 80.5626 0.0000 5.4424 0.0000
# 4 0.0000 0.0000 0.0000 27.9365 0.0000 -6.1820
# 5 0.6291 -4.9433 5.4424 0.0000 22.0523 0.0000
# 6 0.0000 0.0000 0.0000 -6.1820 0.0000 15.0859
#
#
#
# Elastic Compliance Matrix: (Units=1/GPa)
#
#
# Indices 1 2 3 4 5 6 
#
# 1 0.020010 -0.001974 0.000362 0.000000 -0.001103 0.000000
# 2 -0.001974 0.013717 -0.013916 0.000000 0.006566 0.000000
# 3 0.000362 -0.013916 0.026877 0.000000 -0.009763 0.000000
# 4 0.000000 0.000000 0.000000 0.039365 0.000000 0.016131
# 5 -0.001103 0.006566 -0.009763 0.000000 0.049260 0.000000
# 6 0.000000 0.000000 0.000000 0.016131 0.000000 0.072897
#
#
# Mechanical properties :
#
#
# Convention : Reuss Voigt Hill
#
# Bulk Modulus (GPa) = 33.84308 54.65223 44.24765
# Shear Modulus (GPa) = 19.00905 25.65437 22.33171
#
# Velocity S-wave (km/s) = 3.12048 3.62511 3.38222
# Velocity P-wave (km/s) = 5.50630 6.74667 6.15779
#
# Compressibility (1/GPa) = 0.02954814
#
# Stress axis : x y z
#
# Youngs Moduli (GPa) = 49.97513 72.90093 37.20586
#
# Poissons Ratio (x) = 0.14391 -0.01347
# Poissons Ratio (y) = 0.09866 0.51776
# Poissons Ratio (z) = -0.01809 1.01450
#
# Static dielectric constant tensor:
#      x y z
#    x 3.561380 0.000000 -0.249110 
#    y 0.000000 4.281280 0.000000 
#    z -0.249110 0.000000 3.206510 
# 
# 
# High freq. dielectric constant tensor:
#      x y z
#    x 1.753400 0.000000 -0.020150 
#    y 0.000000 1.787820 0.000000 
#    z -0.020150 0.000000 1.734580 
# 
# From -- ./inp_files/29292.got.cif
#   From: 2010.06.25/outbox.cif.g09.slc.cpg/sg10_15_cif.got.tgz:29292.got - 2010.06.27 22:07:45.
