data_PCOD8063173
_publ_section_title
;
Structure prediction by ZEFSAII (Michael W. Deem and Ramdas Pophale) SiO2 
 PCOD8063173
Probable space group: P 2/M
;
_chemical_formula_sum "Si O2"
_cell_formula_units_Z 32
_cell_length_a 24.061670
_cell_length_b 9.045844
_cell_length_c 9.429306
_cell_angle_alpha 90.000000
_cell_angle_beta 66.928432
_cell_angle_gamma 90.000000
_cell_volume 1888.208747
_symmetry_space_group_name_H-M "P 2/M"
_symmetry_group_IT_number 10
_symmetry_cell_setting 'monoclinic'
loop_
_space_group_symop_operation_xyz
x,y,z
-x,y,-z
-x,-y,-z
x,-y,z
loop_
_atom_site_type_symbol
_atom_site_label
_atom_site_fract_x
_atom_site_fract_y
_atom_site_fract_z
Si Si1 0.000000 0.824167 0.160534
Si Si2 0.334642 0.166956 0.821563
Si Si3 0.114530 0.826925 0.549320
Si Si4 0.236125 0.668255 0.431227
Si Si5 0.569685 0.325308 0.430314
Si Si6 0.885469 0.826925 0.778381
Si Si7 0.334641 0.833044 0.509158
Si Si8 0.763874 0.668255 0.903475
O O1 0.940845 0.766263 0.301573
O O2 0.059156 0.766264 0.183261
O O3 0.000000 0.000000 0.162332
O O4 0.000000 0.762800 0.000000
O O5 0.398469 0.255087 0.742062
O O6 0.303070 0.165558 0.696932
O O7 0.347157 0.000000 0.861674
O O8 0.292611 0.247704 0.975065
O O9 0.174040 0.743304 0.543291
O O10 0.099918 0.791929 0.400082
O O11 0.125506 0.000000 0.561828
O O12 0.236048 0.500000 0.484576
O O13 0.292610 0.752295 0.439718
O O14 0.242880 0.679633 0.257121
O O15 0.500000 0.280036 0.500000
O O16 0.579058 0.500000 0.420942
O O17 0.601531 0.255086 0.538999
O O18 0.825960 0.743303 0.891370
O O19 0.874493 0.000000 0.812840
O O20 0.347156 0.000000 0.444015
O O21 0.763951 0.500000 0.956670
#
# Coordination Sequence:
#
# PCOD8063173 Si02
#       8
#     4   4   4   4   4   4   4   4
#     4   9  17  29  46  69  92 118 156 207 256 299
#     4   9  19  32  50  76 102 133 170 207 247 291
#     4   9  17  30  48  67  90 123 162 202 248 305
#     4  10  20  33  50  73 101 133 168 209 259 308
#     4   9  17  31  53  79 107 138 169 202 243 291
#     4   9  17  30  48  67  90 123 162 202 248 305
#     4   9  19  32  50  76 102 133 170 207 247 291
#     4  10  20  33  50  73 101 133 168 209 259 308
#
# _framework density 16.947278000000001
#
# number of rings (size 3 to 8) (size 9 to 14) (size 15 to 20)
#    0.750    2.000    0.000    1.875    0.000    5.000 
#    0.000    3.125    0.000    4.500    0.000    5.250 
#    0.000    0.000    0.000    0.000    0.000    0.000 
#
# Total GULP energy -396655.280166 kJ/mol
# GULP energy per Si atom -12395.477505 kJ/mol
# Density = 1.690871 g / cm^3
# Si number density = 16.947278 Si / 1000 Ang^3
#
#
#
# Elastic Constant Matrix: (Units=GPa)
#
#
# Indices 1 2 3 4 5 6 
#
# 1 148.7725 68.1954 49.3280 0.0000 -15.4357 0.0000
# 2 68.1954 104.4701 36.4984 0.0000 -13.0285 0.0000
# 3 49.3280 36.4984 62.7226 0.0000 -19.9340 0.0000
# 4 0.0000 0.0000 0.0000 21.9907 0.0000 0.1900
# 5 -15.4357 -13.0285 -19.9340 0.0000 29.0974 0.0000
# 6 0.0000 0.0000 0.0000 0.1900 0.0000 21.5283
#
#
#
# Elastic Compliance Matrix: (Units=1/GPa)
#
#
# Indices 1 2 3 4 5 6 
#
# 1 0.010964 -0.005210 -0.005732 0.000000 -0.000443 0.000000
# 2 -0.005210 0.014503 -0.004035 0.000000 0.000966 0.000000
# 3 -0.005732 -0.004035 0.027176 0.000000 0.013770 0.000000
# 4 0.000000 0.000000 0.000000 0.045477 0.000000 -0.000401
# 5 -0.000443 0.000966 0.013770 0.000000 0.043998 0.000000
# 6 0.000000 0.000000 0.000000 -0.000401 0.000000 0.046454
#
#
# Mechanical properties :
#
#
# Convention : Reuss Voigt Hill
#
# Bulk Modulus (GPa) = 44.07505 69.33431 56.70468
# Shear Modulus (GPa) = 22.11511 25.31952 23.71731
#
# Velocity S-wave (km/s) = 3.61631 3.86944 3.74502
# Velocity P-wave (km/s) = 6.59549 7.80795 7.22719
#
# Compressibility (1/GPa) = 0.02268857
#
# Stress axis : x y z
#
# Youngs Moduli (GPa) = 91.20380 68.95010 36.79781
#
# Poissons Ratio (x) = 0.35923 0.21093
# Poissons Ratio (y) = 0.47517 0.14849
# Poissons Ratio (z) = 0.52279 0.27823
#
# Static dielectric constant tensor:
#      x y z
#    x 3.094620 0.000000 -0.026370 
#    y 0.000000 3.169530 0.000000 
#    z -0.026370 0.000000 3.030470 
# 
# 
# High freq. dielectric constant tensor:
#      x y z
#    x 1.647100 0.000000 -0.004740 
#    y 0.000000 1.653300 0.000000 
#    z -0.004740 0.000000 1.635580 
# 
# From -- ./inp_files/36597.got.cif
#   From: 2010.06.25/outbox.cif.g09.slc.cpg/sg10_19_cif.got.tgz:36597.got - 2010.06.27 22:07:45.
