data_PCOD8063019
_publ_section_title
;
Structure prediction by ZEFSAII (Michael W. Deem and Ramdas Pophale) SiO2 
 PCOD8063019
Probable space group: P 2/M
;
_chemical_formula_sum "Si O2"
_cell_formula_units_Z 32
_cell_length_a 15.256452
_cell_length_b 20.332940
_cell_length_c 15.795330
_cell_angle_alpha 90.000000
_cell_angle_beta 18.649049
_cell_angle_gamma 90.000000
_cell_volume 1566.826424
_symmetry_space_group_name_H-M "P 2/M"
_symmetry_group_IT_number 10
_symmetry_cell_setting 'monoclinic'
loop_
_space_group_symop_operation_xyz
x,y,z
-x,y,-z
-x,-y,-z
x,-y,z
loop_
_atom_site_type_symbol
_atom_site_label
_atom_site_fract_x
_atom_site_fract_y
_atom_site_fract_z
Si Si1 0.003597 0.903692 0.093472
Si Si2 0.925036 0.236955 0.916340
Si Si3 0.467233 0.578447 0.193101
Si Si4 0.948165 0.576119 0.284139
Si Si5 0.672097 0.785544 0.597857
Si Si6 0.400136 0.928926 0.392200
Si Si7 0.191098 0.358862 0.754716
Si Si8 0.692110 0.703903 0.751145
O O1 0.744210 0.929529 0.383709
O O2 0.982993 0.825542 0.114464
O O3 0.000000 0.929041 0.000000
O O4 0.275630 0.927917 0.890888
O O5 0.070415 0.241550 0.691295
O O6 0.017029 0.294827 0.892514
O O7 0.599420 0.238314 0.201937
O O8 0.469178 0.500000 0.164939
O O9 0.221406 0.597885 0.479584
O O10 0.418801 0.628864 0.160804
O O11 0.743138 0.602285 0.988079
O O12 0.968042 0.500000 0.262039
O O13 0.790084 0.596949 0.345212
O O14 0.687777 0.866107 0.585425
O O15 0.677548 0.753948 0.685510
O O16 0.331697 0.000000 0.410555
O O17 0.500000 0.343356 0.500000
O O18 0.000000 0.395041 0.000000
O O19 0.000000 0.699308 0.500000
O O20 0.500000 0.734777 0.000000
#
# Coordination Sequence:
#
# PCOD8063019 Si02
#       8
#     4   4   4   4   4   4   4   4
#     4  10  20  32  50  78 112 144 180 231 278 313
#     4  10  20  36  55  75 105 148 190 220 267 328
#     4  10  21  39  61  83 111 147 181 213 261 334
#     4  10  21  38  57  76 105 148 190 223 266 324
#     4  10  21  39  59  78 108 145 181 222 266 333
#     4  10  21  35  54  78 105 147 190 223 266 319
#     4  12  23  33  51  78 108 142 188 243 280 306
#     4  12  24  38  61  90 116 138 169 220 278 330
#
# _framework density 20.423449999999999
#
# number of rings (size 3 to 8) (size 9 to 14) (size 15 to 20)
#    0.000    1.500    0.000    5.625    0.000    4.500 
#    0.000    0.000    0.000    0.750    0.000    0.000 
#    0.000    0.000    0.000    0.000    0.000    0.000 
#
# Total GULP energy -396636.133900 kJ/mol
# GULP energy per Si atom -12394.879184 kJ/mol
# Density = 2.037697 g / cm^3
# Si number density = 20.423450 Si / 1000 Ang^3
#
#
#
# Elastic Constant Matrix: (Units=GPa)
#
#
# Indices 1 2 3 4 5 6 
#
# 1 93.7270 12.7605 40.8893 0.0000 2.2843 0.0000
# 2 12.7605 177.5364 -38.3166 0.0000 -11.7027 0.0000
# 3 40.8893 -38.3166 140.6269 0.0000 4.4995 0.0000
# 4 0.0000 0.0000 0.0000 14.2717 0.0000 -8.7025
# 5 2.2843 -11.7027 4.4995 0.0000 42.0863 0.0000
# 6 0.0000 0.0000 0.0000 -8.7025 0.0000 -9.5026
#
#
#
# Elastic Compliance Matrix: (Units=1/GPa)
#
#
# Indices 1 2 3 4 5 6 
#
# 1 0.012776 -0.001876 -0.004201 0.000000 -0.000766 0.000000
# 2 -0.001876 0.006355 0.002225 0.000000 0.001631 0.000000
# 3 -0.004201 0.002225 0.008942 0.000000 -0.000109 0.000000
# 4 0.000000 0.000000 0.000000 0.044961 0.000000 -0.041176
# 5 -0.000766 0.001631 -0.000109 0.000000 0.024268 0.000000
# 6 0.000000 0.000000 0.000000 -0.041176 0.000000 -0.067526
#
#
# Mechanical properties :
#
#
# Convention : Reuss Voigt Hill
#
# Bulk Modulus (GPa) = 49.09365 49.17296 49.13330
# Shear Modulus (GPa) = 112.94294 35.80823 74.37559
#
# Velocity S-wave (km/s) = 7.44451 4.19177 6.04118
# Velocity P-wave (km/s) = 9.89870 6.89615 8.53057
#
# Compressibility (1/GPa) = 0.02036923
#
# Stress axis : x y z
#
# Youngs Moduli (GPa) = 78.27064 157.35355 111.82811
#
# Poissons Ratio (x) = 0.29512 0.46983
# Poissons Ratio (y) = 0.14680 -0.24879
# Poissons Ratio (z) = 0.32884 -0.35007
#
# Static dielectric constant tensor:
#      x y z
#    x 3.516460 0.000000 0.219170 
#    y 0.000000 4.031880 0.000000 
#    z 0.219170 0.000000 3.655590 
# 
# 
# High freq. dielectric constant tensor:
#      x y z
#    x 1.767110 0.000000 -0.001360 
#    y 0.000000 1.803920 0.000000 
#    z -0.001360 0.000000 1.823980 
# 
# From -- ./inp_files/67950.got.cif
#   From: 2010.06.25/outbox.cif.g09.slc.cpg/sg10_34_cif.got.tgz:67950.got - 2010.06.27 22:07:45.
