data_PCOD8063085
_publ_section_title
;
Structure prediction by ZEFSAII (Michael W. Deem and Ramdas Pophale) SiO2 
 PCOD8063085
Probable space group: P 2/M
;
_chemical_formula_sum "Si O2"
_cell_formula_units_Z 32
_cell_length_a 14.502599
_cell_length_b 8.558162
_cell_length_c 14.243950
_cell_angle_alpha 90.000000
_cell_angle_beta 106.268233
_cell_angle_gamma 90.000000
_cell_volume 1697.111053
_symmetry_space_group_name_H-M "P 2/M"
_symmetry_group_IT_number 10
_symmetry_cell_setting 'monoclinic'
loop_
_space_group_symop_operation_xyz
x,y,z
-x,y,-z
-x,-y,-z
x,-y,z
loop_
_atom_site_type_symbol
_atom_site_label
_atom_site_fract_x
_atom_site_fract_y
_atom_site_fract_z
Si Si1 0.061143 0.175633 0.793405
Si Si2 0.892575 0.822918 0.987918
Si Si3 0.268547 0.678933 0.175326
Si Si4 0.208179 0.319433 0.707297
Si Si5 0.376850 0.314980 0.884458
Si Si6 0.894867 0.313898 0.499760
Si Si7 0.420619 0.818004 0.092295
Si Si8 0.133971 0.316202 0.297881
O O1 0.123894 0.183149 0.905471
O O2 0.108562 0.293459 0.733455
O O3 0.951686 0.228179 0.780759
O O4 0.062099 0.000000 0.753241
O O5 0.875952 0.000000 0.945187
O O6 0.820641 0.702781 0.919664
O O7 0.000000 0.766165 0.000000
O O8 0.301709 0.500000 0.179661
O O9 0.357511 0.784963 0.167190
O O10 0.233445 0.723252 0.271158
O O11 0.231521 0.500000 0.706653
O O12 0.298080 0.243417 0.788906
O O13 0.187707 0.252857 0.596475
O O14 0.365024 0.500000 0.894819
O O15 0.480892 0.277614 0.871418
O O16 0.363393 0.234110 0.982222
O O17 0.898974 0.500000 0.496955
O O18 0.862896 0.255643 0.593793
O O19 0.000000 0.247417 0.500000
O O20 0.444439 0.000000 0.092720
O O21 0.113860 0.500000 0.287695
#
# Coordination Sequence:
#
# PCOD8063085 Si02
#       8
#     4   4   4   4   4   4   4   4
#     4  11  21  31  47  71 104 140 175 214 254 308
#     4  10  20  33  46  66 101 142 175 207 254 313
#     4  11  22  34  52  77 104 138 181 225 263 306
#     4  10  20  34  55  79 104 137 173 216 268 314
#     4  10  20  36  59  86 111 133 172 225 266 307
#     4   9  16  31  55  77 103 138 178 219 262 316
#     4  11  22  37  58  80 109 145 176 208 264 330
#     4  10  20  34  52  73 101 139 179 218 260 308
#
# _framework density 18.855571000000001
#
# number of rings (size 3 to 8) (size 9 to 14) (size 15 to 20)
#    0.000    1.750    2.500    3.750    0.000    4.750 
#    0.000    1.250    0.000    0.750    0.000    5.250 
#    0.000    0.000    0.000    0.000    0.000    0.000 
#
# Total GULP energy -396693.102603 kJ/mol
# GULP energy per Si atom -12396.659456 kJ/mol
# Density = 1.881265 g / cm^3
# Si number density = 18.855571 Si / 1000 Ang^3
#
#
#
# Elastic Constant Matrix: (Units=GPa)
#
#
# Indices 1 2 3 4 5 6 
#
# 1 79.6816 5.5793 44.9006 0.0000 -12.6105 0.0000
# 2 5.5793 30.8951 17.9810 0.0000 -0.2357 0.0000
# 3 44.9006 17.9810 108.6827 0.0000 -8.0446 0.0000
# 4 0.0000 0.0000 0.0000 10.0595 0.0000 -4.6680
# 5 -12.6105 -0.2357 -8.0446 0.0000 31.5238 0.0000
# 6 0.0000 0.0000 0.0000 -4.6680 0.0000 17.2835
#
#
#
# Elastic Compliance Matrix: (Units=1/GPa)
#
#
# Indices 1 2 3 4 5 6 
#
# 1 0.017164 0.000936 -0.006867 0.000000 0.005121 0.000000
# 2 0.000936 0.035917 -0.006402 0.000000 -0.000991 0.000000
# 3 -0.006867 -0.006402 0.013139 0.000000 0.000558 0.000000
# 4 0.000000 0.000000 0.000000 0.113653 0.000000 0.030696
# 5 0.005121 -0.000991 0.000558 0.000000 0.033906 0.000000
# 6 0.000000 0.000000 0.000000 0.030696 0.000000 0.066149
#
#
# Mechanical properties :
#
#
# Convention : Reuss Voigt Hill
#
# Bulk Modulus (GPa) = 24.06539 39.57569 31.82054
# Shear Modulus (GPa) = 15.70123 21.82659 18.76391
#
# Velocity S-wave (km/s) = 2.88880 3.40599 3.15800
# Velocity P-wave (km/s) = 4.89057 6.04170 5.49635
#
# Compressibility (1/GPa) = 0.04155345
#
# Stress axis : x y z
#
# Youngs Moduli (GPa) = 58.26002 27.84184 76.11139
#
# Poissons Ratio (x) = -0.02606 0.52266
# Poissons Ratio (y) = -0.05453 0.48729
# Poissons Ratio (z) = 0.40007 0.17825
#
# Static dielectric constant tensor:
#      x y z
#    x 3.408190 0.000000 -0.059920 
#    y 0.000000 3.246550 0.000000 
#    z -0.059920 0.000000 3.712100 
# 
# 
# High freq. dielectric constant tensor:
#      x y z
#    x 1.717820 0.000000 -0.011220 
#    y 0.000000 1.717900 0.000000 
#    z -0.011220 0.000000 1.724340 
# 
# From -- ./inp_files/66194.got.cif
#   From: 2010.06.25/outbox.cif.g09.slc.cpg/sg10_34_cif.got.tgz:66194.got - 2010.06.27 22:07:45.
