data_PCOD8063681
_publ_section_title
;
Structure prediction by ZEFSAII (Michael W. Deem and Ramdas Pophale) SiO2 
 PCOD8063681
Probable space group: P 2/M
;
_chemical_formula_sum "Si O2"
_cell_formula_units_Z 32
_cell_length_a 14.090622
_cell_length_b 9.587152
_cell_length_c 12.431218
_cell_angle_alpha 90.000000
_cell_angle_beta 85.737931
_cell_angle_gamma 90.000000
_cell_volume 1674.675928
_symmetry_space_group_name_H-M "P 2/M"
_symmetry_group_IT_number 10
_symmetry_cell_setting 'monoclinic'
loop_
_space_group_symop_operation_xyz
x,y,z
-x,y,-z
-x,-y,-z
x,-y,z
loop_
_atom_site_type_symbol
_atom_site_label
_atom_site_fract_x
_atom_site_fract_y
_atom_site_fract_z
Si Si1 0.373536 0.340354 0.274562
Si Si2 0.265134 0.836572 0.866942
Si Si3 0.222964 0.157924 0.631629
Si Si4 0.454324 0.337143 0.889936
Si Si5 0.166644 0.660649 0.235435
Si Si6 0.601282 0.841339 0.526874
Si Si7 0.900885 0.837136 0.953844
Si Si8 0.111522 0.343132 0.476566
O O1 0.383437 0.500000 0.310443
O O2 0.467757 0.290978 0.204704
O O3 0.280296 0.322426 0.207262
O O4 0.355918 0.248822 0.380990
O O5 0.222780 0.792575 0.755047
O O6 0.359801 0.751284 0.883264
O O7 0.290769 0.000000 0.866363
O O8 0.185573 0.797544 0.960538
O O9 0.330740 0.169894 0.581277
O O10 0.153871 0.252737 0.568597
O O11 0.185235 0.000000 0.625021
O O12 0.428723 0.500000 0.882188
O O13 0.500000 0.302182 0.000000
O O14 0.135048 0.500000 0.223940
O O15 0.109362 0.752609 0.155377
O O16 0.140047 0.715423 0.356958
O O17 0.500000 0.779488 0.500000
O O18 0.590647 0.000000 0.568569
O O19 0.900595 0.000000 0.925226
O O20 0.000000 0.793425 0.000000
O O21 0.151724 0.500000 0.484362
O O22 0.000000 0.339340 0.500000
#
# Coordination Sequence:
#
# PCOD8063681 Si02
#       8
#     4   4   4   4   4   4   4   4
#     4  10  20  35  56  82 112 147 185 230 282 334
#     4  10  22  40  59  84 118 153 192 238 288 340
#     4  10  21  37  58  85 117 154 193 233 283 342
#     4  10  21  37  58  84 113 149 195 239 283 340
#     4  10  21  39  61  86 117 150 189 237 287 343
#     4  10  20  34  53  80 113 149 188 228 273 331
#     4  10  23  41  61  86 115 149 192 241 288 339
#     4  10  22  39  60  87 117 150 191 240 289 339
#
# _framework density 19.108174999999999
#
# number of rings (size 3 to 8) (size 9 to 14) (size 15 to 20)
#    0.000    2.000    1.250    1.500    1.750    5.500 
#    0.000    0.000    0.000    0.000    0.000    0.000 
#    0.000    0.000    0.000    0.000    0.000    0.000 
#
# Total GULP energy -396905.798424 kJ/mol
# GULP energy per Si atom -12403.306201 kJ/mol
# Density = 1.906468 g / cm^3
# Si number density = 19.108175 Si / 1000 Ang^3
#
#
#
# Elastic Constant Matrix: (Units=GPa)
#
#
# Indices 1 2 3 4 5 6 
#
# 1 102.5728 42.8884 41.8030 0.0000 6.5362 0.0000
# 2 42.8884 65.9336 54.4367 0.0000 13.8171 0.0000
# 3 41.8030 54.4367 121.4870 0.0000 11.9419 0.0000
# 4 0.0000 0.0000 0.0000 28.4095 0.0000 0.9556
# 5 6.5362 13.8171 11.9419 0.0000 31.7552 0.0000
# 6 0.0000 0.0000 0.0000 0.9556 0.0000 28.4657
#
#
#
# Elastic Compliance Matrix: (Units=1/GPa)
#
#
# Indices 1 2 3 4 5 6 
#
# 1 0.013527 -0.008105 -0.001138 0.000000 0.001170 0.000000
# 2 -0.008105 0.030368 -0.010055 0.000000 -0.007764 0.000000
# 3 -0.001138 -0.010055 0.013162 0.000000 -0.000340 0.000000
# 4 0.000000 0.000000 0.000000 0.035239 0.000000 -0.001183
# 5 0.001170 -0.007764 -0.000340 0.000000 0.034756 0.000000
# 6 0.000000 0.000000 0.000000 -0.001183 0.000000 0.035170
#
#
# Mechanical properties :
#
#
# Convention : Reuss Voigt Hill
#
# Bulk Modulus (GPa) = 54.16942 63.13885 58.65413
# Shear Modulus (GPa) = 24.15781 27.78376 25.97078
#
# Velocity S-wave (km/s) = 3.55951 3.81730 3.69066
# Velocity P-wave (km/s) = 6.73081 7.24870 6.99455
#
# Compressibility (1/GPa) = 0.01846060
#
# Stress axis : x y z
#
# Youngs Moduli (GPa) = 73.92484 32.92957 75.97595
#
# Poissons Ratio (x) = 0.26689 0.08646
# Poissons Ratio (y) = 0.59915 0.76397
# Poissons Ratio (z) = 0.08413 0.33112
#
# Static dielectric constant tensor:
#      x y z
#    x 3.308020 0.000000 -0.241480 
#    y 0.000000 3.446390 0.000000 
#    z -0.241480 0.000000 3.440200 
# 
# 
# High freq. dielectric constant tensor:
#      x y z
#    x 1.752450 0.000000 -0.006540 
#    y 0.000000 1.735360 0.000000 
#    z -0.006540 0.000000 1.748510 
# 
# From -- ./inp_files/49878.got.cif
#   From: 2010.06.25/outbox.cif.g09.slc.cpg/sg10_25_cif.got.tgz:49878.got - 2010.06.27 22:07:45.
