data_PCOD8063643
_publ_section_title
;
Structure prediction by ZEFSAII (Michael W. Deem and Ramdas Pophale) SiO2 
 PCOD8063643
Probable space group: P 2/M
;
_chemical_formula_sum "Si O2"
_cell_formula_units_Z 28
_cell_length_a 14.403406
_cell_length_b 17.818565
_cell_length_c 7.837078
_cell_angle_alpha 90.000000
_cell_angle_beta 142.696014
_cell_angle_gamma 90.000000
_cell_volume 1218.978558
_symmetry_space_group_name_H-M "P 2/M"
_symmetry_group_IT_number 10
_symmetry_cell_setting 'monoclinic'
loop_
_space_group_symop_operation_xyz
x,y,z
-x,y,-z
-x,-y,-z
x,-y,z
loop_
_atom_site_type_symbol
_atom_site_label
_atom_site_fract_x
_atom_site_fract_y
_atom_site_fract_z
Si Si1 0.424787 0.131498 0.715112
Si Si2 0.539777 0.693942 0.244161
Si Si3 0.329968 0.916054 0.151781
Si Si4 0.911250 0.174363 0.039721
Si Si5 0.165966 0.911719 0.558821
Si Si6 0.851536 0.341952 0.880870
Si Si7 0.645148 0.580327 0.826640
O O1 0.470535 0.217339 0.751207
O O2 0.247067 0.116709 0.499138
O O3 0.500000 0.098545 0.000000
O O4 0.485790 0.089214 0.628179
O O5 0.709713 0.668021 0.543809
O O6 0.399141 0.654927 0.136118
O O7 0.500000 0.666210 0.000000
O O8 0.262667 0.859531 0.199323
O O9 0.261224 0.890684 0.866955
O O10 0.282141 0.000000 0.129846
O O11 0.006415 0.134723 0.332494
O O12 0.899716 0.263722 0.040120
O O13 0.000000 0.150888 0.000000
O O14 0.130263 0.000000 0.496732
O O15 0.800367 0.400891 0.949750
O O16 0.000000 0.374688 0.000000
O O17 0.500000 0.563741 0.500000
O O18 0.675363 0.500000 0.969037
#
# Coordination Sequence:
#
# PCOD8063643 Si02
#       7
#     4   4   4   4   4   4   4
#     4   9  17  31  53  79 105 138 185 237 282 326
#     4  10  20  37  62  88 115 152 195 235 280 341
#     4  10  20  34  53  77 106 145 193 241 289 341
#     4  11  22  35  51  74 109 147 185 230 283 338
#     4  10  20  35  54  77 109 149 192 238 289 343
#     4  10  21  38  59  85 117 152 191 236 286 339
#     4   9  19  37  62  91 122 155 188 227 283 348
#
# _framework density 22.970051999999999
#
# number of rings (size 3 to 8) (size 9 to 14) (size 15 to 20)
#    0.000    2.143    0.000    3.857    0.000    4.571 
#    0.000    5.714    0.000    5.143    0.000    0.000 
#    0.000    0.000    0.000    0.000    0.000    0.000 
#
# Total GULP energy -346954.410175 kJ/mol
# GULP energy per Si atom -12391.228935 kJ/mol
# Density = 2.291777 g / cm^3
# Si number density = 22.970052 Si / 1000 Ang^3
#
#
#
# Elastic Constant Matrix: (Units=GPa)
#
#
# Indices 1 2 3 4 5 6 
#
# 1 136.4527 46.6101 5.8231 0.0000 26.9933 0.0000
# 2 46.6101 115.9290 11.0629 0.0000 8.9141 0.0000
# 3 5.8231 11.0629 44.7902 0.0000 18.8207 0.0000
# 4 0.0000 0.0000 0.0000 29.2438 0.0000 21.1719
# 5 26.9933 8.9141 18.8207 0.0000 34.6067 0.0000
# 6 0.0000 0.0000 0.0000 21.1719 0.0000 50.3122
#
#
#
# Elastic Compliance Matrix: (Units=1/GPa)
#
#
# Indices 1 2 3 4 5 6 
#
# 1 0.010204 -0.003741 0.003288 0.000000 -0.008784 0.000000
# 2 -0.003741 0.010259 -0.002804 0.000000 0.001800 0.000000
# 3 0.003288 -0.002804 0.030287 0.000000 -0.018314 0.000000
# 4 0.000000 0.000000 0.000000 0.049178 0.000000 -0.020694
# 5 -0.008784 0.001800 -0.018314 0.000000 0.045244 0.000000
# 6 0.000000 0.000000 0.000000 -0.020694 0.000000 0.028584
#
#
# Mechanical properties :
#
#
# Convention : Reuss Voigt Hill
#
# Bulk Modulus (GPa) = 22.60590 47.12936 34.86763
# Shear Modulus (GPa) = 25.63921 38.41092 32.02506
#
# Velocity S-wave (km/s) = 3.34458 4.09371 3.73796
# Velocity P-wave (km/s) = 4.97773 6.55034 5.81742
#
# Compressibility (1/GPa) = 0.04423624
#
# Stress axis : x y z
#
# Youngs Moduli (GPa) = 98.00467 97.47389 33.01764
#
# Poissons Ratio (x) = 0.36463 -0.10857
# Poissons Ratio (y) = 0.36662 0.09258
# Poissons Ratio (z) = -0.32226 0.27332
#
# Static dielectric constant tensor:
#      x y z
#    x 4.920110 0.000000 0.117240 
#    y 0.000000 3.954720 0.000000 
#    z 0.117240 0.000000 4.378330 
# 
# 
# High freq. dielectric constant tensor:
#      x y z
#    x 1.925890 0.000000 0.011190 
#    y 0.000000 1.885080 0.000000 
#    z 0.011190 0.000000 1.914950 
# 
# From -- ./inp_files/30188.got.cif
#   From: 2010.06.25/outbox.cif.g09.slc.cpg/sg10_16_cif.got.tgz:30188.got - 2010.06.27 22:07:45.
