data_PCOD8063756
_publ_section_title
;
Structure prediction by ZEFSAII (Michael W. Deem and Ramdas Pophale) SiO2 
 PCOD8063756
Probable space group: P 2/M
;
_chemical_formula_sum "Si O2"
_cell_formula_units_Z 32
_cell_length_a 16.385767
_cell_length_b 8.859050
_cell_length_c 23.067674
_cell_angle_alpha 90.000000
_cell_angle_beta 31.147061
_cell_angle_gamma 90.000000
_cell_volume 1731.995937
_symmetry_space_group_name_H-M "P 2/M"
_symmetry_group_IT_number 10
_symmetry_cell_setting 'monoclinic'
loop_
_space_group_symop_operation_xyz
x,y,z
-x,y,-z
-x,-y,-z
x,-y,z
loop_
_atom_site_type_symbol
_atom_site_label
_atom_site_fract_x
_atom_site_fract_y
_atom_site_fract_z
Si Si1 0.356154 0.326129 0.963123
Si Si2 0.167292 0.678831 0.380991
Si Si3 0.665178 0.834390 0.367872
Si Si4 0.187179 0.677631 0.619540
Si Si5 0.474395 0.821365 0.377943
Si Si6 0.144561 0.823723 0.177016
Si Si7 0.681648 0.325561 0.828377
Si Si8 0.523556 0.678420 0.744738
O O1 0.305128 0.500000 0.996390
O O2 0.503747 0.298361 0.915877
O O3 0.399276 0.280325 0.871020
O O4 0.208933 0.226520 0.074621
O O5 0.164143 0.500000 0.388735
O O6 0.201323 0.723285 0.294307
O O7 0.304032 0.738160 0.340555
O O8 0.000000 0.752028 0.500000
O O9 0.500000 0.850400 0.500000
O O10 0.775847 0.719703 0.335833
O O11 0.623397 0.776288 0.328511
O O12 0.747424 0.000000 0.316378
O O13 0.190620 0.500000 0.609898
O O14 0.312710 0.746176 0.498305
O O15 0.014997 0.738284 0.708411
O O16 0.523438 0.764728 0.284831
O O17 0.448411 0.000000 0.394553
O O18 0.279317 0.780088 0.141235
O O19 0.111063 0.000000 0.197282
O O20 0.705950 0.500000 0.831406
O O21 0.524822 0.500000 0.732793
#
# Coordination Sequence:
#
# PCOD8063756 Si02
#       8
#     4   4   4   4   4   4   4   4
#     4   9  19  37  55  74 103 139 183 225 263 303
#     4   8  15  28  47  72 102 135 172 212 255 298
#     4   8  16  33  53  75 108 142 166 200 255 313
#     4  11  22  35  54  79 106 137 174 216 262 308
#     4  10  20  34  54  81 114 143 167 204 256 316
#     4  12  24  35  51  76 106 137 175 222 271 319
#     4   9  18  33  53  75 100 136 179 220 260 306
#     4   9  18  32  53  79 103 136 180 220 251 299
#
# _framework density 18.475792999999999
#
# number of rings (size 3 to 8) (size 9 to 14) (size 15 to 20)
#    0.000    2.500    0.000    5.250    1.750    5.250 
#    0.000    1.875    0.000    1.500    0.000    5.250 
#    0.000    0.000    0.000    0.000    0.000    0.000 
#
# Total GULP energy -396707.576997 kJ/mol
# GULP energy per Si atom -12397.111781 kJ/mol
# Density = 1.843374 g / cm^3
# Si number density = 18.475793 Si / 1000 Ang^3
#
#
#
# Elastic Constant Matrix: (Units=GPa)
#
#
# Indices 1 2 3 4 5 6 
#
# 1 87.7980 34.0894 22.3255 0.0000 24.6692 0.0000
# 2 34.0894 86.7263 28.9808 0.0000 7.6181 0.0000
# 3 22.3255 28.9808 61.6283 0.0000 13.4026 0.0000
# 4 0.0000 0.0000 0.0000 22.6109 0.0000 1.7566
# 5 24.6692 7.6181 13.4026 0.0000 22.1579 0.0000
# 6 0.0000 0.0000 0.0000 1.7566 0.0000 9.6625
#
#
#
# Elastic Compliance Matrix: (Units=1/GPa)
#
#
# Indices 1 2 3 4 5 6 
#
# 1 0.019035 -0.005797 0.000007 0.000000 -0.019203 0.000000
# 2 -0.005797 0.015463 -0.006240 0.000000 0.004912 0.000000
# 3 0.000007 -0.006240 0.021525 0.000000 -0.010882 0.000000
# 4 0.000000 0.000000 0.000000 0.044860 0.000000 -0.008155
# 5 -0.019203 0.004912 -0.010882 0.000000 0.071403 0.000000
# 6 0.000000 0.000000 0.000000 -0.008155 0.000000 0.104975
#
#
# Mechanical properties :
#
#
# Convention : Reuss Voigt Hill
#
# Bulk Modulus (GPa) = 31.28730 45.21598 38.25164
# Shear Modulus (GPa) = 16.02698 20.93674 18.48186
#
# Velocity S-wave (km/s) = 2.94846 3.36995 3.16623
# Velocity P-wave (km/s) = 5.34436 6.29828 5.84083
#
# Compressibility (1/GPa) = 0.03196185
#
# Stress axis : x y z
#
# Youngs Moduli (GPa) = 52.53606 64.67114 46.45861
#
# Poissons Ratio (x) = 0.37492 -0.00032
# Poissons Ratio (y) = 0.30457 0.28988
# Poissons Ratio (z) = -0.00036 0.40352
#
# Static dielectric constant tensor:
#      x y z
#    x 3.633250 0.000000 0.065760 
#    y 0.000000 3.185410 0.000000 
#    z 0.065760 0.000000 3.490790 
# 
# 
# High freq. dielectric constant tensor:
#      x y z
#    x 1.711480 0.000000 0.011180 
#    y 0.000000 1.699340 0.000000 
#    z 0.011180 0.000000 1.704240 
# 
# From -- ./inp_files/89933.got.cif
#   From: 2010.06.25/outbox.cif.g09.slc.cpg/sg10_45_cif.got.tgz:89933.got - 2010.06.27 22:07:45.
