data_PCOD8063618
_publ_section_title
;
Structure prediction by ZEFSAII (Michael W. Deem and Ramdas Pophale) SiO2 
 PCOD8063618
Probable space group: P 2/M
;
_chemical_formula_sum "Si O2"
_cell_formula_units_Z 24
_cell_length_a 14.024717
_cell_length_b 8.669352
_cell_length_c 11.290883
_cell_angle_alpha 90.000000
_cell_angle_beta 103.480905
_cell_angle_gamma 90.000000
_cell_volume 1334.980399
_symmetry_space_group_name_H-M "P 2/M"
_symmetry_group_IT_number 10
_symmetry_cell_setting 'monoclinic'
loop_
_space_group_symop_operation_xyz
x,y,z
-x,y,-z
-x,-y,-z
x,-y,z
loop_
_atom_site_type_symbol
_atom_site_label
_atom_site_fract_x
_atom_site_fract_y
_atom_site_fract_z
Si Si1 0.717039 0.681202 0.974086
Si Si2 0.910572 0.679600 0.888957
Si Si3 0.048744 0.180766 0.347405
Si Si4 0.311688 0.178757 0.780788
Si Si5 0.492011 0.330146 0.138052
Si Si6 0.138626 0.318758 0.599046
O O1 0.716113 0.500000 0.006421
O O2 0.810666 0.727055 0.924759
O O3 0.619854 0.724523 0.868440
O O4 0.719830 0.775495 0.096287
O O5 0.912341 0.500000 0.854750
O O6 0.917127 0.781823 0.774330
O O7 0.000000 0.722135 0.000000
O O8 0.120865 0.266537 0.459378
O O9 0.937489 0.236693 0.334152
O O10 0.055042 0.000000 0.373046
O O11 0.426350 0.214370 0.787337
O O12 0.248048 0.273511 0.668013
O O13 0.292292 0.000000 0.755567
O O14 0.511106 0.500000 0.198090
O O15 0.500000 0.338561 0.000000
O O16 0.122971 0.500000 0.605332
#
# Coordination Sequence:
#
# PCOD8063618 Si02
#       6
#     4   4   4   4   4   4
#     4   9  18  32  50  73 104 140 175 209 245 296
#     4  10  20  34  53  76 103 138 175 204 239 295
#     4  11  22  36  53  77 106 131 163 208 255 296
#     4  11  20  30  49  78 106 130 165 213 261 301
#     4   8  15  29  47  69  99 135 172 208 249 297
#     4  11  21  36  56  74  98 134 172 206 246 299
#
# _framework density 17.977791
#
# number of rings (size 3 to 8) (size 9 to 14) (size 15 to 20)
#    0.000    2.000    0.000    7.500    0.000    5.333 
#    0.000    0.000    0.000    1.000    0.000    7.000 
#    0.000    0.000    0.000    0.000    0.000    0.000 
#
# Total GULP energy -297611.758104 kJ/mol
# GULP energy per Si atom -12400.489921 kJ/mol
# Density = 1.793687 g / cm^3
# Si number density = 17.977791 Si / 1000 Ang^3
#
#
#
# Elastic Constant Matrix: (Units=GPa)
#
#
# Indices 1 2 3 4 5 6 
#
# 1 129.1607 23.1676 49.3004 0.0000 14.8423 0.0000
# 2 23.1676 73.2966 23.8110 0.0000 3.7572 0.0000
# 3 49.3004 23.8110 72.2874 0.0000 11.1182 0.0000
# 4 0.0000 0.0000 0.0000 23.9564 0.0000 0.4640
# 5 14.8423 3.7572 11.1182 0.0000 27.3771 0.0000
# 6 0.0000 0.0000 0.0000 0.4640 0.0000 19.1428
#
#
#
# Elastic Compliance Matrix: (Units=1/GPa)
#
#
# Indices 1 2 3 4 5 6 
#
# 1 0.010781 -0.001137 -0.006510 0.000000 -0.003045 0.000000
# 2 -0.001137 0.015398 -0.004337 0.000000 0.000265 0.000000
# 3 -0.006510 -0.004337 0.020338 0.000000 -0.004135 0.000000
# 4 0.000000 0.000000 0.000000 0.041762 0.000000 -0.001012
# 5 -0.003045 0.000265 -0.004135 0.000000 0.039821 0.000000
# 6 0.000000 0.000000 0.000000 -0.001012 0.000000 0.052263
#
#
# Mechanical properties :
#
#
# Convention : Reuss Voigt Hill
#
# Bulk Modulus (GPa) = 44.34787 51.92250 48.13518
# Shear Modulus (GPa) = 23.60189 25.99300 24.79744
#
# Velocity S-wave (km/s) = 3.62724 3.80654 3.71797
# Velocity P-wave (km/s) = 6.50109 6.94722 6.72785
#
# Compressibility (1/GPa) = 0.02254900
#
# Stress axis : x y z
#
# Youngs Moduli (GPa) = 92.75660 64.94353 49.16877
#
# Poissons Ratio (x) = 0.07383 0.32008
# Poissons Ratio (y) = 0.10544 0.21326
# Poissons Ratio (z) = 0.60383 0.28169
#
# Static dielectric constant tensor:
#      x y z
#    x 3.638010 0.000000 0.262390 
#    y 0.000000 3.289240 0.000000 
#    z 0.262390 0.000000 3.104240 
# 
# 
# High freq. dielectric constant tensor:
#      x y z
#    x 1.697260 0.000000 0.023380 
#    y 0.000000 1.698400 0.000000 
#    z 0.023380 0.000000 1.671790 
# 
# From -- ./inp_files/48885.got.cif
#   From: 2010.06.25/outbox.cif.g09.slc.cpg/sg10_25_cif.got.tgz:48885.got - 2010.06.27 22:07:45.
