data_PCOD8063166
_publ_section_title
;
Structure prediction by ZEFSAII (Michael W. Deem and Ramdas Pophale) SiO2 
 PCOD8063166
Probable space group: P 2/M
;
_chemical_formula_sum "Si O2"
_cell_formula_units_Z 28
_cell_length_a 23.120754
_cell_length_b 9.034275
_cell_length_c 18.552890
_cell_angle_alpha 90.000000
_cell_angle_beta 155.979108
_cell_angle_gamma 90.000000
_cell_volume 1577.522904
_symmetry_space_group_name_H-M "P 2/M"
_symmetry_group_IT_number 10
_symmetry_cell_setting 'monoclinic'
loop_
_space_group_symop_operation_xyz
x,y,z
-x,y,-z
-x,-y,-z
x,-y,z
loop_
_atom_site_type_symbol
_atom_site_label
_atom_site_fract_x
_atom_site_fract_y
_atom_site_fract_z
Si Si1 0.795098 0.671057 0.564289
Si Si2 0.837215 0.666575 0.337198
Si Si3 0.232147 0.173724 0.880615
Si Si4 0.869609 0.324609 0.806876
Si Si5 0.473979 0.328960 0.243173
Si Si6 0.083851 0.173712 0.435412
Si Si7 0.432340 0.324602 0.495065
O O1 0.821740 0.500000 0.574485
O O2 0.878738 0.714030 0.732658
O O3 0.627729 0.701065 0.383306
O O4 0.859525 0.774897 0.576897
O O5 0.779103 0.500000 0.279082
O O6 0.746703 0.749164 0.172869
O O7 0.820444 0.749123 0.394235
O O8 0.000000 0.668964 0.500000
O O9 0.081607 0.218325 0.744974
O O10 0.241962 0.000000 0.879262
O O11 0.357721 0.225039 0.075142
O O12 0.867142 0.500000 0.813136
O O13 0.725265 0.257393 0.675789
O O14 0.000000 0.254270 0.000000
O O15 0.430864 0.500000 0.183594
O O16 0.475129 0.286025 0.329059
O O17 0.104841 0.000000 0.467574
O O18 0.500000 0.254283 0.500000
O O19 0.421126 0.500000 0.475099
#
# Coordination Sequence:
#
# PCOD8063166 Si02
#       7
#     4   4   4   4   4   4   4
#     4   9  18  32  49  71 100 131 163 201 244 289
#     4   9  17  31  52  75  98 125 158 198 244 289
#     4  10  20  33  50  73 100 129 162 200 241 287
#     4   8  14  25  42  66  95 124 155 195 242 287
#     4   9  18  32  49  71 100 131 163 201 244 289
#     4  10  20  33  50  73 100 129 162 200 241 287
#     4   8  14  25  42  66  95 124 155 195 242 287
#
# _framework density 17.749345999999999
#
# number of rings (size 3 to 8) (size 9 to 14) (size 15 to 20)
#    0.000    3.000    0.000    3.000    0.000    5.143 
#    0.000    3.571    0.000    5.143    0.000    0.000 
#    0.000    0.000    0.000    0.000    0.000    0.000 
#
# Total GULP energy -347124.998101 kJ/mol
# GULP energy per Si atom -12397.321361 kJ/mol
# Density = 1.770895 g / cm^3
# Si number density = 17.749346 Si / 1000 Ang^3
#
#
#
# Elastic Constant Matrix: (Units=GPa)
#
#
# Indices 1 2 3 4 5 6 
#
# 1 108.1054 40.1191 57.8921 0.0000 -23.0039 0.0000
# 2 40.1191 67.1312 42.3000 0.0000 -8.3320 0.0000
# 3 57.8921 42.3000 119.5527 0.0000 -20.9689 0.0000
# 4 0.0000 0.0000 0.0000 13.1237 0.0000 7.7269
# 5 -23.0039 -8.3320 -20.9689 0.0000 20.5798 0.0000
# 6 0.0000 0.0000 0.0000 7.7269 0.0000 15.1115
#
#
#
# Elastic Compliance Matrix: (Units=1/GPa)
#
#
# Indices 1 2 3 4 5 6 
#
# 1 0.015768 -0.005731 -0.003560 0.000000 0.011679 0.000000
# 2 -0.005731 0.021271 -0.005314 0.000000 -0.003208 0.000000
# 3 -0.003560 -0.005314 0.013263 0.000000 0.007384 0.000000
# 4 0.000000 0.000000 0.000000 0.109019 0.000000 -0.055744
# 5 0.011679 -0.003208 0.007384 0.000000 0.067870 0.000000
# 6 0.000000 0.000000 0.000000 -0.055744 0.000000 0.094679
#
#
# Mechanical properties :
#
#
# Convention : Reuss Voigt Hill
#
# Bulk Modulus (GPa) = 47.40608 63.93464 55.67036
# Shear Modulus (GPa) = 13.96216 20.06154 17.01185
#
# Velocity S-wave (km/s) = 2.80773 3.36559 3.09924
# Velocity P-wave (km/s) = 6.10555 7.15556 6.65131
#
# Compressibility (1/GPa) = 0.02109434
#
# Stress axis : x y z
#
# Youngs Moduli (GPa) = 63.41788 47.01184 75.39571
#
# Poissons Ratio (x) = 0.26943 0.26837
# Poissons Ratio (y) = 0.36346 0.40062
# Poissons Ratio (z) = 0.22574 0.24980
#
# Static dielectric constant tensor:
#      x y z
#    x 3.385910 0.000000 -0.071010 
#    y 0.000000 3.006680 0.000000 
#    z -0.071010 0.000000 3.404480 
# 
# 
# High freq. dielectric constant tensor:
#      x y z
#    x 1.682060 0.000000 -0.015380 
#    y 0.000000 1.659260 0.000000 
#    z -0.015380 0.000000 1.686070 
# 
# From -- ./inp_files/70314.got.cif
#   From: 2010.06.25/outbox.cif.g09.slc.cpg/sg10_36_cif.got.tgz:70314.got - 2010.06.27 22:07:45.
