data_PCOD8063017
_publ_section_title
;
Structure prediction by ZEFSAII (Michael W. Deem and Ramdas Pophale) SiO2 
 PCOD8063017
Probable space group: P 2/M
;
_chemical_formula_sum "Si O2"
_cell_formula_units_Z 26
_cell_length_a 16.487716
_cell_length_b 10.249633
_cell_length_c 8.284767
_cell_angle_alpha 90.000000
_cell_angle_beta 101.029642
_cell_angle_gamma 90.000000
_cell_volume 1374.206361
_symmetry_space_group_name_H-M "P 2/M"
_symmetry_group_IT_number 10
_symmetry_cell_setting 'monoclinic'
loop_
_space_group_symop_operation_xyz
x,y,z
-x,y,-z
-x,-y,-z
x,-y,z
loop_
_atom_site_type_symbol
_atom_site_label
_atom_site_fract_x
_atom_site_fract_y
_atom_site_fract_z
Si Si1 0.344049 0.652454 0.791119
Si Si2 0.158207 0.651572 0.231023
Si Si3 0.820324 0.344068 0.113987
Si Si4 0.500000 0.769904 0.000000
Si Si5 0.668809 0.651892 0.573306
Si Si6 0.557156 0.145046 0.678135
Si Si7 0.992245 0.655717 0.317141
O O1 0.330366 0.500000 0.782239
O O2 0.258334 0.716202 0.821261
O O3 0.418779 0.683608 0.939952
O O4 0.362684 0.697970 0.614999
O O5 0.140029 0.500000 0.201903
O O6 0.232225 0.673703 0.386400
O O7 0.071704 0.715354 0.254081
O O8 0.186468 0.709071 0.070607
O O9 0.818588 0.500000 0.123231
O O10 0.906474 0.288987 0.215554
O O11 0.512630 0.850199 0.837649
O O12 0.646899 0.500000 0.601894
O O13 0.626411 0.741917 0.693551
O O14 0.500000 0.168801 0.500000
O O15 0.596118 0.000000 0.679428
O O16 0.992765 0.500000 0.309773
O O17 0.000000 0.707471 0.500000
#
# Coordination Sequence:
#
# PCOD8063017 Si02
#       7
#     4   4   4   2   4   4   4
#     4  10  20  32  50  78 111 145 181 226 274 325
#     4   9  16  26  43  67  98 135 174 217 263 315
#     4   9  16  26  39  62  99 139 176 214 263 319
#     4  12  22  38  58  80 103 144 185 228 271 330
#     4  10  20  36  56  81 111 143 180 223 273 325
#     4  11  24  42  60  81 109 142 182 227 273 325
#     4   9  15  23  37  59  92 136 176 211 258 317
#
# _framework density 18.920013000000001
#
# number of rings (size 3 to 8) (size 9 to 14) (size 15 to 20)
#    0.000    2.154    1.538    2.769    0.000    8.308 
#    0.000    0.000    0.000    0.000    0.000    0.000 
#    0.000   16.615    0.000    0.000    0.000    0.154 
#
# Total GULP energy -322173.396193 kJ/mol
# GULP energy per Si atom -12391.284469 kJ/mol
# Density = 1.887695 g / cm^3
# Si number density = 18.920013 Si / 1000 Ang^3
#
#
#
# Elastic Constant Matrix: (Units=GPa)
#
#
# Indices 1 2 3 4 5 6 
#
# 1 129.2745 34.4155 50.7870 0.0000 -6.7568 0.0000
# 2 34.4155 33.3907 25.2762 0.0000 -10.1195 0.0000
# 3 50.7870 25.2762 121.3593 0.0000 -0.6004 0.0000
# 4 0.0000 0.0000 0.0000 9.3288 0.0000 -2.4843
# 5 -6.7568 -10.1195 -0.6004 0.0000 36.4401 0.0000
# 6 0.0000 0.0000 0.0000 -2.4843 0.0000 2.7684
#
#
#
# Elastic Compliance Matrix: (Units=1/GPa)
#
#
# Indices 1 2 3 4 5 6 
#
# 1 0.011402 -0.009906 -0.002712 0.000000 -0.000681 0.000000
# 2 -0.009906 0.048000 -0.005795 0.000000 0.011397 0.000000
# 3 -0.002712 -0.005795 0.010572 0.000000 -0.001938 0.000000
# 4 0.000000 0.000000 0.000000 0.140855 0.000000 0.126399
# 5 -0.000681 0.011397 -0.001938 0.000000 0.030449 0.000000
# 6 0.000000 0.000000 0.000000 0.126399 0.000000 0.474642
#
#
# Mechanical properties :
#
#
# Convention : Reuss Voigt Hill
#
# Bulk Modulus (GPa) = 30.16777 56.10911 43.13844
# Shear Modulus (GPa) = 6.54625 21.27718 13.91171
#
# Velocity S-wave (km/s) = 1.86211 3.35712 2.71457
# Velocity P-wave (km/s) = 4.53903 6.68935 5.71621
#
# Compressibility (1/GPa) = 0.03314796
#
# Stress axis : x y z
#
# Youngs Moduli (GPa) = 87.70022 20.83348 94.58655
#
# Poissons Ratio (x) = 0.20638 0.25651
# Poissons Ratio (y) = 0.86876 0.54815
# Poissons Ratio (z) = 0.23784 0.12074
#
# Static dielectric constant tensor:
#      x y z
#    x 3.643940 0.000000 -0.121600 
#    y 0.000000 2.782040 0.000000 
#    z -0.121600 0.000000 3.753660 
# 
# 
# High freq. dielectric constant tensor:
#      x y z
#    x 1.748300 0.000000 -0.001460 
#    y 0.000000 1.648060 0.000000 
#    z -0.001460 0.000000 1.755170 
# 
# From -- ./inp_files/27946.got.cif
#   From: 2010.06.25/outbox.cif.g09.slc.cpg/sg10_14_cif.got.tgz:27946.got - 2010.06.27 22:07:45.
