data_PCOD8063105
_publ_section_title
;
Structure prediction by ZEFSAII (Michael W. Deem and Ramdas Pophale) SiO2 
 PCOD8063105
Probable space group: P 2/M
;
_chemical_formula_sum "Si O2"
_cell_formula_units_Z 32
_cell_length_a 21.960031
_cell_length_b 8.834906
_cell_length_c 12.351896
_cell_angle_alpha 90.000000
_cell_angle_beta 46.198994
_cell_angle_gamma 90.000000
_cell_volume 1729.633717
_symmetry_space_group_name_H-M "P 2/M"
_symmetry_group_IT_number 10
_symmetry_cell_setting 'monoclinic'
loop_
_space_group_symop_operation_xyz
x,y,z
-x,y,-z
-x,-y,-z
x,-y,z
loop_
_atom_site_type_symbol
_atom_site_label
_atom_site_fract_x
_atom_site_fract_y
_atom_site_fract_z
Si Si1 0.300664 0.322929 0.998768
Si Si2 0.761828 0.324587 0.151042
Si Si3 0.786687 0.824483 0.446694
Si Si4 0.423829 0.165485 0.170541
Si Si5 0.509159 0.678566 0.263981
Si Si6 0.269421 0.676821 0.273961
Si Si7 0.906761 0.323540 0.130861
Si Si8 0.639100 0.176070 0.463910
O O1 0.310869 0.500000 0.005153
O O2 0.237640 0.284201 0.977586
O O3 0.394401 0.261811 0.851423
O O4 0.261280 0.258933 0.159965
O O5 0.736633 0.500000 0.199729
O O6 0.853976 0.290185 0.086264
O O7 0.692946 0.220916 0.293130
O O8 0.789152 0.764515 0.567642
O O9 0.862808 0.748060 0.288854
O O10 0.696016 0.786382 0.502066
O O11 0.806287 0.000000 0.421374
O O12 0.459228 0.228113 0.236855
O O13 0.365626 0.291710 0.187548
O O14 0.377950 0.000000 0.246668
O O15 0.500000 0.132646 0.000000
O O16 0.505441 0.500000 0.249773
O O17 0.448777 0.727807 0.438537
O O18 0.248234 0.500000 0.307391
O O19 0.913021 0.500000 0.147346
O O20 0.000000 0.253778 0.000000
O O21 0.617533 0.000000 0.484274
#
# Coordination Sequence:
#
# PCOD8063105 Si02
#       8
#     4   4   4   4   4   4   4   4
#     4   9  20  34  49  72  99 136 181 218 252 302
#     4   9  18  36  56  73 101 135 167 208 260 311
#     4  10  20  33  51  78 109 136 165 206 260 310
#     4  11  21  31  44  67  99 134 175 223 268 300
#     4  11  20  31  48  69  95 134 183 223 260 299
#     4  11  20  32  51  73 100 135 178 218 254 298
#     4   9  18  34  60  89 107 125 160 205 254 311
#     4  10  20  33  48  71 102 133 173 221 264 304
#
# _framework density 18.501027000000001
#
# number of rings (size 3 to 8) (size 9 to 14) (size 15 to 20)
#    0.000    2.000    2.500    1.875    0.000    2.250 
#    0.000    5.000    0.000    0.750    0.000    5.250 
#    0.000    0.000    0.000    0.000    0.000    0.000 
#
# Total GULP energy -396537.722914 kJ/mol
# GULP energy per Si atom -12391.803841 kJ/mol
# Density = 1.845892 g / cm^3
# Si number density = 18.501027 Si / 1000 Ang^3
#
#
#
# Elastic Constant Matrix: (Units=GPa)
#
#
# Indices 1 2 3 4 5 6 
#
# 1 86.5379 20.1735 68.6800 0.0000 9.0226 0.0000
# 2 20.1735 48.7645 32.4342 0.0000 -1.1759 0.0000
# 3 68.6800 32.4342 121.0991 0.0000 -1.9037 0.0000
# 4 0.0000 0.0000 0.0000 20.5885 0.0000 0.8812
# 5 9.0226 -1.1759 -1.9037 0.0000 29.8773 0.0000
# 6 0.0000 0.0000 0.0000 0.8812 0.0000 12.4088
#
#
#
# Elastic Compliance Matrix: (Units=1/GPa)
#
#
# Indices 1 2 3 4 5 6 
#
# 1 0.022693 -0.001135 -0.012687 0.000000 -0.007706 0.000000
# 2 -0.001135 0.025018 -0.006042 0.000000 0.000943 0.000000
# 3 -0.012687 -0.006042 0.017145 0.000000 0.004686 0.000000
# 4 0.000000 0.000000 0.000000 0.048719 0.000000 -0.003460
# 5 -0.007706 0.000943 0.004686 0.000000 0.036133 0.000000
# 6 0.000000 0.000000 0.000000 -0.003460 0.000000 0.080834
#
#
# Mechanical properties :
#
#
# Convention : Reuss Voigt Hill
#
# Bulk Modulus (GPa) = 39.79787 55.44187 47.61987
# Shear Modulus (GPa) = 17.94402 21.58250 19.76326
#
# Velocity S-wave (km/s) = 3.11769 3.41919 3.27192
# Velocity P-wave (km/s) = 5.87519 6.75425 6.33000
#
# Compressibility (1/GPa) = 0.02512697
#
# Stress axis : x y z
#
# Youngs Moduli (GPa) = 44.06731 39.97182 58.32670
#
# Poissons Ratio (x) = 0.04538 0.73999
# Poissons Ratio (y) = 0.05003 0.35240
# Poissons Ratio (z) = 0.55908 0.24150
#
# Static dielectric constant tensor:
#      x y z
#    x 3.298390 0.000000 0.134700 
#    y 0.000000 3.288380 0.000000 
#    z 0.134700 0.000000 3.558510 
# 
# 
# High freq. dielectric constant tensor:
#      x y z
#    x 1.683670 0.000000 0.017340 
#    y 0.000000 1.711850 0.000000 
#    z 0.017340 0.000000 1.721880 
# 
# From -- ./inp_files/55185.got.cif
#   From: 2010.06.25/outbox.cif.g09.slc.cpg/sg10_28_cif.got.tgz:55185.got - 2010.06.27 22:07:45.
