data_PCOD8063068
_publ_section_title
;
Structure prediction by ZEFSAII (Michael W. Deem and Ramdas Pophale) SiO2 
 PCOD8063068
Probable space group: P 2/M
;
_chemical_formula_sum "Si O2"
_cell_formula_units_Z 26
_cell_length_a 10.703016
_cell_length_b 10.344098
_cell_length_c 15.531627
_cell_angle_alpha 90.000000
_cell_angle_beta 53.496136
_cell_angle_gamma 90.000000
_cell_volume 1382.206089
_symmetry_space_group_name_H-M "P 2/M"
_symmetry_group_IT_number 10
_symmetry_cell_setting 'monoclinic'
loop_
_space_group_symop_operation_xyz
x,y,z
-x,y,-z
-x,-y,-z
x,-y,z
loop_
_atom_site_type_symbol
_atom_site_label
_atom_site_fract_x
_atom_site_fract_y
_atom_site_fract_z
Si Si1 0.453107 0.141932 0.709370
Si Si2 0.138299 0.351125 0.242611
Si Si3 0.319739 0.850430 0.053151
Si Si4 0.695233 0.645387 0.647962
Si Si5 0.500000 0.203040 0.500000
Si Si6 0.798450 0.351828 0.420037
Si Si7 0.172177 0.850381 0.934704
O O1 0.556778 0.251533 0.711009
O O2 0.486900 0.123208 0.593712
O O3 0.273855 0.178213 0.806718
O O4 0.489969 0.000000 0.735358
O O5 0.159005 0.500000 0.201211
O O6 0.230892 0.248588 0.149883
O O7 0.191920 0.341310 0.318551
O O8 0.959955 0.304080 0.313283
O O9 0.271752 0.000000 0.090724
O O10 0.500000 0.830840 0.000000
O O11 0.274752 0.806034 0.974955
O O12 0.623768 0.500000 0.671849
O O13 0.798391 0.675752 0.521973
O O14 0.654929 0.286408 0.432185
O O15 0.778726 0.500000 0.407318
O O16 0.139298 0.000000 0.959030
O O17 0.000000 0.782241 0.000000
#
# Coordination Sequence:
#
# PCOD8063068 Si02
#       7
#     4   4   4   4   2   4   4
#     4  10  20  35  56  80 109 140 180 229 274 325
#     4  10  20  34  56  83 110 140 180 231 277 321
#     4  10  21  37  57  81 107 143 190 232 275 330
#     4   9  18  34  55  79 107 145 181 216 269 334
#     4  10  20  32  54  84 111 142 175 230 283 324
#     4   9  18  33  53  78 110 146 184 219 266 333
#     4   9  19  35  55  76 105 148 188 220 267 332
#
# _framework density 18.810509
#
# number of rings (size 3 to 8) (size 9 to 14) (size 15 to 20)
#    0.000    2.462    0.000    1.846    2.154    4.615 
#    0.000    3.846    0.000    5.538    0.000    0.000 
#    0.000    0.000    0.000    0.000    0.000    0.000 
#
# Total GULP energy -322153.085154 kJ/mol
# GULP energy per Si atom -12390.503275 kJ/mol
# Density = 1.876770 g / cm^3
# Si number density = 18.810509 Si / 1000 Ang^3
#
#
#
# Elastic Constant Matrix: (Units=GPa)
#
#
# Indices 1 2 3 4 5 6 
#
# 1 107.5385 41.3117 33.9239 0.0000 -19.0279 0.0000
# 2 41.3117 81.7850 56.3498 0.0000 -22.9960 0.0000
# 3 33.9239 56.3498 71.1082 0.0000 -21.8670 0.0000
# 4 0.0000 0.0000 0.0000 75.5388 0.0000 -22.7267
# 5 -19.0279 -22.9960 -21.8670 0.0000 33.5225 0.0000
# 6 0.0000 0.0000 0.0000 -22.7267 0.0000 18.5187
#
#
#
# Elastic Compliance Matrix: (Units=1/GPa)
#
#
# Indices 1 2 3 4 5 6 
#
# 1 0.011881 -0.004170 -0.001463 0.000000 0.002929 0.000000
# 2 -0.004170 0.029294 -0.019731 0.000000 0.004858 0.000000
# 3 -0.001463 -0.019731 0.032498 0.000000 0.006833 0.000000
# 4 0.000000 0.000000 0.000000 0.020987 0.000000 0.025756
# 5 0.002929 0.004858 0.006833 0.000000 0.039283 0.000000
# 6 0.000000 0.000000 0.000000 0.025756 0.000000 0.085608
#
#
# Mechanical properties :
#
#
# Convention : Reuss Voigt Hill
#
# Bulk Modulus (GPa) = 43.58136 58.17805 50.87970
# Shear Modulus (GPa) = 17.99036 34.10575 26.04806
#
# Velocity S-wave (km/s) = 3.09593 4.26270 3.72527
# Velocity P-wave (km/s) = 5.99988 7.43122 6.75358
#
# Compressibility (1/GPa) = 0.02294559
#
# Stress axis : x y z
#
# Youngs Moduli (GPa) = 84.17118 34.13688 30.77100
#
# Poissons Ratio (x) = 0.14234 0.04502
# Poissons Ratio (y) = 0.35096 0.60714
# Poissons Ratio (z) = 0.12314 0.67355
#
# Static dielectric constant tensor:
#      x y z
#    x 3.741850 0.000000 -0.113770 
#    y 0.000000 3.387780 0.000000 
#    z -0.113770 0.000000 3.521710 
# 
# 
# High freq. dielectric constant tensor:
#      x y z
#    x 1.731940 0.000000 -0.004250 
#    y 0.000000 1.714830 0.000000 
#    z -0.004250 0.000000 1.733570 
# 
# From -- ./inp_files/60894.got.cif
#   From: 2010.06.25/outbox.cif.g09.slc.cpg/sg10_31_cif.got.tgz:60894.got - 2010.06.27 22:07:45.
