data_PCOD8063999
_publ_section_title
;
Structure prediction by ZEFSAII (Michael W. Deem and Ramdas Pophale) SiO2 
 PCOD8063999
Probable space group: P 2/M
;
_chemical_formula_sum "Si O2"
_cell_formula_units_Z 32
_cell_length_a 9.160917
_cell_length_b 14.446633
_cell_length_c 16.546792
_cell_angle_alpha 90.000000
_cell_angle_beta 57.443245
_cell_angle_gamma 90.000000
_cell_volume 1845.755723
_symmetry_space_group_name_H-M "P 2/M"
_symmetry_group_IT_number 10
_symmetry_cell_setting 'monoclinic'
loop_
_space_group_symop_operation_xyz
x,y,z
-x,y,-z
-x,-y,-z
x,-y,z
loop_
_atom_site_type_symbol
_atom_site_label
_atom_site_fract_x
_atom_site_fract_y
_atom_site_fract_z
Si Si1 0.530462 0.605605 0.859244
Si Si2 0.769270 0.894002 0.403042
Si Si3 0.467745 0.106028 0.099821
Si Si4 0.963641 0.238885 0.104292
Si Si5 0.926532 0.107087 0.792228
Si Si6 0.781434 0.605474 0.927024
Si Si7 0.443380 0.107490 0.386904
Si Si8 0.432603 0.770894 0.790666
O O1 0.553728 0.500000 0.822625
O O2 0.687391 0.634692 0.871639
O O3 0.526750 0.673510 0.783072
O O4 0.349565 0.617378 0.959663
O O5 0.706237 0.852812 0.508126
O O6 0.624788 0.883616 0.378012
O O7 0.946137 0.849713 0.314754
O O8 0.803599 0.000000 0.412673
O O9 0.267100 0.119111 0.182498
O O10 0.584500 0.168071 0.123126
O O11 0.528301 0.000000 0.089991
O O12 0.500000 0.142420 0.000000
O O13 0.760031 0.246469 0.184638
O O14 0.047798 0.155524 0.129366
O O15 0.048831 0.334352 0.108405
O O16 0.000000 0.219629 0.000000
O O17 0.972842 0.000000 0.793525
O O18 0.843837 0.500000 0.902336
O O19 0.447849 0.173353 0.307887
O O20 0.412125 0.000000 0.370496
#
# Coordination Sequence:
#
# PCOD8063999 Si02
#       8
#     4   4   4   4   4   4   4   4
#     4   9  19  35  54  71  95 134 171 205 256 311
#     4   8  15  31  53  72  97 134 174 216 259 299
#     4  10  22  36  48  66 103 151 180 202 243 300
#     4  12  22  30  46  76 105 132 166 214 255 295
#     4  10  20  35  51  70 100 142 184 211 242 298
#     4   9  19  36  53  69  95 133 172 208 249 305
#     4   9  17  31  51  76 103 133 168 213 265 303
#     4  12  21  30  51  76 104 131 167 214 258 304
#
# _framework density 17.337071999999999
#
# number of rings (size 3 to 8) (size 9 to 14) (size 15 to 20)
#    0.000    2.125    2.500    3.375    1.750    1.500 
#    0.000    0.625    0.000    3.000    0.000    2.625 
#    0.000    3.000    0.000    0.000    0.000    0.000 
#
# Total GULP energy -396727.124029 kJ/mol
# GULP energy per Si atom -12397.722626 kJ/mol
# Density = 1.729761 g / cm^3
# Si number density = 17.337072 Si / 1000 Ang^3
#
#
#
# Elastic Constant Matrix: (Units=GPa)
#
#
# Indices 1 2 3 4 5 6 
#
# 1 66.9077 35.9245 23.7778 0.0000 -0.9959 0.0000
# 2 35.9245 81.8127 38.4603 0.0000 10.3144 0.0000
# 3 23.7778 38.4603 84.9506 0.0000 -2.0651 0.0000
# 4 0.0000 0.0000 0.0000 16.2066 0.0000 7.7790
# 5 -0.9959 10.3144 -2.0651 0.0000 24.3075 0.0000
# 6 0.0000 0.0000 0.0000 7.7790 0.0000 26.1888
#
#
#
# Elastic Compliance Matrix: (Units=1/GPa)
#
#
# Indices 1 2 3 4 5 6 
#
# 1 0.020249 -0.008675 -0.001634 0.000000 0.004372 0.000000
# 2 -0.008675 0.020613 -0.007140 0.000000 -0.009709 0.000000
# 3 -0.001634 -0.007140 0.015566 0.000000 0.004285 0.000000
# 4 0.000000 0.000000 0.000000 0.071964 0.000000 -0.021376
# 5 0.004372 -0.009709 0.004285 0.000000 0.045802 0.000000
# 6 0.000000 0.000000 0.000000 -0.021376 0.000000 0.044534
#
#
# Mechanical properties :
#
#
# Convention : Reuss Voigt Hill
#
# Bulk Modulus (GPa) = 46.44687 47.77735 47.11211
# Shear Modulus (GPa) = 19.17164 22.37447 20.77306
#
# Velocity S-wave (km/s) = 3.32899 3.59633 3.46524
# Velocity P-wave (km/s) = 6.45174 6.69795 6.57599
#
# Compressibility (1/GPa) = 0.02152998
#
# Stress axis : x y z
#
# Youngs Moduli (GPa) = 49.38416 48.51383 64.24360
#
# Poissons Ratio (x) = 0.42083 0.10499
# Poissons Ratio (y) = 0.42838 0.45871
# Poissons Ratio (z) = 0.08071 0.34640
#
# Static dielectric constant tensor:
#      x y z
#    x 3.200600 0.000000 -0.089070 
#    y 0.000000 3.165470 0.000000 
#    z -0.089070 0.000000 3.289890 
# 
# 
# High freq. dielectric constant tensor:
#      x y z
#    x 1.668180 0.000000 -0.000680 
#    y 0.000000 1.651900 0.000000 
#    z -0.000680 0.000000 1.650210 
# 
# From -- ./inp_files/35147.got.cif
#   From: 2010.06.25/outbox.cif.g09.slc.cpg/sg10_18_cif.got.tgz:35147.got - 2010.06.27 22:07:45.
