data_PCOD8063970
_publ_section_title
;
Structure prediction by ZEFSAII (Michael W. Deem and Ramdas Pophale) SiO2 
 PCOD8063970
Probable space group: P 2/M
;
_chemical_formula_sum "Si O2"
_cell_formula_units_Z 30
_cell_length_a 7.652875
_cell_length_b 25.790431
_cell_length_c 11.155887
_cell_angle_alpha 90.000000
_cell_angle_beta 138.995634
_cell_angle_gamma 90.000000
_cell_volume 1444.668855
_symmetry_space_group_name_H-M "P 2/M"
_symmetry_group_IT_number 10
_symmetry_cell_setting 'monoclinic'
loop_
_space_group_symop_operation_xyz
x,y,z
-x,y,-z
-x,-y,-z
x,-y,z
loop_
_atom_site_type_symbol
_atom_site_label
_atom_site_fract_x
_atom_site_fract_y
_atom_site_fract_z
Si Si1 0.977183 0.864564 0.284349
Si Si2 0.149670 0.608523 0.757480
Si Si3 0.272050 0.057470 0.284399
Si Si4 0.796373 0.782407 0.999110
Si Si5 0.582772 0.867311 0.290291
Si Si6 0.381313 0.439945 0.563737
Si Si7 0.500000 0.699750 0.000000
Si Si8 0.662024 0.441792 0.935427
O O1 0.735189 0.881772 0.245988
O O2 0.027387 0.910965 0.216119
O O3 0.229176 0.853891 0.499874
O O4 0.922685 0.813421 0.177326
O O5 0.280233 0.665609 0.812531
O O6 0.356164 0.564297 0.822402
O O7 0.869679 0.599424 0.544406
O O8 0.128891 0.596484 0.890591
O O9 0.500000 0.052850 0.500000
O O10 0.383728 0.085904 0.223088
O O11 0.173661 0.000000 0.196466
O O12 0.579616 0.815879 0.817749
O O13 0.653054 0.732485 0.979154
O O14 0.000000 0.765242 0.000000
O O15 0.500000 0.425292 0.500000
O O16 0.287975 0.500000 0.525446
O O17 0.630107 0.427695 0.779303
O O18 0.765191 0.500000 0.006439
#
# Coordination Sequence:
#
# PCOD8063970 Si02
#       8
#     4   4   4   4   4   4   2   4
#     4  10  20  36  61  87 116 153 197 240 288 348
#     4  10  20  38  57  80 117 148 188 241 290 339
#     4   9  18  33  55  89 126 154 189 235 292 355
#     4  12  22  40  66  84 111 149 198 255 296 341
#     4  10  20  36  61  87 115 155 195 241 289 347
#     4  10  20  34  57  89 122 156 191 228 276 343
#     4  10  24  44  59  88 113 150 200 246 308 346
#     4   9  17  32  58  84 108 151 195 225 271 340
#
# _framework density 20.766003999999999
#
# number of rings (size 3 to 8) (size 9 to 14) (size 15 to 20)
#    0.000    2.133    2.667    2.000    0.000    2.133 
#    4.800   11.333    0.000    1.600    0.000    0.000 
#    0.000    0.000    0.000    0.000    0.000    0.000 
#
# Total GULP energy -371714.470827 kJ/mol
# GULP energy per Si atom -12390.482361 kJ/mol
# Density = 2.071874 g / cm^3
# Si number density = 20.766004 Si / 1000 Ang^3
#
#
#
# Elastic Constant Matrix: (Units=GPa)
#
#
# Indices 1 2 3 4 5 6 
#
# 1 139.8196 51.4788 10.0513 0.0000 -13.4040 0.0000
# 2 51.4788 114.8322 16.7962 0.0000 -1.8600 0.0000
# 3 10.0513 16.7962 24.1623 0.0000 -14.7143 0.0000
# 4 0.0000 0.0000 0.0000 41.9802 0.0000 9.1192
# 5 -13.4040 -1.8600 -14.7143 0.0000 27.1346 0.0000
# 6 0.0000 0.0000 0.0000 9.1192 0.0000 -0.1079
#
#
#
# Elastic Compliance Matrix: (Units=1/GPa)
#
#
# Indices 1 2 3 4 5 6 
#
# 1 0.009118 -0.004393 0.002718 0.000000 0.005677 0.000000
# 2 -0.004393 0.012187 -0.011134 0.000000 -0.007372 0.000000
# 3 0.002718 -0.011134 0.072187 0.000000 0.039724 0.000000
# 4 0.000000 0.000000 0.000000 0.001231 0.000000 0.103993
# 5 0.005677 -0.007372 0.039724 0.000000 0.060693 0.000000
# 6 0.000000 0.000000 0.000000 0.103993 0.000000 -0.478733
#
#
# Mechanical properties :
#
#
# Convention : Reuss Voigt Hill
#
# Bulk Modulus (GPa) = 14.73315 48.38519 31.55917
# Shear Modulus (GPa) = -18.17692 27.16722 4.49515
#
# Velocity S-wave (km/s) = -2.96179 3.62090 1.47288
# Velocity P-wave (km/s) = 2.14150 6.39000 4.25711
#
# Compressibility (1/GPa) = 0.06787413
#
# Stress axis : x y z
#
# Youngs Moduli (GPa) = 109.66741 82.05501 13.85300
#
# Poissons Ratio (x) = 0.36050 -0.03765
# Poissons Ratio (y) = 0.48181 0.15423
# Poissons Ratio (z) = -0.29808 0.91356
#
# Static dielectric constant tensor:
#      x y z
#    x 4.103180 0.000000 -0.317590 
#    y 0.000000 3.612610 0.000000 
#    z -0.317590 0.000000 4.298670 
# 
# 
# High freq. dielectric constant tensor:
#      x y z
#    x 1.821940 0.000000 -0.013460 
#    y 0.000000 1.781790 0.000000 
#    z -0.013460 0.000000 1.819240 
# 
# From -- ./inp_files/43716.got.cif
#   From: 2010.06.25/outbox.cif.g09.slc.cpg/sg10_22_cif.got.tgz:43716.got - 2010.06.27 22:07:45.
