data_PCOD8063988
_publ_section_title
;
Structure prediction by ZEFSAII (Michael W. Deem and Ramdas Pophale) SiO2 
 PCOD8063988
Probable space group: P 2/M
;
_chemical_formula_sum "Si O2"
_cell_formula_units_Z 24
_cell_length_a 8.968100
_cell_length_b 17.144517
_cell_length_c 17.911468
_cell_angle_alpha 90.000000
_cell_angle_beta 151.842424
_cell_angle_gamma 90.000000
_cell_volume 1299.586205
_symmetry_space_group_name_H-M "P 2/M"
_symmetry_group_IT_number 10
_symmetry_cell_setting 'monoclinic'
loop_
_space_group_symop_operation_xyz
x,y,z
-x,y,-z
-x,-y,-z
x,-y,z
loop_
_atom_site_type_symbol
_atom_site_label
_atom_site_fract_x
_atom_site_fract_y
_atom_site_fract_z
Si Si1 0.328055 0.685140 0.101776
Si Si2 0.665777 0.222685 0.370913
Si Si3 0.432554 0.818661 0.885272
Si Si4 0.628837 0.085929 0.833140
Si Si5 0.309574 0.589382 0.841457
Si Si6 0.818993 0.277143 0.596221
O O1 0.593011 0.713012 0.276098
O O2 0.327777 0.748249 0.033457
O O3 0.444753 0.603341 0.118658
O O4 0.000000 0.676682 0.000000
O O5 0.433840 0.148268 0.261229
O O6 0.672163 0.270773 0.449234
O O7 0.000000 0.184340 0.500000
O O8 0.483933 0.888690 0.849381
O O9 0.066291 0.792348 0.720217
O O10 0.500000 0.845290 0.000000
O O11 0.490935 0.000000 0.753195
O O12 0.000000 0.081041 0.000000
O O13 0.200621 0.500000 0.794473
O O14 0.993790 0.641022 0.691288
O O15 0.500000 0.612419 0.000000
O O16 0.500000 0.267659 0.500000
#
# Coordination Sequence:
#
# PCOD8063988 Si02
#       6
#     4   4   4   4   4   4
#     4  10  20  34  59  85 112 147 196 236 278 335
#     4  11  19  37  57  87 110 146 190 239 279 331
#     4  10  20  36  56  84 115 151 192 236 276 331
#     4  10  22  39  60  84 115 154 188 229 285 341
#     4  10  22  41  58  80 118 155 187 229 285 345
#     4  11  23  35  58  87 112 147 192 234 287 331
#
# _framework density 18.467416
#
# number of rings (size 3 to 8) (size 9 to 14) (size 15 to 20)
#    0.000    1.667    5.000    4.000    7.000    1.333 
#    0.000    1.667    0.000    1.000    0.000    0.000 
#    0.000    0.000    0.000    0.000    0.000    0.000 
#
# Total GULP energy -297337.111330 kJ/mol
# GULP energy per Si atom -12389.046305 kJ/mol
# Density = 1.842538 g / cm^3
# Si number density = 18.467416 Si / 1000 Ang^3
#
#
#
# Elastic Constant Matrix: (Units=GPa)
#
#
# Indices 1 2 3 4 5 6 
#
# 1 110.6274 42.6429 50.5920 0.0000 8.3572 0.0000
# 2 42.6429 99.0577 50.8950 0.0000 -11.5070 0.0000
# 3 50.5920 50.8950 90.1267 0.0000 -6.4764 0.0000
# 4 0.0000 0.0000 0.0000 26.8815 0.0000 7.4552
# 5 8.3572 -11.5070 -6.4764 0.0000 47.6475 0.0000
# 6 0.0000 0.0000 0.0000 7.4552 0.0000 11.5275
#
#
#
# Elastic Compliance Matrix: (Units=1/GPa)
#
#
# Indices 1 2 3 4 5 6 
#
# 1 0.013256 -0.003087 -0.005977 0.000000 -0.003883 0.000000
# 2 -0.003087 0.015209 -0.006618 0.000000 0.003315 0.000000
# 3 -0.005977 -0.006618 0.018327 0.000000 0.001941 0.000000
# 4 0.000000 0.000000 0.000000 0.045331 0.000000 -0.029317
# 5 -0.003883 0.003315 0.001941 0.000000 0.022733 0.000000
# 6 0.000000 0.000000 0.000000 -0.029317 0.000000 0.105709
#
#
# Mechanical properties :
#
#
# Convention : Reuss Voigt Hill
#
# Bulk Modulus (GPa) = 64.81175 65.34128 65.07651
# Shear Modulus (GPa) = 19.44988 27.59009 23.51998
#
# Velocity S-wave (km/s) = 3.24882 3.86941 3.57262
# Velocity P-wave (km/s) = 7.01744 7.44458 7.23417
#
# Compressibility (1/GPa) = 0.01542930
#
# Stress axis : x y z
#
# Youngs Moduli (GPa) = 75.43821 65.75008 54.56326
#
# Poissons Ratio (x) = 0.20294 0.32613
# Poissons Ratio (y) = 0.23284 0.36109
# Poissons Ratio (z) = 0.45090 0.43512
#
# Static dielectric constant tensor:
#      x y z
#    x 3.409520 0.000000 -0.236340 
#    y 0.000000 3.360610 0.000000 
#    z -0.236340 0.000000 3.796270 
# 
# 
# High freq. dielectric constant tensor:
#      x y z
#    x 1.722790 0.000000 -0.001000 
#    y 0.000000 1.694380 0.000000 
#    z -0.001000 0.000000 1.720180 
# 
# From -- ./inp_files/32960.got.cif
#   From: 2010.06.25/outbox.cif.g09.slc.cpg/sg10_17_cif.got.tgz:32960.got - 2010.06.27 22:07:45.
