data_PCOD8063801
_publ_section_title
;
Structure prediction by ZEFSAII (Michael W. Deem and Ramdas Pophale) SiO2 
 PCOD8063801
Probable space group: P 2/M
;
_chemical_formula_sum "Si O2"
_cell_formula_units_Z 28
_cell_length_a 15.454065
_cell_length_b 9.551551
_cell_length_c 20.770090
_cell_angle_alpha 90.000000
_cell_angle_beta 152.413531
_cell_angle_gamma 90.000000
_cell_volume 1419.767903
_symmetry_space_group_name_H-M "P 2/M"
_symmetry_group_IT_number 10
_symmetry_cell_setting 'monoclinic'
loop_
_space_group_symop_operation_xyz
x,y,z
-x,y,-z
-x,-y,-z
x,-y,z
loop_
_atom_site_type_symbol
_atom_site_label
_atom_site_fract_x
_atom_site_fract_y
_atom_site_fract_z
Si Si1 0.594087 0.336597 0.390124
Si Si2 0.650106 0.843689 0.190286
Si Si3 0.658661 0.838662 0.558383
Si Si4 0.945721 0.162419 0.130624
Si Si5 0.175223 0.663232 0.069773
Si Si6 0.203673 0.337234 0.608132
Si Si7 0.236386 0.155677 0.866206
O O1 0.604437 0.500000 0.413657
O O2 0.670061 0.250532 0.500817
O O3 0.377416 0.295510 0.232752
O O4 0.738600 0.300947 0.427074
O O5 0.649177 0.744120 0.250932
O O6 0.773086 0.777040 0.211875
O O7 0.721239 0.000000 0.255492
O O8 0.443999 0.853794 0.028679
O O9 0.500000 0.778487 0.500000
O O10 0.833101 0.823267 0.721493
O O11 0.625817 0.000000 0.516652
O O12 0.883371 0.232369 0.157902
O O13 0.881314 0.000000 0.081562
O O14 0.850649 0.248314 0.011474
O O15 0.172715 0.500000 0.050276
O O16 0.000000 0.701224 0.000000
O O17 0.229812 0.500000 0.638375
O O18 0.000000 0.287546 0.500000
O O19 0.153182 0.000000 0.803457
#
# Coordination Sequence:
#
# PCOD8063801 Si02
#       7
#     4   4   4   4   4   4   4
#     4  10  22  39  58  80 111 151 188 225 274 329
#     4   9  17  32  54  76 101 134 175 216 262 315
#     4  10  22  38  56  83 116 145 179 227 278 329
#     4  10  20  34  55  80 108 140 177 220 271 325
#     4  10  21  37  57  82 109 138 180 231 276 325
#     4  10  22  37  51  73 110 146 179 222 266 311
#     4   8  16  31  51  77 105 131 165 219 268 308
#
# _framework density 19.721534999999999
#
# number of rings (size 3 to 8) (size 9 to 14) (size 15 to 20)
#    0.000    2.429    0.000    2.571    2.000    2.571 
#    0.000    2.143    0.000    0.000    0.000    0.000 
#    0.000    0.000    0.000    0.000    0.000    0.000 
#
# Total GULP energy -346896.462127 kJ/mol
# GULP energy per Si atom -12389.159362 kJ/mol
# Density = 1.967665 g / cm^3
# Si number density = 19.721535 Si / 1000 Ang^3
#
#
#
# Elastic Constant Matrix: (Units=GPa)
#
#
# Indices 1 2 3 4 5 6 
#
# 1 105.3075 31.3466 12.7697 0.0000 -1.1839 0.0000
# 2 31.3466 42.8173 18.8103 0.0000 -15.6549 0.0000
# 3 12.7697 18.8103 46.8827 0.0000 -4.5306 0.0000
# 4 0.0000 0.0000 0.0000 3.5406 0.0000 -7.8647
# 5 -1.1839 -15.6549 -4.5306 0.0000 37.7378 0.0000
# 6 0.0000 0.0000 0.0000 -7.8647 0.0000 34.7504
#
#
#
# Elastic Compliance Matrix: (Units=1/GPa)
#
#
# Indices 1 2 3 4 5 6 
#
# 1 0.012662 -0.011025 0.000578 0.000000 -0.004107 0.000000
# 2 -0.011025 0.042782 -0.012627 0.000000 0.015885 0.000000
# 3 0.000578 -0.012627 0.026036 0.000000 -0.002094 0.000000
# 4 0.000000 0.000000 0.000000 0.567977 0.000000 0.128544
# 5 -0.004107 0.015885 -0.002094 0.000000 0.032708 0.000000
# 6 0.000000 0.000000 0.000000 0.128544 0.000000 0.057869
#
#
# Mechanical properties :
#
#
# Convention : Reuss Voigt Hill
#
# Bulk Modulus (GPa) = 28.30333 35.65120 31.97726
# Shear Modulus (GPa) = 6.26599 24.01114 15.13856
#
# Velocity S-wave (km/s) = 1.78441 3.49307 2.77359
# Velocity P-wave (km/s) = 4.31603 5.86389 5.14846
#
# Compressibility (1/GPa) = 0.03533153
#
# Stress axis : x y z
#
# Youngs Moduli (GPa) = 78.97936 23.37454 38.40807
#
# Poissons Ratio (x) = 0.25770 -0.02219
# Poissons Ratio (y) = 0.87074 0.48497
# Poissons Ratio (z) = -0.04564 0.29515
#
# Static dielectric constant tensor:
#      x y z
#    x 3.132620 0.000000 -0.029440 
#    y 0.000000 3.359370 0.000000 
#    z -0.029440 0.000000 3.394480 
# 
# 
# High freq. dielectric constant tensor:
#      x y z
#    x 1.790360 0.000000 0.007740 
#    y 0.000000 1.741240 0.000000 
#    z 0.007740 0.000000 1.763450 
# 
# From -- ./inp_files/70268.got.cif
#   From: 2010.06.25/outbox.cif.g09.slc.cpg/sg10_36_cif.got.tgz:70268.got - 2010.06.27 22:07:45.
