data_PCOD8063279
_publ_section_title
;
Structure prediction by ZEFSAII (Michael W. Deem and Ramdas Pophale) SiO2 
 PCOD8063279
Probable space group: P 2/M
;
_chemical_formula_sum "Si O2"
_cell_formula_units_Z 32
_cell_length_a 11.407622
_cell_length_b 8.955685
_cell_length_c 20.028413
_cell_angle_alpha 90.000000
_cell_angle_beta 125.530250
_cell_angle_gamma 90.000000
_cell_volume 1665.186419
_symmetry_space_group_name_H-M "P 2/M"
_symmetry_group_IT_number 10
_symmetry_cell_setting 'monoclinic'
loop_
_space_group_symop_operation_xyz
x,y,z
-x,y,-z
-x,-y,-z
x,-y,z
loop_
_atom_site_type_symbol
_atom_site_label
_atom_site_fract_x
_atom_site_fract_y
_atom_site_fract_z
Si Si1 0.967362 0.673582 0.756219
Si Si2 0.371503 0.174576 0.545133
Si Si3 0.761069 0.833863 0.930577
Si Si4 0.490099 0.821464 0.919724
Si Si5 0.312152 0.175289 0.378039
Si Si6 0.152397 0.178035 0.579958
Si Si7 0.795993 0.822867 0.252685
Si Si8 0.036686 0.168692 0.113665
O O1 0.988533 0.500000 0.750203
O O2 0.062054 0.764154 0.735595
O O3 0.803081 0.723604 0.696435
O O4 0.009693 0.716283 0.844964
O O5 0.322516 0.235826 0.457095
O O6 0.539618 0.207054 0.612388
O O7 0.276374 0.245078 0.572780
O O8 0.342934 0.000000 0.534003
O O9 0.624370 0.753274 0.920796
O O10 0.824515 0.766035 0.882027
O O11 0.707868 0.000000 0.895712
O O12 0.894645 0.840981 0.023523
O O13 0.345417 0.764896 0.834149
O O14 0.497094 0.000000 0.923885
O O15 0.500000 0.762240 0.000000
O O16 0.272852 0.000000 0.362587
O O17 0.192270 0.236874 0.667268
O O18 0.000000 0.236910 0.500000
O O19 0.151209 0.000000 0.580630
O O20 0.797879 0.000000 0.251869
O O21 0.071597 0.000000 0.151679
#
# Coordination Sequence:
#
# PCOD8063279 Si02
#       8
#     4   4   4   4   4   4   4   4
#     4  12  24  35  48  70 102 135 171 214 255 296
#     4   8  15  29  52  82 106 125 159 209 258 302
#     4   8  15  29  52  82 106 125 159 209 258 302
#     4   9  16  27  48  79 109 131 160 207 253 296
#     4   9  17  32  55  78 101 130 164 204 253 308
#     4   9  16  27  48  79 109 131 160 207 253 296
#     4  10  20  33  52  74  96 133 177 212 255 306
#     4   9  17  32  55  78 101 130 164 204 253 308
#
# _framework density 19.217067
#
# number of rings (size 3 to 8) (size 9 to 14) (size 15 to 20)
#    0.000    2.750    0.000    4.125    0.000    5.000 
#    0.000    6.250    0.000    9.750    0.000    0.000 
#    0.000    0.000    0.000    0.000    0.000    0.000 
#
# Total GULP energy -396470.928358 kJ/mol
# GULP energy per Si atom -12389.716511 kJ/mol
# Density = 1.917333 g / cm^3
# Si number density = 19.217067 Si / 1000 Ang^3
#
#
#
# Elastic Constant Matrix: (Units=GPa)
#
#
# Indices 1 2 3 4 5 6 
#
# 1 154.3024 12.3806 49.8396 0.0000 -9.6719 0.0000
# 2 12.3806 9.5202 16.3956 0.0000 -0.5394 0.0000
# 3 49.8396 16.3956 99.6801 0.0000 -5.2059 0.0000
# 4 0.0000 0.0000 0.0000 0.2478 0.0000 -0.7742
# 5 -9.6719 -0.5394 -5.2059 0.0000 32.1207 0.0000
# 6 0.0000 0.0000 0.0000 -0.7742 0.0000 2.6834
#
#
#
# Elastic Compliance Matrix: (Units=1/GPa)
#
#
# Indices 1 2 3 4 5 6 
#
# 1 0.007990 -0.004983 -0.003080 0.000000 0.001823 0.000000
# 2 -0.004983 0.149729 -0.022272 0.000000 -0.002596 0.000000
# 3 -0.003080 -0.022272 0.015297 0.000000 0.001178 0.000000
# 4 0.000000 0.000000 0.000000 41.057733 0.000000 11.846576
# 5 0.001823 -0.002596 0.001178 0.000000 0.031829 0.000000
# 6 0.000000 0.000000 0.000000 11.846576 0.000000 3.790811
#
#
# Mechanical properties :
#
#
# Convention : Reuss Voigt Hill
#
# Bulk Modulus (GPa) = 8.90106 46.74825 27.82465
# Shear Modulus (GPa) = 0.11074 19.33617 9.72345
#
# Velocity S-wave (km/s) = 0.24031 3.17550 2.25184
# Velocity P-wave (km/s) = 2.17230 6.15015 4.61212
#
# Compressibility (1/GPa) = 0.11234623
#
# Stress axis : x y z
#
# Youngs Moduli (GPa) = 125.16153 6.67874 65.37244
#
# Poissons Ratio (x) = 0.03328 0.20135
# Poissons Ratio (y) = 0.62362 1.45597
# Poissons Ratio (z) = 0.38551 0.14875
#
# Static dielectric constant tensor:
#      x y z
#    x 4.044080 0.000000 -0.138280 
#    y 0.000000 2.850620 0.000000 
#    z -0.138280 0.000000 3.601290 
# 
# 
# High freq. dielectric constant tensor:
#      x y z
#    x 1.769650 0.000000 -0.002000 
#    y 0.000000 1.668120 0.000000 
#    z -0.002000 0.000000 1.750150 
# 
# From -- ./inp_files/83644.got.cif
#   From: 2010.06.25/outbox.cif.g09.slc.cpg/sg10_42_cif.got.tgz:83644.got - 2010.06.27 22:07:45.
