data_PCOD8063850
_publ_section_title
;
Structure prediction by ZEFSAII (Michael W. Deem and Ramdas Pophale) SiO2 
 PCOD8063850
Probable space group: P 2/M
;
_chemical_formula_sum "Si O2"
_cell_formula_units_Z 32
_cell_length_a 25.352041
_cell_length_b 9.346924
_cell_length_c 19.646519
_cell_angle_alpha 90.000000
_cell_angle_beta 158.161522
_cell_angle_gamma 90.000000
_cell_volume 1731.809139
_symmetry_space_group_name_H-M "P 2/M"
_symmetry_group_IT_number 10
_symmetry_cell_setting 'monoclinic'
loop_
_space_group_symop_operation_xyz
x,y,z
-x,y,-z
-x,-y,-z
x,-y,z
loop_
_atom_site_type_symbol
_atom_site_label
_atom_site_fract_x
_atom_site_fract_y
_atom_site_fract_z
Si Si1 0.581972 0.332117 0.399580
Si Si2 0.825534 0.663758 0.477137
Si Si3 0.043824 0.669233 0.626147
Si Si4 0.882532 0.338186 0.699440
Si Si5 0.459267 0.163400 0.873338
Si Si6 0.080235 0.832372 0.028650
Si Si7 0.602373 0.832230 0.561356
Si Si8 0.365086 0.667987 0.022486
O O1 0.583730 0.500000 0.416751
O O2 0.729162 0.281535 0.541181
O O3 0.554511 0.249895 0.436616
O O4 0.453359 0.291153 0.195386
O O5 0.780671 0.500000 0.406816
O O6 0.898486 0.671236 0.637794
O O7 0.690220 0.763084 0.317074
O O8 0.935088 0.726291 0.552855
O O9 0.033531 0.500000 0.611133
O O10 0.000000 0.733675 0.500000
O O11 0.202146 0.715254 0.837242
O O12 0.902711 0.500000 0.749114
O O13 0.009993 0.243786 0.880469
O O14 0.578829 0.245908 0.974831
O O15 0.450257 0.000000 0.837351
O O16 0.500000 0.173321 0.000000
O O17 0.241911 0.783387 0.229215
O O18 0.065819 0.000000 0.999360
O O19 0.000000 0.781855 0.000000
O O20 0.500000 0.788867 0.500000
O O21 0.597046 0.000000 0.538615
O O22 0.379955 0.500000 0.024000
#
# Coordination Sequence:
#
# PCOD8063850 Si02
#       8
#     4   4   4   4   4   4   4   4
#     4  10  20  35  56  84 114 143 181 229 281 333
#     4  10  20  37  58  83 113 145 185 232 281 334
#     4   9  18  33  57  86 112 144 186 229 277 333
#     4  10  20  34  55  85 114 141 179 229 279 327
#     4  11  23  36  53  82 114 146 189 235 279 331
#     4  10  20  35  56  80 104 142 187 221 266 324
#     4  10  22  39  57  80 112 148 187 229 272 327
#     4  10  20  37  59  84 113 148 190 232 281 344
#
# _framework density 18.477788
#
# number of rings (size 3 to 8) (size 9 to 14) (size 15 to 20)
#    0.000    2.000    2.500    1.125    0.000    5.000 
#    0.000    1.875    0.000    2.250    0.000    0.000 
#    0.000    0.000    0.000    0.000    0.000    0.000 
#
# Total GULP energy -396895.247805 kJ/mol
# GULP energy per Si atom -12402.976494 kJ/mol
# Density = 1.843573 g / cm^3
# Si number density = 18.477788 Si / 1000 Ang^3
#
#
#
# Elastic Constant Matrix: (Units=GPa)
#
#
# Indices 1 2 3 4 5 6 
#
# 1 97.4525 21.2622 19.4033 0.0000 1.5751 0.0000
# 2 21.2622 44.7010 20.1736 0.0000 -6.1544 0.0000
# 3 19.4033 20.1736 86.7767 0.0000 -4.6063 0.0000
# 4 0.0000 0.0000 0.0000 -62.9505 0.0000 65.9894
# 5 1.5751 -6.1544 -4.6063 0.0000 33.1247 0.0000
# 6 0.0000 0.0000 0.0000 65.9894 0.0000 -51.3761
#
#
#
# Elastic Compliance Matrix: (Units=1/GPa)
#
#
# Indices 1 2 3 4 5 6 
#
# 1 0.011709 -0.005121 -0.001519 0.000000 -0.001719 0.000000
# 2 -0.005121 0.027733 -0.005053 0.000000 0.004694 0.000000
# 3 -0.001519 -0.005053 0.013089 0.000000 0.000953 0.000000
# 4 0.000000 0.000000 0.000000 0.045853 0.000000 0.058895
# 5 -0.001719 0.004694 0.000953 0.000000 0.031275 0.000000
# 6 0.000000 0.000000 0.000000 0.058895 0.000000 0.056183
#
#
# Mechanical properties :
#
#
# Convention : Reuss Voigt Hill
#
# Bulk Modulus (GPa) = 34.31073 38.95647 36.63360
# Shear Modulus (GPa) = 22.83698 -5.03431 8.90134
#
# Velocity S-wave (km/s) = 3.51937 -1.65240 2.19722
# Velocity P-wave (km/s) = 5.92652 4.18187 5.12892
#
# Compressibility (1/GPa) = 0.02914540
#
# Stress axis : x y z
#
# Youngs Moduli (GPa) = 85.40550 36.05780 76.40096
#
# Poissons Ratio (x) = 0.18464 0.11605
# Poissons Ratio (y) = 0.43733 0.38607
# Poissons Ratio (z) = 0.12973 0.18221
#
# Static dielectric constant tensor:
#      x y z
#    x 3.327180 0.000000 0.212200 
#    y 0.000000 3.270240 0.000000 
#    z 0.212200 0.000000 3.332300 
# 
# 
# High freq. dielectric constant tensor:
#      x y z
#    x 1.722950 0.000000 -0.002220 
#    y 0.000000 1.696700 0.000000 
#    z -0.002220 0.000000 1.725470 
# 
# From -- ./inp_files/87044.got.cif
#   From: 2010.06.25/outbox.cif.g09.slc.cpg/sg10_44_cif.got.tgz:87044.got - 2010.06.27 22:07:45.
