data_PCOD8063121
_publ_section_title
;
Structure prediction by ZEFSAII (Michael W. Deem and Ramdas Pophale) SiO2 
 PCOD8063121
Probable space group: P 2/M
;
_chemical_formula_sum "Si O2"
_cell_formula_units_Z 32
_cell_length_a 25.823965
_cell_length_b 9.130890
_cell_length_c 14.139084
_cell_angle_alpha 90.000000
_cell_angle_beta 33.310286
_cell_angle_gamma 90.000000
_cell_volume 1830.907375
_symmetry_space_group_name_H-M "P 2/M"
_symmetry_group_IT_number 10
_symmetry_cell_setting 'monoclinic'
loop_
_space_group_symop_operation_xyz
x,y,z
-x,y,-z
-x,-y,-z
x,-y,z
loop_
_atom_site_type_symbol
_atom_site_label
_atom_site_fract_x
_atom_site_fract_y
_atom_site_fract_z
Si Si1 0.391642 0.171649 0.396725
Si Si2 0.753042 0.326885 0.732065
Si Si3 0.893921 0.328531 0.146672
Si Si4 0.258066 0.669763 0.467904
Si Si5 0.892647 0.828716 0.652931
Si Si6 0.758537 0.173263 0.219662
Si Si7 0.606228 0.825837 0.082264
Si Si8 0.257402 0.829388 0.965436
O O1 0.349095 0.245742 0.368387
O O2 0.332751 0.217444 0.579436
O O3 0.498315 0.225213 0.248934
O O4 0.387776 0.000000 0.385611
O O5 0.748574 0.500000 0.755338
O O6 0.760866 0.284402 0.610478
O O7 0.845957 0.262924 0.639999
O O8 0.658158 0.252994 0.916309
O O9 0.891145 0.500000 0.128612
O O10 0.834773 0.288517 0.330683
O O11 0.851965 0.245045 0.120479
O O12 0.000000 0.272759 0.000000
O O13 0.281994 0.500000 0.440411
O O14 0.839918 0.793839 0.831896
O O15 0.000000 0.777814 0.500000
O O16 0.884485 0.000000 0.639944
O O17 0.774152 0.000000 0.194190
O O18 0.743756 0.241215 0.137277
O O19 0.617928 0.000000 0.051737
O O20 0.654581 0.771999 0.106428
O O21 0.270889 0.000000 0.929839
#
# Coordination Sequence:
#
# PCOD8063121 Si02
#       8
#     4   4   4   4   4   4   4   4
#     4   9  18  31  49  72  94 120 157 197 233 275
#     4  10  20  33  49  70  95 124 159 196 233 274
#     4   9  18  33  50  67  91 124 157 188 228 278
#     4   9  19  34  49  67  95 127 156 191 236 281
#     4   9  18  33  51  71  97 128 158 189 231 280
#     4   9  17  30  48  71  96 120 152 193 233 274
#     4   9  18  33  50  69  95 125 156 191 234 282
#     4   8  15  29  48  69  95 124 152 186 229 276
#
# _framework density 17.477672999999999
#
# number of rings (size 3 to 8) (size 9 to 14) (size 15 to 20)
#    0.000    3.000    0.000    1.125    0.000    4.000 
#    0.000    7.500    0.000    0.000    0.000    7.000 
#    0.000    0.000    0.000    0.000    0.000    0.000 
#
# Total GULP energy -396776.547677 kJ/mol
# GULP energy per Si atom -12399.267115 kJ/mol
# Density = 1.743789 g / cm^3
# Si number density = 17.477673 Si / 1000 Ang^3
#
#
#
# Elastic Constant Matrix: (Units=GPa)
#
#
# Indices 1 2 3 4 5 6 
#
# 1 148.9176 44.7453 92.5766 0.0000 1.8057 0.0000
# 2 44.7453 35.1905 35.6629 0.0000 -1.6963 0.0000
# 3 92.5766 35.6629 116.5528 0.0000 -19.4147 0.0000
# 4 0.0000 0.0000 0.0000 21.3948 0.0000 0.2390
# 5 1.8057 -1.6963 -19.4147 0.0000 37.6649 0.0000
# 6 0.0000 0.0000 0.0000 0.2390 0.0000 17.4683
#
#
#
# Elastic Compliance Matrix: (Units=1/GPa)
#
#
# Indices 1 2 3 4 5 6 
#
# 1 0.017193 -0.010346 -0.011711 0.000000 -0.007327 0.000000
# 2 -0.010346 0.048322 -0.006698 0.000000 -0.000780 0.000000
# 3 -0.011711 -0.006698 0.021850 0.000000 0.011523 0.000000
# 4 0.000000 0.000000 0.000000 0.046748 0.000000 -0.000640
# 5 -0.007327 -0.000780 0.011523 0.000000 0.032806 0.000000
# 6 0.000000 0.000000 0.000000 -0.000640 0.000000 0.057255
#
#
# Mechanical properties :
#
#
# Convention : Reuss Voigt Hill
#
# Bulk Modulus (GPa) = 33.49424 71.84782 52.67103
# Shear Modulus (GPa) = 17.14471 23.81732 20.48101
#
# Velocity S-wave (km/s) = 3.13541 3.69552 3.42693
# Velocity P-wave (km/s) = 5.68448 7.70758 6.77200
#
# Compressibility (1/GPa) = 0.02985588
#
# Stress axis : x y z
#
# Youngs Moduli (GPa) = 58.16376 20.69447 45.76583
#
# Poissons Ratio (x) = 0.21411 0.53595
# Poissons Ratio (y) = 0.60177 0.30653
# Poissons Ratio (z) = 0.68114 0.13861
#
# Static dielectric constant tensor:
#      x y z
#    x 3.427080 0.000000 0.012740 
#    y 0.000000 3.060080 0.000000 
#    z 0.012740 0.000000 3.366560 
# 
# 
# High freq. dielectric constant tensor:
#      x y z
#    x 1.680610 0.000000 -0.001290 
#    y 0.000000 1.656860 0.000000 
#    z -0.001290 0.000000 1.676130 
# 
# From -- ./inp_files/71502.got.cif
#   From: 2010.06.25/outbox.cif.g09.slc.cpg/sg10_36_cif.got.tgz:71502.got - 2010.06.27 22:07:45.
