data_PCOD8063692
_publ_section_title
;
Structure prediction by ZEFSAII (Michael W. Deem and Ramdas Pophale) SiO2 
 PCOD8063692
Probable space group: P 2/M
;
_chemical_formula_sum "Si O2"
_cell_formula_units_Z 22
_cell_length_a 8.733005
_cell_length_b 15.132467
_cell_length_c 7.997839
_cell_angle_alpha 90.000000
_cell_angle_beta 87.652800
_cell_angle_gamma 90.000000
_cell_volume 1056.042931
_symmetry_space_group_name_H-M "P 2/M"
_symmetry_group_IT_number 10
_symmetry_cell_setting 'monoclinic'
loop_
_space_group_symop_operation_xyz
x,y,z
-x,y,-z
-x,-y,-z
x,-y,z
loop_
_atom_site_type_symbol
_atom_site_label
_atom_site_fract_x
_atom_site_fract_y
_atom_site_fract_z
Si Si1 0.120673 0.900091 0.843935
Si Si2 0.653036 0.402723 0.555184
Si Si3 0.675639 0.246185 0.047573
Si Si4 0.143883 0.707229 0.257408
Si Si5 0.000000 0.833287 0.500000
Si Si6 0.164755 0.398851 0.780432
O O1 0.268106 0.834439 0.836539
O O2 0.049830 0.890040 0.659564
O O3 0.180599 0.000000 0.859499
O O4 0.000000 0.880088 0.000000
O O5 0.500000 0.351226 0.500000
O O6 0.599629 0.500000 0.610684
O O7 0.719010 0.361208 0.719522
O O8 0.788141 0.404477 0.414087
O O9 0.705246 0.343404 0.126145
O O10 0.500000 0.235454 0.000000
O O11 0.793097 0.230784 0.890306
O O12 0.129233 0.766321 0.424762
O O13 0.993434 0.655328 0.201264
O O14 0.148314 0.500000 0.851439
#
# Coordination Sequence:
#
# PCOD8063692 Si02
#       6
#     4   4   4   4   2   4
#     4  11  23  44  72 101 131 167 214 268 326 393
#     4  10  20  34  53  84 126 171 216 266 325 381
#     4  12  25  42  63  92 134 174 213 271 333 387
#     4  12  21  37  64  89 126 170 223 264 319 382
#     4  12  21  40  71 100 124 162 211 276 311 386
#     4  11  22  38  59  88 126 171 224 271 315 378
#
# _framework density 20.832485999999999
#
# number of rings (size 3 to 8) (size 9 to 14) (size 15 to 20)
#    0.000    0.727    5.455    2.455    0.000    4.364 
#    0.000    0.000    0.000    1.091    0.000    0.000 
#    0.000    0.000    0.000    0.000    0.000    0.000 
#
# Total GULP energy -272551.138301 kJ/mol
# GULP energy per Si atom -12388.688105 kJ/mol
# Density = 2.078507 g / cm^3
# Si number density = 20.832486 Si / 1000 Ang^3
#
#
#
# Elastic Constant Matrix: (Units=GPa)
#
#
# Indices 1 2 3 4 5 6 
#
# 1 120.9330 52.4298 17.3849 0.0000 27.4894 0.0000
# 2 52.4298 118.0512 31.5572 0.0000 11.9709 0.0000
# 3 17.3849 31.5572 81.4039 0.0000 10.0542 0.0000
# 4 0.0000 0.0000 0.0000 26.9827 0.0000 2.1785
# 5 27.4894 11.9709 10.0542 0.0000 35.5414 0.0000
# 6 0.0000 0.0000 0.0000 2.1785 0.0000 21.8864
#
#
#
# Elastic Compliance Matrix: (Units=1/GPa)
#
#
# Indices 1 2 3 4 5 6 
#
# 1 0.012003 -0.004589 0.000177 0.000000 -0.007789 0.000000
# 2 -0.004589 0.011377 -0.003519 0.000000 0.000712 0.000000
# 3 0.000177 -0.003519 0.013969 0.000000 -0.002904 0.000000
# 4 0.000000 0.000000 0.000000 0.037361 0.000000 -0.003719
# 5 -0.007789 0.000712 -0.002904 0.000000 0.034742 0.000000
# 6 0.000000 0.000000 0.000000 -0.003719 0.000000 0.046061
#
#
# Mechanical properties :
#
#
# Convention : Reuss Voigt Hill
#
# Bulk Modulus (GPa) = 46.53311 58.12577 52.32944
# Shear Modulus (GPa) = 28.00554 31.48317 29.74436
#
# Velocity S-wave (km/s) = 3.67048 3.89170 3.78271
# Velocity P-wave (km/s) = 6.35205 6.93944 6.65223
#
# Compressibility (1/GPa) = 0.02149008
#
# Stress axis : x y z
#
# Youngs Moduli (GPa) = 83.30998 87.89532 71.58606
#
# Poissons Ratio (x) = 0.40332 -0.01269
# Poissons Ratio (y) = 0.38228 0.25188
# Poissons Ratio (z) = -0.01477 0.30926
#
# Static dielectric constant tensor:
#      x y z
#    x 3.594530 0.000000 0.058610 
#    y 0.000000 3.859140 0.000000 
#    z 0.058610 0.000000 3.814190 
# 
# 
# High freq. dielectric constant tensor:
#      x y z
#    x 1.803100 0.000000 0.006130 
#    y 0.000000 1.810670 0.000000 
#    z 0.006130 0.000000 1.823020 
# 
# From -- ./inp_files/18841.got.cif
#   From: 2010.06.25/outbox.cif.g09.slc.cpg/sg10_10_cif.got.tgz:18841.got - 2010.06.27 22:07:45.
