data_PCOD8063968
_publ_section_title
;
Structure prediction by ZEFSAII (Michael W. Deem and Ramdas Pophale) SiO2 
 PCOD8063968
Probable space group: P 2/M
;
_chemical_formula_sum "Si O2"
_cell_formula_units_Z 16
_cell_length_a 5.258019
_cell_length_b 10.386159
_cell_length_c 19.185771
_cell_angle_alpha 90.000000
_cell_angle_beta 129.123886
_cell_angle_gamma 90.000000
_cell_volume 812.824652
_symmetry_space_group_name_H-M "P 2/M"
_symmetry_group_IT_number 10
_symmetry_cell_setting 'monoclinic'
loop_
_space_group_symop_operation_xyz
x,y,z
-x,y,-z
-x,-y,-z
x,-y,z
loop_
_atom_site_type_symbol
_atom_site_label
_atom_site_fract_x
_atom_site_fract_y
_atom_site_fract_z
Si Si1 0.027029 0.143462 0.186777
Si Si2 0.325395 0.752900 0.744254
Si Si3 0.857394 0.651114 0.546665
Si Si4 0.064419 0.644896 0.090229
O O1 0.424829 0.153793 0.254733
O O2 0.877728 0.251082 0.107610
O O3 0.899862 0.165470 0.242669
O O4 0.923765 0.000000 0.144674
O O5 0.545054 0.651017 0.826347
O O6 0.098089 0.676570 0.652077
O O7 0.500000 0.712498 0.500000
O O8 0.817753 0.500000 0.529476
O O9 0.000000 0.712332 0.500000
O O10 0.935103 0.500000 0.082772
O O11 0.000000 0.685683 0.000000
#
# Coordination Sequence:
#
# PCOD8063968 Si02
#       4
#     4   4   4   4
#     4  10  22  39  62  86 119 162 202 240 288 353
#     4  10  21  38  61  85 121 154 196 242 300 338
#     4  10  20  34  57  89 120 151 194 244 296 353
#     4   9  21  39  61  91 122 154 196 245 299 354
#
# _framework density 19.684442000000001
#
# number of rings (size 3 to 8) (size 9 to 14) (size 15 to 20)
#    1.500    0.750    0.000    3.000    0.000    3.500 
#    0.000    3.750    0.000   15.000    0.000    0.000 
#    0.000    0.000    0.000    0.000    0.000    0.000 
#
# Total GULP energy -198240.556081 kJ/mol
# GULP energy per Si atom -12390.034755 kJ/mol
# Density = 1.963964 g / cm^3
# Si number density = 19.684442 Si / 1000 Ang^3
#
#
#
# Elastic Constant Matrix: (Units=GPa)
#
#
# Indices 1 2 3 4 5 6 
#
# 1 143.0822 33.7903 37.6914 0.0000 -20.8358 0.0000
# 2 33.7903 74.0399 11.9020 0.0000 -11.9975 0.0000
# 3 37.6914 11.9020 129.1744 0.0000 -1.8528 0.0000
# 4 0.0000 0.0000 0.0000 13.1498 0.0000 -5.1506
# 5 -20.8358 -11.9975 -1.8528 0.0000 20.7706 0.0000
# 6 0.0000 0.0000 0.0000 -5.1506 0.0000 9.6945
#
#
#
# Elastic Compliance Matrix: (Units=1/GPa)
#
#
# Indices 1 2 3 4 5 6 
#
# 1 0.009353 -0.002649 -0.002375 0.000000 0.007640 0.000000
# 2 -0.002649 0.015856 -0.000596 0.000000 0.006449 0.000000
# 3 -0.002375 -0.000596 0.008461 0.000000 -0.001972 0.000000
# 4 0.000000 0.000000 0.000000 0.096031 0.000000 0.051020
# 5 0.007640 0.006449 -0.001972 0.000000 0.059358 0.000000
# 6 0.000000 0.000000 0.000000 0.051020 0.000000 0.130257
#
#
# Mechanical properties :
#
#
# Convention : Reuss Voigt Hill
#
# Bulk Modulus (GPa) = 44.58214 57.00712 50.79463
# Shear Modulus (GPa) = 14.79152 26.25050 20.52101
#
# Velocity S-wave (km/s) = 2.74420 3.65576 3.23228
# Velocity P-wave (km/s) = 5.72175 6.84418 6.30798
#
# Compressibility (1/GPa) = 0.02243051
#
# Stress axis : x y z
#
# Youngs Moduli (GPa) = 106.91956 63.06910 118.18682
#
# Poissons Ratio (x) = 0.16704 0.28074
# Poissons Ratio (y) = 0.28318 0.07039
# Poissons Ratio (z) = 0.25398 0.03757
#
# Static dielectric constant tensor:
#      x y z
#    x 3.751700 0.000000 -0.066600 
#    y 0.000000 3.258820 0.000000 
#    z -0.066600 0.000000 3.337600 
# 
# 
# High freq. dielectric constant tensor:
#      x y z
#    x 1.774410 0.000000 -0.006930 
#    y 0.000000 1.741240 0.000000 
#    z -0.006930 0.000000 1.755590 
# 
# From -- ./inp_files/6304.got.cif
#   From: 2010.06.25/outbox.cif.g09.slc.cpg/sg10_4_cif.got.tgz:6304.got - 2010.06.27 22:07:45.
