data_PCOD8063252
_publ_section_title
;
Structure prediction by ZEFSAII (Michael W. Deem and Ramdas Pophale) SiO2 
 PCOD8063252
Probable space group: P 2/M
;
_chemical_formula_sum "Si O2"
_cell_formula_units_Z 20
_cell_length_a 13.235000
_cell_length_b 12.602423
_cell_length_c 9.567424
_cell_angle_alpha 90.000000
_cell_angle_beta 136.293443
_cell_angle_gamma 90.000000
_cell_volume 1102.628361
_symmetry_space_group_name_H-M "P 2/M"
_symmetry_group_IT_number 10
_symmetry_cell_setting 'monoclinic'
loop_
_space_group_symop_operation_xyz
x,y,z
-x,y,-z
-x,-y,-z
x,-y,z
loop_
_atom_site_type_symbol
_atom_site_label
_atom_site_fract_x
_atom_site_fract_y
_atom_site_fract_z
Si Si1 0.670321 0.292155 0.507785
Si Si2 0.832990 0.877101 0.171834
Si Si3 0.670321 0.707845 0.832857
Si Si4 0.165148 0.500000 0.331363
Si Si5 0.167010 0.122899 0.505855
Si Si6 0.165148 0.500000 0.998933
O O1 0.500000 0.309805 0.310873
O O2 0.705318 0.274585 0.705318
O O3 0.753430 0.395384 0.531049
O O4 0.723440 0.188924 0.479658
O O5 0.803505 0.849516 0.303505
O O6 0.000000 0.849624 0.299155
O O7 0.800804 0.000000 0.110666
O O8 0.723440 0.811076 0.967221
O O9 0.753430 0.604616 0.975810
O O10 1.000000 0.500000 0.223727
O O11 0.169595 0.500000 0.169595
O O12 0.199196 0.000000 0.509058
#
# Coordination Sequence:
#
# PCOD8063252 Si02
#       6
#     4   4   4   2   4   2
#     4  10  20  33  51  77 107 135 165 205 252 301
#     4   9  19  36  55  74  99 133 172 212 253 297
#     4  10  20  33  51  77 107 135 165 205 252 301
#     4   9  17  31  52  75 100 133 170 206 248 297
#     4   9  19  36  55  74  99 133 172 212 253 297
#     4   9  17  31  52  75 100 133 170 206 248 297
#
# _framework density 18.138477000000002
#
# number of rings (size 3 to 8) (size 9 to 14) (size 15 to 20)
#    0.000    2.600    0.000    3.000    0.000    7.200 
#    0.000    7.000    0.000    6.000    0.000    0.000 
#    0.000    0.000    0.000    0.000    0.000    0.000 
#
# Total GULP energy -248044.547182 kJ/mol
# GULP energy per Si atom -12402.227359 kJ/mol
# Density = 1.809719 g / cm^3
# Si number density = 18.138477 Si / 1000 Ang^3
#
#
#
# Elastic Constant Matrix: (Units=GPa)
#
#
# Indices 1 2 3 4 5 6 
#
# 1 97.6273 61.7078 39.0341 0.0000 16.4420 0.0000
# 2 61.7078 114.3930 61.1068 0.0000 9.9510 0.0000
# 3 39.0341 61.1068 95.6009 0.0000 17.1106 0.0000
# 4 0.0000 0.0000 0.0000 14.6774 0.0000 18.4944
# 5 16.4420 9.9510 17.1106 0.0000 17.7298 0.0000
# 6 0.0000 0.0000 0.0000 18.4944 0.0000 15.7944
#
#
#
# Elastic Compliance Matrix: (Units=1/GPa)
#
#
# Indices 1 2 3 4 5 6 
#
# 1 0.017539 -0.008713 0.000537 0.000000 -0.011892 0.000000
# 2 -0.008713 0.017615 -0.008919 0.000000 0.006801 0.000000
# 3 0.000537 -0.008919 0.018295 0.000000 -0.013148 0.000000
# 4 0.000000 0.000000 0.000000 -0.143296 0.000000 0.167792
# 5 -0.011892 0.006801 -0.013148 0.000000 0.076302 0.000000
# 6 0.000000 0.000000 0.000000 0.167792 0.000000 -0.133162
#
#
# Mechanical properties :
#
#
# Convention : Reuss Voigt Hill
#
# Bulk Modulus (GPa) = 51.92646 70.14651 61.03649
# Shear Modulus (GPa) = -47.12633 19.35849 -13.88392
#
# Velocity S-wave (km/s) = -5.10273 3.27044 -2.76966
# Velocity P-wave (km/s) = 2.45502 7.28133 4.84720
#
# Compressibility (1/GPa) = 0.01925800
#
# Stress axis : x y z
#
# Youngs Moduli (GPa) = 57.01667 56.77113 54.66010
#
# Poissons Ratio (x) = 0.49466 -0.02934
# Poissons Ratio (y) = 0.49680 0.48749
# Poissons Ratio (z) = -0.03061 0.50632
#
# Static dielectric constant tensor:
#      x y z
#    x 3.220220 0.000000 0.166060 
#    y 0.000000 3.384270 0.000000 
#    z 0.166060 0.000000 3.210190 
# 
# 
# High freq. dielectric constant tensor:
#      x y z
#    x 1.693290 0.000000 0.018280 
#    y 0.000000 1.712600 0.000000 
#    z 0.018280 0.000000 1.692190 
# 
# From -- ./inp_files/23886.got.cif
#   From: 2010.06.25/outbox.cif.g09.slc.cpg/sg10_12_cif.got.tgz:23886.got - 2010.06.27 22:07:45.
