data_PCOD8063425
_publ_section_title
;
Structure prediction by ZEFSAII (Michael W. Deem and Ramdas Pophale) SiO2 
 PCOD8063425
Probable space group: P 2/M
;
_chemical_formula_sum "Si O2"
_cell_formula_units_Z 18
_cell_length_a 13.363595
_cell_length_b 7.781425
_cell_length_c 21.542418
_cell_angle_alpha 90.000000
_cell_angle_beta 24.316621
_cell_angle_gamma 90.000000
_cell_volume 922.445679
_symmetry_space_group_name_H-M "P 2/M"
_symmetry_group_IT_number 10
_symmetry_cell_setting 'monoclinic'
loop_
_space_group_symop_operation_xyz
x,y,z
-x,y,-z
-x,-y,-z
x,-y,z
loop_
_atom_site_type_symbol
_atom_site_label
_atom_site_fract_x
_atom_site_fract_y
_atom_site_fract_z
Si Si1 0.919699 0.500000 0.147204
Si Si2 0.743355 0.690369 0.622827
Si Si3 0.733859 0.190348 0.048460
Si Si4 0.261970 0.806156 0.096508
Si Si5 0.619490 0.500000 0.580244
Si Si6 0.082828 0.500000 0.705762
O O1 0.672018 0.500000 0.248685
O O2 0.851309 0.500000 0.258911
O O3 0.070617 0.332011 0.040872
O O4 0.721337 0.500000 0.666547
O O5 0.518774 0.804382 0.771832
O O6 0.724431 0.667752 0.558144
O O7 0.000000 0.774178 0.500000
O O8 0.847302 0.000000 0.994292
O O9 0.669057 0.222989 0.013721
O O10 0.058787 0.672508 0.232465
O O11 0.167616 0.000000 0.162421
O O12 0.500000 0.763390 0.000000
O O13 0.683916 0.500000 0.471072
#
# Coordination Sequence:
#
# PCOD8063425 Si02
#       6
#     2   4   4   4   2   2
#     4  10  20  39  57  79 111 140 184 235 262 313
#     4   9  20  35  55  80 112 141 176 222 270 322
#     4  10  20  36  58  81 109 144 182 226 272 317
#     4   9  19  32  52  83 109 138 180 222 268 323
#     4  10  21  36  57  80 108 150 185 217 271 324
#     4  10  20  33  57  79 106 146 177 219 276 318
#
# _framework density 19.513345000000001
#
# number of rings (size 3 to 8) (size 9 to 14) (size 15 to 20)
#    0.667    1.778    1.111    0.667    3.111    2.222 
#    0.000    4.444    0.000    5.333    0.000    0.000 
#    0.000    0.000    0.000    0.000    0.000    0.000 
#
# Total GULP energy -223079.443078 kJ/mol
# GULP energy per Si atom -12393.302393 kJ/mol
# Density = 1.946893 g / cm^3
# Si number density = 19.513345 Si / 1000 Ang^3
#
#
#
# Elastic Constant Matrix: (Units=GPa)
#
#
# Indices 1 2 3 4 5 6 
#
# 1 61.8095 19.0886 36.4328 0.0000 -13.9205 0.0000
# 2 19.0886 92.6801 33.4295 0.0000 -5.5895 0.0000
# 3 36.4328 33.4295 106.3096 0.0000 -3.4414 0.0000
# 4 0.0000 0.0000 0.0000 14.5261 0.0000 5.9923
# 5 -13.9205 -5.5895 -3.4414 0.0000 34.5063 0.0000
# 6 0.0000 0.0000 0.0000 5.9923 0.0000 10.1848
#
#
#
# Elastic Compliance Matrix: (Units=1/GPa)
#
#
# Indices 1 2 3 4 5 6 
#
# 1 0.022641 -0.001655 -0.006974 0.000000 0.008170 0.000000
# 2 -0.001655 0.012379 -0.003293 0.000000 0.001009 0.000000
# 3 -0.006974 -0.003293 0.012765 0.000000 -0.002074 0.000000
# 4 0.000000 0.000000 0.000000 0.090906 0.000000 -0.053485
# 5 0.008170 0.001009 -0.002074 0.000000 0.032233 0.000000
# 6 0.000000 0.000000 0.000000 -0.053485 0.000000 0.129654
#
#
# Mechanical properties :
#
#
# Convention : Reuss Voigt Hill
#
# Bulk Modulus (GPa) = 41.76943 48.74455 45.25699
# Shear Modulus (GPa) = 15.04203 23.29999 19.17101
#
# Velocity S-wave (km/s) = 2.77945 3.45926 3.13782
# Velocity P-wave (km/s) = 5.63493 6.40231 6.03084
#
# Compressibility (1/GPa) = 0.02394095
#
# Stress axis : x y z
#
# Youngs Moduli (GPa) = 44.16826 80.78034 78.33968
#
# Poissons Ratio (x) = 0.13368 0.54636
# Poissons Ratio (y) = 0.07309 0.25797
# Poissons Ratio (z) = 0.30804 0.26600
#
# Static dielectric constant tensor:
#      x y z
#    x 3.439460 0.000000 -0.018980 
#    y 0.000000 3.545430 0.000000 
#    z -0.018980 0.000000 3.301000 
# 
# 
# High freq. dielectric constant tensor:
#      x y z
#    x 1.756640 0.000000 -0.001240 
#    y 0.000000 1.748870 0.000000 
#    z -0.001240 0.000000 1.745150 
# 
# From -- ./inp_files/81817.got.cif
#   From: 2010.06.25/outbox.cif.g09.slc.cpg/sg10_41_cif.got.tgz:81817.got - 2010.06.27 22:07:45.
