data_PCOD8063266
_publ_section_title
;
Structure prediction by ZEFSAII (Michael W. Deem and Ramdas Pophale) SiO2 
 PCOD8063266
Probable space group: P 2/M
;
_chemical_formula_sum "Si O2"
_cell_formula_units_Z 24
_cell_length_a 9.135538
_cell_length_b 7.784006
_cell_length_c 20.646726
_cell_angle_alpha 90.000000
_cell_angle_beta 59.152752
_cell_angle_gamma 90.000000
_cell_volume 1260.514025
_symmetry_space_group_name_H-M "P 2/M"
_symmetry_group_IT_number 10
_symmetry_cell_setting 'monoclinic'
loop_
_space_group_symop_operation_xyz
x,y,z
-x,y,-z
-x,-y,-z
x,-y,z
loop_
_atom_site_type_symbol
_atom_site_label
_atom_site_fract_x
_atom_site_fract_y
_atom_site_fract_z
Si Si1 0.784504 0.000000 0.433042
Si Si2 0.371052 0.305759 0.977147
Si Si3 0.355914 0.803093 0.837070
Si Si4 0.981406 0.302614 0.580033
Si Si5 0.591793 0.307324 0.675939
Si Si6 0.985160 0.188801 0.927179
Si Si7 0.499423 0.000000 0.394131
O O1 0.897980 0.827343 0.408154
O O2 0.678256 0.000000 0.391000
O O3 0.660785 0.000000 0.522278
O O4 0.423709 0.500000 0.950474
O O5 0.388280 0.203062 0.906543
O O6 0.500000 0.223204 0.000000
O O7 0.180308 0.302517 0.051381
O O8 0.495192 0.694450 0.766637
O O9 0.165653 0.730914 0.862228
O O10 0.369210 0.000000 0.812068
O O11 0.032193 0.500000 0.584873
O O12 0.788319 0.261178 0.644611
O O13 0.000000 0.265716 0.500000
O O14 0.579393 0.500000 0.648985
O O15 0.505646 0.172808 0.646993
O O16 0.958830 0.000000 0.902246
O O17 0.000000 0.169435 0.000000
#
# Coordination Sequence:
#
# PCOD8063266 Si02
#       7
#     2   4   4   4   4   4   2
#     4  11  22  37  62  85 120 152 188 246 289 347
#     4  10  20  33  51  79 111 143 183 229 281 338
#     4  10  20  35  57  81 107 142 189 236 280 337
#     4  10  20  36  60  89 116 153 198 237 283 342
#     4  11  22  38  61  86 117 153 197 243 285 344
#     4   8  16  31  51  75 101 133 178 225 266 324
#     4  11  23  38  57  90 117 151 194 235 298 345
#
# _framework density 19.039852
#
# number of rings (size 3 to 8) (size 9 to 14) (size 15 to 20)
#    0.000    2.000    2.500    2.750    0.000    5.667 
#    0.000    3.333    0.000    0.000    0.000    0.000 
#    0.000    0.000    0.000    0.000    0.000    0.000 
#
# Total GULP energy -297504.481291 kJ/mol
# GULP energy per Si atom -12396.020054 kJ/mol
# Density = 1.899652 g / cm^3
# Si number density = 19.039852 Si / 1000 Ang^3
#
#
#
# Elastic Constant Matrix: (Units=GPa)
#
#
# Indices 1 2 3 4 5 6 
#
# 1 140.4700 58.7567 55.6198 0.0000 -16.2088 0.0000
# 2 58.7567 103.5416 25.0407 0.0000 -4.0595 0.0000
# 3 55.6198 25.0407 104.9684 0.0000 -26.0718 0.0000
# 4 0.0000 0.0000 0.0000 27.6198 0.0000 -7.5178
# 5 -16.2088 -4.0595 -26.0718 0.0000 25.9444 0.0000
# 6 0.0000 0.0000 0.0000 -7.5178 0.0000 25.3986
#
#
#
# Elastic Compliance Matrix: (Units=1/GPa)
#
#
# Indices 1 2 3 4 5 6 
#
# 1 0.011211 -0.005270 -0.004196 0.000000 0.001963 0.000000
# 2 -0.005270 0.012752 -0.000762 0.000000 -0.002063 0.000000
# 3 -0.004196 -0.000762 0.014993 0.000000 0.012326 0.000000
# 4 0.000000 0.000000 0.000000 0.039378 0.000000 0.011656
# 5 0.001963 -0.002063 0.012326 0.000000 0.051835 0.000000
# 6 0.000000 0.000000 0.000000 0.011656 0.000000 0.042822
#
#
# Mechanical properties :
#
#
# Convention : Reuss Voigt Hill
#
# Bulk Modulus (GPa) = 54.05147 69.75716 61.90432
# Shear Modulus (GPa) = 25.04824 29.76341 27.40583
#
# Velocity S-wave (km/s) = 3.63101 3.95804 3.79805
# Velocity P-wave (km/s) = 6.78448 7.58980 7.19841
#
# Compressibility (1/GPa) = 0.01850088
#
# Stress axis : x y z
#
# Youngs Moduli (GPa) = 89.19543 78.41834 66.69714
#
# Poissons Ratio (x) = 0.41330 0.27983
# Poissons Ratio (y) = 0.47010 0.05081
# Poissons Ratio (z) = 0.37423 0.05974
#
# Static dielectric constant tensor:
#      x y z
#    x 3.501640 0.000000 -0.374580 
#    y 0.000000 3.488590 0.000000 
#    z -0.374580 0.000000 3.537560 
# 
# 
# High freq. dielectric constant tensor:
#      x y z
#    x 1.723220 0.000000 -0.028630 
#    y 0.000000 1.746900 0.000000 
#    z -0.028630 0.000000 1.728810 
# 
# From -- ./inp_files/81945.got.cif
#   From: 2010.06.25/outbox.cif.g09.slc.cpg/sg10_41_cif.got.tgz:81945.got - 2010.06.27 22:07:45.
