data_PCOD8063636
_publ_section_title
;
Structure prediction by ZEFSAII (Michael W. Deem and Ramdas Pophale) SiO2 
 PCOD8063636
Probable space group: P 2/M
;
_chemical_formula_sum "Si O2"
_cell_formula_units_Z 28
_cell_length_a 23.164929
_cell_length_b 8.903509
_cell_length_c 26.716098
_cell_angle_alpha 90.000000
_cell_angle_beta 164.407749
_cell_angle_gamma 90.000000
_cell_volume 1481.076841
_symmetry_space_group_name_H-M "P 2/M"
_symmetry_group_IT_number 10
_symmetry_cell_setting 'monoclinic'
loop_
_space_group_symop_operation_xyz
x,y,z
-x,y,-z
-x,-y,-z
x,-y,z
loop_
_atom_site_type_symbol
_atom_site_label
_atom_site_fract_x
_atom_site_fract_y
_atom_site_fract_z
Si Si1 0.941727 0.324094 0.818296
Si Si2 0.415461 0.821700 0.547456
Si Si3 0.446344 0.678739 0.877405
Si Si4 0.436195 0.322783 0.228254
Si Si5 0.833406 0.321299 0.265471
Si Si6 0.688969 0.679054 0.342337
Si Si7 0.288720 0.835300 0.290909
O O1 0.907141 0.500000 0.782911
O O2 0.799938 0.242422 0.657887
O O3 0.875547 0.278232 0.819724
O O4 0.187939 0.275953 0.016772
O O5 0.441507 0.757164 0.624348
O O6 0.630483 0.775081 0.695660
O O7 0.391795 0.000000 0.528984
O O8 0.445409 0.500000 0.875235
O O9 0.254378 0.733337 0.753754
O O10 0.413818 0.743903 0.794641
O O11 0.674399 0.737004 0.089047
O O12 0.461230 0.500000 0.256674
O O13 0.549905 0.263969 0.272866
O O14 0.839888 0.500000 0.270585
O O15 0.069452 0.256040 0.451951
O O16 0.691611 0.500000 0.343276
O O17 0.500000 0.851888 0.500000
O O18 0.178844 0.000000 0.194322
#
# Coordination Sequence:
#
# PCOD8063636 Si02
#       7
#     4   4   4   4   4   4   4
#     4  10  20  34  53  77 105 133 163 206 256 304
#     4  10  21  37  56  75  98 131 170 213 255 298
#     4   8  13  21  35  58  85 116 158 199 236 281
#     4  10  22  35  48  73 105 138 173 204 245 303
#     4   8  13  21  36  58  84 118 158 197 236 282
#     4   9  16  26  39  57  89 130 163 192 233 288
#     4   8  16  32  53  76  98 125 165 208 254 303
#
# _framework density 18.905165
#
# number of rings (size 3 to 8) (size 9 to 14) (size 15 to 20)
#    0.000    3.000    0.000    3.000    0.000    7.714 
#    0.000    7.143    0.000    0.000    0.000    0.000 
#    0.000    2.286    0.000    8.571    0.000    8.571 
#
# Total GULP energy -347043.867844 kJ/mol
# GULP energy per Si atom -12394.423852 kJ/mol
# Density = 1.886214 g / cm^3
# Si number density = 18.905165 Si / 1000 Ang^3
#
#
#
# Elastic Constant Matrix: (Units=GPa)
#
#
# Indices 1 2 3 4 5 6 
#
# 1 146.7158 13.7805 71.0387 0.0000 -0.9916 0.0000
# 2 13.7805 27.0610 18.7955 0.0000 -0.5734 0.0000
# 3 71.0387 18.7955 110.1109 0.0000 0.9038 0.0000
# 4 0.0000 0.0000 0.0000 -0.9338 0.0000 -3.7227
# 5 -0.9916 -0.5734 0.9038 0.0000 28.4892 0.0000
# 6 0.0000 0.0000 0.0000 -3.7227 0.0000 3.3402
#
#
#
# Elastic Compliance Matrix: (Units=1/GPa)
#
#
# Indices 1 2 3 4 5 6 
#
# 1 0.009932 -0.000673 -0.006297 0.000000 0.000532 0.000000
# 2 -0.000673 0.042002 -0.006744 0.000000 0.001036 0.000000
# 3 -0.006297 -0.006744 0.014302 0.000000 -0.000809 0.000000
# 4 0.000000 0.000000 0.000000 -0.196746 0.000000 -0.219274
# 5 0.000532 0.001036 -0.000809 0.000000 0.035166 0.000000
# 6 0.000000 0.000000 0.000000 -0.219274 0.000000 0.055000
#
#
# Mechanical properties :
#
#
# Convention : Reuss Voigt Hill
#
# Bulk Modulus (GPa) = 25.76757 54.56857 40.16807
# Shear Modulus (GPa) = 249421.58366 18.19734 124719.89050
#
# Velocity S-wave (km/s) = 363.61993 3.10588 257.12750
# Velocity P-wave (km/s) = 419.88840 6.46444 296.94112
#
# Compressibility (1/GPa) = 0.03880847
#
# Stress axis : x y z
#
# Youngs Moduli (GPa) = 100.68845 23.80819 69.91961
#
# Poissons Ratio (x) = 0.01601 0.44028
# Poissons Ratio (y) = 0.06773 0.47155
# Poissons Ratio (z) = 0.63403 0.16057
#
# Static dielectric constant tensor:
#      x y z
#    x 3.822170 0.000000 0.029050 
#    y 0.000000 2.965400 0.000000 
#    z 0.029050 0.000000 3.577340 
# 
# 
# High freq. dielectric constant tensor:
#      x y z
#    x 1.739430 0.000000 -0.001940 
#    y 0.000000 1.681450 0.000000 
#    z -0.001940 0.000000 1.737910 
# 
# From -- ./inp_files/90398.got.cif
#   From: 2010.06.25/outbox.cif.g09.slc.cpg/sg10_46_cif.got.tgz:90398.got - 2010.06.27 22:07:45.
