data_PCOD8063623
_publ_section_title
;
Structure prediction by ZEFSAII (Michael W. Deem and Ramdas Pophale) SiO2 
 PCOD8063623
Probable space group: P 2/M
;
_chemical_formula_sum "Si O2"
_cell_formula_units_Z 28
_cell_length_a 22.951897
_cell_length_b 9.279727
_cell_length_c 20.133607
_cell_angle_alpha 90.000000
_cell_angle_beta 19.454505
_cell_angle_gamma 90.000000
_cell_volume 1428.221557
_symmetry_space_group_name_H-M "P 2/M"
_symmetry_group_IT_number 10
_symmetry_cell_setting 'monoclinic'
loop_
_space_group_symop_operation_xyz
x,y,z
-x,y,-z
-x,-y,-z
x,-y,z
loop_
_atom_site_type_symbol
_atom_site_label
_atom_site_fract_x
_atom_site_fract_y
_atom_site_fract_z
Si Si1 0.608095 0.834256 0.060966
Si Si2 0.222886 0.165755 0.446168
Si Si3 0.988101 0.839150 0.938917
Si Si4 0.037685 0.170884 0.386922
Si Si5 0.053421 0.666180 0.745293
Si Si6 0.415101 0.160855 0.657880
Si Si7 0.352126 0.666180 0.849156
O O1 0.430506 0.819425 0.208528
O O2 0.585188 0.741735 0.151500
O O3 0.641197 0.000000 0.046103
O O4 0.771893 0.775398 0.842218
O O5 0.114048 0.224586 0.500051
O O6 0.178135 0.258241 0.558555
O O7 0.171549 0.000000 0.515735
O O8 0.090378 0.737464 0.777421
O O9 0.071666 0.000000 0.848590
O O10 0.790206 0.847734 0.129397
O O11 0.000000 0.772231 0.000000
O O12 0.000000 0.238395 0.500000
O O13 0.035092 0.000000 0.394691
O O14 0.105392 0.500000 0.694559
O O15 0.854644 0.687579 0.936078
O O16 0.500000 0.227769 0.500000
O O17 0.458171 0.262520 0.674031
O O18 0.491900 0.000000 0.587839
O O19 0.405330 0.500000 0.794719
#
# Coordination Sequence:
#
# PCOD8063623 Si02
#       7
#     4   4   4   4   4   4   4
#     4  10  20  34  56  84 111 144 185 225 271 329
#     4  10  20  34  56  84 111 144 185 225 271 329
#     4   9  18  32  50  72 101 138 180 227 276 328
#     4   9  18  34  57  85 117 147 177 225 281 327
#     4  10  20  34  53  76 105 144 186 229 277 327
#     4   9  18  32  50  72 101 138 180 227 276 328
#     4  10  20  34  53  76 105 144 186 229 277 327
#
# _framework density 19.604801999999999
#
# number of rings (size 3 to 8) (size 9 to 14) (size 15 to 20)
#    0.000    2.429    1.429    0.857    0.000    4.000 
#    0.000    5.714    0.000    1.714    0.000    2.000 
#    0.000    0.000    0.000    0.000    0.000    0.000 
#
# Total GULP energy -347188.943612 kJ/mol
# GULP energy per Si atom -12399.605129 kJ/mol
# Density = 1.956018 g / cm^3
# Si number density = 19.604802 Si / 1000 Ang^3
#
#
#
# Elastic Constant Matrix: (Units=GPa)
#
#
# Indices 1 2 3 4 5 6 
#
# 1 141.9089 51.3371 66.8301 0.0000 23.2473 0.0000
# 2 51.3371 79.8629 40.0264 0.0000 10.7092 0.0000
# 3 66.8301 40.0264 102.1465 0.0000 14.3727 0.0000
# 4 0.0000 0.0000 0.0000 11.3890 0.0000 -8.8538
# 5 23.2473 10.7092 14.3727 0.0000 33.6550 0.0000
# 6 0.0000 0.0000 0.0000 -8.8538 0.0000 2.0473
#
#
#
# Elastic Compliance Matrix: (Units=1/GPa)
#
#
# Indices 1 2 3 4 5 6 
#
# 1 0.011929 -0.004316 -0.005476 0.000000 -0.004528 0.000000
# 2 -0.004316 0.017344 -0.003846 0.000000 -0.000895 0.000000
# 3 -0.005476 -0.003846 0.015082 0.000000 -0.001434 0.000000
# 4 0.000000 0.000000 0.000000 -0.037173 0.000000 -0.160763
# 5 -0.004528 -0.000895 -0.001434 0.000000 0.033738 0.000000
# 6 0.000000 0.000000 0.000000 -0.160763 0.000000 -0.206794
#
#
# Mechanical properties :
#
#
# Convention : Reuss Voigt Hill
#
# Bulk Modulus (GPa) = 58.55899 71.14502 64.85201
# Shear Modulus (GPa) = -37.62076 20.46656 -8.57710
#
# Velocity S-wave (km/s) = -4.38534 3.23454 -2.09392
# Velocity P-wave (km/s) = 2.07194 7.09352 5.22546
#
# Compressibility (1/GPa) = 0.01707680
#
# Stress axis : x y z
#
# Youngs Moduli (GPa) = 83.83007 57.65752 66.30586
#
# Poissons Ratio (x) = 0.24887 0.36310
# Poissons Ratio (y) = 0.36184 0.25503
# Poissons Ratio (z) = 0.45906 0.22177
#
# Static dielectric constant tensor:
#      x y z
#    x 3.654300 0.000000 0.083680 
#    y 0.000000 3.456360 0.000000 
#    z 0.083680 0.000000 3.565670 
# 
# 
# High freq. dielectric constant tensor:
#      x y z
#    x 1.762240 0.000000 0.000080 
#    y 0.000000 1.736530 0.000000 
#    z 0.000080 0.000000 1.762140 
# 
# From -- ./inp_files/86438.got.cif
#   From: 2010.06.25/outbox.cif.g09.slc.cpg/sg10_44_cif.got.tgz:86438.got - 2010.06.27 22:07:45.
