data_PCOD8063888
_publ_section_title
;
Structure prediction by ZEFSAII (Michael W. Deem and Ramdas Pophale) SiO2 
 PCOD8063888
Probable space group: P 2/M
;
_chemical_formula_sum "Si O2"
_cell_formula_units_Z 32
_cell_length_a 19.213603
_cell_length_b 9.751510
_cell_length_c 11.318545
_cell_angle_alpha 90.000000
_cell_angle_beta 127.029400
_cell_angle_gamma 90.000000
_cell_volume 1692.980219
_symmetry_space_group_name_H-M "P 2/M"
_symmetry_group_IT_number 10
_symmetry_cell_setting 'monoclinic'
loop_
_space_group_symop_operation_xyz
x,y,z
-x,y,-z
-x,-y,-z
x,-y,z
loop_
_atom_site_type_symbol
_atom_site_label
_atom_site_fract_x
_atom_site_fract_y
_atom_site_fract_z
Si Si1 0.818977 0.846391 0.038761
Si Si2 0.836672 0.652757 0.644675
Si Si3 0.680141 0.341578 0.316322
Si Si4 0.007371 0.160317 0.142071
Si Si5 0.286365 0.245616 0.286167
Si Si6 0.702578 0.657609 0.070620
Si Si7 0.416865 0.155804 0.605486
Si Si8 0.571938 0.652225 0.735546
O O1 0.781584 0.745387 0.098829
O O2 0.918543 0.803529 0.118472
O O3 0.813558 0.000000 0.083524
O O4 0.765937 0.845071 0.861563
O O5 0.876043 0.500000 0.680482
O O6 0.775163 0.679815 0.469451
O O7 0.914613 0.760465 0.714458
O O8 0.781834 0.664644 0.709471
O O9 0.649684 0.500000 0.299176
O O10 0.683817 0.295818 0.184441
O O11 0.610317 0.243152 0.307608
O O12 0.029626 0.000000 0.169579
O O13 0.000000 0.210925 0.000000
O O14 0.339946 0.148712 0.430360
O O15 0.352916 0.345648 0.286736
O O16 0.732497 0.500000 0.095618
O O17 0.614253 0.681687 0.906667
O O18 0.500824 0.231419 0.635534
O O19 0.440801 0.000000 0.665877
O O20 0.529585 0.500000 0.688800
#
# Coordination Sequence:
#
# PCOD8063888 Si02
#       8
#     4   4   4   4   4   4   4   4
#     4  10  20  35  56  80 108 143 179 217 262 315
#     4  10  20  34  56  84 108 137 180 226 265 309
#     4   9  20  40  60  77 104 141 181 223 270 318
#     4  10  20  35  53  79 115 150 176 207 261 323
#     4  10  20  35  54  78 109 144 179 217 267 324
#     4   9  20  39  60  79 102 139 183 225 268 316
#     4  11  23  35  53  81 110 141 179 222 268 319
#     4  10  21  36  55  78 107 142 179 221 271 323
#
# _framework density 18.901579999999999
#
# number of rings (size 3 to 8) (size 9 to 14) (size 15 to 20)
#    0.000    2.125    1.250    1.500    0.000    9.250 
#    0.000    3.125    0.000    3.750    0.000    0.000 
#    0.000    0.000    0.000    0.000    0.000    0.000 
#
# Total GULP energy -396853.213559 kJ/mol
# GULP energy per Si atom -12401.662924 kJ/mol
# Density = 1.885856 g / cm^3
# Si number density = 18.901580 Si / 1000 Ang^3
#
#
#
# Elastic Constant Matrix: (Units=GPa)
#
#
# Indices 1 2 3 4 5 6 
#
# 1 96.2685 49.2939 44.1766 0.0000 3.9365 0.0000
# 2 49.2939 100.8677 28.1199 0.0000 9.8561 0.0000
# 3 44.1766 28.1199 64.6722 0.0000 -5.9001 0.0000
# 4 0.0000 0.0000 0.0000 22.2300 0.0000 4.0093
# 5 3.9365 9.8561 -5.9001 0.0000 32.8726 0.0000
# 6 0.0000 0.0000 0.0000 4.0093 0.0000 27.1578
#
#
#
# Elastic Compliance Matrix: (Units=1/GPa)
#
#
# Indices 1 2 3 4 5 6 
#
# 1 0.018044 -0.005814 -0.009999 0.000000 -0.002212 0.000000
# 2 -0.005814 0.013797 -0.002380 0.000000 -0.003868 0.000000
# 3 -0.009999 -0.002380 0.023893 0.000000 0.006200 0.000000
# 4 0.000000 0.000000 0.000000 0.046215 0.000000 -0.006823
# 5 -0.002212 -0.003868 0.006200 0.000000 0.032958 0.000000
# 6 0.000000 0.000000 0.000000 -0.006823 0.000000 0.037829
#
#
# Mechanical properties :
#
#
# Convention : Reuss Voigt Hill
#
# Bulk Modulus (GPa) = 51.68813 56.10993 53.89903
# Shear Modulus (GPa) = 23.19416 25.79995 24.49705
#
# Velocity S-wave (km/s) = 3.50680 3.69855 3.60395
# Velocity P-wave (km/s) = 6.61832 6.92739 6.77462
#
# Compressibility (1/GPa) = 0.01934680
#
# Stress axis : x y z
#
# Youngs Moduli (GPa) = 55.42091 72.48034 41.85260
#
# Poissons Ratio (x) = 0.42142 0.41849
# Poissons Ratio (y) = 0.32223 0.09962
# Poissons Ratio (z) = 0.55416 0.17252
#
# Static dielectric constant tensor:
#      x y z
#    x 3.366820 0.000000 0.005960 
#    y 0.000000 3.336310 0.000000 
#    z 0.005960 0.000000 3.460320 
# 
# 
# High freq. dielectric constant tensor:
#      x y z
#    x 1.729740 0.000000 0.003040 
#    y 0.000000 1.732110 0.000000 
#    z 0.003040 0.000000 1.726750 
# 
# From -- ./inp_files/55332.got.cif
#   From: 2010.06.25/outbox.cif.g09.slc.cpg/sg10_28_cif.got.tgz:55332.got - 2010.06.27 22:07:45.
