data_PCOD8063890
_publ_section_title
;
Structure prediction by ZEFSAII (Michael W. Deem and Ramdas Pophale) SiO2 
 PCOD8063890
Probable space group: P 2/M
;
_chemical_formula_sum "Si O2"
_cell_formula_units_Z 24
_cell_length_a 23.169465
_cell_length_b 9.352491
_cell_length_c 12.309279
_cell_angle_alpha 90.000000
_cell_angle_beta 152.501080
_cell_angle_gamma 90.000000
_cell_volume 1231.588979
_symmetry_space_group_name_H-M "P 2/M"
_symmetry_group_IT_number 10
_symmetry_cell_setting 'monoclinic'
loop_
_space_group_symop_operation_xyz
x,y,z
-x,y,-z
-x,-y,-z
x,-y,z
loop_
_atom_site_type_symbol
_atom_site_label
_atom_site_fract_x
_atom_site_fract_y
_atom_site_fract_z
Si Si1 0.811668 0.333312 0.435346
Si Si2 0.011507 0.162097 0.640510
Si Si3 0.298801 0.837098 0.136684
Si Si4 0.654227 0.664903 0.577983
Si Si5 0.140964 0.330426 0.246425
Si Si6 0.379356 0.663105 0.064192
O O1 0.841996 0.500000 0.481235
O O2 0.797984 0.282781 0.537175
O O3 0.931764 0.256659 0.587746
O O4 0.685984 0.295231 0.159072
O O5 0.000000 0.225259 0.500000
O O6 0.960036 0.000000 0.555600
O O7 0.152459 0.170028 0.917113
O O8 0.367668 0.753621 0.348479
O O9 0.326610 0.766458 0.067937
O O10 0.347058 0.000000 0.214695
O O11 0.678015 0.500000 0.649470
O O12 0.769190 0.728319 0.699284
O O13 0.527803 0.680907 0.296452
O O14 0.137512 0.500000 0.231379
O O15 0.000000 0.268100 0.000000
O O16 0.346041 0.500000 0.040969
#
# Coordination Sequence:
#
# PCOD8063890 Si02
#       6
#     4   4   4   4   4   4
#     4  10  20  34  56  84 110 141 183 223 263 320
#     4  10  20  35  53  77 109 142 175 218 274 320
#     4  11  22  36  56  80 109 144 183 226 270 321
#     4  10  21  37  56  78 110 147 180 221 271 319
#     4   9  18  34  56  81 108 139 178 224 270 316
#     4  10  21  35  53  81 112 143 181 223 268 319
#
# _framework density 19.487020999999999
#
# number of rings (size 3 to 8) (size 9 to 14) (size 15 to 20)
#    0.000    2.000    1.667    2.000    0.000    6.333 
#    0.000    4.167    0.000    3.000    0.000    3.500 
#    0.000    0.000    0.000    0.000    0.000    0.000 
#
# Total GULP energy -297632.040741 kJ/mol
# GULP energy per Si atom -12401.335031 kJ/mol
# Density = 1.944267 g / cm^3
# Si number density = 19.487021 Si / 1000 Ang^3
#
#
#
# Elastic Constant Matrix: (Units=GPa)
#
#
# Indices 1 2 3 4 5 6 
#
# 1 91.4109 36.4307 38.7957 0.0000 -12.7018 0.0000
# 2 36.4307 61.4873 33.2405 0.0000 -6.4157 0.0000
# 3 38.7957 33.2405 116.4540 0.0000 -11.7076 0.0000
# 4 0.0000 0.0000 0.0000 17.6772 0.0000 3.9244
# 5 -12.7018 -6.4157 -11.7076 0.0000 35.7322 0.0000
# 6 0.0000 0.0000 0.0000 3.9244 0.0000 0.0847
#
#
#
# Elastic Compliance Matrix: (Units=1/GPa)
#
#
# Indices 1 2 3 4 5 6 
#
# 1 0.015487 -0.007358 -0.002728 0.000000 0.003290 0.000000
# 2 -0.007358 0.022828 -0.004049 0.000000 0.000157 0.000000
# 3 -0.002728 -0.004049 0.010838 0.000000 0.001854 0.000000
# 4 0.000000 0.000000 0.000000 -0.006093 0.000000 0.282259
# 5 0.003290 0.000157 0.001854 0.000000 0.029791 0.000000
# 6 0.000000 0.000000 0.000000 0.282259 0.000000 -1.271406
#
#
# Mechanical properties :
#
#
# Convention : Reuss Voigt Hill
#
# Bulk Modulus (GPa) = 47.88584 54.03179 50.95881
# Shear Modulus (GPa) = -4.29803 21.42448 8.56322
#
# Velocity S-wave (km/s) = -1.48673 3.31935 2.09854
# Velocity P-wave (km/s) = 4.65611 6.51752 5.66381
#
# Compressibility (1/GPa) = 0.02088300
#
# Stress axis : x y z
#
# Youngs Moduli (GPa) = 64.56991 43.80542 92.26574
#
# Poissons Ratio (x) = 0.32230 0.25174
# Poissons Ratio (y) = 0.47508 0.37360
# Poissons Ratio (z) = 0.17618 0.17738
#
# Static dielectric constant tensor:
#      x y z
#    x 3.507390 0.000000 -0.037270 
#    y 0.000000 3.371800 0.000000 
#    z -0.037270 0.000000 3.783230 
# 
# 
# High freq. dielectric constant tensor:
#      x y z
#    x 1.751040 0.000000 -0.001610 
#    y 0.000000 1.732530 0.000000 
#    z -0.001610 0.000000 1.775390 
# 
# From -- ./inp_files/45248.got.cif
#   From: 2010.06.25/outbox.cif.g09.slc.cpg/sg10_23_cif.got.tgz:45248.got - 2010.06.27 22:07:45.
