data_PCOD8063889
_publ_section_title
;
Structure prediction by ZEFSAII (Michael W. Deem and Ramdas Pophale) SiO2 
 PCOD8063889
Probable space group: P 2/M
;
_chemical_formula_sum "Si O2"
_cell_formula_units_Z 28
_cell_length_a 14.502366
_cell_length_b 9.279006
_cell_length_c 11.665726
_cell_angle_alpha 90.000000
_cell_angle_beta 109.989593
_cell_angle_gamma 90.000000
_cell_volume 1475.253346
_symmetry_space_group_name_H-M "P 2/M"
_symmetry_group_IT_number 10
_symmetry_cell_setting 'monoclinic'
loop_
_space_group_symop_operation_xyz
x,y,z
-x,y,-z
-x,-y,-z
x,-y,z
loop_
_atom_site_type_symbol
_atom_site_label
_atom_site_fract_x
_atom_site_fract_y
_atom_site_fract_z
Si Si1 0.803921 0.333109 0.194894
Si Si2 0.456463 0.330262 0.652624
Si Si3 0.890440 0.834586 0.441696
Si Si4 0.157227 0.833951 0.321397
Si Si5 0.652365 0.669655 0.616862
Si Si6 0.012150 0.667856 0.873911
Si Si7 0.414320 0.329423 0.884296
O O1 0.807857 0.500000 0.229741
O O2 0.831152 0.250768 0.321562
O O3 0.876617 0.299238 0.120057
O O4 0.693046 0.289262 0.111199
O O5 0.442727 0.500000 0.646071
O O6 0.386267 0.270964 0.522197
O O7 0.570214 0.293665 0.676709
O O8 0.425509 0.262995 0.761341
O O9 0.835480 0.816931 0.538842
O O10 0.000000 0.770771 0.500000
O O11 0.896523 0.000000 0.404515
O O12 0.250217 0.754546 0.305126
O O13 0.058139 0.761385 0.235153
O O14 0.156645 0.000000 0.283493
O O15 0.675851 0.500000 0.623608
O O16 0.985617 0.500000 0.847842
O O17 0.000000 0.716488 0.000000
O O18 0.428900 0.500000 0.883889
O O19 0.500000 0.262084 0.000000
#
# Coordination Sequence:
#
# PCOD8063889 Si02
#       7
#     4   4   4   4   4   4   4
#     4  10  20  34  56  84 108 137 180 226 267 310
#     4   8  15  29  49  74 102 135 172 213 266 317
#     4  10  20  35  54  77 108 143 175 214 269 323
#     4  11  22  35  53  79 108 141 179 216 264 321
#     4   9  17  31  53  77 103 135 172 216 265 315
#     4  10  22  38  54  76 108 142 177 218 264 314
#     4   9  17  29  48  76 107 135 169 215 264 314
#
# _framework density 18.979790999999999
#
# number of rings (size 3 to 8) (size 9 to 14) (size 15 to 20)
#    0.000    2.429    1.429    2.143    0.000    4.000 
#    0.000    5.714    0.000    1.286    0.000    0.000 
#    0.000    0.000    0.000    0.000    0.000    0.000 
#
# Total GULP energy -347167.100743 kJ/mol
# GULP energy per Si atom -12398.825027 kJ/mol
# Density = 1.893659 g / cm^3
# Si number density = 18.979791 Si / 1000 Ang^3
#
#
#
# Elastic Constant Matrix: (Units=GPa)
#
#
# Indices 1 2 3 4 5 6 
#
# 1 143.8324 39.4746 55.5342 0.0000 10.1871 0.0000
# 2 39.4746 49.9525 29.6760 0.0000 5.8416 0.0000
# 3 55.5342 29.6760 94.4152 0.0000 1.9169 0.0000
# 4 0.0000 0.0000 0.0000 9.3222 0.0000 -6.0451
# 5 10.1871 5.8416 1.9169 0.0000 35.3611 0.0000
# 6 0.0000 0.0000 0.0000 -6.0451 0.0000 8.5266
#
#
#
# Elastic Compliance Matrix: (Units=1/GPa)
#
#
# Indices 1 2 3 4 5 6 
#
# 1 0.010192 -0.005288 -0.004296 0.000000 -0.001830 0.000000
# 2 -0.005288 0.027839 -0.005583 0.000000 -0.002773 0.000000
# 3 -0.004296 -0.005583 0.014846 0.000000 0.001355 0.000000
# 4 0.000000 0.000000 0.000000 0.198553 0.000000 0.140767
# 5 -0.001830 -0.002773 0.001355 0.000000 0.029191 0.000000
# 6 0.000000 0.000000 0.000000 0.140767 0.000000 0.217078
#
#
# Mechanical properties :
#
#
# Convention : Reuss Voigt Hill
#
# Bulk Modulus (GPa) = 44.36090 59.72998 52.04544
# Shear Modulus (GPa) = 9.33623 21.54300 15.43961
#
# Velocity S-wave (km/s) = 2.22030 3.37270 2.85524
# Velocity P-wave (km/s) = 5.47690 6.83414 6.19281
#
# Compressibility (1/GPa) = 0.02254237
#
# Stress axis : x y z
#
# Youngs Moduli (GPa) = 98.11600 35.92028 67.36015
#
# Poissons Ratio (x) = 0.18996 0.28935
# Poissons Ratio (y) = 0.51887 0.37611
# Poissons Ratio (z) = 0.42146 0.20056
#
# Static dielectric constant tensor:
#      x y z
#    x 3.716940 0.000000 -0.068270 
#    y 0.000000 3.099980 0.000000 
#    z -0.068270 0.000000 3.504000 
# 
# 
# High freq. dielectric constant tensor:
#      x y z
#    x 1.755380 0.000000 0.001680 
#    y 0.000000 1.696280 0.000000 
#    z 0.001680 0.000000 1.726820 
# 
# From -- ./inp_files/49140.got.cif
#   From: 2010.06.25/outbox.cif.g09.slc.cpg/sg10_25_cif.got.tgz:49140.got - 2010.06.27 22:07:45.
