data_PCOD8063865
_publ_section_title
;
Structure prediction by ZEFSAII (Michael W. Deem and Ramdas Pophale) SiO2 
 PCOD8063865
Probable space group: P 2/M
;
_chemical_formula_sum "Si O2"
_cell_formula_units_Z 32
_cell_length_a 9.626630
_cell_length_b 18.988930
_cell_length_c 12.588195
_cell_angle_alpha 90.000000
_cell_angle_beta 134.060815
_cell_angle_gamma 90.000000
_cell_volume 1653.585666
_symmetry_space_group_name_H-M "P 2/M"
_symmetry_group_IT_number 10
_symmetry_cell_setting 'monoclinic'
loop_
_space_group_symop_operation_xyz
x,y,z
-x,y,-z
-x,-y,-z
x,-y,z
loop_
_atom_site_type_symbol
_atom_site_label
_atom_site_fract_x
_atom_site_fract_y
_atom_site_fract_z
Si Si1 0.413572 0.183390 0.215932
Si Si2 0.826077 0.794001 0.480379
Si Si3 0.547920 0.321244 0.907099
Si Si4 0.110924 0.195361 0.239413
Si Si5 0.215395 0.632566 0.594167
Si Si6 0.711081 0.580478 0.589964
Si Si7 0.033662 0.341515 0.897896
Si Si8 0.133684 0.077613 0.970013
O O1 0.634453 0.160645 0.355554
O O2 0.411035 0.256379 0.150120
O O3 0.304791 0.191302 0.271449
O O4 0.328286 0.119402 0.102136
O O5 0.856288 0.790118 0.621062
O O6 0.789692 0.714571 0.429828
O O7 0.000000 0.825083 0.500000
O O8 0.374898 0.373172 0.774028
O O9 0.500000 0.293706 0.000000
O O10 0.749525 0.364931 0.019645
O O11 0.980460 0.256809 0.118757
O O12 0.990355 0.122916 0.178682
O O13 0.279274 0.584879 0.530998
O O14 0.000000 0.604114 0.500000
O O15 0.500000 0.612900 0.500000
O O16 0.727290 0.500000 0.637044
O O17 0.876377 0.624806 0.735969
O O18 0.000000 0.366880 0.000000
O O19 0.185018 0.000000 0.951063
O O20 0.000000 0.068835 0.000000
#
# Coordination Sequence:
#
# PCOD8063865 Si02
#       8
#     4   4   4   4   4   4   4   4
#     4  10  20  34  55  87 114 151 193 240 297 344
#     4  10  22  34  57  87 116 149 192 250 294 336
#     4  11  22  34  58  92 121 148 194 256 302 340
#     4  11  19  35  58  89 114 147 198 241 292 345
#     4  10  21  39  59  84 114 155 199 237 296 352
#     4  11  25  41  60  85 118 160 193 236 300 358
#     4  12  21  37  61  89 118 150 197 253 293 343
#     4   9  18  34  56  83 118 152 190 240 293 351
#
# _framework density 19.351884999999999
#
# number of rings (size 3 to 8) (size 9 to 14) (size 15 to 20)
#    0.000    1.500    3.750    2.250    5.250    0.500 
#    0.000    1.250    0.000    8.625    0.000    0.000 
#    0.000    0.000    0.000    0.000    0.000    0.000 
#
# Total GULP energy -396576.252753 kJ/mol
# GULP energy per Si atom -12393.007899 kJ/mol
# Density = 1.930784 g / cm^3
# Si number density = 19.351885 Si / 1000 Ang^3
#
#
#
# Elastic Constant Matrix: (Units=GPa)
#
#
# Indices 1 2 3 4 5 6 
#
# 1 141.0043 11.2580 64.3415 0.0000 13.4251 0.0000
# 2 11.2580 36.4366 8.1835 0.0000 13.2932 0.0000
# 3 64.3415 8.1835 112.5785 0.0000 20.1426 0.0000
# 4 0.0000 0.0000 0.0000 24.4145 0.0000 10.4287
# 5 13.4251 13.2932 20.1426 0.0000 42.4178 0.0000
# 6 0.0000 0.0000 0.0000 10.4287 0.0000 13.1088
#
#
#
# Elastic Compliance Matrix: (Units=1/GPa)
#
#
# Indices 1 2 3 4 5 6 
#
# 1 0.009707 -0.001806 -0.005429 0.000000 0.000072 0.000000
# 2 -0.001806 0.031357 0.000447 0.000000 -0.009467 0.000000
# 3 -0.005429 0.000447 0.012754 0.000000 -0.004478 0.000000
# 4 0.000000 0.000000 0.000000 0.062042 0.000000 -0.049358
# 5 0.000072 -0.009467 -0.004478 0.000000 0.028646 0.000000
# 6 0.000000 0.000000 0.000000 -0.049358 0.000000 0.115551
#
#
# Mechanical properties :
#
#
# Convention : Reuss Voigt Hill
#
# Bulk Modulus (GPa) = 24.85049 50.84283 37.84666
# Shear Modulus (GPa) = 17.41874 29.73733 23.57803
#
# Velocity S-wave (km/s) = 3.00343 3.92428 3.49432
# Velocity P-wave (km/s) = 4.98966 6.84567 5.98999
#
# Compressibility (1/GPa) = 0.04024065
#
# Stress axis : x y z
#
# Youngs Moduli (GPa) = 103.02115 31.89124 78.40416
#
# Poissons Ratio (x) = 0.05760 0.42568
# Poissons Ratio (y) = 0.18606 -0.03502
# Poissons Ratio (z) = 0.55933 -0.01425
#
# Static dielectric constant tensor:
#      x y z
#    x 3.898650 0.000000 0.528950 
#    y 0.000000 3.477910 0.000000 
#    z 0.528950 0.000000 4.165730 
# 
# 
# High freq. dielectric constant tensor:
#      x y z
#    x 1.758790 0.000000 0.011510 
#    y 0.000000 1.712810 0.000000 
#    z 0.011510 0.000000 1.768240 
# 
# From -- ./inp_files/43611.got.cif
#   From: 2010.06.25/outbox.cif.g09.slc.cpg/sg10_22_cif.got.tgz:43611.got - 2010.06.27 22:07:45.
