data_PCOD8063577
_publ_section_title
;
Structure prediction by ZEFSAII (Michael W. Deem and Ramdas Pophale) SiO2 
 PCOD8063577
Probable space group: P 2/M
;
_chemical_formula_sum "Si O2"
_cell_formula_units_Z 24
_cell_length_a 16.584453
_cell_length_b 15.075257
_cell_length_c 9.330598
_cell_angle_alpha 90.000000
_cell_angle_beta 34.263789
_cell_angle_gamma 90.000000
_cell_volume 1313.368855
_symmetry_space_group_name_H-M "P 2/M"
_symmetry_group_IT_number 10
_symmetry_cell_setting 'monoclinic'
loop_
_space_group_symop_operation_xyz
x,y,z
-x,y,-z
-x,-y,-z
x,-y,z
loop_
_atom_site_type_symbol
_atom_site_label
_atom_site_fract_x
_atom_site_fract_y
_atom_site_fract_z
Si Si1 0.158298 0.898610 0.308538
Si Si2 0.651512 0.898046 0.703464
Si Si3 0.344566 0.756504 0.547549
Si Si4 0.859377 0.598539 0.798085
Si Si5 0.325667 0.239919 0.898354
Si Si6 0.855014 0.399850 0.140810
O O1 0.208726 0.888102 0.399345
O O2 0.000000 0.860059 0.500000
O O3 0.163007 0.000000 0.252579
O O4 0.279982 0.849724 0.041290
O O5 0.687276 0.835869 0.515794
O O6 0.637614 0.000000 0.671702
O O7 0.500000 0.869766 0.000000
O O8 0.511055 0.738681 0.313641
O O9 0.285894 0.779134 0.791713
O O10 0.268958 0.664136 0.615486
O O11 0.799059 0.500000 0.849934
O O12 0.000000 0.617361 0.500000
O O13 0.748463 0.674947 0.919852
O O14 0.887121 0.606234 0.925645
O O15 0.812182 0.500000 0.248089
O O16 0.000000 0.367972 0.000000
#
# Coordination Sequence:
#
# PCOD8063577 Si02
#       6
#     4   4   4   4   4   4
#     4  10  21  37  57  80 108 144 182 223 272 324
#     4  10  20  37  57  78 107 144 182 221 272 328
#     4  10  21  34  54  82 107 142 182 222 273 328
#     4   9  18  33  53  76 103 139 179 217 263 320
#     4  10  20  34  52  80 112 139 178 225 273 321
#     4   9  19  36  55  76 107 144 180 222 273 325
#
# _framework density 18.273617000000002
#
# number of rings (size 3 to 8) (size 9 to 14) (size 15 to 20)
#    0.000    2.333    1.667    0.500    0.000    5.333 
#    0.000    5.000    0.000    4.000    0.000    0.000 
#    0.000    0.000    0.000    0.000    0.000    0.000 
#
# Total GULP energy -297445.625170 kJ/mol
# GULP energy per Si atom -12393.567715 kJ/mol
# Density = 1.823203 g / cm^3
# Si number density = 18.273617 Si / 1000 Ang^3
#
#
#
# Elastic Constant Matrix: (Units=GPa)
#
#
# Indices 1 2 3 4 5 6 
#
# 1 77.9257 49.0451 27.6000 0.0000 -11.8675 0.0000
# 2 49.0451 112.8686 63.5531 0.0000 5.9448 0.0000
# 3 27.6000 63.5531 84.6451 0.0000 1.1233 0.0000
# 4 0.0000 0.0000 0.0000 35.6101 0.0000 -3.9623
# 5 -11.8675 5.9448 1.1233 0.0000 22.9166 0.0000
# 6 0.0000 0.0000 0.0000 -3.9623 0.0000 17.4414
#
#
#
# Elastic Compliance Matrix: (Units=1/GPa)
#
#
# Indices 1 2 3 4 5 6 
#
# 1 0.021127 -0.010247 0.000624 0.000000 0.013568 0.000000
# 2 -0.010247 0.020591 -0.011985 0.000000 -0.010060 0.000000
# 3 0.000624 -0.011985 0.020577 0.000000 0.002424 0.000000
# 4 0.000000 0.000000 0.000000 0.028810 0.000000 0.006545
# 5 0.013568 -0.010060 0.002424 0.000000 0.053154 0.000000
# 6 0.000000 0.000000 0.000000 0.006545 0.000000 0.058822
#
#
# Mechanical properties :
#
#
# Convention : Reuss Voigt Hill
#
# Bulk Modulus (GPa) = 52.41139 61.75953 57.08546
# Shear Modulus (GPa) = 19.78978 24.20969 21.99974
#
# Velocity S-wave (km/s) = 3.29442 3.64379 3.47350
# Velocity P-wave (km/s) = 6.57379 7.18146 6.88433
#
# Compressibility (1/GPa) = 0.01907982
#
# Stress axis : x y z
#
# Youngs Moduli (GPa) = 47.33294 48.56535 48.59779
#
# Poissons Ratio (x) = 0.49763 -0.03035
# Poissons Ratio (y) = 0.48500 0.58246
# Poissons Ratio (z) = -0.02956 0.58207
#
# Static dielectric constant tensor:
#      x y z
#    x 3.519380 0.000000 -0.104290 
#    y 0.000000 3.539220 0.000000 
#    z -0.104290 0.000000 3.367080 
# 
# 
# High freq. dielectric constant tensor:
#      x y z
#    x 1.707910 0.000000 -0.004620 
#    y 0.000000 1.717670 0.000000 
#    z -0.004620 0.000000 1.697250 
# 
# From -- ./inp_files/29291.got.cif
#   From: 2010.06.25/outbox.cif.g09.slc.cpg/sg10_15_cif.got.tgz:29291.got - 2010.06.27 22:07:45.
