data_PCOD8063880
_publ_section_title
;
Structure prediction by ZEFSAII (Michael W. Deem and Ramdas Pophale) SiO2 
 PCOD8063880
Probable space group: P 2/M
;
_chemical_formula_sum "Si O2"
_cell_formula_units_Z 32
_cell_length_a 20.166444
_cell_length_b 8.940596
_cell_length_c 25.970894
_cell_angle_alpha 90.000000
_cell_angle_beta 21.230201
_cell_angle_gamma 90.000000
_cell_volume 1695.627122
_symmetry_space_group_name_H-M "P 2/M"
_symmetry_group_IT_number 10
_symmetry_cell_setting 'monoclinic'
loop_
_space_group_symop_operation_xyz
x,y,z
-x,y,-z
-x,-y,-z
x,-y,z
loop_
_atom_site_type_symbol
_atom_site_label
_atom_site_fract_x
_atom_site_fract_y
_atom_site_fract_z
Si Si1 0.713213 0.674622 0.340538
Si Si2 0.495670 0.677299 0.308130
Si Si3 0.622574 0.676974 0.103997
Si Si4 0.703109 0.822821 0.711114
Si Si5 0.113379 0.174674 0.604291
Si Si6 0.806719 0.677858 0.159004
Si Si7 0.019793 0.823814 0.407090
Si Si8 0.006132 0.824937 0.196784
O O1 0.500000 0.708002 0.500000
O O2 0.756898 0.500000 0.317126
O O3 0.776393 0.732009 0.239033
O O4 0.818360 0.769169 0.307334
O O5 0.486914 0.500000 0.316668
O O6 0.546971 0.732295 0.213821
O O7 0.303022 0.738866 0.466212
O O8 0.647831 0.741000 0.237170
O O9 0.630021 0.500000 0.094952
O O10 0.491065 0.741248 0.154655
O O11 0.825914 0.738135 0.949859
O O12 0.793631 0.769371 0.699913
O O13 0.838646 0.765872 0.567713
O O14 0.669270 0.000000 0.733889
O O15 0.987406 0.227712 0.647167
O O16 0.002476 0.211760 0.736214
O O17 0.158881 0.000000 0.566826
O O18 0.806059 0.500000 0.156804
O O19 0.000000 0.743179 0.000000
O O20 0.017201 0.000000 0.414831
O O21 0.030535 0.000000 0.169236
#
# Coordination Sequence:
#
# PCOD8063880 Si02
#       8
#     4   4   4   4   4   4   4   4
#     4  10  20  36  58  79 102 139 181 223 272 324
#     4  10  20  34  56  83 106 135 179 225 273 324
#     4  11  22  36  55  82 114 147 181 222 273 326
#     4   9  16  31  57  83 108 141 179 222 270 319
#     4  10  20  36  56  80 108 140 180 224 268 316
#     4   9  17  31  51  74 101 133 171 216 263 315
#     4   8  15  30  55  83 108 139 179 222 267 318
#     4  11  24  38  55  79 111 150 185 222 269 322
#
# _framework density 18.872074000000001
#
# number of rings (size 3 to 8) (size 9 to 14) (size 15 to 20)
#    0.000    2.250    1.250    3.000    0.000    4.750 
#    0.000    3.125    0.000    5.250    0.000    0.000 
#    0.000    0.000    0.000    0.000    0.000    0.000 
#
# Total GULP energy -396797.518740 kJ/mol
# GULP energy per Si atom -12399.922461 kJ/mol
# Density = 1.882912 g / cm^3
# Si number density = 18.872074 Si / 1000 Ang^3
#
#
#
# Elastic Constant Matrix: (Units=GPa)
#
#
# Indices 1 2 3 4 5 6 
#
# 1 126.7107 28.3487 28.6720 0.0000 -6.9864 0.0000
# 2 28.3487 40.4429 24.2875 0.0000 -1.2573 0.0000
# 3 28.6720 24.2875 74.1937 0.0000 1.0956 0.0000
# 4 0.0000 0.0000 0.0000 26.3451 0.0000 -6.2788
# 5 -6.9864 -1.2573 1.0956 0.0000 31.8396 0.0000
# 6 0.0000 0.0000 0.0000 -6.2788 0.0000 23.3444
#
#
#
# Elastic Compliance Matrix: (Units=1/GPa)
#
#
# Indices 1 2 3 4 5 6 
#
# 1 0.009686 -0.005554 -0.001954 0.000000 0.001973 0.000000
# 2 -0.005554 0.034040 -0.009003 0.000000 0.000435 0.000000
# 3 -0.001954 -0.009003 0.017201 0.000000 -0.001376 0.000000
# 4 0.000000 0.000000 0.000000 0.040558 0.000000 0.010908
# 5 0.001973 0.000435 -0.001376 0.000000 0.031905 0.000000
# 6 0.000000 0.000000 0.000000 0.010908 0.000000 0.045771
#
#
# Mechanical properties :
#
#
# Convention : Reuss Voigt Hill
#
# Bulk Modulus (GPa) = 35.83760 44.88487 40.36123
# Shear Modulus (GPa) = 22.57508 26.97508 24.77508
#
# Velocity S-wave (km/s) = 3.46239 3.78480 3.62718
# Velocity P-wave (km/s) = 5.91736 6.55248 6.24300
#
# Compressibility (1/GPa) = 0.02790365
#
# Stress axis : x y z
#
# Youngs Moduli (GPa) = 103.24613 29.37736 58.13700
#
# Poissons Ratio (x) = 0.16318 0.11359
# Poissons Ratio (y) = 0.57348 0.52340
# Poissons Ratio (z) = 0.20173 0.26448
#
# Static dielectric constant tensor:
#      x y z
#    x 3.892590 0.000000 -0.035240 
#    y 0.000000 3.134210 0.000000 
#    z -0.035240 0.000000 3.380250 
# 
# 
# High freq. dielectric constant tensor:
#      x y z
#    x 1.750340 0.000000 -0.007180 
#    y 0.000000 1.702190 0.000000 
#    z -0.007180 0.000000 1.727490 
# 
# From -- ./inp_files/93607.got.cif
#   From: 2010.06.25/outbox.cif.g09.slc.cpg/sg10_47_cif.got.tgz:93607.got - 2010.06.27 22:07:45.
