data_PCOD8063129
_publ_section_title
;
Structure prediction by ZEFSAII (Michael W. Deem and Ramdas Pophale) SiO2 
 PCOD8063129
Probable space group: P 2/M
;
_chemical_formula_sum "Si O2"
_cell_formula_units_Z 28
_cell_length_a 26.394180
_cell_length_b 9.452345
_cell_length_c 9.471277
_cell_angle_alpha 90.000000
_cell_angle_beta 39.672762
_cell_angle_gamma 90.000000
_cell_volume 1508.518016
_symmetry_space_group_name_H-M "P 2/M"
_symmetry_group_IT_number 10
_symmetry_cell_setting 'monoclinic'
loop_
_space_group_symop_operation_xyz
x,y,z
-x,y,-z
-x,-y,-z
x,-y,z
loop_
_atom_site_type_symbol
_atom_site_label
_atom_site_fract_x
_atom_site_fract_y
_atom_site_fract_z
Si Si1 0.314497 0.159870 0.232167
Si Si2 0.254310 0.337288 0.909750
Si Si3 0.187270 0.333804 0.348555
Si Si4 0.087705 0.165662 0.769751
Si Si5 0.495260 0.838470 0.853042
Si Si6 0.775908 0.160894 0.303786
Si Si7 0.566460 0.664731 0.465113
O O1 0.267647 0.276099 0.245084
O O2 0.300564 0.184150 0.430452
O O3 0.284154 0.000000 0.261477
O O4 0.405255 0.177002 0.993428
O O5 0.250458 0.500000 0.873337
O O6 0.229560 0.252149 0.824977
O O7 0.343362 0.301973 0.775448
O O8 0.192795 0.304725 0.168542
O O9 0.180341 0.500000 0.395358
O O10 0.112274 0.252169 0.576334
O O11 0.146152 0.203787 0.773406
O O12 0.091272 0.000000 0.725236
O O13 0.000000 0.214333 0.000000
O O14 0.554861 0.744221 0.636532
O O15 0.524765 0.000000 0.781382
O O16 0.500000 0.779764 0.000000
O O17 0.782146 0.000000 0.239244
O O18 0.500000 0.724731 0.500000
O O19 0.551619 0.500000 0.521544
#
# Coordination Sequence:
#
# PCOD8063129 Si02
#       7
#     4   4   4   4   4   4   4
#     4   9  18  33  51  72  99 132 173 217 260 307
#     4  10  21  35  50  73 106 140 173 212 258 305
#     4  10  20  34  54  78 103 134 171 207 247 299
#     4   9  19  38  61  83 107 133 164 204 250 303
#     4  10  20  33  49  71  99 130 169 220 269 308
#     4   9  18  33  55  79 101 132 171 209 252 303
#     4  10  21  36  51  69  99 139 180 220 261 305
#
# _framework density 18.561264999999999
#
# number of rings (size 3 to 8) (size 9 to 14) (size 15 to 20)
#    0.000    2.429    0.000    3.000    0.000    7.714 
#    0.000    0.714    0.000    4.286    0.000    0.000 
#    0.000    0.000    0.000    0.000    0.000    0.000 
#
# Total GULP energy -347152.169836 kJ/mol
# GULP energy per Si atom -12398.291780 kJ/mol
# Density = 1.851902 g / cm^3
# Si number density = 18.561265 Si / 1000 Ang^3
#
#
#
# Elastic Constant Matrix: (Units=GPa)
#
#
# Indices 1 2 3 4 5 6 
#
# 1 56.9954 33.1711 35.0161 0.0000 11.9677 0.0000
# 2 33.1711 68.3841 54.6430 0.0000 11.4898 0.0000
# 3 35.0161 54.6430 113.4925 0.0000 6.9151 0.0000
# 4 0.0000 0.0000 0.0000 36.6974 0.0000 4.5451
# 5 11.9677 11.4898 6.9151 0.0000 28.2069 0.0000
# 6 0.0000 0.0000 0.0000 4.5451 0.0000 31.0427
#
#
#
# Elastic Compliance Matrix: (Units=1/GPa)
#
#
# Indices 1 2 3 4 5 6 
#
# 1 0.026199 -0.008863 -0.003409 0.000000 -0.006669 0.000000
# 2 -0.008863 0.028201 -0.010530 0.000000 -0.005145 0.000000
# 3 -0.003409 -0.010530 0.014804 0.000000 0.002106 0.000000
# 4 0.000000 0.000000 0.000000 0.027753 0.000000 -0.004063
# 5 -0.006669 -0.005145 0.002106 0.000000 0.039862 0.000000
# 6 0.000000 0.000000 0.000000 -0.004063 0.000000 0.032809
#
#
# Mechanical properties :
#
#
# Convention : Reuss Voigt Hill
#
# Bulk Modulus (GPa) = 42.37415 53.83693 48.10554
# Shear Modulus (GPa) = 22.41156 26.92552 24.66854
#
# Velocity S-wave (km/s) = 3.47859 3.81284 3.64955
# Velocity P-wave (km/s) = 6.24604 6.96072 6.61304
#
# Compressibility (1/GPa) = 0.02359929
#
# Stress axis : x y z
#
# Youngs Moduli (GPa) = 38.16971 35.45964 67.54726
#
# Poissons Ratio (x) = 0.31429 0.23029
# Poissons Ratio (y) = 0.33831 0.71126
# Poissons Ratio (z) = 0.13013 0.37338
#
# Static dielectric constant tensor:
#      x y z
#    x 3.237610 0.000000 -0.051960 
#    y 0.000000 3.340070 0.000000 
#    z -0.051960 0.000000 3.517520 
# 
# 
# High freq. dielectric constant tensor:
#      x y z
#    x 1.703240 0.000000 0.003050 
#    y 0.000000 1.716690 0.000000 
#    z 0.003050 0.000000 1.724080 
# 
# From -- ./inp_files/37051.got.cif
#   From: 2010.06.25/outbox.cif.g09.slc.cpg/sg10_19_cif.got.tgz:37051.got - 2010.06.27 22:07:45.
