data_PCOD8063260
_publ_section_title
;
Structure prediction by ZEFSAII (Michael W. Deem and Ramdas Pophale) SiO2 
 PCOD8063260
Probable space group: P 2/M
;
_chemical_formula_sum "Si O2"
_cell_formula_units_Z 24
_cell_length_a 9.988060
_cell_length_b 9.189254
_cell_length_c 24.274547
_cell_angle_alpha 90.000000
_cell_angle_beta 144.530854
_cell_angle_gamma 90.000000
_cell_volume 1292.821333
_symmetry_space_group_name_H-M "P 2/M"
_symmetry_group_IT_number 10
_symmetry_cell_setting 'monoclinic'
loop_
_space_group_symop_operation_xyz
x,y,z
-x,y,-z
-x,-y,-z
x,-y,z
loop_
_atom_site_type_symbol
_atom_site_label
_atom_site_fract_x
_atom_site_fract_y
_atom_site_fract_z
Si Si1 0.842767 0.663886 0.085782
Si Si2 0.715329 0.832347 0.258385
Si Si3 0.770595 0.831196 0.953760
Si Si4 0.050748 0.828230 0.776832
Si Si5 0.781222 0.671900 0.391160
Si Si6 0.685508 0.664067 0.711341
O O1 0.744686 0.500000 0.057042
O O2 0.780022 0.752064 0.121057
O O3 0.123802 0.662389 0.175474
O O4 0.732412 0.741099 0.996404
O O5 0.445137 0.802224 0.158250
O O6 0.860728 0.785585 0.253676
O O7 0.806836 0.738716 0.339543
O O8 0.758518 0.000000 0.286904
O O9 0.789609 0.000000 0.976617
O O10 0.000000 0.776981 0.000000
O O11 0.788891 0.765520 0.696806
O O12 0.054264 0.000000 0.787918
O O13 0.766172 0.500000 0.379224
O O14 0.551739 0.730847 0.344903
O O15 0.000000 0.721122 0.500000
O O16 0.646220 0.500000 0.675458
#
# Coordination Sequence:
#
# PCOD8063260 Si02
#       6
#     4   4   4   4   4   4
#     4   9  18  32  52  77 107 143 182 217 259 312
#     4  10  22  37  54  81 112 141 181 226 268 319
#     4  10  20  33  51  78 110 145 181 218 265 319
#     4   9  18  34  55  77 108 148 183 218 264 315
#     4  10  21  38  60  83 106 137 176 222 278 330
#     4   8  17  34  54  79 108 138 177 219 262 319
#
# _framework density 18.564050999999999
#
# number of rings (size 3 to 8) (size 9 to 14) (size 15 to 20)
#    1.000    1.667    0.000    1.500    0.000    4.000 
#    0.000    4.167    0.000    5.000    0.000    0.000 
#    0.000    0.000    0.000    0.000    0.000    0.000 
#
# Total GULP energy -297461.354830 kJ/mol
# GULP energy per Si atom -12394.223118 kJ/mol
# Density = 1.852180 g / cm^3
# Si number density = 18.564051 Si / 1000 Ang^3
#
#
#
# Elastic Constant Matrix: (Units=GPa)
#
#
# Indices 1 2 3 4 5 6 
#
# 1 111.7027 48.8185 45.6392 0.0000 -22.1552 0.0000
# 2 48.8185 77.7744 36.3498 0.0000 -18.6504 0.0000
# 3 45.6392 36.3498 83.9628 0.0000 -19.7999 0.0000
# 4 0.0000 0.0000 0.0000 26.1191 0.0000 -4.6908
# 5 -22.1552 -18.6504 -19.7999 0.0000 18.8805 0.0000
# 6 0.0000 0.0000 0.0000 -4.6908 0.0000 24.5246
#
#
#
# Elastic Compliance Matrix: (Units=1/GPa)
#
#
# Indices 1 2 3 4 5 6 
#
# 1 0.014338 -0.005481 -0.003627 0.000000 0.007608 0.000000
# 2 -0.005481 0.020313 -0.003454 0.000000 0.010012 0.000000
# 3 -0.003627 -0.003454 0.018027 0.000000 0.011236 0.000000
# 4 0.000000 0.000000 0.000000 0.039648 0.000000 0.007583
# 5 0.007608 0.010012 0.011236 0.000000 0.083566 0.000000
# 6 0.000000 0.000000 0.000000 0.007583 0.000000 0.042226
#
#
# Mechanical properties :
#
#
# Convention : Reuss Voigt Hill
#
# Bulk Modulus (GPa) = 36.29130 59.45054 47.87092
# Shear Modulus (GPa) = 19.80779 23.41368 21.61073
#
# Velocity S-wave (km/s) = 3.27004 3.55524 3.41562
# Velocity P-wave (km/s) = 5.81801 6.99622 6.43414
#
# Compressibility (1/GPa) = 0.02755481
#
# Stress axis : x y z
#
# Youngs Moduli (GPa) = 69.74240 49.22939 55.47344
#
# Poissons Ratio (x) = 0.26980 0.20121
# Poissons Ratio (y) = 0.38223 0.19160
# Poissons Ratio (z) = 0.25297 0.17004
#
# Static dielectric constant tensor:
#      x y z
#    x 3.381630 0.000000 0.136180 
#    y 0.000000 3.321410 0.000000 
#    z 0.136180 0.000000 3.155330 
# 
# 
# High freq. dielectric constant tensor:
#      x y z
#    x 1.720280 0.000000 0.006240 
#    y 0.000000 1.719180 0.000000 
#    z 0.006240 0.000000 1.693920 
# 
# From -- ./inp_files/88747.got.cif
#   From: 2010.06.25/outbox.cif.g09.slc.cpg/sg10_45_cif.got.tgz:88747.got - 2010.06.27 22:07:45.
