data_PCOD8063234
_publ_section_title
;
Structure prediction by ZEFSAII (Michael W. Deem and Ramdas Pophale) SiO2 
 PCOD8063234
Probable space group: P 2/M
;
_chemical_formula_sum "Si O2"
_cell_formula_units_Z 24
_cell_length_a 13.931841
_cell_length_b 8.669452
_cell_length_c 11.389054
_cell_angle_alpha 90.000000
_cell_angle_beta 76.654543
_cell_angle_gamma 90.000000
_cell_volume 1338.439933
_symmetry_space_group_name_H-M "P 2/M"
_symmetry_group_IT_number 10
_symmetry_cell_setting 'monoclinic'
loop_
_space_group_symop_operation_xyz
x,y,z
-x,y,-z
-x,-y,-z
x,-y,z
loop_
_atom_site_type_symbol
_atom_site_label
_atom_site_fract_x
_atom_site_fract_y
_atom_site_fract_z
Si Si1 0.597120 0.820335 0.901720
Si Si2 0.360480 0.318981 0.598782
Si Si3 0.219221 0.681016 0.025651
Si Si4 0.448969 0.180835 0.351276
Si Si5 0.811001 0.820919 0.217085
Si Si6 0.991101 0.330290 0.863648
O O1 0.687188 0.719930 0.922607
O O2 0.581985 0.776507 0.771032
O O3 0.621101 0.000000 0.912612
O O4 0.500000 0.772560 0.000000
O O5 0.376740 0.500000 0.606085
O O6 0.375423 0.268985 0.459781
O O7 0.438843 0.233712 0.660351
O O8 0.251360 0.272766 0.669572
O O9 0.216369 0.500000 0.995790
O O10 0.121071 0.727091 0.128819
O O11 0.223194 0.773810 0.903155
O O12 0.441631 0.000000 0.377857
O O13 0.926531 0.785719 0.209423
O O14 0.791301 0.000000 0.240539
O O15 0.009160 0.500000 0.803301
O O16 0.000000 0.341002 0.000000
#
# Coordination Sequence:
#
# PCOD8063234 Si02
#       6
#     4   4   4   4   4   4
#     4  10  21  35  52  75 104 137 169 202 244 297
#     4  11  21  34  53  75 101 133 170 211 253 298
#     4  10  20  33  51  75 105 137 167 205 251 300
#     4  10  20  35  53  75 104 135 169 208 249 295
#     4  11  20  31  51  77 103 132 169 210 253 299
#     4   8  16  31  48  71 102 132 164 204 251 299
#
# _framework density 17.931325000000001
#
# number of rings (size 3 to 8) (size 9 to 14) (size 15 to 20)
#    0.000    2.000    0.000    7.000    0.000    6.667 
#    0.000    0.000    0.000    1.000    0.000    7.000 
#    0.000    0.000    0.000    0.000    0.000    0.000 
#
# Total GULP energy -297609.278988 kJ/mol
# GULP energy per Si atom -12400.386625 kJ/mol
# Density = 1.789051 g / cm^3
# Si number density = 17.931325 Si / 1000 Ang^3
#
#
#
# Elastic Constant Matrix: (Units=GPa)
#
#
# Indices 1 2 3 4 5 6 
#
# 1 112.3631 24.1465 51.0196 0.0000 -13.3635 0.0000
# 2 24.1465 58.0279 26.5151 0.0000 -1.9219 0.0000
# 3 51.0196 26.5151 81.0391 0.0000 -12.3661 0.0000
# 4 0.0000 0.0000 0.0000 21.8881 0.0000 -7.7151
# 5 -13.3635 -1.9219 -12.3661 0.0000 26.4917 0.0000
# 6 0.0000 0.0000 0.0000 -7.7151 0.0000 24.7758
#
#
#
# Elastic Compliance Matrix: (Units=1/GPa)
#
#
# Indices 1 2 3 4 5 6 
#
# 1 0.012870 -0.002077 -0.006951 0.000000 0.003097 0.000000
# 2 -0.002077 0.020673 -0.005801 0.000000 -0.002256 0.000000
# 3 -0.006951 -0.005801 0.019396 0.000000 0.005127 0.000000
# 4 0.000000 0.000000 0.000000 0.051320 0.000000 0.015981
# 5 0.003097 -0.002256 0.005127 0.000000 0.041539 0.000000
# 6 0.000000 0.000000 0.000000 0.015981 0.000000 0.045338
#
#
# Mechanical properties :
#
#
# Convention : Reuss Voigt Hill
#
# Bulk Modulus (GPa) = 42.94992 50.53250 46.74121
# Shear Modulus (GPa) = 21.87661 24.61437 23.24549
#
# Velocity S-wave (km/s) = 3.49667 3.70902 3.60441
# Velocity P-wave (km/s) = 6.34876 6.82530 6.59134
#
# Compressibility (1/GPa) = 0.02328293
#
# Stress axis : x y z
#
# Youngs Moduli (GPa) = 77.69752 48.37184 51.55751
#
# Poissons Ratio (x) = 0.10047 0.35836
# Poissons Ratio (y) = 0.16138 0.29906
# Poissons Ratio (z) = 0.54005 0.28059
#
# Static dielectric constant tensor:
#      x y z
#    x 3.503820 0.000000 -0.245800 
#    y 0.000000 3.319230 0.000000 
#    z -0.245800 0.000000 3.188290 
# 
# 
# High freq. dielectric constant tensor:
#      x y z
#    x 1.692120 0.000000 -0.022600 
#    y 0.000000 1.703050 0.000000 
#    z -0.022600 0.000000 1.672780 
# 
# From -- ./inp_files/48647.got.cif
#   From: 2010.06.25/outbox.cif.g09.slc.cpg/sg10_25_cif.got.tgz:48647.got - 2010.06.27 22:07:45.
