data_PCOD8063402
_publ_section_title
;
Structure prediction by ZEFSAII (Michael W. Deem and Ramdas Pophale) SiO2 
 PCOD8063402
Probable space group: P 2/M
;
_chemical_formula_sum "Si O2"
_cell_formula_units_Z 32
_cell_length_a 22.846976
_cell_length_b 9.253630
_cell_length_c 14.652432
_cell_angle_alpha 90.000000
_cell_angle_beta 149.901411
_cell_angle_gamma 90.000000
_cell_volume 1553.503927
_symmetry_space_group_name_H-M "P 2/M"
_symmetry_group_IT_number 10
_symmetry_cell_setting 'monoclinic'
loop_
_space_group_symop_operation_xyz
x,y,z
-x,y,-z
-x,-y,-z
x,-y,z
loop_
_atom_site_type_symbol
_atom_site_label
_atom_site_fract_x
_atom_site_fract_y
_atom_site_fract_z
Si Si1 0.188600 0.328131 0.594457
Si Si2 0.212099 0.226865 0.099305
Si Si3 0.757786 0.835349 0.156905
Si Si4 0.657746 0.840421 0.548309
Si Si5 0.401919 0.829663 0.224112
Si Si6 0.210936 0.172217 0.450343
Si Si7 0.044375 0.842697 0.717802
Si Si8 0.001197 0.341681 0.106350
O O1 0.196459 0.500000 0.597316
O O2 0.249557 0.275031 0.769172
O O3 0.258822 0.251879 0.605615
O O4 0.052883 0.280691 0.406619
O O5 0.256520 0.145609 0.249841
O O6 0.326757 0.267579 0.194443
O O7 0.128307 0.137068 0.918976
O O8 0.129774 0.354363 0.027710
O O9 0.876375 0.803110 0.262090
O O10 0.756739 0.000000 0.191286
O O11 0.645634 0.807189 0.942035
O O12 0.533815 0.766669 0.406098
O O13 0.719954 0.766554 0.544931
O O14 0.624547 0.000000 0.469997
O O15 0.392775 0.000000 0.241187
O O16 0.075726 0.220664 0.259378
O O17 0.215912 0.000000 0.467624
O O18 0.983917 0.000000 0.621738
O O19 0.059229 0.500000 0.195256
O O20 0.000000 0.294078 0.000000
#
# Coordination Sequence:
#
# PCOD8063402 Si02
#       8
#     4   4   4   4   4   4   4   4
#     4  12  24  37  56  82 114 155 195 243 303 358
#     4  11  19  32  59  90 121 161 192 231 284 351
#     4   9  19  37  59  83 113 152 193 242 298 351
#     4  10  20  35  57  90 122 154 198 245 290 342
#     4   9  19  36  60  89 122 153 191 247 304 344
#     4  11  23  37  58  87 118 154 200 247 290 348
#     4  10  20  33  54  86 121 154 190 235 289 351
#     4  11  23  39  56  81 123 166 199 240 291 346
#
# _framework density 20.598596000000001
#
# number of rings (size 3 to 8) (size 9 to 14) (size 15 to 20)
#    0.000    1.625    2.500    4.125    0.000    4.250 
#    0.000    2.500    0.000    9.000    0.000    0.000 
#    0.000    0.000    0.000    0.000    0.000    0.000 
#
# Total GULP energy -396456.303273 kJ/mol
# GULP energy per Si atom -12389.259477 kJ/mol
# Density = 2.055171 g / cm^3
# Si number density = 20.598596 Si / 1000 Ang^3
#
#
#
# Elastic Constant Matrix: (Units=GPa)
#
#
# Indices 1 2 3 4 5 6 
#
# 1 141.1559 37.2344 51.1733 0.0000 -11.6235 0.0000
# 2 37.2344 87.1068 22.6709 0.0000 -10.3734 0.0000
# 3 51.1733 22.6709 76.5431 0.0000 -6.4290 0.0000
# 4 0.0000 0.0000 0.0000 7.6332 0.0000 -2.2764
# 5 -11.6235 -10.3734 -6.4290 0.0000 40.2255 0.0000
# 6 0.0000 0.0000 0.0000 -2.2764 0.0000 16.1778
#
#
#
# Elastic Compliance Matrix: (Units=1/GPa)
#
#
# Indices 1 2 3 4 5 6 
#
# 1 0.009976 -0.002604 -0.005790 0.000000 0.001286 0.000000
# 2 -0.002604 0.013405 -0.002029 0.000000 0.002380 0.000000
# 3 -0.005790 -0.002029 0.017588 0.000000 0.000615 0.000000
# 4 0.000000 0.000000 0.000000 0.136745 0.000000 0.019242
# 5 0.001286 0.002380 0.000615 0.000000 0.025943 0.000000
# 6 0.000000 0.000000 0.000000 0.019242 0.000000 0.064521
#
#
# Mechanical properties :
#
#
# Convention : Reuss Voigt Hill
#
# Bulk Modulus (GPa) = 49.69765 58.55146 54.12455
# Shear Modulus (GPa) = 16.90706 25.72245 21.31475
#
# Velocity S-wave (km/s) = 2.86805 3.53760 3.22027
# Velocity P-wave (km/s) = 5.92846 6.72107 6.33717
#
# Compressibility (1/GPa) = 0.02012168
#
# Stress axis : x y z
#
# Youngs Moduli (GPa) = 100.23626 74.59910 56.85550
#
# Poissons Ratio (x) = 0.19428 0.32922
# Poissons Ratio (y) = 0.26105 0.11538
# Poissons Ratio (z) = 0.58041 0.15139
#
# Static dielectric constant tensor:
#      x y z
#    x 4.099060 0.000000 -0.072400 
#    y 0.000000 3.263650 0.000000 
#    z -0.072400 0.000000 3.695320 
# 
# 
# High freq. dielectric constant tensor:
#      x y z
#    x 1.821700 0.000000 -0.016200 
#    y 0.000000 1.760640 0.000000 
#    z -0.016200 0.000000 1.795730 
# 
# From -- ./inp_files/71598.got.cif
#   From: 2010.06.25/outbox.cif.g09.slc.cpg/sg10_36_cif.got.tgz:71598.got - 2010.06.27 22:07:45.
