data_PCOD8063409
_publ_section_title
;
Structure prediction by ZEFSAII (Michael W. Deem and Ramdas Pophale) SiO2 
 PCOD8063409
Probable space group: P 2/M
;
_chemical_formula_sum "Si O2"
_cell_formula_units_Z 24
_cell_length_a 14.754098
_cell_length_b 9.054969
_cell_length_c 9.568419
_cell_angle_alpha 90.000000
_cell_angle_beta 98.723968
_cell_angle_gamma 90.000000
_cell_volume 1263.531185
_symmetry_space_group_name_H-M "P 2/M"
_symmetry_group_IT_number 10
_symmetry_cell_setting 'monoclinic'
loop_
_space_group_symop_operation_xyz
x,y,z
-x,y,-z
-x,-y,-z
x,-y,z
loop_
_atom_site_type_symbol
_atom_site_label
_atom_site_fract_x
_atom_site_fract_y
_atom_site_fract_z
Si Si1 0.908617 0.333806 0.889479
Si Si2 0.546574 0.824353 0.373845
Si Si3 0.235361 0.174863 0.956867
Si Si4 0.911051 0.674084 0.566428
Si Si5 0.247759 0.824064 0.642449
Si Si6 0.570398 0.824322 0.906301
O O1 0.869228 0.500000 0.879680
O O2 0.924008 0.281248 0.732639
O O3 0.840902 0.226572 0.953894
O O4 0.000000 0.326475 0.000000
O O5 0.500000 0.758226 0.500000
O O6 0.649398 0.765423 0.368246
O O7 0.470516 0.769107 0.247890
O O8 0.553136 0.000000 0.377621
O O9 0.220816 0.228394 0.793285
O O10 0.237115 0.000000 0.958162
O O11 0.329802 0.241848 0.039116
O O12 0.897709 0.500000 0.545713
O O13 0.821531 0.753904 0.484879
O O14 0.000000 0.727648 0.500000
O O15 0.242467 0.000000 0.627619
O O16 0.575586 0.000000 0.917520
O O17 0.500000 0.758871 0.000000
#
# Coordination Sequence:
#
# PCOD8063409 Si02
#       6
#     4   4   4   4   4   4
#     4  10  22  40  60  80 103 137 181 224 268 324
#     4   9  17  28  46  75 110 145 179 214 257 312
#     4  10  20  33  55  85 113 142 178 222 268 312
#     4  10  22  40  60  79 103 140 181 219 269 329
#     4  10  20  34  54  84 115 142 177 221 268 315
#     4   9  15  28  48  73 108 145 178 213 255 308
#
# _framework density 18.994387
#
# number of rings (size 3 to 8) (size 9 to 14) (size 15 to 20)
#    0.000    2.333    1.667    1.000    2.333    3.333 
#    0.000    0.000    0.000    2.000    0.000    0.000 
#    0.000    0.000    0.000    0.000    0.000    0.000 
#
# Total GULP energy -297434.140085 kJ/mol
# GULP energy per Si atom -12393.089170 kJ/mol
# Density = 1.895115 g / cm^3
# Si number density = 18.994387 Si / 1000 Ang^3
#
#
#
# Elastic Constant Matrix: (Units=GPa)
#
#
# Indices 1 2 3 4 5 6 
#
# 1 100.2459 21.1719 64.3731 0.0000 0.4818 0.0000
# 2 21.1719 16.8111 25.5008 0.0000 2.9534 0.0000
# 3 64.3731 25.5008 180.4084 0.0000 -2.7183 0.0000
# 4 0.0000 0.0000 0.0000 18.7560 0.0000 6.0762
# 5 0.4818 2.9534 -2.7183 0.0000 41.7113 0.0000
# 6 0.0000 0.0000 0.0000 6.0762 0.0000 -5.1984
#
#
#
# Elastic Compliance Matrix: (Units=1/GPa)
#
#
# Indices 1 2 3 4 5 6 
#
# 1 0.015111 -0.013963 -0.003409 0.000000 0.000592 0.000000
# 2 -0.013963 0.090187 -0.007867 0.000000 -0.006737 0.000000
# 3 -0.003409 -0.007867 0.007888 0.000000 0.001111 0.000000
# 4 0.000000 0.000000 0.000000 0.038672 0.000000 0.045203
# 5 0.000592 -0.006737 0.001111 0.000000 0.024517 0.000000
# 6 0.000000 0.000000 0.000000 0.045203 0.000000 -0.139531
#
#
# Mechanical properties :
#
#
# Convention : Reuss Voigt Hill
#
# Bulk Modulus (GPa) = 15.94723 57.72854 36.83788
# Shear Modulus (GPa) = 46.20022 23.48176 34.84099
#
# Velocity S-wave (km/s) = 4.93720 3.51985 4.28749
# Velocity P-wave (km/s) = 6.39650 6.85401 6.62920
#
# Compressibility (1/GPa) = 0.06270681
#
# Stress axis : x y z
#
# Youngs Moduli (GPa) = 66.17758 11.08812 126.77150
#
# Poissons Ratio (x) = 0.15482 0.43219
# Poissons Ratio (y) = 0.92404 0.99733
# Poissons Ratio (z) = 0.22561 0.08723
#
# Static dielectric constant tensor:
#      x y z
#    x 3.733400 0.000000 -0.016020 
#    y 0.000000 3.000130 0.000000 
#    z -0.016020 0.000000 3.740120 
# 
# 
# High freq. dielectric constant tensor:
#      x y z
#    x 1.750940 0.000000 0.002490 
#    y 0.000000 1.686000 0.000000 
#    z 0.002490 0.000000 1.759320 
# 
# From -- ./inp_files/27236.got.cif
#   From: 2010.06.25/outbox.cif.g09.slc.cpg/sg10_14_cif.got.tgz:27236.got - 2010.06.27 22:07:45.
