data_PCOD8063290
_publ_section_title
;
Structure prediction by ZEFSAII (Michael W. Deem and Ramdas Pophale) SiO2 
 PCOD8063290
Probable space group: P 2/M
;
_chemical_formula_sum "Si O2"
_cell_formula_units_Z 28
_cell_length_a 9.665085
_cell_length_b 8.653148
_cell_length_c 17.076582
_cell_angle_alpha 90.000000
_cell_angle_beta 85.608518
_cell_angle_gamma 90.000000
_cell_volume 1423.979894
_symmetry_space_group_name_H-M "P 2/M"
_symmetry_group_IT_number 10
_symmetry_cell_setting 'monoclinic'
loop_
_space_group_symop_operation_xyz
x,y,z
-x,y,-z
-x,-y,-z
x,-y,z
loop_
_atom_site_type_symbol
_atom_site_label
_atom_site_fract_x
_atom_site_fract_y
_atom_site_fract_z
Si Si1 0.116295 0.679644 0.180686
Si Si2 0.700783 0.317728 0.688236
Si Si3 0.414680 0.317192 0.759654
Si Si4 0.959377 0.316615 0.586417
Si Si5 0.123431 0.181429 0.724173
Si Si6 0.416154 0.180575 0.927000
Si Si7 0.157009 0.321627 0.005324
O O1 0.082553 0.500000 0.195482
O O2 0.223557 0.749218 0.238293
O O3 0.189363 0.707806 0.094792
O O4 0.969439 0.766953 0.197495
O O5 0.698891 0.500000 0.695634
O O6 0.540672 0.262559 0.695799
O O7 0.797753 0.267385 0.610432
O O8 0.391285 0.500000 0.758220
O O9 0.279940 0.233277 0.733137
O O10 0.458110 0.269816 0.846149
O O11 0.973814 0.500000 0.586800
O O12 0.000000 0.248242 0.500000
O O13 0.065013 0.254035 0.646699
O O14 0.120791 0.000000 0.715164
O O15 0.441687 0.000000 0.912854
O O16 0.500000 0.241958 0.000000
O O17 0.253987 0.213537 0.948939
O O18 0.179641 0.500000 0.979708
O O19 0.000000 0.270094 0.000000
#
# Coordination Sequence:
#
# PCOD8063290 Si02
#       7
#     4   4   4   4   4   4   4
#     4   9  17  33  54  76 103 136 182 230 269 319
#     4   8  16  31  54  81 103 132 177 223 264 309
#     4  11  21  36  57  78 106 144 187 229 267 316
#     4   9  18  37  64  89 112 139 176 221 265 316
#     4  11  22  35  54  82 115 147 179 218 270 327
#     4  11  24  38  52  76 111 146 182 227 280 332
#     4  10  20  33  52  77 102 135 182 231 274 318
#
# _framework density 19.663198000000001
#
# number of rings (size 3 to 8) (size 9 to 14) (size 15 to 20)
#    0.000    2.143    0.000    4.714    0.000    4.571 
#    0.000    7.857    0.000    4.286    0.000    0.000 
#    0.000    0.000    0.000    0.000    0.000    0.000 
#
# Total GULP energy -347051.325330 kJ/mol
# GULP energy per Si atom -12394.690190 kJ/mol
# Density = 1.961844 g / cm^3
# Si number density = 19.663198 Si / 1000 Ang^3
#
#
#
# Elastic Constant Matrix: (Units=GPa)
#
#
# Indices 1 2 3 4 5 6 
#
# 1 105.3969 9.4017 26.4219 0.0000 -17.5492 0.0000
# 2 9.4017 41.6027 15.4958 0.0000 -3.5149 0.0000
# 3 26.4219 15.4958 73.6424 0.0000 -14.5607 0.0000
# 4 0.0000 0.0000 0.0000 15.0456 0.0000 8.0500
# 5 -17.5492 -3.5149 -14.5607 0.0000 29.2541 0.0000
# 6 0.0000 0.0000 0.0000 8.0500 0.0000 14.7074
#
#
#
# Elastic Compliance Matrix: (Units=1/GPa)
#
#
# Indices 1 2 3 4 5 6 
#
# 1 0.011134 -0.001055 -0.002748 0.000000 0.005185 0.000000
# 2 -0.001055 0.026186 -0.005141 0.000000 -0.000045 0.000000
# 3 -0.002748 -0.005141 0.016858 0.000000 0.006125 0.000000
# 4 0.000000 0.000000 0.000000 0.093989 0.000000 -0.051444
# 5 0.005185 -0.000045 0.006125 0.000000 0.040337 0.000000
# 6 0.000000 0.000000 0.000000 -0.051444 0.000000 0.096150
#
#
# Mechanical properties :
#
#
# Convention : Reuss Voigt Hill
#
# Bulk Modulus (GPa) = 27.55426 35.92008 31.73717
# Shear Modulus (GPa) = 15.89134 23.08960 19.49047
#
# Velocity S-wave (km/s) = 2.84593 3.43046 3.15177
# Velocity P-wave (km/s) = 4.98424 5.83078 5.42405
#
# Compressibility (1/GPa) = 0.03629203
#
# Stress axis : x y z
#
# Youngs Moduli (GPa) = 89.81366 38.18807 59.32031
#
# Poissons Ratio (x) = 0.04028 0.16299
# Poissons Ratio (y) = 0.09472 0.30494
# Poissons Ratio (z) = 0.24678 0.19631
#
# Static dielectric constant tensor:
#      x y z
#    x 3.840990 0.000000 -0.185780 
#    y 0.000000 3.328010 0.000000 
#    z -0.185780 0.000000 3.751360 
# 
# 
# High freq. dielectric constant tensor:
#      x y z
#    x 1.776410 0.000000 -0.010550 
#    y 0.000000 1.743590 0.000000 
#    z -0.010550 0.000000 1.754070 
# 
# From -- ./inp_files/74398.got.cif
#   From: 2010.06.25/outbox.cif.g09.slc.cpg/sg10_38_cif.got.tgz:74398.got - 2010.06.27 22:07:45.
