data_PCOD8063103
_publ_section_title
;
Structure prediction by ZEFSAII (Michael W. Deem and Ramdas Pophale) SiO2 
 PCOD8063103
Probable space group: P 2/M
;
_chemical_formula_sum "Si O2"
_cell_formula_units_Z 24
_cell_length_a 21.989417
_cell_length_b 9.352760
_cell_length_c 11.140738
_cell_angle_alpha 90.000000
_cell_angle_beta 147.552396
_cell_angle_gamma 90.000000
_cell_volume 1229.305862
_symmetry_space_group_name_H-M "P 2/M"
_symmetry_group_IT_number 10
_symmetry_cell_setting 'monoclinic'
loop_
_space_group_symop_operation_xyz
x,y,z
-x,y,-z
-x,-y,-z
x,-y,z
loop_
_atom_site_type_symbol
_atom_site_label
_atom_site_fract_x
_atom_site_fract_y
_atom_site_fract_z
Si Si1 0.553908 0.668554 0.916254
Si Si2 0.056801 0.344425 0.466342
Si Si3 0.861649 0.163819 0.053479
Si Si4 0.734697 0.332477 0.041259
Si Si5 0.128413 0.836088 0.203115
Si Si6 0.326822 0.330896 0.646308
O O1 0.561360 0.500000 0.942568
O O2 0.421876 0.714073 0.704477
O O3 0.609585 0.713692 0.880683
O O4 0.626333 0.728342 0.149112
O O5 0.053565 0.500000 0.395628
O O6 0.185480 0.298162 0.709899
O O7 0.000000 0.359803 0.500000
O O8 0.988633 0.228466 0.275562
O O9 0.768886 0.244345 0.980407
O O10 0.867301 0.000000 0.104715
O O11 0.825023 0.178911 0.854838
O O12 0.741734 0.500000 0.018839
O O13 0.207626 0.743968 0.421678
O O14 0.132683 0.000000 0.253261
O O15 0.000000 0.778421 0.000000
O O16 0.305449 0.500000 0.610275
#
# Coordination Sequence:
#
# PCOD8063103 Si02
#       6
#     4   4   4   4   4   4
#     4   8  16  33  57  84 110 131 161 217 273 305
#     4   8  15  27  45  70 100 132 164 203 251 302
#     4  10  20  33  48  70 102 138 175 215 254 299
#     4   9  17  31  52  76 105 136 164 205 263 314
#     4  10  23  40  53  70 106 147 176 212 263 308
#     4   9  18  35  59  83 104 132 175 218 255 307
#
# _framework density 19.523212999999998
#
# number of rings (size 3 to 8) (size 9 to 14) (size 15 to 20)
#    0.000    3.000    0.000    2.500    2.333    4.667 
#    0.000    4.167    0.000    5.000    0.000    0.000 
#    0.000    0.000    0.000    0.000    0.000    0.000 
#
# Total GULP energy -297388.858624 kJ/mol
# GULP energy per Si atom -12391.202443 kJ/mol
# Density = 1.947878 g / cm^3
# Si number density = 19.523213 Si / 1000 Ang^3
#
#
#
# Elastic Constant Matrix: (Units=GPa)
#
#
# Indices 1 2 3 4 5 6 
#
# 1 85.4463 27.2611 21.6616 0.0000 22.5128 0.0000
# 2 27.2611 67.1515 31.1410 0.0000 3.1283 0.0000
# 3 21.6616 31.1410 80.3251 0.0000 15.8675 0.0000
# 4 0.0000 0.0000 0.0000 30.8267 0.0000 -4.1436
# 5 22.5128 3.1283 15.8675 0.0000 28.7282 0.0000
# 6 0.0000 0.0000 0.0000 -4.1436 0.0000 22.1990
#
#
#
# Elastic Compliance Matrix: (Units=1/GPa)
#
#
# Indices 1 2 3 4 5 6 
#
# 1 0.017082 -0.006561 0.000494 0.000000 -0.012945 0.000000
# 2 -0.006561 0.020794 -0.007701 0.000000 0.007130 0.000000
# 3 0.000494 -0.007701 0.017076 0.000000 -0.008980 0.000000
# 4 0.000000 0.000000 0.000000 0.033274 0.000000 0.006211
# 5 -0.012945 0.007130 -0.008980 0.000000 0.049136 0.000000
# 6 0.000000 0.000000 0.000000 0.006211 0.000000 0.046206
#
#
# Mechanical properties :
#
#
# Convention : Reuss Voigt Hill
#
# Bulk Modulus (GPa) = 36.47440 43.67225 40.07333
# Shear Modulus (GPa) = 22.70224 26.54137 24.62181
#
# Velocity S-wave (km/s) = 3.41373 3.69111 3.55513
# Velocity P-wave (km/s) = 5.85331 6.37053 6.11739
#
# Compressibility (1/GPa) = 0.02741649
#
# Stress axis : x y z
#
# Youngs Moduli (GPa) = 58.54226 48.09040 58.56290
#
# Poissons Ratio (x) = 0.31550 -0.02893
# Poissons Ratio (y) = 0.38407 0.45099
# Poissons Ratio (z) = -0.02892 0.37034
#
# Static dielectric constant tensor:
#      x y z
#    x 3.855420 0.000000 0.496370 
#    y 0.000000 3.300380 0.000000 
#    z 0.496370 0.000000 3.799920 
# 
# 
# High freq. dielectric constant tensor:
#      x y z
#    x 1.768960 0.000000 0.016930 
#    y 0.000000 1.730180 0.000000 
#    z 0.016930 0.000000 1.735700 
# 
# From -- ./inp_files/55045.got.cif
#   From: 2010.06.25/outbox.cif.g09.slc.cpg/sg10_28_cif.got.tgz:55045.got - 2010.06.27 22:07:45.
