data_PCOD8063730
_publ_section_title
;
Structure prediction by ZEFSAII (Michael W. Deem and Ramdas Pophale) SiO2 
 PCOD8063730
Probable space group: P 2/M
;
_chemical_formula_sum "Si O2"
_cell_formula_units_Z 28
_cell_length_a 24.695180
_cell_length_b 8.914719
_cell_length_c 22.185114
_cell_angle_alpha 90.000000
_cell_angle_beta 17.611474
_cell_angle_gamma 90.000000
_cell_volume 1477.726752
_symmetry_space_group_name_H-M "P 2/M"
_symmetry_group_IT_number 10
_symmetry_cell_setting 'monoclinic'
loop_
_space_group_symop_operation_xyz
x,y,z
-x,y,-z
-x,-y,-z
x,-y,z
loop_
_atom_site_type_symbol
_atom_site_label
_atom_site_fract_x
_atom_site_fract_y
_atom_site_fract_z
Si Si1 0.887005 0.821950 0.980935
Si Si2 0.742240 0.675639 0.380641
Si Si3 0.329958 0.678537 0.016651
Si Si4 0.625283 0.677032 0.166415
Si Si5 0.980251 0.321452 0.453277
Si Si6 0.411220 0.321386 0.155360
Si Si7 0.208918 0.164609 0.789126
O O1 0.786125 0.756849 0.030585
O O2 0.770710 0.775778 0.163840
O O3 0.902920 0.000000 0.959704
O O4 0.087796 0.757743 0.770689
O O5 0.778954 0.500000 0.344326
O O6 0.567808 0.722995 0.603147
O O7 0.706019 0.722144 0.349434
O O8 0.331180 0.500000 0.016245
O O9 0.366415 0.736787 0.910776
O O10 0.483988 0.741264 0.897616
O O11 0.139204 0.740299 0.242513
O O12 0.656474 0.500000 0.138018
O O13 0.987213 0.500000 0.448391
O O14 0.793206 0.265327 0.623650
O O15 0.000000 0.257705 0.500000
O O16 0.420810 0.500000 0.143973
O O17 0.500000 0.258166 0.000000
O O18 0.298722 0.000000 0.686027
O O19 0.000000 0.148762 0.000000
#
# Coordination Sequence:
#
# PCOD8063730 Si02
#       7
#     4   4   4   4   4   4   4
#     4  10  21  37  57  78 103 138 180 226 270 312
#     4  10  20  34  54  79 109 142 176 216 267 322
#     4   9  17  28  40  60  95 134 170 205 248 307
#     4  10  22  36  50  74 109 147 180 214 262 322
#     4   9  14  21  37  60  86 123 165 202 244 296
#     4   9  14  21  36  58  86 121 161 202 244 295
#     4   8  16  32  53  78 104 133 174 222 270 314
#
# _framework density 18.948024
#
# number of rings (size 3 to 8) (size 9 to 14) (size 15 to 20)
#    0.000    2.714    1.429    1.714    0.000    6.000 
#    0.000    7.143    0.000    0.000    0.000    0.000 
#    0.000    1.143    0.000    0.143    0.000    0.000 
#
# Total GULP energy -347091.319118 kJ/mol
# GULP energy per Si atom -12396.118540 kJ/mol
# Density = 1.890490 g / cm^3
# Si number density = 18.948024 Si / 1000 Ang^3
#
#
#
# Elastic Constant Matrix: (Units=GPa)
#
#
# Indices 1 2 3 4 5 6 
#
# 1 140.7784 11.1372 63.8627 0.0000 1.3403 0.0000
# 2 11.1372 26.3110 18.6910 0.0000 -0.5980 0.0000
# 3 63.8627 18.6910 132.7860 0.0000 1.7562 0.0000
# 4 0.0000 0.0000 0.0000 -3.3602 0.0000 -1.5125
# 5 1.3403 -0.5980 1.7562 0.0000 35.8914 0.0000
# 6 0.0000 0.0000 0.0000 -1.5125 0.0000 4.5761
#
#
#
# Elastic Compliance Matrix: (Units=1/GPa)
#
#
# Indices 1 2 3 4 5 6 
#
# 1 0.009102 -0.000831 -0.004259 0.000000 -0.000145 0.000000
# 2 -0.000831 0.042341 -0.005574 0.000000 0.001009 0.000000
# 3 -0.004259 -0.005574 0.010370 0.000000 -0.000441 0.000000
# 4 0.000000 0.000000 0.000000 -0.259064 0.000000 -0.085624
# 5 -0.000145 0.001009 -0.000441 0.000000 0.027906 0.000000
# 6 0.000000 0.000000 0.000000 -0.085624 0.000000 0.190228
#
#
# Mechanical properties :
#
#
# Convention : Reuss Voigt Hill
#
# Bulk Modulus (GPa) = 24.69979 54.13968 39.41973
# Shear Modulus (GPa) = 89.75968 21.16710 55.46339
#
# Velocity S-wave (km/s) = 6.89016 3.34595 5.41617
# Velocity P-wave (km/s) = 8.73859 6.60015 7.74354
#
# Compressibility (1/GPa) = 0.04048618
#
# Stress axis : x y z
#
# Youngs Moduli (GPa) = 109.86007 23.61780 96.43566
#
# Poissons Ratio (x) = 0.01962 0.41071
# Poissons Ratio (y) = 0.09127 0.53750
# Poissons Ratio (z) = 0.46789 0.13164
#
# Static dielectric constant tensor:
#      x y z
#    x 3.769020 0.000000 0.092300 
#    y 0.000000 2.966220 0.000000 
#    z 0.092300 0.000000 3.569730 
# 
# 
# High freq. dielectric constant tensor:
#      x y z
#    x 1.742780 0.000000 -0.002020 
#    y 0.000000 1.682760 0.000000 
#    z -0.002020 0.000000 1.740420 
# 
# From -- ./inp_files/86445.got.cif
#   From: 2010.06.25/outbox.cif.g09.slc.cpg/sg10_44_cif.got.tgz:86445.got - 2010.06.27 22:07:45.
