data_PCOD8063082
_publ_section_title
;
Structure prediction by ZEFSAII (Michael W. Deem and Ramdas Pophale) SiO2 
 PCOD8063082
Probable space group: P 2/M
;
_chemical_formula_sum "Si O2"
_cell_formula_units_Z 28
_cell_length_a 19.866476
_cell_length_b 13.779057
_cell_length_c 16.533918
_cell_angle_alpha 90.000000
_cell_angle_beta 159.361569
_cell_angle_gamma 90.000000
_cell_volume 1595.282378
_symmetry_space_group_name_H-M "P 2/M"
_symmetry_group_IT_number 10
_symmetry_cell_setting 'monoclinic'
loop_
_space_group_symop_operation_xyz
x,y,z
-x,y,-z
-x,-y,-z
x,-y,z
loop_
_atom_site_type_symbol
_atom_site_label
_atom_site_fract_x
_atom_site_fract_y
_atom_site_fract_z
Si Si1 0.315034 0.608915 0.886202
Si Si2 0.669863 0.753488 0.291201
Si Si3 0.798131 0.115529 0.802346
Si Si4 0.949292 0.608290 0.568334
Si Si5 0.533861 0.110622 0.835421
Si Si6 0.420292 0.114631 0.291068
Si Si7 0.786040 0.888818 0.275820
O O1 0.398746 0.500000 0.989378
O O2 0.189119 0.616132 0.664605
O O3 0.169617 0.632472 0.796297
O O4 0.486259 0.684046 0.075508
O O5 0.859256 0.690236 0.525398
O O6 0.646745 0.823450 0.342655
O O7 0.689004 0.819907 0.232528
O O8 0.630820 0.151532 0.553917
O O9 0.743355 0.153624 0.831457
O O10 0.813213 0.000000 0.818659
O O11 0.000000 0.160944 0.000000
O O12 0.936631 0.500000 0.591222
O O13 0.620533 0.147210 0.847311
O O14 0.463221 0.000000 0.747669
O O15 0.687971 0.123363 0.079046
O O16 0.418464 0.000000 0.296668
O O17 0.000000 0.854544 0.500000
O O18 0.774169 0.000000 0.293675
#
# Coordination Sequence:
#
# PCOD8063082 Si02
#       7
#     4   4   4   4   4   4   4
#     4   9  18  31  46  66  85 104 139 189 241 288
#     4  12  21  30  51  63  83 121 160 193 233 271
#     4   8  13  25  46  66  83 108 138 170 224 286
#     4   9  18  30  45  66  87 104 138 190 239 287
#     4  10  20  33  45  63  91 122 160 203 232 256
#     4   8  15  28  43  62  89 111 138 186 228 265
#     4  10  22  36  46  59  84 124 172 211 235 256
#
# _framework density 17.551752
#
# number of rings (size 3 to 8) (size 9 to 14) (size 15 to 20)
#    0.000    2.571    0.000    5.143    4.000    2.286 
#    2.571    0.000    0.000    0.000    0.000    0.000 
#    0.000    0.000    0.000   10.286    0.000   29.714 
#
# Total GULP energy -346910.210175 kJ/mol
# GULP energy per Si atom -12389.650363 kJ/mol
# Density = 1.751180 g / cm^3
# Si number density = 17.551752 Si / 1000 Ang^3
#
#
#
# Elastic Constant Matrix: (Units=GPa)
#
#
# Indices 1 2 3 4 5 6 
#
# 1 134.9906 47.5961 51.6061 0.0000 20.5377 0.0000
# 2 47.5961 81.2503 29.5449 0.0000 18.1292 0.0000
# 3 51.6061 29.5449 58.9695 0.0000 29.3060 0.0000
# 4 0.0000 0.0000 0.0000 12.7243 0.0000 7.7595
# 5 20.5377 18.1292 29.3060 0.0000 29.4047 0.0000
# 6 0.0000 0.0000 0.0000 7.7595 0.0000 9.8699
#
#
#
# Elastic Compliance Matrix: (Units=1/GPa)
#
#
# Indices 1 2 3 4 5 6 
#
# 1 0.012490 -0.004362 -0.011385 0.000000 0.005313 0.000000
# 2 -0.004362 0.016756 -0.001898 0.000000 -0.005393 0.000000
# 3 -0.011385 -0.001898 0.046243 0.000000 -0.036966 0.000000
# 4 0.000000 0.000000 0.000000 0.150966 0.000000 -0.118686
# 5 0.005313 -0.005393 -0.036966 0.000000 0.070464 0.000000
# 6 0.000000 0.000000 0.000000 -0.118686 0.000000 0.194626
#
#
# Mechanical properties :
#
#
# Convention : Reuss Voigt Hill
#
# Bulk Modulus (GPa) = 24.87596 59.18938 42.03267
# Shear Modulus (GPa) = 9.25521 20.16400 14.70961
#
# Velocity S-wave (km/s) = 2.29881 3.39312 2.89809
# Velocity P-wave (km/s) = 4.60975 7.01049 5.93282
#
# Compressibility (1/GPa) = 0.04019946
#
# Stress axis : x y z
#
# Youngs Moduli (GPa) = 80.06270 59.67889 21.62479
#
# Poissons Ratio (x) = 0.26033 0.24621
# Poissons Ratio (y) = 0.34924 0.04104
# Poissons Ratio (z) = 0.91154 0.11325
#
# Static dielectric constant tensor:
#      x y z
#    x 3.687580 0.000000 0.544610 
#    y 0.000000 3.592840 0.000000 
#    z 0.544610 0.000000 3.295780 
# 
# 
# High freq. dielectric constant tensor:
#      x y z
#    x 1.662020 0.000000 0.042650 
#    y 0.000000 1.655940 0.000000 
#    z 0.042650 0.000000 1.655670 
# 
# From -- ./inp_files/79668.got.cif
#   From: 2010.06.25/outbox.cif.g09.slc.cpg/sg10_40_cif.got.tgz:79668.got - 2010.06.27 22:07:45.
