data_PCOD8063817
_publ_section_title
;
Structure prediction by ZEFSAII (Michael W. Deem and Ramdas Pophale) SiO2 
 PCOD8063817
Probable space group: P 2/M
;
_chemical_formula_sum "Si O2"
_cell_formula_units_Z 28
_cell_length_a 13.985184
_cell_length_b 9.468120
_cell_length_c 20.701295
_cell_angle_alpha 90.000000
_cell_angle_beta 146.987013
_cell_angle_gamma 90.000000
_cell_volume 1493.446823
_symmetry_space_group_name_H-M "P 2/M"
_symmetry_group_IT_number 10
_symmetry_cell_setting 'monoclinic'
loop_
_space_group_symop_operation_xyz
x,y,z
-x,y,-z
-x,-y,-z
x,-y,z
loop_
_atom_site_type_symbol
_atom_site_label
_atom_site_fract_x
_atom_site_fract_y
_atom_site_fract_z
Si Si1 0.202521 0.839911 0.130541
Si Si2 0.657344 0.667023 0.675191
Si Si3 0.522035 0.833887 0.823259
Si Si4 0.278955 0.333501 0.431036
Si Si5 0.822417 0.333537 0.362253
Si Si6 0.908549 0.665926 0.265906
Si Si7 0.656261 0.840435 0.038375
O O1 0.231443 0.739430 0.206883
O O2 0.325530 0.793611 0.140622
O O3 0.247255 0.000000 0.175308
O O4 0.000000 0.822668 0.000000
O O5 0.674049 0.500000 0.693431
O O6 0.734124 0.720164 0.650123
O O7 0.455293 0.720704 0.565913
O O8 0.344309 0.750163 0.703676
O O9 0.478576 0.000000 0.799192
O O10 0.590326 0.783461 0.932026
O O11 0.294890 0.500000 0.436079
O O12 0.111341 0.285482 0.377345
O O13 0.789709 0.500000 0.352618
O O14 0.838425 0.290268 0.296255
O O15 0.000000 0.288295 0.500000
O O16 0.888423 0.500000 0.242850
O O17 0.810113 0.742086 0.151775
O O18 0.728008 0.000000 0.072187
O O19 0.500000 0.832891 0.000000
#
# Coordination Sequence:
#
# PCOD8063817 Si02
#       7
#     4   4   4   4   4   4   4
#     4  10  23  40  56  78 112 148 183 228 282 326
#     4   9  18  36  60  81 106 141 184 225 269 326
#     4  10  22  40  58  78 109 150 186 225 276 328
#     4   8  17  34  56  83 111 140 173 223 279 321
#     4  10  22  37  56  85 116 146 182 224 271 325
#     4  10  20  34  55  82 112 141 175 221 273 322
#     4  10  20  36  56  77 104 138 181 223 262 315
#
# _framework density 18.748576
#
# number of rings (size 3 to 8) (size 9 to 14) (size 15 to 20)
#    0.000    2.429    1.429    0.857    4.000    2.000 
#    0.000    2.143    0.000    0.000    0.000    0.000 
#    0.000    0.000    0.000    0.000    0.000    0.000 
#
# Total GULP energy -347171.045533 kJ/mol
# GULP energy per Si atom -12398.965912 kJ/mol
# Density = 1.870590 g / cm^3
# Si number density = 18.748576 Si / 1000 Ang^3
#
#
#
# Elastic Constant Matrix: (Units=GPa)
#
#
# Indices 1 2 3 4 5 6 
#
# 1 86.7770 27.9771 32.9522 0.0000 15.0724 0.0000
# 2 27.9771 44.5610 41.4769 0.0000 3.3403 0.0000
# 3 32.9522 41.4769 94.3138 0.0000 2.4233 0.0000
# 4 0.0000 0.0000 0.0000 51.1907 0.0000 -7.8709
# 5 15.0724 3.3403 2.4233 0.0000 34.6035 0.0000
# 6 0.0000 0.0000 0.0000 -7.8709 0.0000 25.9128
#
#
#
# Elastic Compliance Matrix: (Units=1/GPa)
#
#
# Indices 1 2 3 4 5 6 
#
# 1 0.015776 -0.007564 -0.002031 0.000000 -0.005999 0.000000
# 2 -0.007564 0.041838 -0.015766 0.000000 0.000360 0.000000
# 3 -0.002031 -0.015766 0.018217 0.000000 0.001131 0.000000
# 4 0.000000 0.000000 0.000000 0.020492 0.000000 0.006224
# 5 -0.005999 0.000360 0.001131 0.000000 0.031398 0.000000
# 6 0.000000 0.000000 0.000000 0.006224 0.000000 0.040482
#
#
# Mechanical properties :
#
#
# Convention : Reuss Voigt Hill
#
# Bulk Modulus (GPa) = 39.82761 47.82935 43.82848
# Shear Modulus (GPa) = 21.99801 30.55777 26.27789
#
# Velocity S-wave (km/s) = 3.42909 4.04155 3.74785
# Velocity P-wave (km/s) = 6.08007 6.88078 6.49278
#
# Compressibility (1/GPa) = 0.02510821
#
# Stress axis : x y z
#
# Youngs Moduli (GPa) = 63.38798 23.90186 54.89444
#
# Poissons Ratio (x) = 0.18080 0.11150
# Poissons Ratio (y) = 0.47949 0.86544
# Poissons Ratio (z) = 0.12875 0.37683
#
# Static dielectric constant tensor:
#      x y z
#    x 3.616350 0.000000 0.132980 
#    y 0.000000 3.227520 0.000000 
#    z 0.132980 0.000000 3.635060 
# 
# 
# High freq. dielectric constant tensor:
#      x y z
#    x 1.736560 0.000000 0.002870 
#    y 0.000000 1.703890 0.000000 
#    z 0.002870 0.000000 1.733980 
# 
# From -- ./inp_files/49134.got.cif
#   From: 2010.06.25/outbox.cif.g09.slc.cpg/sg10_25_cif.got.tgz:49134.got - 2010.06.27 22:07:45.
