data_PCOD8063180
_publ_section_title
;
Structure prediction by ZEFSAII (Michael W. Deem and Ramdas Pophale) SiO2 
 PCOD8063180
Probable space group: P 2/M
;
_chemical_formula_sum "Si O2"
_cell_formula_units_Z 32
_cell_length_a 13.900308
_cell_length_b 9.285442
_cell_length_c 12.857635
_cell_angle_alpha 90.000000
_cell_angle_beta 85.483206
_cell_angle_gamma 90.000000
_cell_volume 1654.387378
_symmetry_space_group_name_H-M "P 2/M"
_symmetry_group_IT_number 10
_symmetry_cell_setting 'monoclinic'
loop_
_space_group_symop_operation_xyz
x,y,z
-x,y,-z
-x,-y,-z
x,-y,z
loop_
_atom_site_type_symbol
_atom_site_label
_atom_site_fract_x
_atom_site_fract_y
_atom_site_fract_z
Si Si1 0.661979 0.670586 0.465898
Si Si2 0.985673 0.164140 0.614319
Si Si3 0.733243 0.339977 0.142803
Si Si4 0.819017 0.835007 0.778489
Si Si5 0.369080 0.835220 0.321026
Si Si6 0.585827 0.833964 0.273802
Si Si7 0.150520 0.655784 0.657124
Si Si8 0.105343 0.671263 0.030929
O O1 0.639105 0.500000 0.462274
O O2 0.631656 0.732166 0.579448
O O3 0.602695 0.750104 0.380196
O O4 0.776203 0.701279 0.441391
O O5 0.063770 0.235023 0.683732
O O6 0.000000 0.237687 0.500000
O O7 0.878709 0.185101 0.666656
O O8 0.016364 0.000000 0.604236
O O9 0.696994 0.500000 0.112442
O O10 0.642388 0.234487 0.170001
O O11 0.788038 0.352544 0.245227
O O12 0.808641 0.276694 0.052522
O O13 0.710223 0.787557 0.758488
O O14 0.868871 0.735723 0.859694
O O15 0.823005 0.000000 0.817132
O O16 0.472589 0.823159 0.256673
O O17 0.348109 0.000000 0.358387
O O18 0.618359 0.000000 0.284501
O O19 0.105037 0.500000 0.636489
O O20 0.103101 0.500000 0.039986
O O21 0.000000 0.725986 0.000000
#
# Coordination Sequence:
#
# PCOD8063180 Si02
#       8
#     4   4   4   4   4   4   4   4
#     4  10  20  33  52  80 112 146 183 223 267 316
#     4  10  20  33  50  73 103 140 175 209 256 310
#     4   9  19  36  56  79 106 134 170 219 269 316
#     4  10  22  38  55  79 110 141 179 226 271 320
#     4  10  21  37  54  75 108 147 184 224 269 317
#     4  10  20  34  55  81 108 143 184 223 267 318
#     4   9  18  32  50  74 103 134 170 213 261 313
#     4  10  21  39  62  84 108 139 175 219 271 326
#
# _framework density 19.342506
#
# number of rings (size 3 to 8) (size 9 to 14) (size 15 to 20)
#    0.000    2.250    0.000    3.375    0.000    9.000 
#    0.000    0.625    0.000    3.750    0.000    0.000 
#    0.000    0.000    0.000    0.000    0.000    0.000 
#
# Total GULP energy -396682.519151 kJ/mol
# GULP energy per Si atom -12396.328723 kJ/mol
# Density = 1.929848 g / cm^3
# Si number density = 19.342506 Si / 1000 Ang^3
#
#
#
# Elastic Constant Matrix: (Units=GPa)
#
#
# Indices 1 2 3 4 5 6 
#
# 1 126.9263 52.5568 43.0329 0.0000 -0.1124 0.0000
# 2 52.5568 75.4018 33.0914 0.0000 -2.7575 0.0000
# 3 43.0329 33.0914 79.1708 0.0000 -10.2573 0.0000
# 4 0.0000 0.0000 0.0000 26.1760 0.0000 -6.0234
# 5 -0.1124 -2.7575 -10.2573 0.0000 25.9383 0.0000
# 6 0.0000 0.0000 0.0000 -6.0234 0.0000 17.1089
#
#
#
# Elastic Compliance Matrix: (Units=1/GPa)
#
#
# Indices 1 2 3 4 5 6 
#
# 1 0.012010 -0.006687 -0.004024 0.000000 -0.002250 0.000000
# 2 -0.006687 0.019990 -0.004689 0.000000 0.000242 0.000000
# 3 -0.004024 -0.004689 0.017614 0.000000 0.006449 0.000000
# 4 0.000000 0.000000 0.000000 0.041571 0.000000 0.014635
# 5 -0.002250 0.000242 0.006449 0.000000 0.041119 0.000000
# 6 0.000000 0.000000 0.000000 0.014635 0.000000 0.063602
#
#
# Mechanical properties :
#
#
# Convention : Reuss Voigt Hill
#
# Bulk Modulus (GPa) = 53.15675 59.87346 56.51511
# Shear Modulus (GPa) = 21.46115 24.03249 22.74682
#
# Velocity S-wave (km/s) = 3.33458 3.52869 3.43301
# Velocity P-wave (km/s) = 6.50902 6.90100 6.70787
#
# Compressibility (1/GPa) = 0.01881229
#
# Stress axis : x y z
#
# Youngs Moduli (GPa) = 83.26322 50.02410 56.77318
#
# Poissons Ratio (x) = 0.33453 0.22848
# Poissons Ratio (y) = 0.55682 0.26622
# Poissons Ratio (z) = 0.33509 0.23457
#
# Static dielectric constant tensor:
#      x y z
#    x 3.789920 0.000000 -0.290580 
#    y 0.000000 3.621770 0.000000 
#    z -0.290580 0.000000 3.427770 
# 
# 
# High freq. dielectric constant tensor:
#      x y z
#    x 1.759610 0.000000 -0.014010 
#    y 0.000000 1.751110 0.000000 
#    z -0.014010 0.000000 1.731440 
# 
# From -- ./inp_files/49792.got.cif
#   From: 2010.06.25/outbox.cif.g09.slc.cpg/sg10_25_cif.got.tgz:49792.got - 2010.06.27 22:07:45.
