data_PCOD8063752
_publ_section_title
;
Structure prediction by ZEFSAII (Michael W. Deem and Ramdas Pophale) SiO2 
 PCOD8063752
Probable space group: P 2/M
;
_chemical_formula_sum "Si O2"
_cell_formula_units_Z 32
_cell_length_a 11.512066
_cell_length_b 9.087180
_cell_length_c 22.720202
_cell_angle_alpha 90.000000
_cell_angle_beta 133.597588
_cell_angle_gamma 90.000000
_cell_volume 1721.288412
_symmetry_space_group_name_H-M "P 2/M"
_symmetry_group_IT_number 10
_symmetry_cell_setting 'monoclinic'
loop_
_space_group_symop_operation_xyz
x,y,z
-x,y,-z
-x,-y,-z
x,-y,z
loop_
_atom_site_type_symbol
_atom_site_label
_atom_site_fract_x
_atom_site_fract_y
_atom_site_fract_z
Si Si1 0.796694 0.829129 0.352258
Si Si2 0.442806 0.832474 0.186046
Si Si3 0.635766 0.828756 0.713488
Si Si4 0.930603 0.828110 0.734762
Si Si5 0.250739 0.672600 0.885534
Si Si6 0.425708 0.329048 0.063562
Si Si7 0.085224 0.329764 0.389632
Si Si8 0.320927 0.669996 0.576820
O O1 0.632119 0.807006 0.259550
O O2 0.785613 0.755246 0.412412
O O3 0.931257 0.751077 0.361395
O O4 0.838745 0.000000 0.375581
O O5 0.353610 0.779467 0.214470
O O6 0.375207 0.744632 0.106958
O O7 0.401542 0.000000 0.158638
O O8 0.498337 0.736511 0.632627
O O9 0.805426 0.797011 0.743142
O O10 0.585270 0.000000 0.692487
O O11 0.101334 0.769647 0.814849
O O12 0.867606 0.743100 0.655596
O O13 0.944127 0.000000 0.724813
O O14 0.213935 0.500000 0.863848
O O15 0.399939 0.724140 0.897591
O O16 0.291930 0.707175 0.967879
O O17 0.434209 0.500000 0.078244
O O18 0.040989 0.500000 0.364861
O O19 0.237612 0.310724 0.484849
O O20 0.331150 0.500000 0.599297
#
# Coordination Sequence:
#
# PCOD8063752 Si02
#       8
#     4   4   4   4   4   4   4   4
#     4  10  20  34  54  81 112 143 176 216 263 315
#     4   9  18  33  53  77 104 135 173 216 259 305
#     4   9  21  40  56  73 103 141 180 223 267 314
#     4  11  23  38  56  77 102 138 183 223 265 317
#     4   9  19  36  55  78 111 142 167 207 262 315
#     4   9  18  33  55  82 109 138 170 205 255 318
#     4  11  23  36  52  78 110 140 174 220 271 321
#     4  10  21  36  55  79 106 139 178 219 267 318
#
# _framework density 18.590726
#
# number of rings (size 3 to 8) (size 9 to 14) (size 15 to 20)
#    0.000    2.250    0.000    4.125    0.000   10.500 
#    0.000    4.375    0.000    3.750    0.000    0.000 
#    0.000    0.000    0.000    0.000    0.000    0.000 
#
# Total GULP energy -396875.259358 kJ/mol
# GULP energy per Si atom -12402.351855 kJ/mol
# Density = 1.854841 g / cm^3
# Si number density = 18.590726 Si / 1000 Ang^3
#
#
#
# Elastic Constant Matrix: (Units=GPa)
#
#
# Indices 1 2 3 4 5 6 
#
# 1 76.8429 38.3476 37.2057 0.0000 -15.6552 0.0000
# 2 38.3476 91.9435 46.5355 0.0000 -14.3942 0.0000
# 3 37.2057 46.5355 92.6227 0.0000 -25.7521 0.0000
# 4 0.0000 0.0000 0.0000 17.3154 0.0000 -18.7158
# 5 -15.6552 -14.3942 -25.7521 0.0000 19.4561 0.0000
# 6 0.0000 0.0000 0.0000 -18.7158 0.0000 16.5166
#
#
#
# Elastic Compliance Matrix: (Units=1/GPa)
#
#
# Indices 1 2 3 4 5 6 
#
# 1 0.018412 -0.005122 -0.002780 0.000000 0.007346 0.000000
# 2 -0.005122 0.016047 -0.006092 0.000000 -0.000313 0.000000
# 3 -0.002780 -0.006092 0.020726 0.000000 0.020689 0.000000
# 4 0.000000 0.000000 0.000000 -0.256901 0.000000 -0.291108
# 5 0.007346 -0.000313 0.020689 0.000000 0.084462 0.000000
# 6 0.000000 0.000000 0.000000 -0.291108 0.000000 -0.269325
#
#
# Mechanical properties :
#
#
# Convention : Reuss Voigt Hill
#
# Bulk Modulus (GPa) = 36.76819 56.17630 46.47225
# Shear Modulus (GPa) = -14.30515 19.94564 2.82024
#
# Velocity S-wave (km/s) = -2.77696 3.27904 1.23301
# Velocity P-wave (km/s) = 3.08847 6.67975 5.20374
#
# Compressibility (1/GPa) = 0.02719742
#
# Stress axis : x y z
#
# Youngs Moduli (GPa) = 54.31104 62.31759 48.24836
#
# Poissons Ratio (x) = 0.31921 0.13414
# Poissons Ratio (y) = 0.27819 0.29391
# Poissons Ratio (z) = 0.15099 0.37961
#
# Static dielectric constant tensor:
#      x y z
#    x 3.392770 0.000000 -0.177970 
#    y 0.000000 3.474370 0.000000 
#    z -0.177970 0.000000 3.418620 
# 
# 
# High freq. dielectric constant tensor:
#      x y z
#    x 1.713250 0.000000 -0.010950 
#    y 0.000000 1.727550 0.000000 
#    z -0.010950 0.000000 1.722760 
# 
# From -- ./inp_files/58293.got.cif
#   From: 2010.06.25/outbox.cif.g09.slc.cpg/sg10_30_cif.got.tgz:58293.got - 2010.06.27 22:07:45.
