data_PCOD8063195
_publ_section_title
;
Structure prediction by ZEFSAII (Michael W. Deem and Ramdas Pophale) SiO2 
 PCOD8063195
Probable space group: P 2/M
;
_chemical_formula_sum "Si O2"
_cell_formula_units_Z 24
_cell_length_a 8.916851
_cell_length_b 11.605041
_cell_length_c 26.056678
_cell_angle_alpha 90.000000
_cell_angle_beta 151.558250
_cell_angle_gamma 90.000000
_cell_volume 1284.180164
_symmetry_space_group_name_H-M "P 2/M"
_symmetry_group_IT_number 10
_symmetry_cell_setting 'monoclinic'
loop_
_space_group_symop_operation_xyz
x,y,z
-x,y,-z
-x,-y,-z
x,-y,z
loop_
_atom_site_type_symbol
_atom_site_label
_atom_site_fract_x
_atom_site_fract_y
_atom_site_fract_z
Si Si1 0.472625 0.000000 0.374391
Si Si2 0.193972 0.364322 0.874824
Si Si3 0.298463 0.368751 0.544762
Si Si4 0.111465 0.233536 0.296900
Si Si5 0.834155 0.000000 0.376755
Si Si6 0.548341 0.369618 0.728338
Si Si7 0.881989 0.231167 0.342654
O O1 0.262034 0.886507 0.322066
O O2 0.606672 0.000000 0.357244
O O3 0.787273 0.000000 0.502839
O O4 0.174880 0.500000 0.853874
O O5 0.200279 0.276255 0.827985
O O6 0.886465 0.320854 0.813962
O O7 0.500000 0.338611 0.000000
O O8 0.215406 0.500000 0.503057
O O9 0.664902 0.344172 0.644346
O O10 0.273692 0.354430 0.600301
O O11 0.133366 0.272528 0.460542
O O12 0.031497 0.224775 0.332229
O O13 0.745723 0.108106 0.316096
O O14 0.599153 0.500000 0.757428
O O15 0.422735 0.313176 0.743073
#
# Coordination Sequence:
#
# PCOD8063195 Si02
#       7
#     2   4   4   4   2   4   4
#     4  11  23  39  56  76 108 152 195 225 256 326
#     4   9  19  39  63  82 106 144 187 228 273 330
#     4  10  20  33  50  74 111 153 184 212 258 329
#     4  11  22  36  54  80 113 142 182 229 277 323
#     4  11  23  35  55  76 107 155 194 220 260 314
#     4   9  19  34  53  79 109 144 186 222 264 325
#     4  12  22  32  52  81 115 146 178 226 274 320
#
# _framework density 18.688966000000001
#
# number of rings (size 3 to 8) (size 9 to 14) (size 15 to 20)
#    0.000    1.667    1.667    5.500    2.333    5.333 
#    0.000    1.250    0.000    3.000    0.000    3.500 
#    0.000    0.000    0.000    0.000    0.000    0.000 
#
# Total GULP energy -297352.808397 kJ/mol
# GULP energy per Si atom -12389.700350 kJ/mol
# Density = 1.864643 g / cm^3
# Si number density = 18.688966 Si / 1000 Ang^3
#
#
#
# Elastic Constant Matrix: (Units=GPa)
#
#
# Indices 1 2 3 4 5 6 
#
# 1 100.6568 47.0055 17.7166 0.0000 -18.1183 0.0000
# 2 47.0055 83.2039 30.4990 0.0000 -9.8639 0.0000
# 3 17.7166 30.4990 64.1935 0.0000 -0.9871 0.0000
# 4 0.0000 0.0000 0.0000 21.9688 0.0000 1.9143
# 5 -18.1183 -9.8639 -0.9871 0.0000 11.5064 0.0000
# 6 0.0000 0.0000 0.0000 1.9143 0.0000 33.3727
#
#
#
# Elastic Compliance Matrix: (Units=1/GPa)
#
#
# Indices 1 2 3 4 5 6 
#
# 1 0.017060 -0.006708 -0.001198 0.000000 0.021010 0.000000
# 2 -0.006708 0.019022 -0.007107 0.000000 0.005135 0.000000
# 3 -0.001198 -0.007107 0.019188 0.000000 -0.006334 0.000000
# 4 0.000000 0.000000 0.000000 0.045748 0.000000 -0.002624
# 5 0.021010 0.005135 -0.006334 0.000000 0.123849 0.000000
# 6 0.000000 0.000000 0.000000 -0.002624 0.000000 0.030115
#
#
# Mechanical properties :
#
#
# Convention : Reuss Voigt Hill
#
# Bulk Modulus (GPa) = 39.61492 48.72184 44.16838
# Shear Modulus (GPa) = 17.04018 23.55846 20.29932
#
# Velocity S-wave (km/s) = 3.02284 3.55428 3.29928
# Velocity P-wave (km/s) = 5.78156 6.55518 6.18048
#
# Compressibility (1/GPa) = 0.02524301
#
# Stress axis : x y z
#
# Youngs Moduli (GPa) = 58.61677 52.56993 52.11581
#
# Poissons Ratio (x) = 0.35264 0.06245
# Poissons Ratio (y) = 0.39320 0.37041
# Poissons Ratio (z) = 0.07024 0.37364
#
# Static dielectric constant tensor:
#      x y z
#    x 3.537470 0.000000 0.112540 
#    y 0.000000 3.504930 0.000000 
#    z 0.112540 0.000000 3.244160 
# 
# 
# High freq. dielectric constant tensor:
#      x y z
#    x 1.729720 0.000000 0.013240 
#    y 0.000000 1.734430 0.000000 
#    z 0.013240 0.000000 1.685430 
# 
# From -- ./inp_files/60803.got.cif
#   From: 2010.06.25/outbox.cif.g09.slc.cpg/sg10_31_cif.got.tgz:60803.got - 2010.06.27 22:07:45.
