data_PCOD8063658
_publ_section_title
;
Structure prediction by ZEFSAII (Michael W. Deem and Ramdas Pophale) SiO2 
 PCOD8063658
Probable space group: P 2/M
;
_chemical_formula_sum "Si O2"
_cell_formula_units_Z 24
_cell_length_a 19.385754
_cell_length_b 12.132713
_cell_length_c 12.332516
_cell_angle_alpha 90.000000
_cell_angle_beta 25.911301
_cell_angle_gamma 90.000000
_cell_volume 1267.514928
_symmetry_space_group_name_H-M "P 2/M"
_symmetry_group_IT_number 10
_symmetry_cell_setting 'monoclinic'
loop_
_space_group_symop_operation_xyz
x,y,z
-x,y,-z
-x,-y,-z
x,-y,z
loop_
_atom_site_type_symbol
_atom_site_label
_atom_site_fract_x
_atom_site_fract_y
_atom_site_fract_z
Si Si1 0.256645 0.500000 0.386270
Si Si2 0.555491 0.500000 0.102994
Si Si3 0.071652 0.308266 0.557471
Si Si4 0.768686 0.873537 0.318068
Si Si5 0.562971 0.127445 0.293076
Si Si6 0.986066 0.129445 0.196984
Si Si7 0.247993 0.690911 0.092168
O O1 0.368827 0.500000 0.335158
O O2 0.146644 0.391589 0.539765
O O3 0.352016 0.500000 0.139903
O O4 0.605916 0.605212 0.104835
O O5 0.195447 0.277603 0.287869
O O6 0.031805 0.190978 0.665148
O O7 0.907525 0.361274 0.745105
O O8 0.582180 0.855981 0.584531
O O9 0.845966 0.824353 0.317053
O O10 0.818515 0.000000 0.250510
O O11 0.848564 0.832082 0.092706
O O12 0.500000 0.164183 0.500000
O O13 0.621041 0.000000 0.215088
O O14 0.701198 0.203261 0.050825
O O15 0.977490 0.000000 0.234798
#
# Coordination Sequence:
#
# PCOD8063658 Si02
#       7
#     2   2   4   4   4   4   4
#     4   9  19  35  57  77  99 141 180 213 264 318
#     4   9  19  37  56  76 103 135 180 223 259 316
#     4  10  20  34  54  80 108 138 175 219 263 317
#     4   8  16  31  50  73 103 142 183 213 246 305
#     4  10  20  34  53  78 109 144 179 213 257 317
#     4   9  17  31  53  79 107 140 175 215 262 312
#     4  10  21  35  54  80 108 139 175 219 268 309
#
# _framework density 18.934688000000001
#
# number of rings (size 3 to 8) (size 9 to 14) (size 15 to 20)
#    0.000    2.667    0.000    2.500    2.333    4.667 
#    0.000    2.083    0.000    6.000    0.000    0.000 
#    0.000    0.000    0.000    0.000    0.000    0.000 
#
# Total GULP energy -297379.853491 kJ/mol
# GULP energy per Si atom -12390.827229 kJ/mol
# Density = 1.889159 g / cm^3
# Si number density = 18.934688 Si / 1000 Ang^3
#
#
#
# Elastic Constant Matrix: (Units=GPa)
#
#
# Indices 1 2 3 4 5 6 
#
# 1 78.7181 43.2816 38.2477 0.0000 -8.5318 0.0000
# 2 43.2816 87.3352 40.5934 0.0000 2.0164 0.0000
# 3 38.2477 40.5934 72.6401 0.0000 -9.5791 0.0000
# 4 0.0000 0.0000 0.0000 18.9733 0.0000 -6.0356
# 5 -8.5318 2.0164 -9.5791 0.0000 30.1188 0.0000
# 6 0.0000 0.0000 0.0000 -6.0356 0.0000 22.3989
#
#
#
# Elastic Compliance Matrix: (Units=1/GPa)
#
#
# Indices 1 2 3 4 5 6 
#
# 1 0.020049 -0.007282 -0.005922 0.000000 0.004283 0.000000
# 2 -0.007282 0.018577 -0.007289 0.000000 -0.005625 0.000000
# 3 -0.005922 -0.007289 0.021712 0.000000 0.005716 0.000000
# 4 0.000000 0.000000 0.000000 0.057647 0.000000 0.015533
# 5 0.004283 -0.005625 0.005716 0.000000 0.036610 0.000000
# 6 0.000000 0.000000 0.000000 0.015533 0.000000 0.048831
#
#
# Mechanical properties :
#
#
# Convention : Reuss Voigt Hill
#
# Bulk Modulus (GPa) = 51.67594 53.65988 52.66791
# Shear Modulus (GPa) = 19.93131 22.06958 21.00044
#
# Velocity S-wave (km/s) = 3.24795 3.41774 3.33393
# Velocity P-wave (km/s) = 6.43557 6.63141 6.53422
#
# Compressibility (1/GPa) = 0.01935137
#
# Stress axis : x y z
#
# Youngs Moduli (GPa) = 49.87679 53.83101 46.05832
#
# Poissons Ratio (x) = 0.39201 0.27277
# Poissons Ratio (y) = 0.36322 0.33570
# Poissons Ratio (z) = 0.29539 0.39235
#
# Static dielectric constant tensor:
#      x y z
#    x 3.608480 0.000000 -0.296630 
#    y 0.000000 3.165630 0.000000 
#    z -0.296630 0.000000 3.347060 
# 
# 
# High freq. dielectric constant tensor:
#      x y z
#    x 1.745940 0.000000 -0.023470 
#    y 0.000000 1.708160 0.000000 
#    z -0.023470 0.000000 1.720310 
# 
# From -- ./inp_files/53598.got.cif
#   From: 2010.06.25/outbox.cif.g09.slc.cpg/sg10_27_cif.got.tgz:53598.got - 2010.06.27 22:07:45.
