data_PCOD8063979
_publ_section_title
;
Structure prediction by ZEFSAII (Michael W. Deem and Ramdas Pophale) SiO2 
 PCOD8063979
Probable space group: P 2/M
;
_chemical_formula_sum "Si O2"
_cell_formula_units_Z 24
_cell_length_a 11.492188
_cell_length_b 9.034361
_cell_length_c 23.118760
_cell_angle_alpha 90.000000
_cell_angle_beta 149.388820
_cell_angle_gamma 90.000000
_cell_volume 1222.252903
_symmetry_space_group_name_H-M "P 2/M"
_symmetry_group_IT_number 10
_symmetry_cell_setting 'monoclinic'
loop_
_space_group_symop_operation_xyz
x,y,z
-x,y,-z
-x,-y,-z
x,-y,z
loop_
_atom_site_type_symbol
_atom_site_label
_atom_site_fract_x
_atom_site_fract_y
_atom_site_fract_z
Si Si1 0.613633 0.173791 0.689464
Si Si2 0.166203 0.165431 0.330698
Si Si3 0.869736 0.826177 0.557387
Si Si4 0.332957 0.674535 0.757133
Si Si5 0.769146 0.674768 0.869509
Si Si6 0.354094 0.167445 0.885131
O O1 0.698194 0.242506 0.664109
O O2 0.339545 0.202336 0.576228
O O3 0.751586 0.253713 0.798943
O O4 0.669301 0.000000 0.717084
O O5 0.199900 0.238502 0.408703
O O6 0.902061 0.168398 0.201325
O O7 0.264662 0.000000 0.377123
O O8 0.098746 0.746671 0.632412
O O9 0.928435 0.000000 0.588777
O O10 0.301296 0.500000 0.743189
O O11 0.545882 0.725207 0.809311
O O12 0.388360 0.727899 0.845120
O O13 0.778608 0.500000 0.865822
O O14 0.000000 0.731117 0.000000
O O15 0.430927 0.000000 0.901979
O O16 0.500000 0.233661 0.000000
#
# Coordination Sequence:
#
# PCOD8063979 Si02
#       6
#     4   4   4   4   4   4
#     4  10  20  34  58  87 109 141 185 224 266 320
#     4   8  15  30  52  82 115 141 168 211 271 328
#     4   9  18  35  58  84 115 142 171 222 280 325
#     4  10  21  37  56  77 105 144 187 225 265 320
#     4  10  24  43  56  72 107 151 186 224 275 320
#     4   9  18  32  54  82 110 141 175 220 276 323
#
# _framework density 19.635871999999999
#
# number of rings (size 3 to 8) (size 9 to 14) (size 15 to 20)
#    0.000    2.667    0.000    2.000    2.333    5.333 
#    0.000    6.667    0.000    5.000    0.000    0.000 
#    0.000    0.000    0.000    0.000    0.000    0.000 
#
# Total GULP energy -297487.924943 kJ/mol
# GULP energy per Si atom -12395.330206 kJ/mol
# Density = 1.959118 g / cm^3
# Si number density = 19.635872 Si / 1000 Ang^3
#
#
#
# Elastic Constant Matrix: (Units=GPa)
#
#
# Indices 1 2 3 4 5 6 
#
# 1 92.4986 27.6813 41.9799 0.0000 17.4586 0.0000
# 2 27.6813 35.8994 26.1296 0.0000 7.0049 0.0000
# 3 41.9799 26.1296 132.1275 0.0000 -1.9582 0.0000
# 4 0.0000 0.0000 0.0000 27.7727 0.0000 -0.6348
# 5 17.4586 7.0049 -1.9582 0.0000 20.3819 0.0000
# 6 0.0000 0.0000 0.0000 -0.6348 0.0000 21.6176
#
#
#
# Elastic Compliance Matrix: (Units=1/GPa)
#
#
# Indices 1 2 3 4 5 6 
#
# 1 0.017469 -0.007980 -0.004159 0.000000 -0.012620 0.000000
# 2 -0.007980 0.039300 -0.005343 0.000000 -0.007184 0.000000
# 3 -0.004159 -0.005343 0.010041 0.000000 0.006364 0.000000
# 4 0.000000 0.000000 0.000000 0.036031 0.000000 0.001058
# 5 -0.012620 -0.007184 0.006364 0.000000 0.062954 0.000000
# 6 0.000000 0.000000 0.000000 0.001058 0.000000 0.046290
#
#
# Mechanical properties :
#
#
# Convention : Reuss Voigt Hill
#
# Bulk Modulus (GPa) = 31.40212 50.23412 40.81812
# Shear Modulus (GPa) = 19.40523 24.93675 22.17099
#
# Velocity S-wave (km/s) = 3.14706 3.56751 3.36386
# Velocity P-wave (km/s) = 5.40669 6.52747 5.99334
#
# Compressibility (1/GPa) = 0.03184499
#
# Stress axis : x y z
#
# Youngs Moduli (GPa) = 57.24536 25.44554 99.59343
#
# Poissons Ratio (x) = 0.20306 0.41422
# Poissons Ratio (y) = 0.45682 0.53212
# Poissons Ratio (z) = 0.23809 0.13595
#
# Static dielectric constant tensor:
#      x y z
#    x 3.616730 0.000000 0.099230 
#    y 0.000000 3.217120 0.000000 
#    z 0.099230 0.000000 3.702790 
# 
# 
# High freq. dielectric constant tensor:
#      x y z
#    x 1.762240 0.000000 0.005150 
#    y 0.000000 1.726540 0.000000 
#    z 0.005150 0.000000 1.779570 
# 
# From -- ./inp_files/56679.got.cif
#   From: 2010.06.25/outbox.cif.g09.slc.cpg/sg10_29_cif.got.tgz:56679.got - 2010.06.27 22:07:45.
