data_PCOD8063490
_publ_section_title
;
Structure prediction by ZEFSAII (Michael W. Deem and Ramdas Pophale) SiO2 
 PCOD8063490
Probable space group: P 2/M
;
_chemical_formula_sum "Si O2"
_cell_formula_units_Z 32
_cell_length_a 12.073341
_cell_length_b 8.773324
_cell_length_c 31.428041
_cell_angle_alpha 90.000000
_cell_angle_beta 149.673965
_cell_angle_gamma 90.000000
_cell_volume 1680.859566
_symmetry_space_group_name_H-M "P 2/M"
_symmetry_group_IT_number 10
_symmetry_cell_setting 'monoclinic'
loop_
_space_group_symop_operation_xyz
x,y,z
-x,y,-z
-x,-y,-z
x,-y,z
loop_
_atom_site_type_symbol
_atom_site_label
_atom_site_fract_x
_atom_site_fract_y
_atom_site_fract_z
Si Si1 0.065286 0.177671 0.974560
Si Si2 0.698554 0.180185 0.095657
Si Si3 0.317978 0.324700 0.201669
Si Si4 0.299444 0.319787 0.731210
Si Si5 0.152140 0.323818 0.236854
Si Si6 0.522607 0.679962 0.119857
Si Si7 0.818111 0.318628 0.580296
Si Si8 0.374910 0.681050 0.395445
O O1 0.867494 0.215137 0.877867
O O2 0.122073 0.000000 0.991196
O O3 0.274773 0.270873 0.028302
O O4 0.000000 0.230451 0.000000
O O5 0.680575 0.249411 0.136774
O O6 0.928869 0.234233 0.152269
O O7 0.693841 0.000000 0.097069
O O8 0.500000 0.239558 0.000000
O O9 0.269365 0.500000 0.172307
O O10 0.551443 0.271431 0.259576
O O11 0.320983 0.305897 0.253532
O O12 0.283289 0.500000 0.729427
O O13 0.404690 0.256569 0.809843
O O14 0.053817 0.252398 0.643611
O O15 0.090738 0.500000 0.223938
O O16 0.272700 0.252207 0.318119
O O17 0.543580 0.500000 0.124299
O O18 0.817785 0.500000 0.579060
O O19 0.773181 0.265307 0.613882
O O20 0.624499 0.257925 0.485099
O O21 0.380382 0.500000 0.394285
#
# Coordination Sequence:
#
# PCOD8063490 Si02
#       8
#     4   4   4   4   4   4   4   4
#     4  11  22  35  51  73 103 138 176 215 255 303
#     4  11  24  39  53  73 104 136 171 215 262 311
#     4  10  20  34  51  73 104 139 176 219 258 304
#     4   9  17  29  47  75 105 133 167 209 260 308
#     4  10  20  34  53  76 103 137 178 215 255 308
#     4  11  21  34  56  79 103 133 172 217 259 308
#     4   8  13  24  45  72 104 134 162 208 264 312
#     4   8  14  26  46  74 103 132 169 211 257 309
#
# _framework density 19.037877000000002
#
# number of rings (size 3 to 8) (size 9 to 14) (size 15 to 20)
#    0.000    2.250    1.250    3.375    0.000    6.000 
#    0.000    0.625    0.000    3.750    0.000    8.750 
#    0.000    2.000    0.000    0.000    0.000    0.000 
#
# Total GULP energy -396773.178779 kJ/mol
# GULP energy per Si atom -12399.161837 kJ/mol
# Density = 1.899455 g / cm^3
# Si number density = 19.037877 Si / 1000 Ang^3
#
#
#
# Elastic Constant Matrix: (Units=GPa)
#
#
# Indices 1 2 3 4 5 6 
#
# 1 132.7155 21.6760 68.0715 0.0000 9.3344 0.0000
# 2 21.6760 31.6348 16.3668 0.0000 -1.3293 0.0000
# 3 68.0715 16.3668 138.5917 0.0000 8.7338 0.0000
# 4 0.0000 0.0000 0.0000 6.1913 0.0000 -4.2471
# 5 9.3344 -1.3293 8.7338 0.0000 37.1282 0.0000
# 6 0.0000 0.0000 0.0000 -4.2471 0.0000 15.5881
#
#
#
# Elastic Compliance Matrix: (Units=1/GPa)
#
#
# Indices 1 2 3 4 5 6 
#
# 1 0.010871 -0.005137 -0.004617 0.000000 -0.001831 0.000000
# 2 -0.005137 0.036269 -0.001952 0.000000 0.003049 0.000000
# 3 -0.004617 -0.001952 0.009790 0.000000 -0.001212 0.000000
# 4 0.000000 0.000000 0.000000 0.198644 0.000000 0.054123
# 5 -0.001831 0.003049 -0.001212 0.000000 0.027788 0.000000
# 6 0.000000 0.000000 0.000000 0.054123 0.000000 0.078898
#
#
# Mechanical properties :
#
#
# Convention : Reuss Voigt Hill
#
# Bulk Modulus (GPa) = 29.83563 57.24119 43.53841
# Shear Modulus (GPa) = 12.59936 24.90337 18.75137
#
# Velocity S-wave (km/s) = 2.57535 3.62068 3.14180
# Velocity P-wave (km/s) = 4.95469 6.90010 6.00668
#
# Compressibility (1/GPa) = 0.03351698
#
# Stress axis : x y z
#
# Youngs Moduli (GPa) = 91.98763 27.57203 102.14178
#
# Poissons Ratio (x) = 0.14163 0.47164
# Poissons Ratio (y) = 0.47252 0.19940
# Poissons Ratio (z) = 0.42475 0.05383
#
# Static dielectric constant tensor:
#      x y z
#    x 3.712060 0.000000 0.078410 
#    y 0.000000 3.037720 0.000000 
#    z 0.078410 0.000000 3.740070 
# 
# 
# High freq. dielectric constant tensor:
#      x y z
#    x 1.747170 0.000000 0.005240 
#    y 0.000000 1.696290 0.000000 
#    z 0.005240 0.000000 1.737120 
# 
# From -- ./inp_files/95060.got.cif
#   From: 2010.06.25/outbox.cif.g09.slc.cpg/sg10_48_cif.got.tgz:95060.got - 2010.06.27 22:07:45.
