data_PCOD8063388
_publ_section_title
;
Structure prediction by ZEFSAII (Michael W. Deem and Ramdas Pophale) SiO2 
 PCOD8063388
Probable space group: P 2/M
;
_chemical_formula_sum "Si O2"
_cell_formula_units_Z 28
_cell_length_a 9.510584
_cell_length_b 10.733954
_cell_length_c 20.515180
_cell_angle_alpha 90.000000
_cell_angle_beta 48.025560
_cell_angle_gamma 90.000000
_cell_volume 1557.005235
_symmetry_space_group_name_H-M "P 2/M"
_symmetry_group_IT_number 10
_symmetry_cell_setting 'monoclinic'
loop_
_space_group_symop_operation_xyz
x,y,z
-x,y,-z
-x,-y,-z
x,-y,z
loop_
_atom_site_type_symbol
_atom_site_label
_atom_site_fract_x
_atom_site_fract_y
_atom_site_fract_z
Si Si1 0.356519 0.647456 0.097586
Si Si2 0.004379 0.000000 0.602801
Si Si3 0.018942 0.732986 0.640621
Si Si4 0.929667 0.646412 0.232544
Si Si5 0.561825 0.753155 0.302042
Si Si6 0.385132 0.644084 0.234553
Si Si7 0.378210 0.358096 0.478399
Si Si8 0.670923 0.000000 0.601625
O O1 0.376170 0.500000 0.093619
O O2 0.408611 0.697345 0.153653
O O3 0.142252 0.683264 0.144870
O O4 0.500000 0.705851 0.000000
O O5 0.986549 0.881149 0.655624
O O6 0.206726 0.000000 0.502702
O O7 0.822464 0.000000 0.612381
O O8 0.095790 0.673229 0.683211
O O9 0.176682 0.711489 0.536270
O O10 0.830826 0.662135 0.676095
O O11 0.888253 0.500000 0.231719
O O12 0.789276 0.739163 0.237225
O O13 0.517083 0.723553 0.240996
O O14 0.479227 0.650715 0.377339
O O15 0.473768 0.884558 0.350350
O O16 0.442184 0.500000 0.221447
O O17 0.500000 0.298151 0.500000
O O18 0.337629 0.500000 0.507946
#
# Coordination Sequence:
#
# PCOD8063388 Si02
#       8
#     4   2   4   4   4   4   4   2
#     4   8  16  34  59  85 114 142 166 208 274 343
#     4  11  22  39  51  69 104 151 204 246 260 304
#     4  11  20  35  53  74 103 149 192 226 272 306
#     4  10  20  35  56  85 116 138 175 228 275 332
#     4  12  22  36  52  77 109 150 183 230 278 311
#     4  10  20  33  54  83 110 138 182 226 272 335
#     4  11  21  33  50  75 110 145 183 226 278 328
#     4  11  24  39  49  69 110 150 194 242 266 311
#
# _framework density 17.983241
#
# number of rings (size 3 to 8) (size 9 to 14) (size 15 to 20)
#    0.000    1.571    4.286    3.429    0.000    1.143 
#    0.000    3.571    0.000    3.429    0.000   19.000 
#    0.000    0.000    0.000    0.000    0.000    0.000 
#
# Total GULP energy -347125.463342 kJ/mol
# GULP energy per Si atom -12397.337976 kJ/mol
# Density = 1.794231 g / cm^3
# Si number density = 17.983241 Si / 1000 Ang^3
#
#
#
# Elastic Constant Matrix: (Units=GPa)
#
#
# Indices 1 2 3 4 5 6 
#
# 1 114.7564 24.9903 45.2312 0.0000 -7.4833 0.0000
# 2 24.9903 66.4358 15.5295 0.0000 -4.7645 0.0000
# 3 45.2312 15.5295 102.0458 0.0000 -9.6552 0.0000
# 4 0.0000 0.0000 0.0000 12.1304 0.0000 -2.6408
# 5 -7.4833 -4.7645 -9.6552 0.0000 20.6746 0.0000
# 6 0.0000 0.0000 0.0000 -2.6408 0.0000 24.1012
#
#
#
# Elastic Compliance Matrix: (Units=1/GPa)
#
#
# Indices 1 2 3 4 5 6 
#
# 1 0.011195 -0.003097 -0.004368 0.000000 0.001299 0.000000
# 2 -0.003097 0.016599 -0.000939 0.000000 0.002266 0.000000
# 3 -0.004368 -0.000939 0.012250 0.000000 0.003923 0.000000
# 4 0.000000 0.000000 0.000000 0.084452 0.000000 0.009253
# 5 0.001299 0.002266 0.003923 0.000000 0.051193 0.000000
# 6 0.000000 0.000000 0.000000 0.009253 0.000000 0.042506
#
#
# Mechanical properties :
#
#
# Convention : Reuss Voigt Hill
#
# Bulk Modulus (GPa) = 43.03675 50.52665 46.78170
# Shear Modulus (GPa) = 20.59761 24.54705 22.57233
#
# Velocity S-wave (km/s) = 3.38802 3.69859 3.54671
# Velocity P-wave (km/s) = 6.26805 6.81153 6.54543
#
# Compressibility (1/GPa) = 0.02323596
#
# Stress axis : x y z
#
# Youngs Moduli (GPa) = 89.32729 60.24448 81.63489
#
# Poissons Ratio (x) = 0.18657 0.35657
# Poissons Ratio (y) = 0.27664 0.07666
# Poissons Ratio (z) = 0.39017 0.05657
#
# Static dielectric constant tensor:
#      x y z
#    x 3.442300 0.000000 -0.115420 
#    y 0.000000 3.132050 0.000000 
#    z -0.115420 0.000000 3.353680 
# 
# 
# High freq. dielectric constant tensor:
#      x y z
#    x 1.699170 0.000000 -0.009460 
#    y 0.000000 1.675750 0.000000 
#    z -0.009460 0.000000 1.672970 
# 
# From -- ./inp_files/82475.got.cif
#   From: 2010.06.25/outbox.cif.g09.slc.cpg/sg10_42_cif.got.tgz:82475.got - 2010.06.27 22:07:45.
