data_PCOD8063056
_publ_section_title
;
Structure prediction by ZEFSAII (Michael W. Deem and Ramdas Pophale) SiO2 
 PCOD8063056
Probable space group: P 2/M
;
_chemical_formula_sum "Si O2"
_cell_formula_units_Z 32
_cell_length_a 11.140729
_cell_length_b 23.227367
_cell_length_c 17.360637
_cell_angle_alpha 90.000000
_cell_angle_beta 158.238567
_cell_angle_gamma 90.000000
_cell_volume 1665.527994
_symmetry_space_group_name_H-M "P 2/M"
_symmetry_group_IT_number 10
_symmetry_cell_setting 'monoclinic'
loop_
_space_group_symop_operation_xyz
x,y,z
-x,y,-z
-x,-y,-z
x,-y,z
loop_
_atom_site_type_symbol
_atom_site_label
_atom_site_fract_x
_atom_site_fract_y
_atom_site_fract_z
Si Si1 0.956635 0.143700 0.386632
Si Si2 0.208367 0.625405 0.051998
Si Si3 0.432875 0.432697 0.870730
Si Si4 0.927289 0.255313 0.868299
Si Si5 0.782719 0.827198 0.069530
Si Si6 0.105758 0.343771 0.483667
Si Si7 0.808769 0.240217 0.564441
Si Si8 0.876168 0.063001 0.208620
O O1 0.038156 0.087853 0.383237
O O2 0.000000 0.124463 0.500000
O O3 0.206475 0.194729 0.515481
O O4 0.602806 0.167957 0.152149
O O5 0.286752 0.583968 0.025272
O O6 0.520554 0.641805 0.287519
O O7 0.000000 0.598639 0.000000
O O8 0.051564 0.681472 0.916462
O O9 0.372214 0.500000 0.827051
O O10 0.101995 0.401418 0.650678
O O11 0.500000 0.416169 0.000000
O O12 0.554473 0.248177 0.620576
O O13 0.128868 0.200072 0.959136
O O14 0.000000 0.253217 0.000000
O O15 0.935009 0.891144 0.174190
O O16 0.941180 0.781986 0.223124
O O17 0.048318 0.300806 0.378824
O O18 0.000000 0.312531 0.500000
O O19 0.026238 0.000000 0.277822
O O20 0.500000 0.055433 0.000000
#
# Coordination Sequence:
#
# PCOD8063056 Si02
#       8
#     4   4   4   4   4   4   4   4
#     4  10  20  32  53  82 112 147 192 236 289 350
#     4  10  21  40  61  91 118 156 202 238 301 354
#     4  10  24  43  63  89 120 158 201 251 297 346
#     4  11  21  36  54  81 121 150 185 240 293 353
#     4  10  22  34  54  85 110 155 190 231 298 350
#     4  10  21  36  60  86 116 155 192 239 288 355
#     4  11  20  34  53  82 118 148 186 235 293 355
#     4   8  16  34  54  78 111 144 191 242 284 342
#
# _framework density 19.213125999999999
#
# number of rings (size 3 to 8) (size 9 to 14) (size 15 to 20)
#    0.000    2.000    2.500    2.625    5.250    2.750 
#    0.000    0.625    0.000    7.875    0.000    0.000 
#    0.000    0.000    0.000    0.000    0.000    0.000 
#
# Total GULP energy -396422.318471 kJ/mol
# GULP energy per Si atom -12388.197452 kJ/mol
# Density = 1.916940 g / cm^3
# Si number density = 19.213126 Si / 1000 Ang^3
#
#
#
# Elastic Constant Matrix: (Units=GPa)
#
#
# Indices 1 2 3 4 5 6 
#
# 1 59.5199 35.8496 16.2043 0.0000 6.7400 0.0000
# 2 35.8496 120.4532 29.2416 0.0000 2.7322 0.0000
# 3 16.2043 29.2416 85.0879 0.0000 2.8946 0.0000
# 4 0.0000 0.0000 0.0000 13.0276 0.0000 -2.9190
# 5 6.7400 2.7322 2.8946 0.0000 27.6299 0.0000
# 6 0.0000 0.0000 0.0000 -2.9190 0.0000 29.1733
#
#
#
# Elastic Compliance Matrix: (Units=1/GPa)
#
#
# Indices 1 2 3 4 5 6 
#
# 1 0.021303 -0.005773 -0.001922 0.000000 -0.004424 0.000000
# 2 -0.005773 0.010631 -0.002575 0.000000 0.000627 0.000000
# 3 -0.001922 -0.002575 0.013026 0.000000 -0.000641 0.000000
# 4 0.000000 0.000000 0.000000 0.078520 0.000000 0.007857
# 5 -0.004424 0.000627 -0.000641 0.000000 0.037277 0.000000
# 6 0.000000 0.000000 0.000000 0.007857 0.000000 0.035064
#
#
# Mechanical properties :
#
#
# Convention : Reuss Voigt Hill
#
# Bulk Modulus (GPa) = 40.95421 47.51691 44.23556
# Shear Modulus (GPa) = 22.27150 26.21719 24.24434
#
# Velocity S-wave (km/s) = 3.40837 3.69798 3.55613
# Velocity P-wave (km/s) = 6.07053 6.55886 6.31941
#
# Compressibility (1/GPa) = 0.02441751
#
# Stress axis : x y z
#
# Youngs Moduli (GPa) = 46.94232 94.06276 76.77224
#
# Poissons Ratio (x) = 0.54304 0.14759
# Poissons Ratio (y) = 0.27100 0.19772
# Poissons Ratio (z) = 0.09024 0.24225
#
# Static dielectric constant tensor:
#      x y z
#    x 3.795040 0.000000 0.062770 
#    y 0.000000 3.824670 0.000000 
#    z 0.062770 0.000000 3.487380 
# 
# 
# High freq. dielectric constant tensor:
#      x y z
#    x 1.747940 0.000000 -0.006630 
#    y 0.000000 1.739060 0.000000 
#    z -0.006630 0.000000 1.738870 
# 
# From -- ./inp_files/43645.got.cif
#   From: 2010.06.25/outbox.cif.g09.slc.cpg/sg10_22_cif.got.tgz:43645.got - 2010.06.27 22:07:45.
