data_PCOD8063315
_publ_section_title
;
Structure prediction by ZEFSAII (Michael W. Deem and Ramdas Pophale) SiO2 
 PCOD8063315
Probable space group: P 2/M
;
_chemical_formula_sum "Si O2"
_cell_formula_units_Z 24
_cell_length_a 16.931264
_cell_length_b 12.834042
_cell_length_c 12.061240
_cell_angle_alpha 90.000000
_cell_angle_beta 152.538995
_cell_angle_gamma 90.000000
_cell_volume 1208.598711
_symmetry_space_group_name_H-M "P 2/M"
_symmetry_group_IT_number 10
_symmetry_cell_setting 'monoclinic'
loop_
_space_group_symop_operation_xyz
x,y,z
-x,y,-z
-x,-y,-z
x,-y,z
loop_
_atom_site_type_symbol
_atom_site_label
_atom_site_fract_x
_atom_site_fract_y
_atom_site_fract_z
Si Si1 0.364515 0.119501 0.234075
Si Si2 0.827945 0.301824 0.348879
Si Si3 0.513949 0.746897 0.820508
Si Si4 0.190424 0.618121 0.434506
Si Si5 0.259279 0.882721 0.621499
Si Si6 0.996754 0.190041 0.124702
O O1 0.500000 0.129267 0.500000
O O2 0.425610 0.190935 0.210633
O O3 0.346729 0.000000 0.171923
O O4 0.184709 0.162259 0.051027
O O5 0.803862 0.376735 0.424577
O O6 0.835886 0.181292 0.399570
O O7 0.000000 0.332394 0.500000
O O8 0.670196 0.317079 0.068631
O O9 0.367653 0.663583 0.605478
O O10 0.441595 0.829412 0.820695
O O11 0.164959 0.500000 0.363258
O O12 0.033815 0.687147 0.191921
O O13 0.143405 0.878820 0.366220
O O14 0.287818 0.000000 0.697198
O O15 0.000000 0.161588 0.000000
#
# Coordination Sequence:
#
# PCOD8063315 Si02
#       6
#     4   4   4   4   4   4
#     4  11  22  36  58  87 118 152 185 222 273 331
#     4  10  21  36  54  80 113 145 182 229 280 335
#     4  10  20  36  56  81 114 146 187 234 276 329
#     4  10  22  40  61  82 107 145 190 237 286 329
#     4  10  20  33  52  79 111 150 190 228 273 326
#     4  10  21  38  58  81 114 147 185 233 276 329
#
# _framework density 19.857709
#
# number of rings (size 3 to 8) (size 9 to 14) (size 15 to 20)
#    0.000    2.167    0.000    7.000    0.000    7.000 
#    0.000    2.500    0.000    2.000    0.000    0.000 
#    0.000    0.000    0.000    0.000    0.000    0.000 
#
# Total GULP energy -297615.826312 kJ/mol
# GULP energy per Si atom -12400.659430 kJ/mol
# Density = 1.981251 g / cm^3
# Si number density = 19.857709 Si / 1000 Ang^3
#
#
#
# Elastic Constant Matrix: (Units=GPa)
#
#
# Indices 1 2 3 4 5 6 
#
# 1 108.5417 3.7071 26.3472 0.0000 17.2652 0.0000
# 2 3.7071 56.4459 -13.3175 0.0000 10.4862 0.0000
# 3 26.3472 -13.3175 83.7776 0.0000 16.8333 0.0000
# 4 0.0000 0.0000 0.0000 18.6177 0.0000 -1.2869
# 5 17.2652 10.4862 16.8333 0.0000 34.3161 0.0000
# 6 0.0000 0.0000 0.0000 -1.2869 0.0000 14.0889
#
#
#
# Elastic Compliance Matrix: (Units=1/GPa)
#
#
# Indices 1 2 3 4 5 6 
#
# 1 0.010475 -0.000602 -0.002627 0.000000 -0.003798 0.000000
# 2 -0.000602 0.020556 0.005168 0.000000 -0.008513 0.000000
# 3 -0.002627 0.005168 0.015127 0.000000 -0.007678 0.000000
# 4 0.000000 0.000000 0.000000 0.054054 0.000000 0.004937
# 5 -0.003798 -0.008513 -0.007678 0.000000 0.037419 0.000000
# 6 0.000000 0.000000 0.000000 0.004937 0.000000 0.071429
#
#
# Mechanical properties :
#
#
# Convention : Reuss Voigt Hill
#
# Bulk Modulus (GPa) = 19.98593 31.35986 25.67289
# Shear Modulus (GPa) = 22.53657 28.87310 25.70483
#
# Velocity S-wave (km/s) = 3.37249 3.81727 3.60175
# Velocity P-wave (km/s) = 5.02507 5.93762 5.50030
#
# Compressibility (1/GPa) = 0.05003521
#
# Stress axis : x y z
#
# Youngs Moduli (GPa) = 95.46180 48.64651 66.10837
#
# Poissons Ratio (x) = 0.02930 0.17367
# Poissons Ratio (y) = 0.05750 -0.34163
# Poissons Ratio (z) = 0.25079 -0.25139
#
# Static dielectric constant tensor:
#      x y z
#    x 3.579020 0.000000 0.065940 
#    y 0.000000 3.446230 0.000000 
#    z 0.065940 0.000000 3.774980 
# 
# 
# High freq. dielectric constant tensor:
#      x y z
#    x 1.771310 0.000000 0.002790 
#    y 0.000000 1.755640 0.000000 
#    z 0.002790 0.000000 1.786220 
# 
# From -- ./inp_files/51698.got.cif
#   From: 2010.06.25/outbox.cif.g09.slc.cpg/sg10_26_cif.got.tgz:51698.got - 2010.06.27 22:07:45.
