data_PCOD8063563
_publ_section_title
;
Structure prediction by ZEFSAII (Michael W. Deem and Ramdas Pophale) SiO2 
 PCOD8063563
Probable space group: P 2/M
;
_chemical_formula_sum "Si O2"
_cell_formula_units_Z 32
_cell_length_a 23.891033
_cell_length_b 9.319372
_cell_length_c 16.222766
_cell_angle_alpha 90.000000
_cell_angle_beta 152.397523
_cell_angle_gamma 90.000000
_cell_volume 1673.558798
_symmetry_space_group_name_H-M "P 2/M"
_symmetry_group_IT_number 10
_symmetry_cell_setting 'monoclinic'
loop_
_space_group_symop_operation_xyz
x,y,z
-x,y,-z
-x,-y,-z
x,-y,z
loop_
_atom_site_type_symbol
_atom_site_label
_atom_site_fract_x
_atom_site_fract_y
_atom_site_fract_z
Si Si1 0.405218 0.164552 0.761293
Si Si2 0.205726 0.331857 0.969735
Si Si3 0.977700 0.336883 0.129260
Si Si4 0.758615 0.664859 0.569182
Si Si5 0.326247 0.835722 0.840553
Si Si6 0.374394 0.162682 0.301692
Si Si7 0.821248 0.162819 0.811349
Si Si8 0.864504 0.330025 0.304095
O O1 0.353545 0.269776 0.625457
O O2 0.345373 0.204039 0.770305
O O3 0.375641 0.000000 0.700157
O O4 0.548370 0.189988 0.948387
O O5 0.232667 0.500000 0.005639
O O6 0.175451 0.276505 0.838676
O O7 0.089516 0.292825 0.874270
O O8 0.325522 0.253450 0.160193
O O9 0.943868 0.500000 0.060712
O O10 0.120848 0.319609 0.329254
O O11 0.941512 0.235387 0.005558
O O12 0.730383 0.500000 0.552662
O O13 0.772118 0.749000 0.671128
O O14 0.223422 0.734855 0.742488
O O15 0.285132 0.000000 0.796433
O O16 0.500000 0.227661 0.500000
O O17 0.280049 0.169452 0.251770
O O18 0.394926 0.000000 0.297546
O O19 0.851171 0.000000 0.824457
O O20 0.856314 0.500000 0.299945
O O21 0.000000 0.276934 0.500000
#
# Coordination Sequence:
#
# PCOD8063563 Si02
#       8
#     4   4   4   4   4   4   4   4
#     4   9  20  39  59  80 108 145 184 229 283 330
#     4   9  19  36  54  77 108 144 181 221 272 325
#     4   9  19  35  53  73 106 144 180 220 266 321
#     4  11  22  33  53  82 108 140 182 223 267 328
#     4   9  20  40  61  80 109 145 184 231 281 332
#     4   9  19  36  56  77 103 139 181 223 269 323
#     4  10  20  34  52  76 107 141 177 221 273 321
#     4  10  22  37  58  86 118 151 186 231 281 334
#
# _framework density 19.120929
#
# number of rings (size 3 to 8) (size 9 to 14) (size 15 to 20)
#    0.000    2.500    0.000    1.875    1.750    6.000 
#    0.000    5.000    0.000    0.000    0.000    0.000 
#    0.000    0.000    0.000    0.000    0.000    0.000 
#
# Total GULP energy -396856.271792 kJ/mol
# GULP energy per Si atom -12401.758494 kJ/mol
# Density = 1.907741 g / cm^3
# Si number density = 19.120929 Si / 1000 Ang^3
#
#
#
# Elastic Constant Matrix: (Units=GPa)
#
#
# Indices 1 2 3 4 5 6 
#
# 1 59.4271 30.6801 33.0374 0.0000 -2.4917 0.0000
# 2 30.6801 77.9528 44.3724 0.0000 -4.9434 0.0000
# 3 33.0374 44.3724 113.1857 0.0000 -4.4229 0.0000
# 4 0.0000 0.0000 0.0000 33.0648 0.0000 0.8582
# 5 -2.4917 -4.9434 -4.4229 0.0000 24.9510 0.0000
# 6 0.0000 0.0000 0.0000 0.8582 0.0000 27.1220
#
#
#
# Elastic Compliance Matrix: (Units=1/GPa)
#
#
# Indices 1 2 3 4 5 6 
#
# 1 0.022426 -0.006553 -0.003968 0.000000 0.000238 0.000000
# 2 -0.006553 0.018542 -0.005275 0.000000 0.002084 0.000000
# 3 -0.003968 -0.005275 0.012089 0.000000 0.000701 0.000000
# 4 0.000000 0.000000 0.000000 0.030268 0.000000 -0.000958
# 5 0.000238 0.002084 0.000701 0.000000 0.040640 0.000000
# 6 0.000000 0.000000 0.000000 -0.000958 0.000000 0.036901
#
#
# Mechanical properties :
#
#
# Convention : Reuss Voigt Hill
#
# Bulk Modulus (GPa) = 46.58561 51.86060 49.22310
# Shear Modulus (GPa) = 25.04867 26.52594 25.78731
#
# Velocity S-wave (km/s) = 3.62334 3.72865 3.67637
# Velocity P-wave (km/s) = 6.47467 6.76154 6.61966
#
# Compressibility (1/GPa) = 0.02146586
#
# Stress axis : x y z
#
# Youngs Moduli (GPa) = 44.59112 53.93147 82.72301
#
# Poissons Ratio (x) = 0.35340 0.32822
# Poissons Ratio (y) = 0.29219 0.43636
# Poissons Ratio (z) = 0.17692 0.28449
#
# Static dielectric constant tensor:
#      x y z
#    x 3.428440 0.000000 -0.006110 
#    y 0.000000 3.525330 0.000000 
#    z -0.006110 0.000000 3.539310 
# 
# 
# High freq. dielectric constant tensor:
#      x y z
#    x 1.740790 0.000000 0.001080 
#    y 0.000000 1.740660 0.000000 
#    z 0.001080 0.000000 1.746240 
# 
# From -- ./inp_files/71691.got.cif
#   From: 2010.06.25/outbox.cif.g09.slc.cpg/sg10_36_cif.got.tgz:71691.got - 2010.06.27 22:07:45.
