data_PCOD8063609
_publ_section_title
;
Structure prediction by ZEFSAII (Michael W. Deem and Ramdas Pophale) SiO2 
 PCOD8063609
Probable space group: P 2/M
;
_chemical_formula_sum "Si O2"
_cell_formula_units_Z 28
_cell_length_a 20.215755
_cell_length_b 9.190601
_cell_length_c 23.223251
_cell_angle_alpha 90.000000
_cell_angle_beta 159.792017
_cell_angle_gamma 90.000000
_cell_volume 1490.443898
_symmetry_space_group_name_H-M "P 2/M"
_symmetry_group_IT_number 10
_symmetry_cell_setting 'monoclinic'
loop_
_space_group_symop_operation_xyz
x,y,z
-x,y,-z
-x,-y,-z
x,-y,z
loop_
_atom_site_type_symbol
_atom_site_label
_atom_site_fract_x
_atom_site_fract_y
_atom_site_fract_z
Si Si1 0.267733 0.828407 0.970773
Si Si2 0.051539 0.326664 0.890303
Si Si3 0.401632 0.663526 0.706155
Si Si4 0.317738 0.170256 0.883438
Si Si5 0.387283 0.326964 0.463767
Si Si6 0.411240 0.665283 0.257725
Si Si7 0.994606 0.339872 0.427700
O O1 0.276755 0.766833 0.913243
O O2 0.103384 0.743701 0.871205
O O3 0.228625 0.000000 0.942215
O O4 0.472979 0.790595 0.164369
O O5 0.068813 0.500000 0.898794
O O6 0.833839 0.275346 0.724682
O O7 0.206643 0.270910 0.065826
O O8 0.469811 0.500000 0.779908
O O9 0.421099 0.678022 0.653013
O O10 0.191388 0.693513 0.556594
O O11 0.138663 0.207847 0.698304
O O12 0.348878 0.000000 0.913990
O O13 0.500000 0.241722 0.000000
O O14 0.500000 0.270755 0.500000
O O15 0.387280 0.500000 0.468392
O O16 0.499608 0.260299 0.611602
O O17 0.366036 0.500000 0.237085
O O18 0.920734 0.500000 0.347710
O O19 0.000000 0.336037 0.500000
#
# Coordination Sequence:
#
# PCOD8063609 Si02
#       7
#     4   4   4   4   4   4   4
#     4  10  20  34  53  76 101 131 173 219 257 307
#     4   9  18  32  52  75 103 139 171 211 270 314
#     4   9  18  33  52  74 101 132 167 210 262 314
#     4  10  22  37  51  71 101 138 176 214 260 311
#     4   9  17  28  47  77 107 135 171 214 261 315
#     4   8  15  28  45  70 102 132 168 209 252 310
#     4  10  21  34  51  77 104 132 170 216 262 311
#
# _framework density 18.786349000000001
#
# number of rings (size 3 to 8) (size 9 to 14) (size 15 to 20)
#    0.000    2.714    0.000    2.143    2.000    2.857 
#    0.000    2.857    0.000    0.429    0.000    4.000 
#    0.000    0.000    0.000    0.000    0.000    0.000 
#
# Total GULP energy -346898.951465 kJ/mol
# GULP energy per Si atom -12389.248267 kJ/mol
# Density = 1.874359 g / cm^3
# Si number density = 18.786349 Si / 1000 Ang^3
#
#
#
# Elastic Constant Matrix: (Units=GPa)
#
#
# Indices 1 2 3 4 5 6 
#
# 1 148.7460 23.0988 88.0964 0.0000 13.4324 0.0000
# 2 23.0988 15.7571 15.6926 0.0000 1.9615 0.0000
# 3 88.0964 15.6926 130.1682 0.0000 13.0246 0.0000
# 4 0.0000 0.0000 0.0000 21.1733 0.0000 -2.1238
# 5 13.4324 1.9615 13.0246 0.0000 30.2324 0.0000
# 6 0.0000 0.0000 0.0000 -2.1238 0.0000 19.4324
#
#
#
# Elastic Compliance Matrix: (Units=1/GPa)
#
#
# Indices 1 2 3 4 5 6 
#
# 1 0.012943 -0.011594 -0.007171 0.000000 -0.001909 0.000000
# 2 -0.011594 0.082536 -0.002177 0.000000 0.000734 0.000000
# 3 -0.007171 -0.002177 0.013026 0.000000 -0.002285 0.000000
# 4 0.000000 0.000000 0.000000 0.047753 0.000000 0.005219
# 5 -0.001909 0.000734 -0.002285 0.000000 0.034862 0.000000
# 6 0.000000 0.000000 0.000000 0.005219 0.000000 0.052031
#
#
# Mechanical properties :
#
#
# Convention : Reuss Voigt Hill
#
# Bulk Modulus (GPa) = 15.01008 60.93854 37.97431
# Shear Modulus (GPa) = 16.27385 25.35320 20.81353
#
# Velocity S-wave (km/s) = 2.94642 3.67761 3.33213
# Velocity P-wave (km/s) = 4.42520 7.10923 5.92130
#
# Compressibility (1/GPa) = 0.06662190
#
# Stress axis : x y z
#
# Youngs Moduli (GPa) = 77.26426 12.11589 76.76681
#
# Poissons Ratio (x) = 0.14047 0.55047
# Poissons Ratio (y) = 0.89580 0.16712
# Poissons Ratio (z) = 0.55404 0.02638
#
# Static dielectric constant tensor:
#      x y z
#    x 3.678300 0.000000 -0.051080 
#    y 0.000000 3.076600 0.000000 
#    z -0.051080 0.000000 3.449520 
# 
# 
# High freq. dielectric constant tensor:
#      x y z
#    x 1.741590 0.000000 0.004500 
#    y 0.000000 1.685320 0.000000 
#    z 0.004500 0.000000 1.727630 
# 
# From -- ./inp_files/38033.got.cif
#   From: 2010.06.25/outbox.cif.g09.slc.cpg/sg10_20_cif.got.tgz:38033.got - 2010.06.27 22:07:45.
