data_PCOD8063439
_publ_section_title
;
Structure prediction by ZEFSAII (Michael W. Deem and Ramdas Pophale) SiO2 
 PCOD8063439
Probable space group: P 2/M
;
_chemical_formula_sum "Si O2"
_cell_formula_units_Z 30
_cell_length_a 10.764983
_cell_length_b 9.462470
_cell_length_c 18.000336
_cell_angle_alpha 90.000000
_cell_angle_beta 116.190823
_cell_angle_gamma 90.000000
_cell_volume 1645.319387
_symmetry_space_group_name_H-M "P 2/M"
_symmetry_group_IT_number 10
_symmetry_cell_setting 'monoclinic'
loop_
_space_group_symop_operation_xyz
x,y,z
-x,y,-z
-x,-y,-z
x,-y,z
loop_
_atom_site_type_symbol
_atom_site_label
_atom_site_fract_x
_atom_site_fract_y
_atom_site_fract_z
Si Si1 0.019541 0.339249 0.166172
Si Si2 0.301899 0.841440 0.047741
Si Si3 0.713872 0.666250 0.098910
Si Si4 0.743803 0.664655 0.666939
Si Si5 0.513684 0.663278 0.180306
Si Si6 0.562722 0.660650 0.358415
Si Si7 0.000000 0.236677 0.000000
Si Si8 0.655317 0.160279 0.511248
O O1 0.028770 0.500000 0.191277
O O2 0.870959 0.280099 0.153517
O O3 0.142582 0.268191 0.246322
O O4 0.037469 0.328707 0.082093
O O5 0.378708 0.762395 0.135992
O O6 0.359271 0.000000 0.054565
O O7 0.345273 0.751531 0.986793
O O8 0.136785 0.853972 0.017959
O O9 0.708729 0.500000 0.077335
O O10 0.626494 0.702579 0.148214
O O11 0.767321 0.500000 0.653750
O O12 0.597940 0.687269 0.668031
O O13 0.753491 0.754054 0.593533
O O14 0.465771 0.500000 0.162684
O O15 0.586998 0.693457 0.278193
O O16 0.603694 0.500000 0.389284
O O17 0.659650 0.764267 0.432024
O O18 0.500000 0.164881 0.500000
O O19 0.709272 0.000000 0.517605
#
# Coordination Sequence:
#
# PCOD8063439 Si02
#       8
#     4   4   4   4   4   4   2   4
#     4   9  17  30  51  75  97 126 163 201 241 286
#     4  11  22  34  49  70  98 131 165 200 240 286
#     4   9  19  35  52  70  95 128 165 204 241 280
#     4   9  16  28  47  71  96 122 155 192 234 287
#     4  10  20  34  52  73  97 126 163 203 242 284
#     4   9  17  29  47  71  96 122 152 192 240 286
#     4  10  20  34  48  70 103 132 159 198 245 286
#     4   9  17  29  45  68  97 125 152 187 235 288
#
# _framework density 18.233542
#
# number of rings (size 3 to 8) (size 9 to 14) (size 15 to 20)
#    0.000    2.533    0.000    2.400    0.000    6.933 
#    0.000    6.000    0.000    0.800    0.000    5.600 
#    0.000    0.000    0.000    0.000    0.000    0.000 
#
# Total GULP energy -371884.948409 kJ/mol
# GULP energy per Si atom -12396.164947 kJ/mol
# Density = 1.819204 g / cm^3
# Si number density = 18.233542 Si / 1000 Ang^3
#
#
#
# Elastic Constant Matrix: (Units=GPa)
#
#
# Indices 1 2 3 4 5 6 
#
# 1 54.4026 28.7853 40.2142 0.0000 -10.2426 0.0000
# 2 28.7853 82.1907 54.4209 0.0000 -4.6043 0.0000
# 3 40.2142 54.4209 145.5476 0.0000 -2.5445 0.0000
# 4 0.0000 0.0000 0.0000 9.7784 0.0000 2.4606
# 5 -10.2426 -4.6043 -2.5445 0.0000 23.4826 0.0000
# 6 0.0000 0.0000 0.0000 2.4606 0.0000 11.8650
#
#
#
# Elastic Compliance Matrix: (Units=1/GPa)
#
#
# Indices 1 2 3 4 5 6 
#
# 1 0.027060 -0.005415 -0.005274 0.000000 0.010170 0.000000
# 2 -0.005415 0.017404 -0.005002 0.000000 0.000508 0.000000
# 3 -0.005274 -0.005002 0.010160 0.000000 -0.002180 0.000000
# 4 0.000000 0.000000 0.000000 0.107897 0.000000 -0.022376
# 5 0.010170 0.000508 -0.002180 0.000000 0.046884 0.000000
# 6 0.000000 0.000000 0.000000 -0.022376 0.000000 0.088922
#
#
# Mechanical properties :
#
#
# Convention : Reuss Voigt Hill
#
# Bulk Modulus (GPa) = 43.02770 58.77574 50.90172
# Shear Modulus (GPa) = 14.81669 19.60656 17.21162
#
# Velocity S-wave (km/s) = 2.85372 3.28274 3.07572
# Velocity P-wave (km/s) = 5.87432 6.83179 6.37107
#
# Compressibility (1/GPa) = 0.02324084
#
# Stress axis : x y z
#
# Youngs Moduli (GPa) = 36.95492 57.45763 98.42463
#
# Poissons Ratio (x) = 0.31116 0.51909
# Poissons Ratio (y) = 0.20013 0.49235
# Poissons Ratio (z) = 0.19490 0.28742
#
# Static dielectric constant tensor:
#      x y z
#    x 3.180760 0.000000 0.072720 
#    y 0.000000 3.217790 0.000000 
#    z 0.072720 0.000000 3.593070 
# 
# 
# High freq. dielectric constant tensor:
#      x y z
#    x 1.677490 0.000000 -0.001360 
#    y 0.000000 1.689940 0.000000 
#    z -0.001360 0.000000 1.712800 
# 
# From -- ./inp_files/76249.got.cif
#   From: 2010.06.25/outbox.cif.g09.slc.cpg/sg10_39_cif.got.tgz:76249.got - 2010.06.27 22:07:45.
