data_PCOD8063627
_publ_section_title
;
Structure prediction by ZEFSAII (Michael W. Deem and Ramdas Pophale) SiO2 
 PCOD8063627
Probable space group: P 2/M
;
_chemical_formula_sum "Si O2"
_cell_formula_units_Z 28
_cell_length_a 9.635797
_cell_length_b 9.070845
_cell_length_c 27.404356
_cell_angle_alpha 90.000000
_cell_angle_beta 142.715350
_cell_angle_gamma 90.000000
_cell_volume 1450.997034
_symmetry_space_group_name_H-M "P 2/M"
_symmetry_group_IT_number 10
_symmetry_cell_setting 'monoclinic'
loop_
_space_group_symop_operation_xyz
x,y,z
-x,y,-z
-x,-y,-z
x,-y,z
loop_
_atom_site_type_symbol
_atom_site_label
_atom_site_fract_x
_atom_site_fract_y
_atom_site_fract_z
Si Si1 0.985727 0.170368 0.881168
Si Si2 0.731173 0.838453 0.418222
Si Si3 0.307312 0.664909 0.905177
Si Si4 0.632106 0.829626 0.931067
Si Si5 0.694177 0.825356 0.515932
Si Si6 0.830245 0.668751 0.353132
Si Si7 0.613187 0.330765 0.828139
O O1 0.101563 0.230347 0.864386
O O2 0.759273 0.268268 0.823865
O O3 0.922422 0.000000 0.856278
O O4 0.152058 0.194742 0.973691
O O5 0.625137 0.782152 0.440562
O O6 0.694199 0.727545 0.363026
O O7 0.000000 0.854902 0.500000
O O8 0.627360 0.000000 0.376312
O O9 0.218705 0.500000 0.868812
O O10 0.412184 0.736160 0.886135
O O11 0.500000 0.660267 0.000000
O O12 0.693377 0.771094 0.895078
O O13 0.563034 0.000000 0.909651
O O14 0.500000 0.770191 0.500000
O O15 0.939120 0.753764 0.597316
O O16 0.726775 0.000000 0.529105
O O17 0.894927 0.500000 0.381578
O O18 0.655659 0.684253 0.259095
O O19 0.679106 0.500000 0.857023
#
# Coordination Sequence:
#
# PCOD8063627 Si02
#       7
#     4   4   4   4   4   4   4
#     4  10  20  34  53  77 102 132 177 226 267 313
#     4   8  15  30  53  77 100 130 165 199 240 295
#     4   9  17  31  52  75  99 129 164 206 259 315
#     4  10  20  34  53  77 103 134 176 224 270 314
#     4   9  18  34  57  83 107 132 166 207 250 302
#     4  10  21  35  51  75 106 139 173 209 253 304
#     4  11  23  36  50  72 104 141 179 219 266 317
#
# _framework density 19.297076000000001
#
# number of rings (size 3 to 8) (size 9 to 14) (size 15 to 20)
#    0.000    2.429    0.000    3.429    0.000   10.286 
#    0.000    1.429    0.000    6.857    0.000    0.000 
#    0.000    0.000    0.000    0.000    0.000    0.000 
#
# Total GULP energy -347103.452387 kJ/mol
# GULP energy per Si atom -12396.551871 kJ/mol
# Density = 1.925316 g / cm^3
# Si number density = 19.297076 Si / 1000 Ang^3
#
#
#
# Elastic Constant Matrix: (Units=GPa)
#
#
# Indices 1 2 3 4 5 6 
#
# 1 114.8414 32.0169 18.0622 0.0000 9.7969 0.0000
# 2 32.0169 101.6475 33.3116 0.0000 3.3315 0.0000
# 3 18.0622 33.3116 33.6572 0.0000 9.5572 0.0000
# 4 0.0000 0.0000 0.0000 19.5040 0.0000 0.6349
# 5 9.7969 3.3315 9.5572 0.0000 15.7174 0.0000
# 6 0.0000 0.0000 0.0000 0.6349 0.0000 30.4813
#
#
#
# Elastic Compliance Matrix: (Units=1/GPa)
#
#
# Indices 1 2 3 4 5 6 
#
# 1 0.010059 -0.002498 -0.001566 0.000000 -0.004788 0.000000
# 2 -0.002498 0.015820 -0.016689 0.000000 0.008352 0.000000
# 3 -0.001566 -0.016689 0.055343 0.000000 -0.029139 0.000000
# 4 0.000000 0.000000 0.000000 0.051306 0.000000 -0.001069
# 5 -0.004788 0.008352 -0.029139 0.000000 0.082556 0.000000
# 6 0.000000 0.000000 0.000000 -0.001069 0.000000 0.032829
#
#
# Mechanical properties :
#
#
# Convention : Reuss Voigt Hill
#
# Bulk Modulus (GPa) = 25.17832 46.32529 35.75180
# Shear Modulus (GPa) = 16.52025 24.25757 20.38891
#
# Velocity S-wave (km/s) = 2.92909 3.54935 3.25403
# Velocity P-wave (km/s) = 4.95132 6.39184 5.71713
#
# Compressibility (1/GPa) = 0.03971671
#
# Stress axis : x y z
#
# Youngs Moduli (GPa) = 99.41435 63.21016 18.06907
#
# Poissons Ratio (x) = 0.15791 0.02829
# Poissons Ratio (y) = 0.24836 0.30155
# Poissons Ratio (z) = 0.15567 1.05489
#
# Static dielectric constant tensor:
#      x y z
#    x 3.782400 0.000000 -0.065830 
#    y 0.000000 3.613780 0.000000 
#    z -0.065830 0.000000 3.122140 
# 
# 
# High freq. dielectric constant tensor:
#      x y z
#    x 1.755370 0.000000 -0.000260 
#    y 0.000000 1.759490 0.000000 
#    z -0.000260 0.000000 1.710500 
# 
# From -- ./inp_files/92065.got.cif
#   From: 2010.06.25/outbox.cif.g09.slc.cpg/sg10_47_cif.got.tgz:92065.got - 2010.06.27 22:07:45.
