data_PCOD8063277
_publ_section_title
;
Structure prediction by ZEFSAII (Michael W. Deem and Ramdas Pophale) SiO2 
 PCOD8063277
Probable space group: P 2/M
;
_chemical_formula_sum "Si O2"
_cell_formula_units_Z 32
_cell_length_a 23.419904
_cell_length_b 8.836837
_cell_length_c 17.394748
_cell_angle_alpha 90.000000
_cell_angle_beta 148.230247
_cell_angle_gamma 90.000000
_cell_volume 1895.414906
_symmetry_space_group_name_H-M "P 2/M"
_symmetry_group_IT_number 10
_symmetry_cell_setting 'monoclinic'
loop_
_space_group_symop_operation_xyz
x,y,z
-x,y,-z
-x,-y,-z
x,-y,z
loop_
_atom_site_type_symbol
_atom_site_label
_atom_site_fract_x
_atom_site_fract_y
_atom_site_fract_z
Si Si1 0.753137 0.175252 0.186538
Si Si2 0.931960 0.825718 0.270542
Si Si3 0.699091 0.179410 0.398640
Si Si4 0.817486 0.323005 0.665233
Si Si5 0.038308 0.176636 0.868258
Si Si6 0.150758 0.322658 0.555034
Si Si7 0.510931 0.177755 0.927027
Si Si8 0.874302 0.167481 0.877534
O O1 0.819853 0.208989 0.185684
O O2 0.795355 0.279771 0.302945
O O3 0.763355 0.000000 0.223959
O O4 0.628194 0.217205 0.025915
O O5 0.912062 0.787558 0.158244
O O6 0.024452 0.721445 0.413192
O O7 0.966955 0.000000 0.321642
O O8 0.718836 0.246209 0.506054
O O9 0.794490 0.232191 0.451533
O O10 0.583661 0.243229 0.235950
O O11 0.701582 0.000000 0.406452
O O12 0.805552 0.500000 0.644187
O O13 0.809492 0.277989 0.746217
O O14 0.930029 0.272751 0.755763
O O15 0.006997 0.000000 0.841931
O O16 0.129157 0.220515 0.036786
O O17 0.163705 0.500000 0.555290
O O18 0.492092 0.000000 0.911785
O O19 0.500000 0.248850 0.000000
O O20 0.824194 0.000000 0.810793
O O21 0.000000 0.166598 0.000000
#
# Coordination Sequence:
#
# PCOD8063277 Si02
#       8
#     4   4   4   4   4   4   4   4
#     4  10  20  36  54  72  93 126 169 205 241 289
#     4  10  20  33  52  73  97 131 166 198 236 288
#     4  11  20  33  53  71  94 129 165 202 246 291
#     4  11  20  29  44  71 101 126 156 198 241 286
#     4   9  17  30  47  68  96 131 163 191 231 287
#     4  12  23  33  47  71 101 131 163 201 243 285
#     4   9  17  32  54  74  91 118 163 211 247 283
#     4   8  15  28  45  65  93 129 162 190 229 286
#
# _framework density 16.882847000000002
#
# number of rings (size 3 to 8) (size 9 to 14) (size 15 to 20)
#    0.000    2.000    2.500    3.750    0.000    4.250 
#    0.000    1.875    0.000    0.000    0.000    0.875 
#    0.000    7.000    0.000    0.000    0.000    0.000 
#
# Total GULP energy -396751.374521 kJ/mol
# GULP energy per Si atom -12398.480454 kJ/mol
# Density = 1.684442 g / cm^3
# Si number density = 16.882847 Si / 1000 Ang^3
#
#
#
# Elastic Constant Matrix: (Units=GPa)
#
#
# Indices 1 2 3 4 5 6 
#
# 1 51.3356 25.6306 54.0308 0.0000 -5.1730 0.0000
# 2 25.6306 76.6853 44.3305 0.0000 -8.9230 0.0000
# 3 54.0308 44.3305 127.5734 0.0000 -13.2893 0.0000
# 4 0.0000 0.0000 0.0000 6.7431 0.0000 -5.2114
# 5 -5.1730 -8.9230 -13.2893 0.0000 30.8479 0.0000
# 6 0.0000 0.0000 0.0000 -5.2114 0.0000 9.4816
#
#
#
# Elastic Compliance Matrix: (Units=1/GPa)
#
#
# Indices 1 2 3 4 5 6 
#
# 1 0.036160 -0.004127 -0.014002 0.000000 -0.001162 0.000000
# 2 -0.004127 0.016959 -0.003880 0.000000 0.002542 0.000000
# 3 -0.014002 -0.003880 0.015449 0.000000 0.003185 0.000000
# 4 0.000000 0.000000 0.000000 0.257818 0.000000 0.141705
# 5 -0.001162 0.002542 0.003185 0.000000 0.034330 0.000000
# 6 0.000000 0.000000 0.000000 0.141705 0.000000 0.183353
#
#
# Mechanical properties :
#
#
# Convention : Reuss Voigt Hill
#
# Bulk Modulus (GPa) = 40.73387 55.95311 48.34349
# Shear Modulus (GPa) = 8.38549 18.18802 13.28676
#
# Velocity S-wave (km/s) = 2.23107 3.28580 2.80839
# Velocity P-wave (km/s) = 5.55127 6.89994 6.26202
#
# Compressibility (1/GPa) = 0.02454959
#
# Stress axis : x y z
#
# Youngs Moduli (GPa) = 27.65505 58.96745 64.72963
#
# Poissons Ratio (x) = 0.24334 0.90632
# Poissons Ratio (y) = 0.11413 0.25117
# Poissons Ratio (z) = 0.38722 0.22881
#
# Static dielectric constant tensor:
#      x y z
#    x 3.222170 0.000000 -0.322260 
#    y 0.000000 3.005500 0.000000 
#    z -0.322260 0.000000 3.345070 
# 
# 
# High freq. dielectric constant tensor:
#      x y z
#    x 1.629260 0.000000 -0.026860 
#    y 0.000000 1.637430 0.000000 
#    z -0.026860 0.000000 1.642320 
# 
# From -- ./inp_files/79962.got.cif
#   From: 2010.06.25/outbox.cif.g09.slc.cpg/sg10_40_cif.got.tgz:79962.got - 2010.06.27 22:07:45.
