data_PCOD8063792
_publ_section_title
;
Structure prediction by ZEFSAII (Michael W. Deem and Ramdas Pophale) SiO2 
 PCOD8063792
Probable space group: P 2/M
;
_chemical_formula_sum "Si O2"
_cell_formula_units_Z 32
_cell_length_a 13.873362
_cell_length_b 9.188119
_cell_length_c 22.123375
_cell_angle_alpha 90.000000
_cell_angle_beta 141.940512
_cell_angle_gamma 90.000000
_cell_volume 1738.514081
_symmetry_space_group_name_H-M "P 2/M"
_symmetry_group_IT_number 10
_symmetry_cell_setting 'monoclinic'
loop_
_space_group_symop_operation_xyz
x,y,z
-x,y,-z
-x,-y,-z
x,-y,z
loop_
_atom_site_type_symbol
_atom_site_label
_atom_site_fract_x
_atom_site_fract_y
_atom_site_fract_z
Si Si1 0.643800 0.662796 0.116571
Si Si2 0.825735 0.167837 0.700842
Si Si3 0.447576 0.167354 0.107732
Si Si4 0.842784 0.330870 0.456520
Si Si5 0.573714 0.331869 0.654846
Si Si6 0.775952 0.664800 0.558333
Si Si7 0.529393 0.169489 0.281626
Si Si8 0.175620 0.166339 0.886531
O O1 0.695699 0.500000 0.158971
O O2 0.593286 0.742557 0.153014
O O3 0.789326 0.740932 0.156347
O O4 0.500000 0.666263 0.000000
O O5 0.704946 0.265822 0.677064
O O6 0.837754 0.221221 0.637725
O O7 0.995110 0.187276 0.815560
O O8 0.772054 0.000000 0.675265
O O9 0.436232 0.195303 0.173425
O O10 0.483168 0.000000 0.110884
O O11 0.283012 0.216029 0.996214
O O12 0.802013 0.500000 0.425203
O O13 0.862925 0.301943 0.538023
O O14 0.702213 0.235656 0.360720
O O15 0.000000 0.283604 0.500000
O O16 0.611710 0.500000 0.686082
O O17 0.409124 0.313161 0.540392
O O18 0.572953 0.248357 0.718013
O O19 0.811209 0.500000 0.597107
O O20 0.544342 0.000000 0.305168
O O21 0.211586 0.000000 0.887427
#
# Coordination Sequence:
#
# PCOD8063792 Si02
#       8
#     4   4   4   4   4   4   4   4
#     4   9  17  29  48  74 100 129 169 213 250 288
#     4  11  22  34  53  79 103 131 170 216 259 298
#     4   9  18  34  54  74 102 141 175 205 250 306
#     4   9  19  36  55  77 109 145 173 202 250 308
#     4  10  21  38  57  75 100 134 168 207 261 318
#     4   9  19  35  54  76 103 137 172 204 250 312
#     4  10  20  34  55  80 102 131 175 219 254 295
#     4   9  19  35  51  72 106 141 171 206 253 307
#
# _framework density 18.406521999999999
#
# number of rings (size 3 to 8) (size 9 to 14) (size 15 to 20)
#    0.000    2.500    0.000    2.625    0.000    8.750 
#    0.000    3.125    0.000    3.750    0.000    0.000 
#    0.000    0.000    0.000    0.000    0.000    0.000 
#
# Total GULP energy -396844.356008 kJ/mol
# GULP energy per Si atom -12401.386125 kJ/mol
# Density = 1.836463 g / cm^3
# Si number density = 18.406522 Si / 1000 Ang^3
#
#
#
# Elastic Constant Matrix: (Units=GPa)
#
#
# Indices 1 2 3 4 5 6 
#
# 1 117.8735 52.4401 46.0935 0.0000 0.5830 0.0000
# 2 52.4401 103.0151 43.2964 0.0000 -5.6748 0.0000
# 3 46.0935 43.2964 70.7333 0.0000 -9.3280 0.0000
# 4 0.0000 0.0000 0.0000 21.0739 0.0000 -3.6440
# 5 0.5830 -5.6748 -9.3280 0.0000 22.2211 0.0000
# 6 0.0000 0.0000 0.0000 -3.6440 0.0000 33.9965
#
#
#
# Elastic Compliance Matrix: (Units=1/GPa)
#
#
# Indices 1 2 3 4 5 6 
#
# 1 0.012811 -0.004054 -0.006402 0.000000 -0.004059 0.000000
# 2 -0.004054 0.014353 -0.005977 0.000000 0.001263 0.000000
# 3 -0.006402 -0.005977 0.023066 0.000000 0.008324 0.000000
# 4 0.000000 0.000000 0.000000 0.048348 0.000000 0.005182
# 5 -0.004059 0.001263 0.008324 0.000000 0.048926 0.000000
# 6 0.000000 0.000000 0.000000 0.005182 0.000000 0.029970
#
#
# Mechanical properties :
#
#
# Convention : Reuss Voigt Hill
#
# Bulk Modulus (GPa) = 57.59320 63.92020 60.75670
# Shear Modulus (GPa) = 23.13455 25.44442 24.28949
#
# Velocity S-wave (km/s) = 3.54908 3.72204 3.63659
# Velocity P-wave (km/s) = 6.93917 7.29889 7.12130
#
# Compressibility (1/GPa) = 0.01736316
#
# Stress axis : x y z
#
# Youngs Moduli (GPa) = 78.05892 69.67277 43.35468
#
# Poissons Ratio (x) = 0.28248 0.27755
# Poissons Ratio (y) = 0.31648 0.25913
# Poissons Ratio (z) = 0.49971 0.41643
#
# Static dielectric constant tensor:
#      x y z
#    x 3.342070 0.000000 -0.035200 
#    y 0.000000 3.503620 0.000000 
#    z -0.035200 0.000000 3.278830 
# 
# 
# High freq. dielectric constant tensor:
#      x y z
#    x 1.711840 0.000000 -0.002940 
#    y 0.000000 1.721640 0.000000 
#    z -0.002940 0.000000 1.698380 
# 
# From -- ./inp_files/83614.got.cif
#   From: 2010.06.25/outbox.cif.g09.slc.cpg/sg10_42_cif.got.tgz:83614.got - 2010.06.27 22:07:45.
