data_PCOD8063412
_publ_section_title
;
Structure prediction by ZEFSAII (Michael W. Deem and Ramdas Pophale) SiO2 
 PCOD8063412
Probable space group: P 2/M
;
_chemical_formula_sum "Si O2"
_cell_formula_units_Z 32
_cell_length_a 21.919738
_cell_length_b 9.250997
_cell_length_c 10.832998
_cell_angle_alpha 90.000000
_cell_angle_beta 46.883486
_cell_angle_gamma 90.000000
_cell_volume 1603.521488
_symmetry_space_group_name_H-M "P 2/M"
_symmetry_group_IT_number 10
_symmetry_cell_setting 'monoclinic'
loop_
_space_group_symop_operation_xyz
x,y,z
-x,y,-z
-x,-y,-z
x,-y,z
loop_
_atom_site_type_symbol
_atom_site_label
_atom_site_fract_x
_atom_site_fract_y
_atom_site_fract_z
Si Si1 0.357903 0.161730 0.750075
Si Si2 0.057093 0.328981 0.309177
Si Si3 0.783223 0.158297 0.850146
Si Si4 0.361501 0.340625 0.354649
Si Si5 0.535183 0.334334 0.225676
Si Si6 0.058597 0.671735 0.028905
Si Si7 0.360364 0.167730 0.117363
Si Si8 0.754167 0.663816 0.273006
O O1 0.438353 0.250771 0.686176
O O2 0.314119 0.237427 0.696786
O O3 0.385750 0.000000 0.674009
O O4 0.291949 0.157211 0.950798
O O5 0.055774 0.500000 0.315581
O O6 0.151004 0.279918 0.205621
O O7 0.000000 0.265663 0.500000
O O8 0.029937 0.277726 0.207571
O O9 0.737139 0.193616 0.784651
O O10 0.827083 0.000000 0.786085
O O11 0.369641 0.500000 0.280605
O O12 0.435323 0.322230 0.352934
O O13 0.368482 0.213367 0.247315
O O14 0.271851 0.332432 0.547317
O O15 0.565181 0.500000 0.194151
O O16 0.576012 0.263862 0.048461
O O17 0.055986 0.500000 0.025138
O O18 0.152685 0.727638 0.873663
O O19 0.000000 0.736148 0.000000
O O20 0.385212 0.000000 0.067635
O O21 0.750733 0.500000 0.225212
#
# Coordination Sequence:
#
# PCOD8063412 Si02
#       8
#     4   4   4   4   4   4   4   4
#     4  10  20  35  56  81 108 142 189 233 277 332
#     4  10  20  33  55  87 112 137 183 236 281 333
#     4   9  19  35  54  77 106 141 180 222 271 330
#     4  10  22  36  52  80 112 147 190 233 277 335
#     4  10  20  35  55  79 110 145 186 235 284 330
#     4   9  18  34  56  82 113 146 180 226 284 338
#     4  10  21  36  55  80 110 147 187 229 280 336
#     4  10  20  36  58  79 106 148 189 226 279 337
#
# _framework density 19.956077000000001
#
# number of rings (size 3 to 8) (size 9 to 14) (size 15 to 20)
#    0.000    2.250    1.250    2.250    0.000    7.250 
#    0.000    5.000    0.000    1.500    0.000    0.000 
#    0.000    0.000    0.000    0.000    0.000    0.000 
#
# Total GULP energy -396655.438624 kJ/mol
# GULP energy per Si atom -12395.482457 kJ/mol
# Density = 1.991066 g / cm^3
# Si number density = 19.956077 Si / 1000 Ang^3
#
#
#
# Elastic Constant Matrix: (Units=GPa)
#
#
# Indices 1 2 3 4 5 6 
#
# 1 99.4946 34.5719 36.4529 0.0000 8.9275 0.0000
# 2 34.5719 80.3850 23.4571 0.0000 4.9403 0.0000
# 3 36.4529 23.4571 77.4883 0.0000 4.2953 0.0000
# 4 0.0000 0.0000 0.0000 13.5287 0.0000 2.3898
# 5 8.9275 4.9403 4.2953 0.0000 15.6171 0.0000
# 6 0.0000 0.0000 0.0000 2.3898 0.0000 25.4374
#
#
#
# Elastic Compliance Matrix: (Units=1/GPa)
#
#
# Indices 1 2 3 4 5 6 
#
# 1 0.013770 -0.004164 -0.004929 0.000000 -0.005199 0.000000
# 2 -0.004164 0.015067 -0.002508 0.000000 -0.001696 0.000000
# 3 -0.004929 -0.002508 0.016027 0.000000 -0.000797 0.000000
# 4 0.000000 0.000000 0.000000 0.075164 0.000000 -0.007062
# 5 -0.005199 -0.001696 -0.000797 0.000000 0.067760 0.000000
# 6 0.000000 0.000000 0.000000 -0.007062 0.000000 0.039976
#
#
# Mechanical properties :
#
#
# Convention : Reuss Voigt Hill
#
# Bulk Modulus (GPa) = 46.16443 49.59243 47.87843
# Shear Modulus (GPa) = 19.36572 21.77573 20.57072
#
# Velocity S-wave (km/s) = 3.11853 3.30689 3.21409
# Velocity P-wave (km/s) = 6.01251 6.28374 6.14962
#
# Compressibility (1/GPa) = 0.02166170
#
# Stress axis : x y z
#
# Youngs Moduli (GPa) = 72.62037 66.36909 62.39306
#
# Poissons Ratio (x) = 0.27639 0.30754
# Poissons Ratio (y) = 0.30242 0.15649
# Poissons Ratio (z) = 0.35796 0.16646
#
# Static dielectric constant tensor:
#      x y z
#    x 3.813160 0.000000 0.061900 
#    y 0.000000 3.590210 0.000000 
#    z 0.061900 0.000000 3.582650 
# 
# 
# High freq. dielectric constant tensor:
#      x y z
#    x 1.776810 0.000000 0.004090 
#    y 0.000000 1.764370 0.000000 
#    z 0.004090 0.000000 1.770530 
# 
# From -- ./inp_files/55257.got.cif
#   From: 2010.06.25/outbox.cif.g09.slc.cpg/sg10_28_cif.got.tgz:55257.got - 2010.06.27 22:07:45.
