data_PCOD8063522
_publ_section_title
;
Structure prediction by ZEFSAII (Michael W. Deem and Ramdas Pophale) SiO2 
 PCOD8063522
Probable space group: P 2/M
;
_chemical_formula_sum "Si O2"
_cell_formula_units_Z 32
_cell_length_a 21.195284
_cell_length_b 8.926242
_cell_length_c 21.162962
_cell_angle_alpha 90.000000
_cell_angle_beta 25.958361
_cell_angle_gamma 90.000000
_cell_volume 1752.583022
_symmetry_space_group_name_H-M "P 2/M"
_symmetry_group_IT_number 10
_symmetry_cell_setting 'monoclinic'
loop_
_space_group_symop_operation_xyz
x,y,z
-x,y,-z
-x,-y,-z
x,-y,z
loop_
_atom_site_type_symbol
_atom_site_label
_atom_site_fract_x
_atom_site_fract_y
_atom_site_fract_z
Si Si1 0.309322 0.177922 0.617705
Si Si2 0.568483 0.176690 0.872727
Si Si3 0.309425 0.822094 0.017572
Si Si4 0.928008 0.173086 0.262880
Si Si5 0.628724 0.178512 0.302230
Si Si6 0.015390 0.675855 0.309685
Si Si7 0.127060 0.675646 0.431008
Si Si8 0.246751 0.171692 0.937264
O O1 0.190684 0.244591 0.676984
O O2 0.463851 0.231139 0.453427
O O3 0.288298 0.235192 0.709097
O O4 0.297199 0.000000 0.628054
O O5 0.457564 0.225281 0.917557
O O6 0.722785 0.248446 0.721838
O O7 0.590420 0.000000 0.854524
O O8 0.500000 0.233926 0.000000
O O9 0.315188 0.760614 0.940088
O O10 0.284598 0.000000 0.041127
O O11 0.172096 0.751279 0.176709
O O12 0.929320 0.264511 0.326548
O O13 0.896629 0.000000 0.307900
O O14 0.076176 0.190345 0.091946
O O15 0.696324 0.251618 0.177870
O O16 0.639157 0.000000 0.291312
O O17 0.040243 0.500000 0.281199
O O18 0.916813 0.716950 0.458252
O O19 0.148273 0.500000 0.402233
O O20 0.000000 0.735586 0.500000
O O21 0.294440 0.000000 0.891223
#
# Coordination Sequence:
#
# PCOD8063522 Si02
#       8
#     4   4   4   4   4   4   4   4
#     4   8  14  23  37  60  90 121 151 187 235 286
#     4  10  21  35  53  79 106 131 162 200 243 291
#     4   9  18  33  51  73 100 128 161 200 244 293
#     4   9  17  29  45  67  93 121 153 191 240 290
#     4   8  13  22  36  59  90 118 149 192 236 279
#     4  10  20  34  52  73  97 128 165 202 241 286
#     4  10  22  38  54  74 100 131 168 204 239 284
#     4   8  14  24  39  60  88 119 149 187 233 278
#
# _framework density 18.258765
#
# number of rings (size 3 to 8) (size 9 to 14) (size 15 to 20)
#    0.000    3.000    0.000    2.625    0.000    3.500 
#    0.000    5.000    0.000    0.000    0.000    8.750 
#    0.000    0.000    0.000    0.000    0.000    0.000 
#
# Total GULP energy -396626.129799 kJ/mol
# GULP energy per Si atom -12394.566556 kJ/mol
# Density = 1.821721 g / cm^3
# Si number density = 18.258765 Si / 1000 Ang^3
#
#
#
# Elastic Constant Matrix: (Units=GPa)
#
#
# Indices 1 2 3 4 5 6 
#
# 1 159.6543 33.2737 96.2327 0.0000 -7.2874 0.0000
# 2 33.2737 28.7176 34.2973 0.0000 1.7823 0.0000
# 3 96.2327 34.2973 131.7455 0.0000 4.7997 0.0000
# 4 0.0000 0.0000 0.0000 19.6227 0.0000 0.4883
# 5 -7.2874 1.7823 4.7997 0.0000 38.8211 0.0000
# 6 0.0000 0.0000 0.0000 0.4883 0.0000 15.3715
#
#
#
# Elastic Compliance Matrix: (Units=1/GPa)
#
#
# Indices 1 2 3 4 5 6 
#
# 1 0.012076 -0.005110 -0.007616 0.000000 0.003443 0.000000
# 2 -0.005110 0.052714 -0.009912 0.000000 -0.002154 0.000000
# 3 -0.007616 -0.009912 0.015841 0.000000 -0.002933 0.000000
# 4 0.000000 0.000000 0.000000 0.051002 0.000000 -0.001620
# 5 0.003443 -0.002154 -0.002933 0.000000 0.026867 0.000000
# 6 0.000000 0.000000 0.000000 -0.001620 0.000000 0.065107
#
#
# Mechanical properties :
#
#
# Convention : Reuss Voigt Hill
#
# Bulk Modulus (GPa) = 28.28463 71.96943 50.12703
# Shear Modulus (GPa) = 17.81458 25.18398 21.49928
#
# Velocity S-wave (km/s) = 3.12696 3.71790 3.43516
# Velocity P-wave (km/s) = 5.34433 7.61133 6.57625
#
# Compressibility (1/GPa) = 0.03535489
#
# Stress axis : x y z
#
# Youngs Moduli (GPa) = 82.80558 18.97022 63.12747
#
# Poissons Ratio (x) = 0.09694 0.48080
# Poissons Ratio (y) = 0.42314 0.62572
# Poissons Ratio (z) = 0.63068 0.18803
#
# Static dielectric constant tensor:
#      x y z
#    x 3.874320 0.000000 0.091950 
#    y 0.000000 2.907160 0.000000 
#    z 0.091950 0.000000 3.387360 
# 
# 
# High freq. dielectric constant tensor:
#      x y z
#    x 1.727690 0.000000 0.003440 
#    y 0.000000 1.656690 0.000000 
#    z 0.003440 0.000000 1.706170 
# 
# From -- ./inp_files/90532.got.cif
#   From: 2010.06.25/outbox.cif.g09.slc.cpg/sg10_46_cif.got.tgz:90532.got - 2010.06.27 22:07:45.
