data_PCOD8063073
_publ_section_title
;
Structure prediction by ZEFSAII (Michael W. Deem and Ramdas Pophale) SiO2 
 PCOD8063073
Probable space group: P 2/M
;
_chemical_formula_sum "Si O2"
_cell_formula_units_Z 28
_cell_length_a 31.378082
_cell_length_b 11.785403
_cell_length_c 25.316946
_cell_angle_alpha 90.000000
_cell_angle_beta 9.222040
_cell_angle_gamma 90.000000
_cell_volume 1500.409202
_symmetry_space_group_name_H-M "P 2/M"
_symmetry_group_IT_number 10
_symmetry_cell_setting 'monoclinic'
loop_
_space_group_symop_operation_xyz
x,y,z
-x,y,-z
-x,-y,-z
x,-y,z
loop_
_atom_site_type_symbol
_atom_site_label
_atom_site_fract_x
_atom_site_fract_y
_atom_site_fract_z
Si Si1 0.050038 0.298917 0.148979
Si Si2 0.685568 0.500000 0.222552
Si Si3 0.726173 0.500000 0.365707
Si Si4 0.786759 0.792158 0.798533
Si Si5 0.454898 0.298918 0.744118
Si Si6 0.614281 0.372713 0.760760
Si Si7 0.650455 0.870821 0.589367
Si Si8 0.010543 0.627286 0.364496
O O1 0.832443 0.368139 0.447831
O O2 0.914972 0.187895 0.288895
O O3 0.142008 0.384154 0.989478
O O4 0.295013 0.260015 0.886985
O O5 0.500000 0.500000 0.500000
O O6 0.523762 0.500000 0.366732
O O7 0.700573 0.384154 0.430912
O O8 0.000000 0.500000 0.000000
O O9 0.964922 0.714107 0.618126
O O10 0.000000 0.859651 0.500000
O O11 0.619818 0.714111 0.963227
O O12 0.591599 0.870746 0.071755
O O13 0.565706 0.187895 0.638162
O O14 0.266205 0.368142 0.014067
O O15 0.499375 0.500000 0.902877
O O16 0.746944 0.340149 0.654284
O O17 0.722719 0.000000 0.488196
O O18 0.989390 0.500000 0.412861
#
# Coordination Sequence:
#
# PCOD8063073 Si02
#       8
#     4   2   2   4   4   4   4   4
#     4   9  18  34  54  79 112 139 175 222 262 318
#     4  10  20  32  54  92 120 141 165 205 277 333
#     4  10  20  32  54  92 120 141 165 205 277 333
#     4  10  21  33  46  72 104 132 175 233 280 314
#     4   9  18  34  54  79 112 139 175 222 262 318
#     4   9  16  29  49  70 100 141 176 206 260 329
#     4  10  22  37  58  78  96 146 200 226 264 310
#     4   9  16  29  49  70 100 141 176 206 260 329
#
# _framework density 18.661574999999999
#
# number of rings (size 3 to 8) (size 9 to 14) (size 15 to 20)
#    0.000    2.571    1.429    0.429    2.000    2.571 
#    0.000    1.429    0.000    0.857    0.000    8.000 
#    0.000    0.000    0.000    0.000    0.000    0.000 
#
# Total GULP energy -347058.041133 kJ/mol
# GULP energy per Si atom -12394.930040 kJ/mol
# Density = 1.861910 g / cm^3
# Si number density = 18.661575 Si / 1000 Ang^3
#
#
#
# Elastic Constant Matrix: (Units=GPa)
#
#
# Indices 1 2 3 4 5 6 
#
# 1 75.2339 46.4689 40.8695 0.0000 -10.7461 0.0000
# 2 46.4689 115.4096 39.2120 0.0000 -6.6024 0.0000
# 3 40.8695 39.2120 79.5580 0.0000 14.6541 0.0000
# 4 0.0000 0.0000 0.0000 12.7043 0.0000 -3.7663
# 5 -10.7461 -6.6024 14.6541 0.0000 34.3510 0.0000
# 6 0.0000 0.0000 0.0000 -3.7663 0.0000 16.8481
#
#
#
# Elastic Compliance Matrix: (Units=1/GPa)
#
#
# Indices 1 2 3 4 5 6 
#
# 1 0.025030 -0.005099 -0.012597 0.000000 0.012224 0.000000
# 2 -0.005099 0.012144 -0.003801 0.000000 0.002361 0.000000
# 3 -0.012597 -0.003801 0.023631 0.000000 -0.014752 0.000000
# 4 0.000000 0.000000 0.000000 0.084300 0.000000 0.018845
# 5 0.012224 0.002361 -0.014752 0.000000 0.039682 0.000000
# 6 0.000000 0.000000 0.000000 0.018845 0.000000 0.063567
#
#
# Mechanical properties :
#
#
# Convention : Reuss Voigt Hill
#
# Bulk Modulus (GPa) = 56.14075 58.14469 57.14272
# Shear Modulus (GPa) = 16.81882 22.35740 19.58811
#
# Velocity S-wave (km/s) = 3.00535 3.46503 3.24334
# Velocity P-wave (km/s) = 6.49552 6.87268 6.68676
#
# Compressibility (1/GPa) = 0.01781237
#
# Stress axis : x y z
#
# Youngs Moduli (GPa) = 39.95157 82.34251 42.31710
#
# Poissons Ratio (x) = 0.41987 0.53305
# Poissons Ratio (y) = 0.20372 0.16085
# Poissons Ratio (z) = 0.50325 0.31298
#
# Static dielectric constant tensor:
#      x y z
#    x 3.560000 0.000000 -0.243370 
#    y 0.000000 3.020610 0.000000 
#    z -0.243370 0.000000 3.292170 
# 
# 
# High freq. dielectric constant tensor:
#      x y z
#    x 1.730190 0.000000 -0.009060 
#    y 0.000000 1.686890 0.000000 
#    z -0.009060 0.000000 1.720230 
# 
# From -- ./inp_files/79609.got.cif
#   From: 2010.06.25/outbox.cif.g09.slc.cpg/sg10_40_cif.got.tgz:79609.got - 2010.06.27 22:07:45.
