data_PCOD8063863
_publ_section_title
;
Structure prediction by ZEFSAII (Michael W. Deem and Ramdas Pophale) SiO2 
 PCOD8063863
Probable space group: P 2/M
;
_chemical_formula_sum "Si O2"
_cell_formula_units_Z 28
_cell_length_a 23.074059
_cell_length_b 9.052001
_cell_length_c 20.128358
_cell_angle_alpha 90.000000
_cell_angle_beta 160.402038
_cell_angle_gamma 90.000000
_cell_volume 1410.143740
_symmetry_space_group_name_H-M "P 2/M"
_symmetry_group_IT_number 10
_symmetry_cell_setting 'monoclinic'
loop_
_space_group_symop_operation_xyz
x,y,z
-x,y,-z
-x,-y,-z
x,-y,z
loop_
_atom_site_type_symbol
_atom_site_label
_atom_site_fract_x
_atom_site_fract_y
_atom_site_fract_z
Si Si1 0.803410 0.669669 0.798065
Si Si2 0.142764 0.658860 0.711614
Si Si3 0.894701 0.825617 0.678388
Si Si4 0.752081 0.671306 0.896921
Si Si5 0.695503 0.157072 0.212910
Si Si6 0.861509 0.328388 0.506785
Si Si7 0.398473 0.825677 0.531969
O O1 0.785594 0.500000 0.755022
O O2 0.744814 0.688620 0.810137
O O3 0.675266 0.771311 0.617866
O O4 0.000000 0.724263 0.000000
O O5 0.237413 0.500000 0.818897
O O6 0.271646 0.784857 0.826841
O O7 0.000000 0.651292 0.500000
O O8 0.056349 0.695478 0.689385
O O9 0.831479 0.770911 0.538612
O O10 0.742128 0.781387 0.564251
O O11 0.926384 0.000000 0.712439
O O12 0.073386 0.746105 0.888846
O O13 0.754857 0.500000 0.921262
O O14 0.582498 0.747772 0.745559
O O15 0.732476 0.275967 0.309838
O O16 0.795763 0.000000 0.333047
O O17 0.500000 0.117687 0.000000
O O18 0.825450 0.500000 0.483733
O O19 0.429605 0.000000 0.563027
#
# Coordination Sequence:
#
# PCOD8063863 Si02
#       7
#     4   4   4   4   4   4   4
#     4  10  20  37  62  90 120 157 202 253 305 360
#     4   8  16  32  54  79 105 136 179 227 274 330
#     4  11  24  42  62  86 122 163 202 249 305 364
#     4  11  23  40  64  90 119 158 205 252 303 363
#     4  10  20  34  55  86 119 150 187 234 288 344
#     4  10  21  38  60  84 112 151 195 239 290 349
#     4  11  24  40  61  90 124 160 201 253 308 363
#
# _framework density 19.856131999999999
#
# number of rings (size 3 to 8) (size 9 to 14) (size 15 to 20)
#    0.000    1.857    1.429    3.429    0.000    9.143 
#    2.571    0.000    0.000    0.000    0.000    0.000 
#    0.000    0.000    0.000    0.000    0.000    0.000 
#
# Total GULP energy -347062.526034 kJ/mol
# GULP energy per Si atom -12395.090216 kJ/mol
# Density = 1.981094 g / cm^3
# Si number density = 19.856132 Si / 1000 Ang^3
#
#
#
# Elastic Constant Matrix: (Units=GPa)
#
#
# Indices 1 2 3 4 5 6 
#
# 1 89.5112 47.1862 36.3391 0.0000 6.0923 0.0000
# 2 47.1862 114.2001 48.6208 0.0000 14.2460 0.0000
# 3 36.3391 48.6208 83.9312 0.0000 24.1377 0.0000
# 4 0.0000 0.0000 0.0000 29.4608 0.0000 -6.4519
# 5 6.0923 14.2460 24.1377 0.0000 27.8505 0.0000
# 6 0.0000 0.0000 0.0000 -6.4519 0.0000 36.8503
#
#
#
# Elastic Compliance Matrix: (Units=1/GPa)
#
#
# Indices 1 2 3 4 5 6 
#
# 1 0.015409 -0.004691 -0.004895 0.000000 0.003271 0.000000
# 2 -0.004691 0.013052 -0.005201 0.000000 -0.001142 0.000000
# 3 -0.004895 -0.005201 0.021277 0.000000 -0.014709 0.000000
# 4 0.000000 0.000000 0.000000 0.035297 0.000000 0.006180
# 5 0.003271 -0.001142 -0.014709 0.000000 0.048523 0.000000
# 6 0.000000 0.000000 0.000000 0.006180 0.000000 0.028219
#
#
# Mechanical properties :
#
#
# Convention : Reuss Voigt Hill
#
# Bulk Modulus (GPa) = 49.59390 61.32610 55.46000
# Shear Modulus (GPa) = 25.24327 29.19874 27.22100
#
# Velocity S-wave (km/s) = 3.56941 3.83889 3.70660
# Velocity P-wave (km/s) = 6.48216 7.11349 6.80515
#
# Compressibility (1/GPa) = 0.02016377
#
# Stress axis : x y z
#
# Youngs Moduli (GPa) = 64.89628 76.61803 46.99866
#
# Poissons Ratio (x) = 0.35941 0.23005
# Poissons Ratio (y) = 0.30443 0.24446
# Poissons Ratio (z) = 0.31766 0.39852
#
# Static dielectric constant tensor:
#      x y z
#    x 3.905030 0.000000 0.261230 
#    y 0.000000 3.831360 0.000000 
#    z 0.261230 0.000000 3.390200 
# 
# 
# High freq. dielectric constant tensor:
#      x y z
#    x 1.776950 0.000000 0.014880 
#    y 0.000000 1.789360 0.000000 
#    z 0.014880 0.000000 1.753980 
# 
# From -- ./inp_files/86427.got.cif
#   From: 2010.06.25/outbox.cif.g09.slc.cpg/sg10_44_cif.got.tgz:86427.got - 2010.06.27 22:07:45.
