data_PCOD8063475
_publ_section_title
;
Structure prediction by ZEFSAII (Michael W. Deem and Ramdas Pophale) SiO2 
 PCOD8063475
Probable space group: P 2/M
;
_chemical_formula_sum "Si O2"
_cell_formula_units_Z 32
_cell_length_a 18.963503
_cell_length_b 8.927258
_cell_length_c 18.688916
_cell_angle_alpha 90.000000
_cell_angle_beta 142.920267
_cell_angle_gamma 90.000000
_cell_volume 1907.588293
_symmetry_space_group_name_H-M "P 2/M"
_symmetry_group_IT_number 10
_symmetry_cell_setting 'monoclinic'
loop_
_space_group_symop_operation_xyz
x,y,z
-x,y,-z
-x,-y,-z
x,-y,z
loop_
_atom_site_type_symbol
_atom_site_label
_atom_site_fract_x
_atom_site_fract_y
_atom_site_fract_z
Si Si1 0.271164 0.675803 0.309032
Si Si2 0.625630 0.676653 0.759886
Si Si3 0.800076 0.175054 0.006126
Si Si4 0.844744 0.824434 0.568801
Si Si5 0.968886 0.826347 0.894579
Si Si6 0.385187 0.823482 0.532042
Si Si7 0.929919 0.329864 0.224516
Si Si8 0.962922 0.670671 0.546177
O O1 0.280940 0.500000 0.329714
O O2 0.304831 0.721259 0.255604
O O3 0.140795 0.730392 0.220880
O O4 0.362600 0.756103 0.435435
O O5 0.612155 0.500000 0.756519
O O6 0.693165 0.740420 0.882967
O O7 0.499251 0.750995 0.658255
O O8 0.771869 0.000000 0.985225
O O9 0.820150 0.239183 0.102572
O O10 0.919110 0.214243 0.061417
O O11 0.719770 0.780821 0.499375
O O12 0.855975 0.764219 0.495609
O O13 0.946349 0.746607 0.699255
O O14 0.867153 0.000000 0.589108
O O15 0.933928 0.000000 0.860027
O O16 0.000000 0.780568 0.000000
O O17 0.401784 0.000000 0.538036
O O18 0.926907 0.500000 0.194000
O O19 0.926278 0.323449 0.308814
O O20 0.920232 0.500000 0.500458
O O21 0.000000 0.741535 0.500000
#
# Coordination Sequence:
#
# PCOD8063475 Si02
#       8
#     4   4   4   4   4   4   4   4
#     4  11  23  36  52  73  96 126 169 220 266 306
#     4  11  24  38  51  69  95 129 174 221 262 301
#     4  11  21  34  51  71  98 130 168 208 251 306
#     4   9  18  32  50  77 105 132 166 201 245 295
#     4  10  20  34  51  70  94 127 165 206 255 307
#     4  11  23  37  53  71  97 132 172 214 256 304
#     4   9  18  31  50  75 105 134 161 198 242 291
#     4   8  16  31  51  78 110 139 164 193 237 295
#
# _framework density 16.775107999999999
#
# number of rings (size 3 to 8) (size 9 to 14) (size 15 to 20)
#    0.750    1.250    1.250    3.000    0.000    9.500 
#    0.000    0.000    0.000    0.000    0.000    0.875 
#    0.000    7.000    0.000    0.000    0.000    0.000 
#
# Total GULP energy -396709.233858 kJ/mol
# GULP energy per Si atom -12397.163558 kJ/mol
# Density = 1.673693 g / cm^3
# Si number density = 16.775108 Si / 1000 Ang^3
#
#
#
# Elastic Constant Matrix: (Units=GPa)
#
#
# Indices 1 2 3 4 5 6 
#
# 1 50.1280 33.1678 38.0254 0.0000 -11.2832 0.0000
# 2 33.1678 78.1207 47.0162 0.0000 -0.8600 0.0000
# 3 38.0254 47.0162 120.4862 0.0000 -1.0259 0.0000
# 4 0.0000 0.0000 0.0000 30.1741 0.0000 -4.6490
# 5 -11.2832 -0.8600 -1.0259 0.0000 19.2666 0.0000
# 6 0.0000 0.0000 0.0000 -4.6490 0.0000 11.3509
#
#
#
# Elastic Compliance Matrix: (Units=1/GPa)
#
#
# Indices 1 2 3 4 5 6 
#
# 1 0.037839 -0.011440 -0.007297 0.000000 0.021261 0.000000
# 2 -0.011440 0.020191 -0.004320 0.000000 -0.006028 0.000000
# 3 -0.007297 -0.004320 0.012256 0.000000 -0.003814 0.000000
# 4 0.000000 0.000000 0.000000 0.035373 0.000000 0.014488
# 5 0.021261 -0.006028 -0.003814 0.000000 0.063882 0.000000
# 6 0.000000 0.000000 0.000000 0.014488 0.000000 0.094033
#
#
# Mechanical properties :
#
#
# Convention : Reuss Voigt Hill
#
# Bulk Modulus (GPa) = 41.36883 53.90597 47.63740
# Shear Modulus (GPa) = 15.73592 20.86002 18.29797
#
# Velocity S-wave (km/s) = 3.06609 3.53017 3.30628
# Velocity P-wave (km/s) = 6.10319 6.98716 6.56008
#
# Compressibility (1/GPa) = 0.02417279
#
# Stress axis : x y z
#
# Youngs Moduli (GPa) = 26.42797 49.52643 81.59339
#
# Poissons Ratio (x) = 0.56656 0.59538
# Poissons Ratio (y) = 0.30233 0.35249
# Poissons Ratio (z) = 0.19284 0.21396
#
# Static dielectric constant tensor:
#      x y z
#    x 2.987800 0.000000 -0.114540 
#    y 0.000000 3.175170 0.000000 
#    z -0.114540 0.000000 3.125740 
# 
# 
# High freq. dielectric constant tensor:
#      x y z
#    x 1.614180 0.000000 -0.010690 
#    y 0.000000 1.660000 0.000000 
#    z -0.010690 0.000000 1.639570 
# 
# From -- ./inp_files/86158.got.cif
#   From: 2010.06.25/outbox.cif.g09.slc.cpg/sg10_44_cif.got.tgz:86158.got - 2010.06.27 22:07:45.
