data_PCOD8063377
_publ_section_title
;
Structure prediction by ZEFSAII (Michael W. Deem and Ramdas Pophale) SiO2 
 PCOD8063377
Probable space group: P 2/M
;
_chemical_formula_sum "Si O2"
_cell_formula_units_Z 18
_cell_length_a 10.692371
_cell_length_b 18.044577
_cell_length_c 5.208508
_cell_angle_alpha 90.000000
_cell_angle_beta 77.611779
_cell_angle_gamma 90.000000
_cell_volume 981.527659
_symmetry_space_group_name_H-M "P 2/M"
_symmetry_group_IT_number 10
_symmetry_cell_setting 'monoclinic'
loop_
_space_group_symop_operation_xyz
x,y,z
-x,y,-z
-x,-y,-z
x,-y,z
loop_
_atom_site_type_symbol
_atom_site_label
_atom_site_fract_x
_atom_site_fract_y
_atom_site_fract_z
Si Si1 0.413572 0.000000 0.288379
Si Si2 0.138372 0.774553 0.995340
Si Si3 0.767888 0.713316 0.556910
Si Si4 0.356251 0.153731 0.165074
Si Si5 0.418572 0.584550 0.280419
O O1 0.500000 0.000000 0.500000
O O2 0.328513 0.075006 0.318227
O O3 0.500000 0.000000 0.000000
O O4 0.171006 0.718059 0.750842
O O5 0.127745 0.726485 0.262822
O O6 0.250002 0.836728 0.983047
O O7 0.000000 0.812069 0.000000
O O8 0.660294 0.778624 0.626850
O O9 0.707932 0.633019 0.630031
O O10 0.500000 0.156634 0.000000
O O11 0.500000 0.593299 0.500000
O O12 0.374994 0.500000 0.254562
O O13 0.500000 0.613040 0.000000
#
# Coordination Sequence:
#
# PCOD8063377 Si02
#       5
#     2   4   4   4   4
#     4  10  22  34  53  83 123 139 173 227 289 328
#     4  10  22  37  56  79 109 148 193 231 269 325
#     4  10  21  33  60  76 113 142 191 221 279 328
#     4   9  22  34  58  85 109 145 179 230 273 337
#     4  10  20  33  53  86 121 145 177 232 286 328
#
# _framework density 18.338759
#
# number of rings (size 3 to 8) (size 9 to 14) (size 15 to 20)
#    1.333    0.889    0.000    2.667    9.333    0.000 
#    0.000    0.556    0.000    5.333    0.000    0.000 
#    0.000    0.000    0.000    0.000    0.000    0.000 
#
# Total GULP energy -222998.876950 kJ/mol
# GULP energy per Si atom -12388.826497 kJ/mol
# Density = 1.829702 g / cm^3
# Si number density = 18.338759 Si / 1000 Ang^3
#
#
#
# Elastic Constant Matrix: (Units=GPa)
#
#
# Indices 1 2 3 4 5 6 
#
# 1 128.4953 40.6305 29.7230 0.0000 16.0052 0.0000
# 2 40.6305 89.5290 20.8700 0.0000 6.9959 0.0000
# 3 29.7230 20.8700 118.6741 0.0000 19.4827 0.0000
# 4 0.0000 0.0000 0.0000 27.0753 0.0000 11.9906
# 5 16.0052 6.9959 19.4827 0.0000 24.6378 0.0000
# 6 0.0000 0.0000 0.0000 11.9906 0.0000 12.8445
#
#
#
# Elastic Compliance Matrix: (Units=1/GPa)
#
#
# Indices 1 2 3 4 5 6 
#
# 1 0.009797 -0.003855 -0.001047 0.000000 -0.004442 0.000000
# 2 -0.003855 0.013245 -0.001330 0.000000 -0.000205 0.000000
# 3 -0.001047 -0.001330 0.010054 0.000000 -0.006893 0.000000
# 4 0.000000 0.000000 0.000000 0.062965 0.000000 -0.058779
# 5 -0.004442 -0.000205 -0.006893 0.000000 0.048983 0.000000
# 6 0.000000 0.000000 0.000000 -0.058779 0.000000 0.132725
#
#
# Mechanical properties :
#
#
# Convention : Reuss Voigt Hill
#
# Bulk Modulus (GPa) = 48.46674 57.68281 53.07478
# Shear Modulus (GPa) = 16.82884 29.27652 23.05268
#
# Velocity S-wave (km/s) = 3.03259 3.99987 3.54933
# Velocity P-wave (km/s) = 6.22479 7.27009 6.76765
#
# Compressibility (1/GPa) = 0.02063271
#
# Stress axis : x y z
#
# Youngs Moduli (GPa) = 102.07541 75.49964 99.46220
#
# Poissons Ratio (x) = 0.29105 0.10409
# Poissons Ratio (y) = 0.39349 0.13230
# Poissons Ratio (z) = 0.10682 0.10043
#
# Static dielectric constant tensor:
#      x y z
#    x 3.104750 0.000000 0.122320 
#    y 0.000000 3.621780 0.000000 
#    z 0.122320 0.000000 3.395930 
# 
# 
# High freq. dielectric constant tensor:
#      x y z
#    x 1.685600 0.000000 0.014120 
#    y 0.000000 1.696990 0.000000 
#    z 0.014120 0.000000 1.722500 
# 
# From -- ./inp_files/6866.got.cif
#   From: 2010.06.25/outbox.cif.g09.slc.cpg/sg10_4_cif.got.tgz:6866.got - 2010.06.27 22:07:45.
