data_PCOD8063803
_publ_section_title
;
Structure prediction by ZEFSAII (Michael W. Deem and Ramdas Pophale) SiO2 
 PCOD8063803
Probable space group: P 2/M
;
_chemical_formula_sum "Si O2"
_cell_formula_units_Z 28
_cell_length_a 9.361734
_cell_length_b 10.591694
_cell_length_c 15.433958
_cell_angle_alpha 90.000000
_cell_angle_beta 73.807546
_cell_angle_gamma 90.000000
_cell_volume 1469.669641
_symmetry_space_group_name_H-M "P 2/M"
_symmetry_group_IT_number 10
_symmetry_cell_setting 'monoclinic'
loop_
_space_group_symop_operation_xyz
x,y,z
-x,y,-z
-x,-y,-z
x,-y,z
loop_
_atom_site_type_symbol
_atom_site_label
_atom_site_fract_x
_atom_site_fract_y
_atom_site_fract_z
Si Si1 0.295428 0.352604 0.298991
Si Si2 0.744087 0.000000 0.032361
Si Si3 0.826176 0.640247 0.862094
Si Si4 0.637622 0.263724 0.036686
Si Si5 0.632137 0.357700 0.229138
Si Si6 0.091411 0.765046 0.743565
Si Si7 0.003371 0.000000 0.867252
Si Si8 0.935868 0.852428 0.606103
O O1 0.246446 0.500000 0.327154
O O2 0.282350 0.323513 0.198960
O O3 0.467453 0.331917 0.293202
O O4 0.203056 0.245193 0.365989
O O5 0.631936 0.116813 0.062516
O O6 0.832269 0.000000 0.926901
O O7 0.872019 0.000000 0.081424
O O8 0.796000 0.500000 0.898702
O O9 0.994413 0.649056 0.797400
O O10 0.788867 0.721038 0.954284
O O11 0.643913 0.342936 0.123597
O O12 0.500000 0.306892 0.000000
O O13 0.679831 0.500000 0.243284
O O14 0.736641 0.261756 0.265179
O O15 0.022901 0.879950 0.805803
O O16 0.064812 0.796400 0.647084
O O17 0.000000 0.846261 0.500000
O O18 0.893561 0.000000 0.635560
#
# Coordination Sequence:
#
# PCOD8063803 Si02
#       8
#     4   2   4   4   4   4   2   4
#     4   9  20  40  61  88 122 155 195 243 297 354
#     4  11  23  36  48  78 116 154 206 245 284 342
#     4  10  20  34  55  80 112 155 202 245 284 334
#     4  12  22  35  52  78 115 159 203 245 288 336
#     4  11  23  38  58  86 121 159 200 244 291 349
#     4  11  21  39  60  83 116 154 193 240 301 350
#     4  11  20  36  55  72 112 158 188 244 291 325
#     4  10  22  42  69  96 118 147 193 245 299 365
#
# _framework density 19.0519
#
# number of rings (size 3 to 8) (size 9 to 14) (size 15 to 20)
#    0.000    1.429    5.000    1.071    0.000    2.000 
#    2.571    2.143    0.000    3.429    0.000    0.000 
#    0.000    0.000    0.000    0.000    0.000    0.000 
#
# Total GULP energy -347032.984465 kJ/mol
# GULP energy per Si atom -12394.035159 kJ/mol
# Density = 1.900854 g / cm^3
# Si number density = 19.051900 Si / 1000 Ang^3
#
#
#
# Elastic Constant Matrix: (Units=GPa)
#
#
# Indices 1 2 3 4 5 6 
#
# 1 96.9125 19.8389 31.9408 0.0000 4.0243 0.0000
# 2 19.8389 68.2365 36.5711 0.0000 -7.0889 0.0000
# 3 31.9408 36.5711 84.3726 0.0000 1.9602 0.0000
# 4 0.0000 0.0000 0.0000 27.1521 0.0000 -3.8043
# 5 4.0243 -7.0889 1.9602 0.0000 19.0363 0.0000
# 6 0.0000 0.0000 0.0000 -3.8043 0.0000 28.7143
#
#
#
# Elastic Compliance Matrix: (Units=1/GPa)
#
#
# Indices 1 2 3 4 5 6 
#
# 1 0.012027 -0.001806 -0.003705 0.000000 -0.002833 0.000000
# 2 -0.001806 0.020652 -0.008476 0.000000 0.008945 0.000000
# 3 -0.003705 -0.008476 0.017024 0.000000 -0.004126 0.000000
# 4 0.000000 0.000000 0.000000 0.037526 0.000000 0.004972
# 5 -0.002833 0.008945 -0.004126 0.000000 0.056886 0.000000
# 6 0.000000 0.000000 0.000000 0.004972 0.000000 0.035485
#
#
# Mechanical properties :
#
#
# Convention : Reuss Voigt Hill
#
# Bulk Modulus (GPa) = 46.01695 47.35813 46.68754
# Shear Modulus (GPa) = 23.27586 25.72526 24.50056
#
# Velocity S-wave (km/s) = 3.49909 3.67859 3.58996
# Velocity P-wave (km/s) = 6.36637 6.55394 6.46084
#
# Compressibility (1/GPa) = 0.02173112
#
# Stress axis : x y z
#
# Youngs Moduli (GPa) = 83.14756 48.42227 58.73974
#
# Poissons Ratio (x) = 0.08743 0.21760
# Poissons Ratio (y) = 0.15013 0.49786
# Poissons Ratio (z) = 0.30802 0.41041
#
# Static dielectric constant tensor:
#      x y z
#    x 3.413780 0.000000 0.039000 
#    y 0.000000 3.512740 0.000000 
#    z 0.039000 0.000000 3.264000 
# 
# 
# High freq. dielectric constant tensor:
#      x y z
#    x 1.734180 0.000000 0.002450 
#    y 0.000000 1.756010 0.000000 
#    z 0.002450 0.000000 1.714010 
# 
# From -- ./inp_files/28263.got.cif
#   From: 2010.06.25/outbox.cif.g09.slc.cpg/sg10_15_cif.got.tgz:28263.got - 2010.06.27 22:07:45.
