data_PCOD8063719
_publ_section_title
;
Structure prediction by ZEFSAII (Michael W. Deem and Ramdas Pophale) SiO2 
 PCOD8063719
Probable space group: P 2/M
;
_chemical_formula_sum "Si O2"
_cell_formula_units_Z 32
_cell_length_a 27.445747
_cell_length_b 9.149053
_cell_length_c 22.524711
_cell_angle_alpha 90.000000
_cell_angle_beta 162.419035
_cell_angle_gamma 90.000000
_cell_volume 1708.416945
_symmetry_space_group_name_H-M "P 2/M"
_symmetry_group_IT_number 10
_symmetry_cell_setting 'monoclinic'
loop_
_space_group_symop_operation_xyz
x,y,z
-x,y,-z
-x,-y,-z
x,-y,z
loop_
_atom_site_type_symbol
_atom_site_label
_atom_site_fract_x
_atom_site_fract_y
_atom_site_fract_z
Si Si1 0.011663 0.168548 0.446682
Si Si2 0.234943 0.335225 0.544247
Si Si3 0.856513 0.667672 0.789872
Si Si4 0.897520 0.828460 0.715967
Si Si5 0.760610 0.171538 0.942162
Si Si6 0.116366 0.335230 0.807063
Si Si7 0.510235 0.332315 0.443595
Si Si8 0.641619 0.168540 0.206600
O O1 0.193104 0.191777 0.636207
O O2 0.000000 0.228187 0.500000
O O3 0.887051 0.258812 0.261238
O O4 0.959139 0.000000 0.382074
O O5 0.292693 0.500000 0.598699
O O6 0.228543 0.248093 0.475028
O O7 0.361312 0.258832 0.735501
O O8 0.060921 0.331715 0.371854
O O9 0.876848 0.500000 0.792589
O O10 0.861316 0.772439 0.739281
O O11 0.691493 0.692469 0.632973
O O12 0.000000 0.714219 0.000000
O O13 0.866564 0.000000 0.676629
O O14 0.080764 0.788305 0.911521
O O15 0.605376 0.227585 0.727418
O O16 0.746421 0.000000 0.936361
O O17 0.764416 0.248074 0.010903
O O18 0.180716 0.500000 0.874714
O O19 0.500000 0.285823 0.500000
O O20 0.454679 0.500000 0.370428
O O21 0.613258 0.000000 0.190325
O O22 0.500000 0.228197 0.000000
#
# Coordination Sequence:
#
# PCOD8063719 Si02
#       8
#     4   4   4   4   4   4   4   4
#     4   9  17  30  48  70  97 129 165 205 250 301
#     4   9  17  30  50  74  99 130 169 211 253 300
#     4  10  21  37  57  80 106 137 172 210 254 304
#     4  10  20  34  54  79 105 135 172 213 257 306
#     4  10  20  34  54  79 105 135 172 213 257 306
#     4   9  17  30  50  74  99 130 169 211 253 300
#     4  10  21  37  57  80 106 137 172 210 254 304
#     4   9  17  30  48  70  97 129 165 205 250 301
#
# _framework density 18.730789000000001
#
# number of rings (size 3 to 8) (size 9 to 14) (size 15 to 20)
#    0.000    2.500    0.000    2.250    0.000    7.000 
#    0.000    1.250    0.000    4.500    0.000    0.000 
#    0.000    0.000    0.000    0.000    0.000    0.000 
#
# Total GULP energy -396885.361168 kJ/mol
# GULP energy per Si atom -12402.667537 kJ/mol
# Density = 1.868816 g / cm^3
# Si number density = 18.730789 Si / 1000 Ang^3
#
#
#
# Elastic Constant Matrix: (Units=GPa)
#
#
# Indices 1 2 3 4 5 6 
#
# 1 107.8250 58.0278 49.7008 0.0000 -32.9038 0.0000
# 2 58.0278 108.0422 61.4584 0.0000 -24.4747 0.0000
# 3 49.7008 61.4584 117.0559 0.0000 -33.0444 0.0000
# 4 0.0000 0.0000 0.0000 32.5205 0.0000 -10.1027
# 5 -32.9038 -24.4747 -33.0444 0.0000 32.4115 0.0000
# 6 0.0000 0.0000 0.0000 -10.1027 0.0000 31.1023
#
#
#
# Elastic Compliance Matrix: (Units=1/GPa)
#
#
# Indices 1 2 3 4 5 6 
#
# 1 0.016122 -0.005721 -0.000619 0.000000 0.011416 0.000000
# 2 -0.005721 0.015622 -0.005732 0.000000 0.000145 0.000000
# 3 -0.000619 -0.005732 0.014625 0.000000 0.009954 0.000000
# 4 0.000000 0.000000 0.000000 0.034201 0.000000 0.011109
# 5 0.011416 0.000145 0.009954 0.000000 0.052700 0.000000
# 6 0.000000 0.000000 0.000000 0.011109 0.000000 0.035760
#
#
# Mechanical properties :
#
#
# Convention : Reuss Voigt Hill
#
# Bulk Modulus (GPa) = 44.99398 74.58859 59.79128
# Shear Modulus (GPa) = 24.92742 30.12259 27.52501
#
# Velocity S-wave (km/s) = 3.65201 4.01457 3.83757
# Velocity P-wave (km/s) = 6.46965 7.83561 7.18517
#
# Compressibility (1/GPa) = 0.02222520
#
# Stress axis : x y z
#
# Youngs Moduli (GPa) = 62.02711 64.01427 68.37487
#
# Poissons Ratio (x) = 0.36621 0.04232
# Poissons Ratio (y) = 0.35484 0.39193
# Poissons Ratio (z) = 0.03839 0.36693
#
# Static dielectric constant tensor:
#      x y z
#    x 3.362650 0.000000 -0.271210 
#    y 0.000000 3.493700 0.000000 
#    z -0.271210 0.000000 3.400570 
# 
# 
# High freq. dielectric constant tensor:
#      x y z
#    x 1.717420 0.000000 -0.024150 
#    y 0.000000 1.729820 0.000000 
#    z -0.024150 0.000000 1.720790 
# 
# From -- ./inp_files/86947.got.cif
#   From: 2010.06.25/outbox.cif.g09.slc.cpg/sg10_44_cif.got.tgz:86947.got - 2010.06.27 22:07:45.
