data_PCOD8063561
_publ_section_title
;
Structure prediction by ZEFSAII (Michael W. Deem and Ramdas Pophale) SiO2 
 PCOD8063561
Probable space group: P 2/M
;
_chemical_formula_sum "Si O2"
_cell_formula_units_Z 28
_cell_length_a 10.783091
_cell_length_b 9.207826
_cell_length_c 19.929064
_cell_angle_alpha 90.000000
_cell_angle_beta 128.311298
_cell_angle_gamma 90.000000
_cell_volume 1552.621329
_symmetry_space_group_name_H-M "P 2/M"
_symmetry_group_IT_number 10
_symmetry_cell_setting 'monoclinic'
loop_
_space_group_symop_operation_xyz
x,y,z
-x,y,-z
-x,-y,-z
x,-y,z
loop_
_atom_site_type_symbol
_atom_site_label
_atom_site_fract_x
_atom_site_fract_y
_atom_site_fract_z
Si Si1 0.084202 0.661301 0.627973
Si Si2 0.239610 0.336298 0.540756
Si Si3 0.051573 0.327605 0.940665
Si Si4 0.474455 0.828067 0.415783
Si Si5 0.842435 0.833571 0.760450
Si Si6 0.870344 0.161573 0.232368
Si Si7 0.678866 0.172954 0.042847
O O1 0.058440 0.500000 0.646733
O O2 0.204582 0.661508 0.607379
O O3 0.165118 0.752916 0.712542
O O4 0.913194 0.723821 0.550017
O O5 0.284363 0.500000 0.532333
O O6 0.377577 0.222548 0.577348
O O7 0.062389 0.500000 0.931914
O O8 0.226526 0.255772 0.985677
O O9 0.917128 0.261259 0.845903
O O10 0.000000 0.293744 0.000000
O O11 0.500000 0.765794 0.500000
O O12 0.322186 0.768793 0.323534
O O13 0.463889 0.000000 0.415092
O O14 0.948172 0.830511 0.728937
O O15 0.826756 0.000000 0.781391
O O16 0.767693 0.227353 0.138516
O O17 0.812990 0.000000 0.228126
O O18 0.692330 0.000000 0.033911
O O19 0.500000 0.220749 0.000000
#
# Coordination Sequence:
#
# PCOD8063561 Si02
#       7
#     4   4   4   4   4   4   4
#     4   9  18  33  50  69  97 135 172 206 251 303
#     4   9  19  34  49  68  99 136 173 208 246 302
#     4  10  21  37  57  82 111 143 180 224 273 322
#     4  10  20  34  52  76 105 134 169 215 261 300
#     4   9  19  35  54  77 105 138 175 213 256 313
#     4   9  17  31  53  77  99 126 167 212 254 302
#     4   9  19  37  58  80 107 139 177 220 266 322
#
# _framework density 18.034018
#
# number of rings (size 3 to 8) (size 9 to 14) (size 15 to 20)
#    0.000    2.714    0.000    3.000    0.000    6.857 
#    2.571    1.429    0.000    0.000    0.000    0.000 
#    0.000    0.000    0.000    0.000    0.000    0.000 
#
# Total GULP energy -346953.119565 kJ/mol
# GULP energy per Si atom -12391.182842 kJ/mol
# Density = 1.799297 g / cm^3
# Si number density = 18.034018 Si / 1000 Ang^3
#
#
#
# Elastic Constant Matrix: (Units=GPa)
#
#
# Indices 1 2 3 4 5 6 
#
# 1 100.4999 35.9487 55.2520 0.0000 12.1270 0.0000
# 2 35.9487 48.8293 35.6823 0.0000 -7.4860 0.0000
# 3 55.2520 35.6823 86.3885 0.0000 -2.2865 0.0000
# 4 0.0000 0.0000 0.0000 33.4236 0.0000 -4.6624
# 5 12.1270 -7.4860 -2.2865 0.0000 30.0354 0.0000
# 6 0.0000 0.0000 0.0000 -4.6624 0.0000 31.7600
#
#
#
# Elastic Compliance Matrix: (Units=1/GPa)
#
#
# Indices 1 2 3 4 5 6 
#
# 1 0.019580 -0.009647 -0.008829 0.000000 -0.010982 0.000000
# 2 -0.009647 0.035368 -0.008119 0.000000 0.012092 0.000000
# 3 -0.008829 -0.008119 0.020658 0.000000 0.003114 0.000000
# 4 0.000000 0.000000 0.000000 0.030544 0.000000 0.004484
# 5 -0.010982 0.012092 0.003114 0.000000 0.040979 0.000000
# 6 0.000000 0.000000 0.000000 0.004484 0.000000 0.032144
#
#
# Mechanical properties :
#
#
# Convention : Reuss Voigt Hill
#
# Bulk Modulus (GPa) = 44.60825 54.38708 49.49766
# Shear Modulus (GPa) = 20.83890 26.29947 23.56918
#
# Velocity S-wave (km/s) = 3.40300 3.82295 3.61907
# Velocity P-wave (km/s) = 6.34270 7.05054 6.70596
#
# Compressibility (1/GPa) = 0.02241738
#
# Stress axis : x y z
#
# Youngs Moduli (GPa) = 51.07242 28.27398 48.40678
#
# Poissons Ratio (x) = 0.27275 0.42739
# Poissons Ratio (y) = 0.49269 0.39300
# Poissons Ratio (z) = 0.45092 0.22955
#
# Static dielectric constant tensor:
#      x y z
#    x 3.335260 0.000000 0.043890 
#    y 0.000000 3.246140 0.000000 
#    z 0.043890 0.000000 3.355800 
# 
# 
# High freq. dielectric constant tensor:
#      x y z
#    x 1.694280 0.000000 0.001020 
#    y 0.000000 1.689000 0.000000 
#    z 0.001020 0.000000 1.696640 
# 
# From -- ./inp_files/54692.got.cif
#   From: 2010.06.25/outbox.cif.g09.slc.cpg/sg10_28_cif.got.tgz:54692.got - 2010.06.27 22:07:45.
