data_PCOD8063047
_publ_section_title
;
Structure prediction by ZEFSAII (Michael W. Deem and Ramdas Pophale) SiO2 
 PCOD8063047
Probable space group: P 2/M
;
_chemical_formula_sum "Si O2"
_cell_formula_units_Z 24
_cell_length_a 15.969275
_cell_length_b 9.368316
_cell_length_c 14.394941
_cell_angle_alpha 90.000000
_cell_angle_beta 142.331949
_cell_angle_gamma 90.000000
_cell_volume 1316.008743
_symmetry_space_group_name_H-M "P 2/M"
_symmetry_group_IT_number 10
_symmetry_cell_setting 'monoclinic'
loop_
_space_group_symop_operation_xyz
x,y,z
-x,y,-z
-x,-y,-z
x,-y,z
loop_
_atom_site_type_symbol
_atom_site_label
_atom_site_fract_x
_atom_site_fract_y
_atom_site_fract_z
Si Si1 0.121590 0.169578 0.043677
Si Si2 0.241358 0.168245 0.483107
Si Si3 0.927506 0.831445 0.205637
Si Si4 0.349122 0.830375 0.380292
Si Si5 0.299511 0.334710 0.889512
Si Si6 0.593699 0.334565 0.219079
O O1 0.262951 0.219827 0.214970
O O2 0.107502 0.000000 0.027712
O O3 0.111797 0.229180 0.930705
O O4 0.000000 0.232801 0.000000
O O5 0.279641 0.224843 0.414021
O O6 0.342675 0.240432 0.644415
O O7 0.084251 0.209196 0.366252
O O8 0.263908 0.000000 0.509976
O O9 0.830324 0.758280 0.195288
O O10 0.904894 0.000000 0.191269
O O11 0.500000 0.764490 0.500000
O O12 0.354552 0.000000 0.388359
O O13 0.263391 0.500000 0.871382
O O14 0.327709 0.300180 0.807040
O O15 0.433451 0.294674 0.067667
O O16 0.610020 0.500000 0.259087
#
# Coordination Sequence:
#
# PCOD8063047 Si02
#       6
#     4   4   4   4   4   4
#     4   9  15  28  47  69 104 142 169 201 247 301
#     4  10  20  33  51  81 113 136 167 215 261 302
#     4  10  20  32  52  82 110 137 171 212 258 304
#     4   9  17  28  45  73 106 138 172 207 247 300
#     4   9  20  39  58  75  98 134 178 217 258 313
#     4   9  20  39  58  74  99 136 175 216 262 312
#
# _framework density 18.236961000000001
#
# number of rings (size 3 to 8) (size 9 to 14) (size 15 to 20)
#    0.000    2.667    1.667    1.000    2.333    2.667 
#    0.000    5.000    0.000    2.000    0.000    0.000 
#    0.000    0.000    0.000    0.000    0.000    0.000 
#
# Total GULP energy -297563.979549 kJ/mol
# GULP energy per Si atom -12398.499148 kJ/mol
# Density = 1.819545 g / cm^3
# Si number density = 18.236961 Si / 1000 Ang^3
#
#
#
# Elastic Constant Matrix: (Units=GPa)
#
#
# Indices 1 2 3 4 5 6 
#
# 1 72.6710 23.4382 15.0138 0.0000 17.3952 0.0000
# 2 23.4382 27.8062 22.6534 0.0000 2.9400 0.0000
# 3 15.0138 22.6534 88.2779 0.0000 1.2448 0.0000
# 4 0.0000 0.0000 0.0000 24.3139 0.0000 0.0562
# 5 17.3952 2.9400 1.2448 0.0000 35.7680 0.0000
# 6 0.0000 0.0000 0.0000 0.0562 0.0000 -5.8152
#
#
#
# Elastic Compliance Matrix: (Units=1/GPa)
#
#
# Indices 1 2 3 4 5 6 
#
# 1 0.021527 -0.018096 0.001110 0.000000 -0.009020 0.000000
# 2 -0.018096 0.061081 -0.012656 0.000000 0.004220 0.000000
# 3 0.001110 -0.012656 0.014387 0.000000 0.000000 0.000000
# 4 0.000000 0.000000 0.000000 0.041128 0.000000 0.000397
# 5 -0.009020 0.004220 0.000000 0.000000 0.031998 0.000000
# 6 0.000000 0.000000 0.000000 0.000397 0.000000 -0.171959
#
#
# Mechanical properties :
#
#
# Convention : Reuss Voigt Hill
#
# Bulk Modulus (GPa) = 26.51788 34.55176 30.53482
# Shear Modulus (GPa) = 71.41287 19.36332 45.38809
#
# Velocity S-wave (km/s) = 6.26445 3.26200 4.99420
# Velocity P-wave (km/s) = 8.17904 5.75975 7.07359
#
# Compressibility (1/GPa) = 0.03771041
#
# Stress axis : x y z
#
# Youngs Moduli (GPa) = 46.45354 16.37178 69.50776
#
# Poissons Ratio (x) = 0.29626 -0.07713
# Poissons Ratio (y) = 0.84060 0.87970
# Poissons Ratio (z) = -0.05154 0.20720
#
# Static dielectric constant tensor:
#      x y z
#    x 3.428810 0.000000 0.037960 
#    y 0.000000 2.878350 0.000000 
#    z 0.037960 0.000000 3.483510 
# 
# 
# High freq. dielectric constant tensor:
#      x y z
#    x 1.713680 0.000000 0.002600 
#    y 0.000000 1.658610 0.000000 
#    z 0.002600 0.000000 1.719880 
# 
# From -- ./inp_files/27311.got.cif
#   From: 2010.06.25/outbox.cif.g09.slc.cpg/sg10_14_cif.got.tgz:27311.got - 2010.06.27 22:07:45.
