data_PCOD8063910
_publ_section_title
;
Structure prediction by ZEFSAII (Michael W. Deem and Ramdas Pophale) SiO2 
 PCOD8063910
Probable space group: P 2/M
;
_chemical_formula_sum "Si O2"
_cell_formula_units_Z 26
_cell_length_a 9.008742
_cell_length_b 19.924299
_cell_length_c 14.263439
_cell_angle_alpha 90.000000
_cell_angle_beta 32.460225
_cell_angle_gamma 90.000000
_cell_volume 1374.087430
_symmetry_space_group_name_H-M "P 2/M"
_symmetry_group_IT_number 10
_symmetry_cell_setting 'monoclinic'
loop_
_space_group_symop_operation_xyz
x,y,z
-x,y,-z
-x,-y,-z
x,-y,z
loop_
_atom_site_type_symbol
_atom_site_label
_atom_site_fract_x
_atom_site_fract_y
_atom_site_fract_z
Si Si1 0.782055 0.924301 0.295507
Si Si2 0.918586 0.696607 0.245627
Si Si3 0.409022 0.719313 0.400862
Si Si4 0.256062 0.825612 0.057640
Si Si5 0.000000 0.632992 0.500000
Si Si6 0.189341 0.423872 0.201614
Si Si7 0.304272 0.158272 0.832055
O O1 0.500000 0.915046 0.500000
O O2 0.723545 0.907683 0.217443
O O3 0.000562 0.872553 0.224985
O O4 0.895675 0.000000 0.242515
O O5 0.698767 0.684976 0.278773
O O6 0.781826 0.732004 0.408114
O O7 0.162185 0.748317 0.087515
O O8 0.014643 0.623144 0.225831
O O9 0.467104 0.792676 0.330961
O O10 0.255561 0.676428 0.402932
O O11 0.500000 0.825348 0.000000
O O12 0.388590 0.858752 0.893418
O O13 0.865673 0.591202 0.658196
O O14 0.093187 0.500000 0.235599
O O15 0.500000 0.413588 0.000000
O O16 0.000000 0.193335 0.000000
#
# Coordination Sequence:
#
# PCOD8063910 Si02
#       7
#     4   4   4   4   2   4   4
#     4  10  21  41  63  82 115 161 200 238 295 361
#     4  10  20  37  58  81 119 153 196 238 294 365
#     4  10  20  35  55  87 113 152 192 245 294 344
#     4  11  23  35  57  91 120 151 193 251 296 346
#     4  10  23  36  60  88 115 154 196 260 299 352
#     4  10  22  40  60  84 118 159 197 246 306 363
#     4  10  20  34  56  86 113 150 192 239 293 348
#
# _framework density 18.921648999999999
#
# number of rings (size 3 to 8) (size 9 to 14) (size 15 to 20)
#    0.000    1.846    3.077    1.615    6.462    3.077 
#    0.000    6.923    0.000    3.692    0.000    0.000 
#    0.000    0.000    0.000    0.000    0.000    0.000 
#
# Total GULP energy -322170.770204 kJ/mol
# GULP energy per Si atom -12391.183469 kJ/mol
# Density = 1.887858 g / cm^3
# Si number density = 18.921649 Si / 1000 Ang^3
#
#
#
# Elastic Constant Matrix: (Units=GPa)
#
#
# Indices 1 2 3 4 5 6 
#
# 1 139.4462 45.9218 34.9907 0.0000 -18.4299 0.0000
# 2 45.9218 110.7457 39.1513 0.0000 -14.4666 0.0000
# 3 34.9907 39.1513 77.8518 0.0000 1.5744 0.0000
# 4 0.0000 0.0000 0.0000 19.8601 0.0000 2.8090
# 5 -18.4299 -14.4666 1.5744 0.0000 25.1593 0.0000
# 6 0.0000 0.0000 0.0000 2.8090 0.0000 20.2090
#
#
#
# Elastic Compliance Matrix: (Units=1/GPa)
#
#
# Indices 1 2 3 4 5 6 
#
# 1 0.009458 -0.001932 -0.003401 0.000000 0.006030 0.000000
# 2 -0.001932 0.012621 -0.005604 0.000000 0.006193 0.000000
# 3 -0.003401 -0.005604 0.017329 0.000000 -0.006798 0.000000
# 4 0.000000 0.000000 0.000000 0.051362 0.000000 -0.007139
# 5 0.006030 0.006193 -0.006798 0.000000 0.048150 0.000000
# 6 0.000000 0.000000 0.000000 -0.007139 0.000000 0.050475
#
#
# Mechanical properties :
#
#
# Convention : Reuss Voigt Hill
#
# Bulk Modulus (GPa) = 57.03204 63.13014 60.08109
# Shear Modulus (GPa) = 23.02936 26.91102 24.97019
#
# Velocity S-wave (km/s) = 3.49247 3.77534 3.63666
# Velocity P-wave (km/s) = 6.81687 7.24159 7.03244
#
# Compressibility (1/GPa) = 0.01753400
#
# Stress axis : x y z
#
# Youngs Moduli (GPa) = 105.73257 79.23473 57.70537
#
# Poissons Ratio (x) = 0.15305 0.19628
# Poissons Ratio (y) = 0.20423 0.32338
# Poissons Ratio (z) = 0.35964 0.44403
#
# Static dielectric constant tensor:
#      x y z
#    x 3.688990 0.000000 0.291140 
#    y 0.000000 3.389340 0.000000 
#    z 0.291140 0.000000 3.786260 
# 
# 
# High freq. dielectric constant tensor:
#      x y z
#    x 1.733270 0.000000 0.011020 
#    y 0.000000 1.719870 0.000000 
#    z 0.011020 0.000000 1.744490 
# 
# From -- ./inp_files/30340.got.cif
#   From: 2010.06.25/outbox.cif.g09.slc.cpg/sg10_16_cif.got.tgz:30340.got - 2010.06.27 22:07:45.
