data_PCOD8063543
_publ_section_title
;
Structure prediction by ZEFSAII (Michael W. Deem and Ramdas Pophale) SiO2 
 PCOD8063543
Probable space group: P 2/M
;
_chemical_formula_sum "Si O2"
_cell_formula_units_Z 28
_cell_length_a 17.010922
_cell_length_b 9.057426
_cell_length_c 14.205170
_cell_angle_alpha 90.000000
_cell_angle_beta 41.406003
_cell_angle_gamma 90.000000
_cell_volume 1447.561435
_symmetry_space_group_name_H-M "P 2/M"
_symmetry_group_IT_number 10
_symmetry_cell_setting 'monoclinic'
loop_
_space_group_symop_operation_xyz
x,y,z
-x,y,-z
-x,-y,-z
x,-y,z
loop_
_atom_site_type_symbol
_atom_site_label
_atom_site_fract_x
_atom_site_fract_y
_atom_site_fract_z
Si Si1 0.211924 0.171894 0.090105
Si Si2 0.806136 0.323433 0.429003
Si Si3 0.113528 0.674279 0.843689
Si Si4 0.704612 0.325191 0.166111
Si Si5 0.428491 0.331264 0.975118
Si Si6 0.543148 0.667675 0.674039
Si Si7 0.975644 0.827751 0.415974
O O1 0.313982 0.229081 0.067804
O O2 0.088074 0.207309 0.250452
O O3 0.230572 0.000000 0.054841
O O4 0.215168 0.255961 0.988061
O O5 0.805589 0.500000 0.438539
O O6 0.876718 0.268220 0.272221
O O7 0.671486 0.258813 0.540087
O O8 0.864475 0.257619 0.470505
O O9 0.097717 0.500000 0.856205
O O10 0.235307 0.716160 0.788787
O O11 0.000000 0.745089 0.000000
O O12 0.703080 0.500000 0.148240
O O13 0.568564 0.262725 0.284289
O O14 0.386488 0.500000 0.027282
O O15 0.500000 0.271415 0.000000
O O16 0.515587 0.317685 0.808606
O O17 0.554543 0.500000 0.630495
O O18 0.000000 0.769878 0.500000
O O19 0.944217 0.000000 0.446674
#
# Coordination Sequence:
#
# PCOD8063543 Si02
#       7
#     4   4   4   4   4   4   4
#     4  10  20  34  52  75 101 131 175 220 253 302
#     4  10  20  34  54  80 106 132 176 224 255 305
#     4   9  17  29  50  80 108 136 173 216 259 305
#     4   9  17  33  55  76 107 143 169 206 265 314
#     4   9  18  32  52  75 103 135 167 211 263 311
#     4   8  16  30  48  76 107 134 169 211 255 304
#     4  10  23  40  53  70 103 142 175 212 265 319
#
# _framework density 19.342874999999999
#
# number of rings (size 3 to 8) (size 9 to 14) (size 15 to 20)
#    0.000    2.714    0.000    2.143    2.000    3.429 
#    0.000    6.429    0.000    2.571    0.000    5.000 
#    0.000    0.000    0.000    0.000    0.000    0.000 
#
# Total GULP energy -347082.879826 kJ/mol
# GULP energy per Si atom -12395.817137 kJ/mol
# Density = 1.929885 g / cm^3
# Si number density = 19.342875 Si / 1000 Ang^3
#
#
#
# Elastic Constant Matrix: (Units=GPa)
#
#
# Indices 1 2 3 4 5 6 
#
# 1 137.6077 24.1013 56.3750 0.0000 2.4359 0.0000
# 2 24.1013 31.5137 25.2471 0.0000 -3.0781 0.0000
# 3 56.3750 25.2471 88.7649 0.0000 -16.0830 0.0000
# 4 0.0000 0.0000 0.0000 19.2577 0.0000 0.5041
# 5 2.4359 -3.0781 -16.0830 0.0000 28.5910 0.0000
# 6 0.0000 0.0000 0.0000 0.5041 0.0000 14.1146
#
#
#
# Elastic Compliance Matrix: (Units=1/GPa)
#
#
# Indices 1 2 3 4 5 6 
#
# 1 0.010712 -0.003238 -0.006804 0.000000 -0.005089 0.000000
# 2 -0.003238 0.042224 -0.010110 0.000000 -0.000865 0.000000
# 3 -0.006804 -0.010110 0.020455 0.000000 0.010998 0.000000
# 4 0.000000 0.000000 0.000000 0.051976 0.000000 -0.001856
# 5 -0.005089 -0.000865 0.010998 0.000000 0.041503 0.000000
# 6 0.000000 0.000000 0.000000 -0.001856 0.000000 0.070915
#
#
# Mechanical properties :
#
#
# Convention : Reuss Voigt Hill
#
# Bulk Modulus (GPa) = 30.22377 52.14811 41.18594
# Shear Modulus (GPa) = 17.29403 22.53684 19.91544
#
# Velocity S-wave (km/s) = 2.99336 3.41709 3.21222
# Velocity P-wave (km/s) = 5.25415 6.52588 5.92424
#
# Compressibility (1/GPa) = 0.03308654
#
# Stress axis : x y z
#
# Youngs Moduli (GPa) = 93.35543 23.68347 48.88756
#
# Poissons Ratio (x) = 0.07669 0.33263
# Poissons Ratio (y) = 0.30230 0.49424
# Poissons Ratio (z) = 0.63519 0.23943
#
# Static dielectric constant tensor:
#      x y z
#    x 3.764410 0.000000 -0.108050 
#    y 0.000000 3.121190 0.000000 
#    z -0.108050 0.000000 3.630980 
# 
# 
# High freq. dielectric constant tensor:
#      x y z
#    x 1.768040 0.000000 -0.005850 
#    y 0.000000 1.705530 0.000000 
#    z -0.005850 0.000000 1.753380 
# 
# From -- ./inp_files/68583.got.cif
#   From: 2010.06.25/outbox.cif.g09.slc.cpg/sg10_35_cif.got.tgz:68583.got - 2010.06.27 22:07:45.
