data_PCOD8063284
_publ_section_title
;
Structure prediction by ZEFSAII (Michael W. Deem and Ramdas Pophale) SiO2 
 PCOD8063284
Probable space group: P 2/M
;
_chemical_formula_sum "Si O2"
_cell_formula_units_Z 32
_cell_length_a 23.737673
_cell_length_b 9.379679
_cell_length_c 11.577864
_cell_angle_alpha 90.000000
_cell_angle_beta 136.144010
_cell_angle_gamma 90.000000
_cell_volume 1786.045946
_symmetry_space_group_name_H-M "P 2/M"
_symmetry_group_IT_number 10
_symmetry_cell_setting 'monoclinic'
loop_
_space_group_symop_operation_xyz
x,y,z
-x,y,-z
-x,-y,-z
x,-y,z
loop_
_atom_site_type_symbol
_atom_site_label
_atom_site_fract_x
_atom_site_fract_y
_atom_site_fract_z
Si Si1 0.633494 0.162513 0.003148
Si Si2 0.529504 0.336778 0.233056
Si Si3 0.284417 0.164152 0.109199
Si Si4 0.174338 0.166016 0.336872
Si Si5 0.127169 0.835845 0.007791
Si Si6 0.582030 0.662451 0.565857
Si Si7 0.339739 0.163604 0.699279
Si Si8 0.976733 0.661037 0.832363
O O1 0.557791 0.266730 0.878483
O O2 0.698499 0.200741 0.999384
O O3 0.602275 0.000000 0.943342
O O4 0.678644 0.182898 0.192016
O O5 0.516978 0.500000 0.176574
O O6 0.579878 0.325575 0.425290
O O7 0.580760 0.256572 0.210846
O O8 0.190995 0.200696 0.000800
O O9 0.340940 0.251809 0.277899
O O10 0.301891 0.000000 0.163148
O O11 0.169055 0.198399 0.192926
O O12 0.262120 0.216911 0.512195
O O13 0.107359 0.254799 0.309108
O O14 0.160067 0.000000 0.343008
O O15 0.099175 0.000000 0.963244
O O16 0.048348 0.739099 0.867747
O O17 0.500000 0.727921 0.500000
O O18 0.591427 0.500000 0.621924
O O19 0.359840 0.000000 0.698235
O O20 0.967045 0.500000 0.771903
O O21 0.000000 0.663572 0.000000
#
# Coordination Sequence:
#
# PCOD8063284 Si02
#       8
#     4   4   4   4   4   4   4   4
#     4  10  21  36  52  71  98 133 171 212 252 291
#     4  11  22  35  52  73  98 130 170 212 254 300
#     4  10  20  33  52  76 100 131 171 209 246 296
#     4   9  17  31  51  73  99 129 159 196 245 295
#     4   9  17  30  49  75 102 126 158 198 242 295
#     4  10  20  34  49  69 100 132 162 202 253 301
#     4  10  21  36  53  73  99 131 169 211 253 294
#     4   9  17  29  48  75 104 129 154 190 241 297
#
# _framework density 17.916672999999999
#
# number of rings (size 3 to 8) (size 9 to 14) (size 15 to 20)
#    0.000    2.250    1.250    1.875    0.000    6.750 
#    0.000    2.500    0.000    0.750    0.000    5.250 
#    0.000    0.000    0.000    0.000    0.000    0.000 
#
# Total GULP energy -396866.682255 kJ/mol
# GULP energy per Si atom -12402.083820 kJ/mol
# Density = 1.787589 g / cm^3
# Si number density = 17.916673 Si / 1000 Ang^3
#
#
#
# Elastic Constant Matrix: (Units=GPa)
#
#
# Indices 1 2 3 4 5 6 
#
# 1 130.5220 58.6111 39.5201 0.0000 14.3695 0.0000
# 2 58.6111 85.2321 30.2674 0.0000 13.1723 0.0000
# 3 39.5201 30.2674 39.4088 0.0000 4.8024 0.0000
# 4 0.0000 0.0000 0.0000 12.8584 0.0000 -2.2818
# 5 14.3695 13.1723 4.8024 0.0000 26.0415 0.0000
# 6 0.0000 0.0000 0.0000 -2.2818 0.0000 13.7162
#
#
#
# Elastic Compliance Matrix: (Units=1/GPa)
#
#
# Indices 1 2 3 4 5 6 
#
# 1 0.013009 -0.005497 -0.008479 0.000000 -0.002834 0.000000
# 2 -0.005497 0.019431 -0.008780 0.000000 -0.005176 0.000000
# 3 -0.008479 -0.008780 0.040418 0.000000 0.001666 0.000000
# 4 0.000000 0.000000 0.000000 0.080136 0.000000 0.013331
# 5 -0.002834 -0.005176 0.001666 0.000000 0.042275 0.000000
# 6 0.000000 0.000000 0.000000 0.013331 0.000000 0.075124
#
#
# Mechanical properties :
#
#
# Convention : Reuss Voigt Hill
#
# Bulk Modulus (GPa) = 36.56794 56.88444 46.72619
# Shear Modulus (GPa) = 15.38364 18.97417 17.17890
#
# Velocity S-wave (km/s) = 2.93340 3.25779 3.09984
# Velocity P-wave (km/s) = 5.65044 6.78007 6.24086
#
# Compressibility (1/GPa) = 0.02734636
#
# Stress axis : x y z
#
# Youngs Moduli (GPa) = 76.86833 51.46497 24.74134
#
# Poissons Ratio (x) = 0.28290 0.20977
# Poissons Ratio (y) = 0.42255 0.21723
# Poissons Ratio (z) = 0.65174 0.45187
#
# Static dielectric constant tensor:
#      x y z
#    x 3.401640 0.000000 0.014670 
#    y 0.000000 3.378140 0.000000 
#    z 0.014670 0.000000 3.094360 
# 
# 
# High freq. dielectric constant tensor:
#      x y z
#    x 1.693810 0.000000 0.006550 
#    y 0.000000 1.694130 0.000000 
#    z 0.006550 0.000000 1.666880 
# 
# From -- ./inp_files/55353.got.cif
#   From: 2010.06.25/outbox.cif.g09.slc.cpg/sg10_28_cif.got.tgz:55353.got - 2010.06.27 22:07:45.
