data_PCOD8063580
_publ_section_title
;
Structure prediction by ZEFSAII (Michael W. Deem and Ramdas Pophale) SiO2 
 PCOD8063580
Probable space group: P 2/M
;
_chemical_formula_sum "Si O2"
_cell_formula_units_Z 28
_cell_length_a 8.960917
_cell_length_b 15.710943
_cell_length_c 11.959992
_cell_angle_alpha 90.000000
_cell_angle_beta 121.076370
_cell_angle_gamma 90.000000
_cell_volume 1442.124794
_symmetry_space_group_name_H-M "P 2/M"
_symmetry_group_IT_number 10
_symmetry_cell_setting 'monoclinic'
loop_
_space_group_symop_operation_xyz
x,y,z
-x,y,-z
-x,-y,-z
x,-y,z
loop_
_atom_site_type_symbol
_atom_site_label
_atom_site_fract_x
_atom_site_fract_y
_atom_site_fract_z
Si Si1 0.114288 0.172585 0.142133
Si Si2 0.549873 0.407249 0.275681
Si Si3 0.201457 0.596417 0.829990
Si Si4 0.282088 0.236665 0.602079
Si Si5 0.195648 0.350223 0.068321
Si Si6 0.461344 0.903972 0.355842
Si Si7 0.989832 0.250341 0.314960
O O1 0.200571 0.254872 0.117637
O O2 0.259539 0.109216 0.245894
O O3 0.990035 0.201288 0.196814
O O4 0.000000 0.126918 0.000000
O O5 0.599947 0.500000 0.347323
O O6 0.627982 0.401698 0.181230
O O7 0.628952 0.329299 0.375853
O O8 0.339427 0.403008 0.192745
O O9 0.139422 0.500000 0.829088
O O10 0.037595 0.647916 0.712930
O O11 0.255227 0.646025 0.962887
O O12 0.423638 0.162727 0.667709
O O13 0.170058 0.229758 0.446136
O O14 0.169957 0.220643 0.669785
O O15 0.000000 0.389649 0.000000
O O16 0.500000 0.887391 0.500000
O O17 0.513915 0.000000 0.343205
#
# Coordination Sequence:
#
# PCOD8063580 Si02
#       7
#     4   4   4   4   4   4   4
#     4  11  21  39  62  90 122 157 199 249 306 367
#     4  10  21  35  54  82 117 162 204 247 300 353
#     4  10  20  34  52  81 119 160 210 248 291 357
#     4  10  21  38  64  85 120 160 200 256 289 372
#     4  11  20  33  53  81 112 157 195 253 292 348
#     4  11  23  42  69  95 121 156 198 248 309 371
#     4  10  20  38  58  88 118 161 203 241 311 348
#
# _framework density 19.415794000000002
#
# number of rings (size 3 to 8) (size 9 to 14) (size 15 to 20)
#    0.000    1.571    5.714    0.857    0.000    3.143 
#    0.000    5.714    0.000    2.143    0.000    0.000 
#    0.000    0.000    0.000    0.000    0.000    0.000 
#
# Total GULP energy -347006.560037 kJ/mol
# GULP energy per Si atom -12393.091430 kJ/mol
# Density = 1.937160 g / cm^3
# Si number density = 19.415794 Si / 1000 Ang^3
#
#
#
# Elastic Constant Matrix: (Units=GPa)
#
#
# Indices 1 2 3 4 5 6 
#
# 1 69.4323 40.6899 40.5196 0.0000 16.1158 0.0000
# 2 40.6899 101.5856 35.0468 0.0000 2.3646 0.0000
# 3 40.5196 35.0468 105.1680 0.0000 5.3364 0.0000
# 4 0.0000 0.0000 0.0000 18.9754 0.0000 1.3873
# 5 16.1158 2.3646 5.3364 0.0000 32.7222 0.0000
# 6 0.0000 0.0000 0.0000 1.3873 0.0000 14.2198
#
#
#
# Elastic Compliance Matrix: (Units=1/GPa)
#
#
# Indices 1 2 3 4 5 6 
#
# 1 0.025214 -0.007554 -0.006650 0.000000 -0.010788 0.000000
# 2 -0.007554 0.013387 -0.001705 0.000000 0.003031 0.000000
# 3 -0.006650 -0.001705 0.012570 0.000000 0.001348 0.000000
# 4 0.000000 0.000000 0.000000 0.053078 0.000000 -0.005178
# 5 -0.010788 0.003031 0.001348 0.000000 0.035434 0.000000
# 6 0.000000 0.000000 0.000000 -0.005178 0.000000 0.070830
#
#
# Mechanical properties :
#
#
# Convention : Reuss Voigt Hill
#
# Bulk Modulus (GPa) = 51.66731 56.52203 54.09467
# Shear Modulus (GPa) = 20.09782 23.84545 21.97163
#
# Velocity S-wave (km/s) = 3.22083 3.50829 3.36763
# Velocity P-wave (km/s) = 6.36399 6.75170 6.56071
#
# Compressibility (1/GPa) = 0.01935460
#
# Stress axis : x y z
#
# Youngs Moduli (GPa) = 39.66013 74.69797 79.55266
#
# Poissons Ratio (x) = 0.56428 0.52901
# Poissons Ratio (y) = 0.29960 0.13560
# Poissons Ratio (z) = 0.26373 0.12732
#
# Static dielectric constant tensor:
#      x y z
#    x 3.526980 0.000000 0.044190 
#    y 0.000000 3.415960 0.000000 
#    z 0.044190 0.000000 3.594670 
# 
# 
# High freq. dielectric constant tensor:
#      x y z
#    x 1.754830 0.000000 0.003280 
#    y 0.000000 1.736860 0.000000 
#    z 0.003280 0.000000 1.753650 
# 
# From -- ./inp_files/43054.got.cif
#   From: 2010.06.25/outbox.cif.g09.slc.cpg/sg10_22_cif.got.tgz:43054.got - 2010.06.27 22:07:45.
