data_PCOD8063764
_publ_section_title
;
Structure prediction by ZEFSAII (Michael W. Deem and Ramdas Pophale) SiO2 
 PCOD8063764
Probable space group: P 2/M
;
_chemical_formula_sum "Si O2"
_cell_formula_units_Z 32
_cell_length_a 11.981668
_cell_length_b 9.251145
_cell_length_c 14.792971
_cell_angle_alpha 90.000000
_cell_angle_beta 86.534599
_cell_angle_gamma 90.000000
_cell_volume 1636.716019
_symmetry_space_group_name_H-M "P 2/M"
_symmetry_group_IT_number 10
_symmetry_cell_setting 'monoclinic'
loop_
_space_group_symop_operation_xyz
x,y,z
-x,y,-z
-x,-y,-z
x,-y,z
loop_
_atom_site_type_symbol
_atom_site_label
_atom_site_fract_x
_atom_site_fract_y
_atom_site_fract_z
Si Si1 0.258354 0.831889 0.822172
Si Si2 0.633664 0.831588 0.670566
Si Si3 0.687518 0.337864 0.492129
Si Si4 0.981631 0.831346 0.230546
Si Si5 0.780005 0.831444 0.831855
Si Si6 0.934323 0.333051 0.415431
Si Si7 0.373076 0.171955 0.001823
Si Si8 0.584532 0.665941 0.311803
O O1 0.125098 0.802678 0.828607
O O2 0.308413 0.739143 0.738494
O O3 0.284634 0.000000 0.803647
O O4 0.312706 0.778377 0.912853
O O5 0.669662 0.778224 0.570574
O O6 0.733225 0.798106 0.734630
O O7 0.525928 0.748965 0.714221
O O8 0.604492 0.000000 0.666832
O O9 0.684114 0.500000 0.534043
O O10 0.803775 0.308266 0.437009
O O11 0.592555 0.321667 0.420199
O O12 0.973091 0.754218 0.326759
O O13 0.092107 0.773549 0.172176
O O14 0.995258 0.000000 0.251714
O O15 0.700857 0.760486 0.912669
O O16 0.779963 0.000000 0.852756
O O17 0.963375 0.500000 0.396605
O O18 0.000000 0.275067 0.500000
O O19 0.377869 0.000000 0.008292
O O20 0.500000 0.233745 0.000000
O O21 0.578157 0.500000 0.281284
#
# Coordination Sequence:
#
# PCOD8063764 Si02
#       8
#     4   4   4   4   4   4   4   4
#     4  10  20  34  57  86 110 142 189 233 274 329
#     4  11  22  35  55  81 109 143 186 232 276 327
#     4  10  21  36  52  76 108 145 185 223 275 333
#     4  10  20  34  54  82 114 143 181 232 279 325
#     4   9  19  35  54  81 115 146 177 223 284 334
#     4  10  20  35  55  77 106 149 195 229 265 327
#     4   9  17  32  56  83 112 146 183 226 277 333
#     4  11  22  37  56  77 110 150 183 225 282 335
#
# _framework density 19.551345000000001
#
# number of rings (size 3 to 8) (size 9 to 14) (size 15 to 20)
#    0.000    2.000    1.250    2.625    0.000    5.750 
#    0.000    3.125    0.000    4.875    0.000    1.750 
#    0.000    0.000    0.000    0.000    0.000    0.000 
#
# Total GULP energy -396824.130761 kJ/mol
# GULP energy per Si atom -12400.754086 kJ/mol
# Density = 1.950685 g / cm^3
# Si number density = 19.551345 Si / 1000 Ang^3
#
#
#
# Elastic Constant Matrix: (Units=GPa)
#
#
# Indices 1 2 3 4 5 6 
#
# 1 144.1366 42.2774 61.2671 0.0000 0.0431 0.0000
# 2 42.2774 63.3226 39.2653 0.0000 -0.1957 0.0000
# 3 61.2671 39.2653 106.7215 0.0000 -2.8832 0.0000
# 4 0.0000 0.0000 0.0000 1.9615 0.0000 5.4877
# 5 0.0431 -0.1957 -2.8832 0.0000 31.8809 0.0000
# 6 0.0000 0.0000 0.0000 5.4877 0.0000 19.3884
#
#
#
# Elastic Compliance Matrix: (Units=1/GPa)
#
#
# Indices 1 2 3 4 5 6 
#
# 1 0.009907 -0.003993 -0.004230 0.000000 -0.000420 0.000000
# 2 -0.003993 0.022079 -0.005842 0.000000 -0.000387 0.000000
# 3 -0.004230 -0.005842 0.013981 0.000000 0.001234 0.000000
# 4 0.000000 0.000000 0.000000 2.449712 0.000000 -0.693368
# 5 -0.000420 -0.000387 0.001234 0.000000 0.031477 0.000000
# 6 0.000000 0.000000 0.000000 -0.693368 0.000000 0.247828
#
#
# Mechanical properties :
#
#
# Convention : Reuss Voigt Hill
#
# Bulk Modulus (GPa) = 56.05815 66.64446 61.35130
# Shear Modulus (GPa) = 1.77996 22.07089 11.92542
#
# Velocity S-wave (km/s) = 0.95518 3.36351 2.47240
# Velocity P-wave (km/s) = 5.47275 7.01749 6.29270
#
# Compressibility (1/GPa) = 0.01783862
#
# Stress axis : x y z
#
# Youngs Moduli (GPa) = 100.93767 45.29164 71.52555
#
# Poissons Ratio (x) = 0.18085 0.30254
# Poissons Ratio (y) = 0.40304 0.41782
# Poissons Ratio (z) = 0.42694 0.26457
#
# Static dielectric constant tensor:
#      x y z
#    x 3.893520 0.000000 -0.016980 
#    y 0.000000 3.272930 0.000000 
#    z -0.016980 0.000000 3.494670 
# 
# 
# High freq. dielectric constant tensor:
#      x y z
#    x 1.782190 0.000000 0.001360 
#    y 0.000000 1.728240 0.000000 
#    z 0.001360 0.000000 1.757530 
# 
# From -- ./inp_files/49954.got.cif
#   From: 2010.06.25/outbox.cif.g09.slc.cpg/sg10_25_cif.got.tgz:49954.got - 2010.06.27 22:07:45.
