data_PCOD8063225
_publ_section_title
;
Structure prediction by ZEFSAII (Michael W. Deem and Ramdas Pophale) SiO2 
 PCOD8063225
Probable space group: P 2/M
;
_chemical_formula_sum "Si O2"
_cell_formula_units_Z 28
_cell_length_a 9.497582
_cell_length_b 8.994328
_cell_length_c 26.252713
_cell_angle_alpha 90.000000
_cell_angle_beta 39.960061
_cell_angle_gamma 90.000000
_cell_volume 1440.331380
_symmetry_space_group_name_H-M "P 2/M"
_symmetry_group_IT_number 10
_symmetry_cell_setting 'monoclinic'
loop_
_space_group_symop_operation_xyz
x,y,z
-x,y,-z
-x,-y,-z
x,-y,z
loop_
_atom_site_type_symbol
_atom_site_label
_atom_site_fract_x
_atom_site_fract_y
_atom_site_fract_z
Si Si1 0.060218 0.175034 0.426192
Si Si2 0.169414 0.824765 0.228802
Si Si3 0.273251 0.175087 0.085308
Si Si4 0.394928 0.676020 0.261345
Si Si5 0.349739 0.330243 0.493704
Si Si6 0.250840 0.670019 0.680958
Si Si7 0.852482 0.329973 0.175396
O O1 0.274008 0.255000 0.344178
O O2 0.000000 0.229481 0.500000
O O3 0.855805 0.220104 0.447326
O O4 0.100068 0.000000 0.412960
O O5 0.255384 0.774892 0.149168
O O6 0.314335 0.744154 0.230842
O O7 0.917445 0.773466 0.303721
O O8 0.186080 0.000000 0.232778
O O9 0.073268 0.235487 0.106058
O O10 0.264844 0.000000 0.083028
O O11 0.500000 0.238997 0.000000
O O12 0.355951 0.500000 0.273091
O O13 0.655020 0.714024 0.192176
O O14 0.500000 0.298237 0.500000
O O15 0.263690 0.500000 0.516984
O O16 0.499400 0.293846 0.403208
O O17 0.192322 0.500000 0.683064
O O18 0.239739 0.702664 0.743248
O O19 0.920538 0.500000 0.149254
#
# Coordination Sequence:
#
# PCOD8063225 Si02
#       7
#     4   4   4   4   4   4   4
#     4  11  24  38  53  77 108 142 182 228 275 319
#     4  10  20  34  55  82 110 141 177 219 267 316
#     4   9  19  37  60  85 112 142 175 211 258 319
#     4  11  22  37  56  78 108 144 182 222 266 320
#     4  10  20  33  51  75 102 137 180 224 271 319
#     4   9  17  32  52  74 102 136 178 223 266 317
#     4   9  19  34  54  79 104 137 179 219 260 308
#
# _framework density 19.439971
#
# number of rings (size 3 to 8) (size 9 to 14) (size 15 to 20)
#    0.000    2.143    0.000    3.000    0.000    6.286 
#    0.000    3.571    0.000    4.286    0.000    0.000 
#    0.000    0.000    0.000    0.000    0.000    0.000 
#
# Total GULP energy -347194.882561 kJ/mol
# GULP energy per Si atom -12399.817234 kJ/mol
# Density = 1.939572 g / cm^3
# Si number density = 19.439971 Si / 1000 Ang^3
#
#
#
# Elastic Constant Matrix: (Units=GPa)
#
#
# Indices 1 2 3 4 5 6 
#
# 1 96.8380 40.8546 27.1615 0.0000 -16.1098 0.0000
# 2 40.8546 66.2586 23.9768 0.0000 -6.8660 0.0000
# 3 27.1615 23.9768 62.7673 0.0000 -15.4939 0.0000
# 4 0.0000 0.0000 0.0000 26.6967 0.0000 -3.3182
# 5 -16.1098 -6.8660 -15.4939 0.0000 26.6579 0.0000
# 6 0.0000 0.0000 0.0000 -3.3182 0.0000 17.2875
#
#
#
# Elastic Compliance Matrix: (Units=1/GPa)
#
#
# Indices 1 2 3 4 5 6 
#
# 1 0.015304 -0.008070 -0.002066 0.000000 0.005969 0.000000
# 2 -0.008070 0.021781 -0.005425 0.000000 -0.002420 0.000000
# 3 -0.002066 -0.005425 0.021302 0.000000 0.009735 0.000000
# 4 0.000000 0.000000 0.000000 0.038373 0.000000 0.007365
# 5 0.005969 -0.002420 0.009735 0.000000 0.046154 0.000000
# 6 0.000000 0.000000 0.000000 0.007365 0.000000 0.059259
#
#
# Mechanical properties :
#
#
# Convention : Reuss Voigt Hill
#
# Bulk Modulus (GPa) = 36.68052 45.53889 41.10971
# Shear Modulus (GPa) = 20.62851 23.05314 21.84083
#
# Velocity S-wave (km/s) = 3.26105 3.44737 3.35550
# Velocity P-wave (km/s) = 5.75229 6.27073 6.01710
#
# Compressibility (1/GPa) = 0.02726242
#
# Stress axis : x y z
#
# Youngs Moduli (GPa) = 65.34403 45.91221 46.94502
#
# Poissons Ratio (x) = 0.37050 0.09701
# Poissons Ratio (y) = 0.52732 0.25470
# Poissons Ratio (z) = 0.13503 0.24910
#
# Static dielectric constant tensor:
#      x y z
#    x 3.608920 0.000000 -0.103350 
#    y 0.000000 3.467110 0.000000 
#    z -0.103350 0.000000 3.767450 
# 
# 
# High freq. dielectric constant tensor:
#      x y z
#    x 1.759680 0.000000 -0.008210 
#    y 0.000000 1.752120 0.000000 
#    z -0.008210 0.000000 1.747420 
# 
# From -- ./inp_files/37223.got.cif
#   From: 2010.06.25/outbox.cif.g09.slc.cpg/sg10_19_cif.got.tgz:37223.got - 2010.06.27 22:07:45.
