data_PCOD8063670
_publ_section_title
;
Structure prediction by ZEFSAII (Michael W. Deem and Ramdas Pophale) SiO2 
 PCOD8063670
Probable space group: P 2/M
;
_chemical_formula_sum "Si O2"
_cell_formula_units_Z 32
_cell_length_a 22.951959
_cell_length_b 8.673101
_cell_length_c 15.141402
_cell_angle_alpha 90.000000
_cell_angle_beta 147.685338
_cell_angle_gamma 90.000000
_cell_volume 1611.252954
_symmetry_space_group_name_H-M "P 2/M"
_symmetry_group_IT_number 10
_symmetry_cell_setting 'monoclinic'
loop_
_space_group_symop_operation_xyz
x,y,z
-x,y,-z
-x,-y,-z
x,-y,z
loop_
_atom_site_type_symbol
_atom_site_label
_atom_site_fract_x
_atom_site_fract_y
_atom_site_fract_z
Si Si1 0.189090 0.671570 0.186043
Si Si2 0.134151 0.182212 0.934248
Si Si3 0.562956 0.670269 0.496353
Si Si4 0.711481 0.818292 0.023324
Si Si5 0.909204 0.323614 0.606317
Si Si6 0.119805 0.323473 0.630988
Si Si7 0.234416 0.181992 0.429003
Si Si8 0.527413 0.825063 0.279873
O O1 0.136387 0.500000 0.122293
O O2 0.312958 0.660028 0.316745
O O3 0.178732 0.747750 0.269693
O O4 0.134587 0.769768 0.037774
O O5 0.239022 0.234491 0.008895
O O6 0.032341 0.264785 0.757891
O O7 0.118271 0.000000 0.908887
O O8 0.500000 0.725213 0.500000
O O9 0.524965 0.500000 0.412923
O O10 0.540532 0.809206 0.401324
O O11 0.790723 0.775924 0.204236
O O12 0.695870 0.000000 0.999870
O O13 0.590740 0.745520 0.891658
O O14 0.906876 0.500000 0.635977
O O15 0.855936 0.308140 0.441686
O O16 0.840575 0.218824 0.584505
O O17 0.128276 0.500000 0.674090
O O18 0.000000 0.258315 0.500000
O O19 0.357717 0.249469 0.608406
O O20 0.242919 0.000000 0.425026
O O21 0.523600 0.000000 0.243000
#
# Coordination Sequence:
#
# PCOD8063670 Si02
#       8
#     4   4   4   4   4   4   4   4
#     4  10  20  34  53  79 113 152 192 232 277 328
#     4  11  22  35  55  86 118 148 188 233 281 335
#     4   9  17  29  47  74 107 145 188 230 273 324
#     4  10  21  36  58  88 119 148 184 230 281 337
#     4  11  23  40  61  83 111 146 187 234 284 338
#     4  10  21  39  61  86 114 145 182 227 285 342
#     4  10  21  39  60  81 112 152 194 234 275 326
#     4   9  19  35  54  79 111 148 185 226 275 326
#
# _framework density 19.860319
#
# number of rings (size 3 to 8) (size 9 to 14) (size 15 to 20)
#    0.000    2.000    1.250    2.250    0.000    4.000 
#    0.000    3.125    0.000    3.750    0.000    0.000 
#    0.000    0.000    0.000    0.000    0.000    0.000 
#
# Total GULP energy -396482.590563 kJ/mol
# GULP energy per Si atom -12390.080955 kJ/mol
# Density = 1.981512 g / cm^3
# Si number density = 19.860319 Si / 1000 Ang^3
#
#
#
# Elastic Constant Matrix: (Units=GPa)
#
#
# Indices 1 2 3 4 5 6 
#
# 1 76.0757 14.2395 17.7182 0.0000 -6.4347 0.0000
# 2 14.2395 39.6593 13.0730 0.0000 -3.2775 0.0000
# 3 17.7182 13.0730 86.9002 0.0000 0.6750 0.0000
# 4 0.0000 0.0000 0.0000 27.7659 0.0000 -6.2640
# 5 -6.4347 -3.2775 0.6750 0.0000 23.5101 0.0000
# 6 0.0000 0.0000 0.0000 -6.2640 0.0000 23.4542
#
#
#
# Elastic Compliance Matrix: (Units=1/GPa)
#
#
# Indices 1 2 3 4 5 6 
#
# 1 0.014795 -0.004227 -0.002408 0.000000 0.003529 0.000000
# 2 -0.004227 0.028084 -0.003385 0.000000 0.002856 0.000000
# 3 -0.002408 -0.003385 0.012519 0.000000 -0.001491 0.000000
# 4 0.000000 0.000000 0.000000 0.038325 0.000000 0.010236
# 5 0.003529 0.002856 -0.001491 0.000000 0.043942 0.000000
# 6 0.000000 0.000000 0.000000 0.010236 0.000000 0.045370
#
#
# Mechanical properties :
#
#
# Convention : Reuss Voigt Hill
#
# Bulk Modulus (GPa) = 28.28176 32.52183 30.40180
# Shear Modulus (GPa) = 23.27077 25.45300 24.36188
#
# Velocity S-wave (km/s) = 3.42676 3.58383 3.50617
# Velocity P-wave (km/s) = 5.47066 5.79102 5.63312
#
# Compressibility (1/GPa) = 0.03535848
#
# Stress axis : x y z
#
# Youngs Moduli (GPa) = 67.58884 35.60717 79.87662
#
# Poissons Ratio (x) = 0.15050 0.19236
# Poissons Ratio (y) = 0.28568 0.27041
# Poissons Ratio (z) = 0.16277 0.12054
#
# Static dielectric constant tensor:
#      x y z
#    x 3.548150 0.000000 0.227160 
#    y 0.000000 3.565010 0.000000 
#    z 0.227160 0.000000 3.666190 
# 
# 
# High freq. dielectric constant tensor:
#      x y z
#    x 1.771280 0.000000 0.012010 
#    y 0.000000 1.766280 0.000000 
#    z 0.012010 0.000000 1.770230 
# 
# From -- ./inp_files/71433.got.cif
#   From: 2010.06.25/outbox.cif.g09.slc.cpg/sg10_36_cif.got.tgz:71433.got - 2010.06.27 22:07:45.
