data_PCOD8063642
_publ_section_title
;
Structure prediction by ZEFSAII (Michael W. Deem and Ramdas Pophale) SiO2 
 PCOD8063642
Probable space group: P 2/M
;
_chemical_formula_sum "Si O2"
_cell_formula_units_Z 24
_cell_length_a 12.432733
_cell_length_b 8.977089
_cell_length_c 23.718807
_cell_angle_alpha 90.000000
_cell_angle_beta 26.942648
_cell_angle_gamma 90.000000
_cell_volume 1199.464778
_symmetry_space_group_name_H-M "P 2/M"
_symmetry_group_IT_number 10
_symmetry_cell_setting 'monoclinic'
loop_
_space_group_symop_operation_xyz
x,y,z
-x,y,-z
-x,-y,-z
x,-y,z
loop_
_atom_site_type_symbol
_atom_site_label
_atom_site_fract_x
_atom_site_fract_y
_atom_site_fract_z
Si Si1 0.726245 0.665609 0.854884
Si Si2 0.316613 0.826494 0.314998
Si Si3 0.505892 0.324307 0.431960
Si Si4 0.183316 0.823505 0.496430
Si Si5 0.017392 0.823796 0.808959
Si Si6 0.580149 0.173504 0.086991
O O1 0.828794 0.500000 0.794961
O O2 0.927828 0.763981 0.790465
O O3 0.642894 0.743240 0.836677
O O4 0.500000 0.654967 0.000000
O O5 0.341886 0.770816 0.367679
O O6 0.552522 0.792388 0.167070
O O7 0.082531 0.765957 0.392388
O O8 0.268974 0.000000 0.342327
O O9 0.500000 0.275793 0.500000
O O10 0.523595 0.500000 0.417082
O O11 0.271456 0.263448 0.510608
O O12 0.730649 0.249851 0.295599
O O13 0.201730 0.000000 0.499478
O O14 0.044956 0.000000 0.793153
O O15 0.835290 0.774271 0.944045
O O16 0.546965 0.000000 0.088834
#
# Coordination Sequence:
#
# PCOD8063642 Si02
#       6
#     4   4   4   4   4   4
#     4   9  17  29  46  72 109 146 176 214 264 314
#     4   8  16  33  59  87 112 137 173 226 272 313
#     4  11  25  41  55  75 109 146 182 225 274 327
#     4   9  18  36  60  84 109 141 182 221 265 320
#     4  10  20  34  53  77 106 142 185 225 265 321
#     4   9  17  31  53  82 110 139 179 224 269 317
#
# _framework density 20.008921999999998
#
# number of rings (size 3 to 8) (size 9 to 14) (size 15 to 20)
#    0.000    2.667    0.000    2.500    2.333    4.000 
#    0.000    3.333    0.000    5.000    0.000    0.000 
#    0.000    0.000    0.000    0.000    0.000    0.000 
#
# Total GULP energy -297443.086082 kJ/mol
# GULP energy per Si atom -12393.461920 kJ/mol
# Density = 1.996338 g / cm^3
# Si number density = 20.008922 Si / 1000 Ang^3
#
#
#
# Elastic Constant Matrix: (Units=GPa)
#
#
# Indices 1 2 3 4 5 6 
#
# 1 94.4066 28.0540 26.9252 0.0000 8.5546 0.0000
# 2 28.0540 61.8891 22.6942 0.0000 3.8895 0.0000
# 3 26.9252 22.6942 74.9741 0.0000 12.9230 0.0000
# 4 0.0000 0.0000 0.0000 14.0308 0.0000 2.6697
# 5 8.5546 3.8895 12.9230 0.0000 31.4448 0.0000
# 6 0.0000 0.0000 0.0000 2.6697 0.0000 14.0683
#
#
#
# Elastic Compliance Matrix: (Units=1/GPa)
#
#
# Indices 1 2 3 4 5 6 
#
# 1 0.012985 -0.004698 -0.002941 0.000000 -0.001743 0.000000
# 2 -0.004698 0.019875 -0.004440 0.000000 0.000644 0.000000
# 3 -0.002941 -0.004440 0.016688 0.000000 -0.005509 0.000000
# 4 0.000000 0.000000 0.000000 0.073942 0.000000 -0.014032
# 5 -0.001743 0.000644 -0.005509 0.000000 0.034460 0.000000
# 6 0.000000 0.000000 0.000000 -0.014032 0.000000 0.073744
#
#
# Mechanical properties :
#
#
# Convention : Reuss Voigt Hill
#
# Bulk Modulus (GPa) = 39.38545 42.95741 41.17143
# Shear Modulus (GPa) = 18.91678 22.14854 20.53266
#
# Velocity S-wave (km/s) = 3.07810 3.33067 3.20687
# Velocity P-wave (km/s) = 5.68855 6.02552 5.85946
#
# Compressibility (1/GPa) = 0.02539009
#
# Stress axis : x y z
#
# Youngs Moduli (GPa) = 77.01013 50.31398 59.92500
#
# Poissons Ratio (x) = 0.23639 0.17623
# Poissons Ratio (y) = 0.36181 0.26606
# Poissons Ratio (z) = 0.22647 0.22339
#
# Static dielectric constant tensor:
#      x y z
#    x 3.599950 0.000000 0.199280 
#    y 0.000000 3.485900 0.000000 
#    z 0.199280 0.000000 3.708310 
# 
# 
# High freq. dielectric constant tensor:
#      x y z
#    x 1.762110 0.000000 0.014940 
#    y 0.000000 1.759720 0.000000 
#    z 0.014940 0.000000 1.783620 
# 
# From -- ./inp_files/56516.got.cif
#   From: 2010.06.25/outbox.cif.g09.slc.cpg/sg10_29_cif.got.tgz:56516.got - 2010.06.27 22:07:45.
