data_PCOD8063072
_publ_section_title
;
Structure prediction by ZEFSAII (Michael W. Deem and Ramdas Pophale) SiO2 
 PCOD8063072
Probable space group: P 2/M
;
_chemical_formula_sum "Si O2"
_cell_formula_units_Z 32
_cell_length_a 20.736333
_cell_length_b 10.585463
_cell_length_c 21.592202
_cell_angle_alpha 90.000000
_cell_angle_beta 20.494730
_cell_angle_gamma 90.000000
_cell_volume 1659.423330
_symmetry_space_group_name_H-M "P 2/M"
_symmetry_group_IT_number 10
_symmetry_cell_setting 'monoclinic'
loop_
_space_group_symop_operation_xyz
x,y,z
-x,y,-z
-x,-y,-z
x,-y,z
loop_
_atom_site_type_symbol
_atom_site_label
_atom_site_fract_x
_atom_site_fract_y
_atom_site_fract_z
Si Si1 0.700392 0.147261 0.139027
Si Si2 0.886215 0.851936 0.543395
Si Si3 0.094150 0.852928 0.735845
Si Si4 0.705673 0.364263 0.938974
Si Si5 0.487250 0.360860 0.258816
Si Si6 0.460341 0.853520 0.468758
Si Si7 0.519448 0.137022 0.054075
Si Si8 0.085766 0.271032 0.613549
O O1 0.563941 0.240139 0.225801
O O2 0.643778 0.163202 0.261798
O O3 0.670132 0.000000 0.145293
O O4 0.909878 0.192238 0.938141
O O5 0.672245 0.819076 0.744050
O O6 0.946116 0.795315 0.423925
O O7 0.000000 0.795179 0.500000
O O8 0.924388 0.000000 0.506191
O O9 0.277774 0.790187 0.601438
O O10 0.084440 0.826999 0.671570
O O11 0.112510 0.000000 0.727812
O O12 0.676174 0.500000 0.931394
O O13 0.912252 0.362662 0.779712
O O14 0.561395 0.351855 0.123413
O O15 0.673108 0.244364 0.924203
O O16 0.538369 0.500000 0.241553
O O17 0.267825 0.354246 0.452383
O O18 0.500000 0.789583 0.500000
O O19 0.416810 0.000000 0.518142
O O20 0.579982 0.000000 0.028500
O O21 0.500000 0.114845 0.000000
#
# Coordination Sequence:
#
# PCOD8063072 Si02
#       8
#     4   4   4   4   4   4   4   4
#     4  10  20  36  58  87 120 153 195 238 283 341
#     4  10  21  36  56  86 119 151 189 240 297 347
#     4  10  20  32  54  89 119 151 195 239 289 342
#     4  11  24  40  58  84 116 149 190 239 295 351
#     4  11  23  39  58  84 117 152 193 242 291 343
#     4   9  18  33  55  86 125 159 189 234 288 340
#     4  10  21  39  61  84 112 149 193 239 292 352
#     4  12  21  37  60  83 112 154 196 243 285 353
#
# _framework density 19.283806999999999
#
# number of rings (size 3 to 8) (size 9 to 14) (size 15 to 20)
#    0.000    1.625    3.750    1.500    0.000    3.750 
#    0.000    2.500    0.000    2.250    0.000    0.875 
#    0.000    0.000    0.000    0.000    0.000    0.000 
#
# Total GULP energy -396534.146823 kJ/mol
# GULP energy per Si atom -12391.692088 kJ/mol
# Density = 1.923992 g / cm^3
# Si number density = 19.283807 Si / 1000 Ang^3
#
#
#
# Elastic Constant Matrix: (Units=GPa)
#
#
# Indices 1 2 3 4 5 6 
#
# 1 112.3400 33.8539 43.2632 0.0000 3.5266 0.0000
# 2 33.8539 70.7848 30.4518 0.0000 -7.6750 0.0000
# 3 43.2632 30.4518 129.4211 0.0000 -3.8034 0.0000
# 4 0.0000 0.0000 0.0000 -2.6054 0.0000 1.8279
# 5 3.5266 -7.6750 -3.8034 0.0000 26.0118 0.0000
# 6 0.0000 0.0000 0.0000 1.8279 0.0000 4.4293
#
#
#
# Elastic Compliance Matrix: (Units=1/GPa)
#
#
# Indices 1 2 3 4 5 6 
#
# 1 0.011502 -0.004637 -0.002852 0.000000 -0.003345 0.000000
# 2 -0.004637 0.018039 -0.002530 0.000000 0.005581 0.000000
# 3 -0.002852 -0.002530 0.009305 0.000000 0.001001 0.000000
# 4 0.000000 0.000000 0.000000 -0.297640 0.000000 0.122833
# 5 -0.003345 0.005581 0.001001 0.000000 0.040691 0.000000
# 6 0.000000 0.000000 0.000000 0.122833 0.000000 0.175075
#
#
# Mechanical properties :
#
#
# Convention : Reuss Voigt Hill
#
# Bulk Modulus (GPa) = 53.17143 58.63151 55.90147
# Shear Modulus (GPa) = -299.03343 19.23228 -139.90058
#
# Velocity S-wave (km/s) = -12.46621 3.16148 -8.52676
# Velocity P-wave (km/s) = 13.40058 6.61794 8.23949
#
# Compressibility (1/GPa) = 0.01880709
#
# Stress axis : x y z
#
# Youngs Moduli (GPa) = 86.93924 55.43662 107.46937
#
# Poissons Ratio (x) = 0.25704 0.30654
# Poissons Ratio (y) = 0.40311 0.27194
# Poissons Ratio (z) = 0.24798 0.14027
#
# Static dielectric constant tensor:
#      x y z
#    x 3.514080 0.000000 -0.170100 
#    y 0.000000 3.491350 0.000000 
#    z -0.170100 0.000000 4.339370 
# 
# 
# High freq. dielectric constant tensor:
#      x y z
#    x 1.728450 0.000000 0.000950 
#    y 0.000000 1.724050 0.000000 
#    z 0.000950 0.000000 1.776600 
# 
# From -- ./inp_files/86263.got.cif
#   From: 2010.06.25/outbox.cif.g09.slc.cpg/sg10_44_cif.got.tgz:86263.got - 2010.06.27 22:07:45.
