data_PCOD8063790
_publ_section_title
;
Structure prediction by ZEFSAII (Michael W. Deem and Ramdas Pophale) SiO2 
 PCOD8063790
Probable space group: P 2/M
;
_chemical_formula_sum "Si O2"
_cell_formula_units_Z 28
_cell_length_a 26.083122
_cell_length_b 13.114807
_cell_length_c 23.922015
_cell_angle_alpha 90.000000
_cell_angle_beta 10.705691
_cell_angle_gamma 90.000000
_cell_volume 1520.131959
_symmetry_space_group_name_H-M "P 2/M"
_symmetry_group_IT_number 10
_symmetry_cell_setting 'monoclinic'
loop_
_space_group_symop_operation_xyz
x,y,z
-x,y,-z
-x,-y,-z
x,-y,z
loop_
_atom_site_type_symbol
_atom_site_label
_atom_site_fract_x
_atom_site_fract_y
_atom_site_fract_z
Si Si1 0.446246 0.383869 0.676434
Si Si2 0.021868 0.761813 0.165642
Si Si3 0.691674 0.216275 0.347773
Si Si4 0.425484 0.378187 0.141226
Si Si5 0.413359 0.615627 0.343362
Si Si6 0.823738 0.379767 0.809758
Si Si7 0.548221 0.882486 0.612324
O O1 0.402813 0.500000 0.703834
O O2 0.678029 0.330008 0.389830
O O3 0.526658 0.374710 0.655259
O O4 0.163896 0.318990 0.970009
O O5 0.838496 0.691112 0.403706
O O6 0.821356 0.839783 0.349129
O O7 0.267967 0.824213 0.932993
O O8 0.500000 0.207494 0.500000
O O9 0.582864 0.132940 0.508844
O O10 0.000000 0.190519 0.000000
O O11 0.422845 0.500000 0.143947
O O12 0.130018 0.333806 0.477535
O O13 0.500000 0.336482 0.000000
O O14 0.647003 0.334859 0.947686
O O15 0.324486 0.500000 0.422753
O O16 0.682657 0.648917 0.019972
O O17 0.841218 0.500000 0.784239
O O18 0.515961 0.000000 0.662280
#
# Coordination Sequence:
#
# PCOD8063790 Si02
#       7
#     4   4   4   4   4   4   4
#     4  10  22  38  57  78 107 143 172 210 265 313
#     4  11  20  39  57  81 107 131 169 213 261 321
#     4  11  23  39  57  79 107 129 169 217 255 318
#     4   9  16  27  40  58  92 135 178 223 256 278
#     4  10  20  34  55  79 108 140 177 221 261 302
#     4   9  18  27  42  68  93 128 180 221 249 290
#     4  11  24  41  62  80  99 130 169 214 268 323
#
# _framework density 18.419454000000002
#
# number of rings (size 3 to 8) (size 9 to 14) (size 15 to 20)
#    0.000    1.857    2.857    3.000    2.000    2.857 
#    0.000    0.000    0.000    0.000    0.000    0.000 
#    0.000    0.000    0.000    0.000    0.000   50.000 
#
# Total GULP energy -347030.726855 kJ/mol
# GULP energy per Si atom -12393.954531 kJ/mol
# Density = 1.837753 g / cm^3
# Si number density = 18.419454 Si / 1000 Ang^3
#
#
#
# Elastic Constant Matrix: (Units=GPa)
#
#
# Indices 1 2 3 4 5 6 
#
# 1 38.1146 -8.9241 12.4621 0.0000 -6.7445 0.0000
# 2 -8.9241 88.8704 24.3730 0.0000 -6.0184 0.0000
# 3 12.4621 24.3730 115.9968 0.0000 -5.1006 0.0000
# 4 0.0000 0.0000 0.0000 23.2945 0.0000 -5.3472
# 5 -6.7445 -6.0184 -5.1006 0.0000 30.7040 0.0000
# 6 0.0000 0.0000 0.0000 -5.3472 0.0000 7.3183
#
#
#
# Elastic Compliance Matrix: (Units=1/GPa)
#
#
# Indices 1 2 3 4 5 6 
#
# 1 0.029746 0.004500 -0.003843 0.000000 0.006778 0.000000
# 2 0.004500 0.012737 -0.003029 0.000000 0.002982 0.000000
# 3 -0.003843 -0.003029 0.009678 0.000000 0.000170 0.000000
# 4 0.000000 0.000000 0.000000 0.051580 0.000000 0.037687
# 5 0.006778 0.002982 0.000170 0.000000 0.034671 0.000000
# 6 0.000000 0.000000 0.000000 0.037687 0.000000 0.164181
#
#
# Mechanical properties :
#
#
# Convention : Reuss Voigt Hill
#
# Bulk Modulus (GPa) = 21.08944 33.20042 27.14493
# Shear Modulus (GPa) = 15.47313 26.60143 21.03728
#
# Velocity S-wave (km/s) = 2.90149 3.80439 3.38320
# Velocity P-wave (km/s) = 4.76438 6.11242 5.48001
#
# Compressibility (1/GPa) = 0.04741709
#
# Stress axis : x y z
#
# Youngs Moduli (GPa) = 33.61766 78.51295 103.33092
#
# Poissons Ratio (x) = -0.35331 0.39713
# Poissons Ratio (y) = -0.15128 0.31294
# Poissons Ratio (z) = 0.12920 0.23778
#
# Static dielectric constant tensor:
#      x y z
#    x 3.269670 0.000000 -0.056800 
#    y 0.000000 3.174830 0.000000 
#    z -0.056800 0.000000 3.707930 
# 
# 
# High freq. dielectric constant tensor:
#      x y z
#    x 1.697660 0.000000 -0.013420 
#    y 0.000000 1.662210 0.000000 
#    z -0.013420 0.000000 1.732670 
# 
# From -- ./inp_files/91265.got.cif
#   From: 2010.06.25/outbox.cif.g09.slc.cpg/sg10_46_cif.got.tgz:91265.got - 2010.06.27 22:07:45.
