data_PCOD8063546
_publ_section_title
;
Structure prediction by ZEFSAII (Michael W. Deem and Ramdas Pophale) SiO2 
 PCOD8063546
Probable space group: P 2/M
;
_chemical_formula_sum "Si O2"
_cell_formula_units_Z 32
_cell_length_a 17.126787
_cell_length_b 11.149302
_cell_length_c 20.038225
_cell_angle_alpha 90.000000
_cell_angle_beta 154.702465
_cell_angle_gamma 90.000000
_cell_volume 1635.064897
_symmetry_space_group_name_H-M "P 2/M"
_symmetry_group_IT_number 10
_symmetry_cell_setting 'monoclinic'
loop_
_space_group_symop_operation_xyz
x,y,z
-x,y,-z
-x,-y,-z
x,-y,z
loop_
_atom_site_type_symbol
_atom_site_label
_atom_site_fract_x
_atom_site_fract_y
_atom_site_fract_z
Si Si1 0.162174 0.132966 0.946661
Si Si2 0.618237 0.636285 0.656892
Si Si3 0.146275 0.134878 0.561926
Si Si4 0.646276 0.365122 0.061926
Si Si5 0.993962 0.787593 0.308513
Si Si6 0.337824 0.367034 0.553338
Si Si7 0.118238 0.136285 0.156892
Si Si8 0.493963 0.287593 0.808514
O O1 0.088770 0.131996 0.814123
O O2 0.003699 0.174092 0.874138
O O3 0.225966 0.000000 0.014617
O O4 0.338482 0.214445 0.093296
O O5 0.500000 0.627283 0.500000
O O6 0.705507 0.500000 0.735491
O O7 0.496299 0.674093 0.625860
O O8 0.750000 0.750000 0.750000
O O9 0.336971 0.202416 0.715981
O O10 0.000000 0.193755 0.500000
O O11 0.068078 0.132874 0.426395
O O12 0.186289 0.000000 0.615684
O O13 0.686296 0.500000 0.115688
O O14 0.568077 0.367127 0.926394
O O15 0.500000 0.306248 0.000000
O O16 0.836967 0.297580 0.215977
O O17 0.161514 0.714443 0.406701
O O18 0.274035 0.500000 0.485384
O O19 0.411227 0.368002 0.685876
O O20 0.205509 0.000000 0.235492
O O21 0.000000 0.127283 0.000000
#
# Coordination Sequence:
#
# PCOD8063546 Si02
#       8
#     4   4   4   4   4   4   4   4
#     4  10  20  35  54  76 104 136 172 214 258 307
#     4  10  21  37  56  80 109 141 178 220 266 317
#     4  10  20  34  52  75 103 134 169 210 255 304
#     4  10  20  34  52  75 103 134 169 210 255 304
#     4  10  20  34  53  76 102 134 172 210 256 305
#     4  10  20  35  54  76 104 136 172 214 258 307
#     4  10  21  37  56  80 109 141 178 220 266 317
#     4  10  20  34  53  76 102 134 172 210 256 305
#
# _framework density 19.571089000000001
#
# number of rings (size 3 to 8) (size 9 to 14) (size 15 to 20)
#    0.000    2.000    0.000    3.750    0.000    0.500 
#    0.000    6.250    0.000   12.000    0.000    0.000 
#    0.000    0.000    0.000    0.000    0.000    0.000 
#
# Total GULP energy -396640.872946 kJ/mol
# GULP energy per Si atom -12395.027280 kJ/mol
# Density = 1.952654 g / cm^3
# Si number density = 19.571089 Si / 1000 Ang^3
#
#
#
# Elastic Constant Matrix: (Units=GPa)
#
#
# Indices 1 2 3 4 5 6 
#
# 1 107.6845 38.9628 11.8427 0.0000 24.8245 0.0000
# 2 38.9628 102.9127 26.8725 0.0000 31.8044 0.0000
# 3 11.8427 26.8725 56.3040 0.0000 14.1873 0.0000
# 4 0.0000 0.0000 0.0000 -81.6627 0.0000 -84.9473
# 5 24.8245 31.8044 14.1873 0.0000 36.2329 0.0000
# 6 0.0000 0.0000 0.0000 -84.9473 0.0000 -81.1920
#
#
#
# Elastic Compliance Matrix: (Units=1/GPa)
#
#
# Indices 1 2 3 4 5 6 
#
# 1 0.011532 -0.002695 0.000283 0.000000 -0.005646 0.000000
# 2 -0.002695 0.014735 -0.004074 0.000000 -0.009492 0.000000
# 3 0.000283 -0.004074 0.020850 0.000000 -0.004783 0.000000
# 4 0.000000 0.000000 0.000000 0.138629 0.000000 -0.145040
# 5 -0.005646 -0.009492 -0.004783 0.000000 0.041672 0.000000
# 6 0.000000 0.000000 0.000000 -0.145040 0.000000 0.139432
#
#
# Mechanical properties :
#
#
# Convention : Reuss Voigt Hill
#
# Bulk Modulus (GPa) = 29.28586 46.91747 38.10167
# Shear Modulus (GPa) = 12.78109 -12.70949 0.03580
#
# Velocity S-wave (km/s) = 2.55828 -2.55110 0.13540
# Velocity P-wave (km/s) = 4.87059 3.91758 4.41985
#
# Compressibility (1/GPa) = 0.03414617
#
# Stress axis : x y z
#
# Youngs Moduli (GPa) = 86.71521 67.86782 47.96051
#
# Poissons Ratio (x) = 0.18291 -0.01359
# Poissons Ratio (y) = 0.23371 0.19538
# Poissons Ratio (z) = -0.02458 0.27648
#
# Static dielectric constant tensor:
#      x y z
#    x 3.800790 0.000000 0.047150 
#    y 0.000000 3.693690 0.000000 
#    z 0.047150 0.000000 3.371720 
# 
# 
# High freq. dielectric constant tensor:
#      x y z
#    x 1.781590 0.000000 -0.000840 
#    y 0.000000 1.762260 0.000000 
#    z -0.000840 0.000000 1.751550 
# 
# From -- ./inp_files/38242.got.cif
#   From: 2010.06.25/outbox.cif.g09.slc.cpg/sg10_20_cif.got.tgz:38242.got - 2010.06.27 22:07:45.
