data_PCOD8063028
_publ_section_title
;
Structure prediction by ZEFSAII (Michael W. Deem and Ramdas Pophale) SiO2 
 PCOD8063028
Probable space group: P 2/M
;
_chemical_formula_sum "Si O2"
_cell_formula_units_Z 32
_cell_length_a 16.716924
_cell_length_b 14.871203
_cell_length_c 13.983834
_cell_angle_alpha 90.000000
_cell_angle_beta 25.671160
_cell_angle_gamma 90.000000
_cell_volume 1505.991989
_symmetry_space_group_name_H-M "P 2/M"
_symmetry_group_IT_number 10
_symmetry_cell_setting 'monoclinic'
loop_
_space_group_symop_operation_xyz
x,y,z
-x,y,-z
-x,-y,-z
x,-y,z
loop_
_atom_site_type_symbol
_atom_site_label
_atom_site_fract_x
_atom_site_fract_y
_atom_site_fract_z
Si Si1 0.302450 0.134054 0.818636
Si Si2 0.310849 0.663920 0.826031
Si Si3 0.931420 0.599989 0.292346
Si Si4 0.693925 0.599266 0.373657
Si Si5 0.788893 0.790927 0.482017
Si Si6 0.268797 0.100998 0.641771
Si Si7 0.895658 0.096374 0.786263
Si Si8 0.470977 0.895777 0.920561
O O1 0.294635 0.233293 0.871693
O O2 0.206701 0.125665 0.817078
O O3 0.510439 0.099956 0.594839
O O4 0.186407 0.077954 0.019633
O O5 0.515299 0.627189 0.630773
O O6 0.283385 0.663579 0.740968
O O7 0.153141 0.611527 0.055439
O O8 0.883251 0.500000 0.388021
O O9 0.876701 0.601510 0.239946
O O10 0.817244 0.682727 0.462451
O O11 0.660106 0.500000 0.368472
O O12 0.813866 0.826218 0.345044
O O13 0.591115 0.825171 0.730311
O O14 0.940626 0.832152 0.389538
O O15 0.201099 0.000000 0.687941
O O16 0.977414 0.000000 0.664535
O O17 0.739535 0.127152 0.879290
O O18 0.519281 0.000000 0.841983
O O19 0.500000 0.876695 0.000000
#
# Coordination Sequence:
#
# PCOD8063028 Si02
#       8
#     4   4   4   4   4   4   4   4
#     4  11  20  33  52  81 119 166 208 237 276 341
#     4  11  19  34  50  75 107 152 206 254 294 335
#     4  11  23  37  54  79 115 153 196 250 301 346
#     4  10  20  32  51  73 103 154 211 259 296 334
#     4  12  23  39  61  89 120 158 202 243 294 354
#     4  11  21  34  54  81 123 171 208 242 283 337
#     4  11  22  38  61  90 122 155 195 239 289 349
#     4  10  23  44  69  95 123 151 184 239 304 360
#
# _framework density 21.248452
#
# number of rings (size 3 to 8) (size 9 to 14) (size 15 to 20)
#    0.000    1.125    2.500    7.500    0.000    2.000 
#    0.000    3.125    0.000    0.375    0.000    0.875 
#    0.000    0.000    0.000    0.000    0.000    0.000 
#
# Total GULP energy -396626.180540 kJ/mol
# GULP energy per Si atom -12394.568142 kJ/mol
# Density = 2.120009 g / cm^3
# Si number density = 21.248452 Si / 1000 Ang^3
#
#
#
# Elastic Constant Matrix: (Units=GPa)
#
#
# Indices 1 2 3 4 5 6 
#
# 1 83.8970 19.7212 8.5818 0.0000 -6.1710 0.0000
# 2 19.7212 144.8382 13.8283 0.0000 -4.9555 0.0000
# 3 8.5818 13.8283 19.4919 0.0000 -7.1127 0.0000
# 4 0.0000 0.0000 0.0000 25.3041 0.0000 -3.3366
# 5 -6.1710 -4.9555 -7.1127 0.0000 24.6439 0.0000
# 6 0.0000 0.0000 0.0000 -3.3366 0.0000 6.7580
#
#
#
# Elastic Compliance Matrix: (Units=1/GPa)
#
#
# Indices 1 2 3 4 5 6 
#
# 1 0.012768 -0.001290 -0.004062 0.000000 0.001765 0.000000
# 2 -0.001290 0.007536 -0.004855 0.000000 -0.000209 0.000000
# 3 -0.004062 -0.004855 0.062378 0.000000 0.016010 0.000000
# 4 0.000000 0.000000 0.000000 0.042271 0.000000 0.020870
# 5 0.001765 -0.000209 0.016010 0.000000 0.045599 0.000000
# 6 0.000000 0.000000 0.000000 0.020870 0.000000 0.158276
#
#
# Mechanical properties :
#
#
# Convention : Reuss Voigt Hill
#
# Bulk Modulus (GPa) = 16.05945 36.94331 26.50138
# Shear Modulus (GPa) = 13.51358 25.08092 19.29725
#
# Velocity S-wave (km/s) = 2.52460 3.43937 3.01686
# Velocity P-wave (km/s) = 4.00905 5.76164 4.96331
#
# Compressibility (1/GPa) = 0.06226863
#
# Stress axis : x y z
#
# Youngs Moduli (GPa) = 78.32064 132.69120 16.03130
#
# Poissons Ratio (x) = 0.17121 0.06512
# Poissons Ratio (y) = 0.10106 0.07783
# Poissons Ratio (z) = 0.31813 0.64417
#
# Static dielectric constant tensor:
#      x y z
#    x 3.713450 0.000000 -0.301860 
#    y 0.000000 3.981110 0.000000 
#    z -0.301860 0.000000 3.619590 
# 
# 
# High freq. dielectric constant tensor:
#      x y z
#    x 1.805380 0.000000 -0.040220 
#    y 0.000000 1.837830 0.000000 
#    z -0.040220 0.000000 1.808430 
# 
# From -- ./inp_files/69300.got.cif
#   From: 2010.06.25/outbox.cif.g09.slc.cpg/sg10_35_cif.got.tgz:69300.got - 2010.06.27 22:07:45.
