data_PCOD8063471
_publ_section_title
;
Structure prediction by ZEFSAII (Michael W. Deem and Ramdas Pophale) SiO2 
 PCOD8063471
Probable space group: P 2/M
;
_chemical_formula_sum "Si O2"
_cell_formula_units_Z 32
_cell_length_a 28.287445
_cell_length_b 9.333828
_cell_length_c 20.126905
_cell_angle_alpha 90.000000
_cell_angle_beta 159.293522
_cell_angle_gamma 90.000000
_cell_volume 1878.966112
_symmetry_space_group_name_H-M "P 2/M"
_symmetry_group_IT_number 10
_symmetry_cell_setting 'monoclinic'
loop_
_space_group_symop_operation_xyz
x,y,z
-x,y,-z
-x,-y,-z
x,-y,z
loop_
_atom_site_type_symbol
_atom_site_label
_atom_site_fract_x
_atom_site_fract_y
_atom_site_fract_z
Si Si1 0.406138 0.663450 0.186718
Si Si2 0.172921 0.338553 0.587261
Si Si3 0.849914 0.664304 0.599013
Si Si4 0.112695 0.660905 0.806917
Si Si5 0.604473 0.167383 0.691689
Si Si6 0.414889 0.831839 0.953120
Si Si7 0.901399 0.834290 0.081700
Si Si8 0.561250 0.331078 0.262172
O O1 0.436307 0.500000 0.245659
O O2 0.424076 0.754330 0.276668
O O3 0.508485 0.716334 0.265059
O O4 0.255157 0.678042 0.957273
O O5 0.226230 0.500000 0.669653
O O6 0.173194 0.303970 0.509120
O O7 0.265150 0.227164 0.747143
O O8 0.019547 0.321682 0.413120
O O9 0.882521 0.500000 0.654910
O O10 0.717144 0.711344 0.463907
O O11 0.977562 0.751259 0.795895
O O12 0.105066 0.500000 0.829423
O O13 0.105238 0.783941 0.851454
O O14 0.500000 0.224592 0.500000
O O15 0.585012 0.000000 0.680332
O O16 0.753347 0.197499 0.857644
O O17 0.407788 0.000000 0.957226
O O18 0.500000 0.793874 0.000000
O O19 0.480544 0.755888 0.101664
O O20 0.937598 0.000000 0.126323
O O21 0.539926 0.500000 0.220992
#
# Coordination Sequence:
#
# PCOD8063471 Si02
#       8
#     4   4   4   4   4   4   4   4
#     4   9  18  33  53  76  99 123 160 202 237 282
#     4   9  16  28  47  66  88 122 160 199 246 292
#     4   9  17  29  46  68  94 125 161 199 240 284
#     4   8  15  29  47  68  93 121 154 196 242 286
#     4   9  18  33  53  77 104 131 156 187 233 287
#     4  11  22  32  44  67  96 124 162 211 249 280
#     4   9  16  26  45  72  97 122 156 195 232 274
#     4  10  20  34  51  69  94 131 165 197 243 294
#
# _framework density 17.030643000000001
#
# number of rings (size 3 to 8) (size 9 to 14) (size 15 to 20)
#    0.000    2.750    1.250    1.500    0.000    4.250 
#    0.000    0.625    0.000    4.500    0.000    5.250 
#    0.000    0.000    0.000    0.000    0.000    0.000 
#
# Total GULP energy -396549.373766 kJ/mol
# GULP energy per Si atom -12392.167930 kJ/mol
# Density = 1.699188 g / cm^3
# Si number density = 17.030643 Si / 1000 Ang^3
#
#
#
# Elastic Constant Matrix: (Units=GPa)
#
#
# Indices 1 2 3 4 5 6 
#
# 1 85.1155 38.9363 62.0682 0.0000 14.9864 0.0000
# 2 38.9363 67.2270 64.0407 0.0000 2.0070 0.0000
# 3 62.0682 64.0407 141.9375 0.0000 17.1957 0.0000
# 4 0.0000 0.0000 0.0000 27.0820 0.0000 1.0690
# 5 14.9864 2.0070 17.1957 0.0000 23.8618 0.0000
# 6 0.0000 0.0000 0.0000 1.0690 0.0000 13.8883
#
#
#
# Elastic Compliance Matrix: (Units=1/GPa)
#
#
# Indices 1 2 3 4 5 6 
#
# 1 0.019650 -0.006888 -0.004449 0.000000 -0.008556 0.000000
# 2 -0.006888 0.029578 -0.011566 0.000000 0.010173 0.000000
# 3 -0.004449 -0.011566 0.015068 0.000000 -0.007092 0.000000
# 4 0.000000 0.000000 0.000000 0.037037 0.000000 -0.002851
# 5 -0.008556 0.010173 -0.007092 0.000000 0.051537 0.000000
# 6 0.000000 0.000000 0.000000 -0.002851 0.000000 0.072222
#
#
# Mechanical properties :
#
#
# Convention : Reuss Voigt Hill
#
# Bulk Modulus (GPa) = 54.07674 69.37450 61.72562
# Shear Modulus (GPa) = 18.04655 21.58206 19.81430
#
# Velocity S-wave (km/s) = 3.25876 3.56371 3.41464
# Velocity P-wave (km/s) = 6.78092 7.59979 7.20201
#
# Compressibility (1/GPa) = 0.01849224
#
# Stress axis : x y z
#
# Youngs Moduli (GPa) = 50.89057 33.80877 66.36447
#
# Poissons Ratio (x) = 0.23286 0.29523
# Poissons Ratio (y) = 0.35051 0.76756
# Poissons Ratio (z) = 0.22639 0.39103
#
# Static dielectric constant tensor:
#      x y z
#    x 2.994770 0.000000 0.432500 
#    y 0.000000 3.180600 0.000000 
#    z 0.432500 0.000000 3.535690 
# 
# 
# High freq. dielectric constant tensor:
#      x y z
#    x 1.614200 0.000000 0.031460 
#    y 0.000000 1.658510 0.000000 
#    z 0.031460 0.000000 1.662640 
# 
# From -- ./inp_files/52708.got.cif
#   From: 2010.06.25/outbox.cif.g09.slc.cpg/sg10_27_cif.got.tgz:52708.got - 2010.06.27 22:07:45.
