data_PCOD8063034
_publ_section_title
;
Structure prediction by ZEFSAII (Michael W. Deem and Ramdas Pophale) SiO2 
 PCOD8063034
Probable space group: P 2/M
;
_chemical_formula_sum "Si O2"
_cell_formula_units_Z 24
_cell_length_a 9.443393
_cell_length_b 9.348865
_cell_length_c 25.975393
_cell_angle_alpha 90.000000
_cell_angle_beta 145.628828
_cell_angle_gamma 90.000000
_cell_volume 1294.651448
_symmetry_space_group_name_H-M "P 2/M"
_symmetry_group_IT_number 10
_symmetry_cell_setting 'monoclinic'
loop_
_space_group_symop_operation_xyz
x,y,z
-x,y,-z
-x,-y,-z
x,-y,z
loop_
_atom_site_type_symbol
_atom_site_label
_atom_site_fract_x
_atom_site_fract_y
_atom_site_fract_z
Si Si1 0.389555 0.329817 0.912836
Si Si2 0.951091 0.160136 0.429968
Si Si3 0.281977 0.329934 0.084555
Si Si4 0.503746 0.838804 0.557716
Si Si5 0.185479 0.330931 0.264491
Si Si6 0.494488 0.668360 0.256904
O O1 0.398979 0.500000 0.916123
O O2 0.556291 0.269787 0.915229
O O3 0.102414 0.277889 0.820562
O O4 0.500000 0.270680 0.000000
O O5 0.762430 0.259012 0.342543
O O6 0.000000 0.230511 0.500000
O O7 0.212651 0.155705 0.480982
O O8 0.836160 0.000000 0.401224
O O9 0.277470 0.500000 0.079762
O O10 0.395285 0.277287 0.172366
O O11 0.000000 0.268736 0.000000
O O12 0.500000 0.769801 0.500000
O O13 0.661619 0.742857 0.644032
O O14 0.616852 0.000000 0.592387
O O15 0.203074 0.500000 0.278119
O O16 0.303875 0.285916 0.245109
O O17 0.534689 0.500000 0.269264
#
# Coordination Sequence:
#
# PCOD8063034 Si02
#       6
#     4   4   4   4   4   4
#     4   9  17  30  49  73 104 138 169 205 253 307
#     4  10  20  36  55  74  99 137 178 210 250 305
#     4   9  17  30  49  74 104 136 169 207 253 305
#     4  10  22  38  54  73 101 138 176 212 254 307
#     4  10  20  33  51  78 107 135 169 212 259 301
#     4  10  20  32  51  79 107 134 169 214 258 298
#
# _framework density 18.537807999999998
#
# number of rings (size 3 to 8) (size 9 to 14) (size 15 to 20)
#    0.000    2.333    1.667    1.000    2.333    5.333 
#    0.000    0.000    0.000    1.000    0.000    0.000 
#    0.000    0.000    0.000    0.000    0.000    0.000 
#
# Total GULP energy -297518.061672 kJ/mol
# GULP energy per Si atom -12396.585903 kJ/mol
# Density = 1.849562 g / cm^3
# Si number density = 18.537808 Si / 1000 Ang^3
#
#
#
# Elastic Constant Matrix: (Units=GPa)
#
#
# Indices 1 2 3 4 5 6 
#
# 1 146.6728 23.4990 82.2934 0.0000 -19.7208 0.0000
# 2 23.4990 21.8693 37.9422 0.0000 -5.2811 0.0000
# 3 82.2934 37.9422 168.5953 0.0000 -12.7728 0.0000
# 4 0.0000 0.0000 0.0000 -19.4731 0.0000 2.5852
# 5 -19.7208 -5.2811 -12.7728 0.0000 40.0076 0.0000
# 6 0.0000 0.0000 0.0000 2.5852 0.0000 17.7276
#
#
#
# Elastic Compliance Matrix: (Units=1/GPa)
#
#
# Indices 1 2 3 4 5 6 
#
# 1 0.009946 -0.003129 -0.003905 0.000000 0.003243 0.000000
# 2 -0.003129 0.076845 -0.015489 0.000000 0.003656 0.000000
# 3 -0.003905 -0.015489 0.011296 0.000000 -0.000363 0.000000
# 4 0.000000 0.000000 0.000000 -0.050378 0.000000 0.007346
# 5 0.003243 0.003656 -0.000363 0.000000 0.026960 0.000000
# 6 0.000000 0.000000 0.000000 0.007346 0.000000 0.055338
#
#
# Mechanical properties :
#
#
# Convention : Reuss Voigt Hill
#
# Bulk Modulus (GPa) = 18.85381 69.40074 44.12728
# Shear Modulus (GPa) = 25.94227 20.54594 23.24410
#
# Velocity S-wave (km/s) = 3.74495 3.33276 3.54485
# Velocity P-wave (km/s) = 5.37513 7.23384 6.37262
#
# Compressibility (1/GPa) = 0.05303968
#
# Stress axis : x y z
#
# Youngs Moduli (GPa) = 100.54065 13.01315 88.52880
#
# Poissons Ratio (x) = 0.04072 0.34570
# Poissons Ratio (y) = 0.31464 1.37126
# Poissons Ratio (z) = 0.39260 0.20157
#
# Static dielectric constant tensor:
#      x y z
#    x 3.674840 0.000000 -0.024760 
#    y 0.000000 3.028000 0.000000 
#    z -0.024760 0.000000 3.486290 
# 
# 
# High freq. dielectric constant tensor:
#      x y z
#    x 1.738870 0.000000 -0.002420 
#    y 0.000000 1.668870 0.000000 
#    z -0.002420 0.000000 1.729990 
# 
# From -- ./inp_files/24063.got.cif
#   From: 2010.06.25/outbox.cif.g09.slc.cpg/sg10_13_cif.got.tgz:24063.got - 2010.06.27 22:07:45.
