data_PCOD8063216
_publ_section_title
;
Structure prediction by ZEFSAII (Michael W. Deem and Ramdas Pophale) SiO2 
 PCOD8063216
Probable space group: P 2/M
;
_chemical_formula_sum "Si O2"
_cell_formula_units_Z 32
_cell_length_a 14.000525
_cell_length_b 8.676863
_cell_length_c 15.219444
_cell_angle_alpha 90.000000
_cell_angle_beta 86.945757
_cell_angle_gamma 90.000000
_cell_volume 1846.241514
_symmetry_space_group_name_H-M "P 2/M"
_symmetry_group_IT_number 10
_symmetry_cell_setting 'monoclinic'
loop_
_space_group_symop_operation_xyz
x,y,z
-x,y,-z
-x,-y,-z
x,-y,z
loop_
_atom_site_type_symbol
_atom_site_label
_atom_site_fract_x
_atom_site_fract_y
_atom_site_fract_z
Si Si1 0.610781 0.821143 0.986183
Si Si2 0.387139 0.326215 0.517953
Si Si3 0.635026 0.179200 0.659622
Si Si4 0.587591 0.820903 0.304973
Si Si5 0.714541 0.678338 0.823623
Si Si6 0.905831 0.321243 0.911092
Si Si7 0.898616 0.819192 0.099836
Si Si8 0.293272 0.320122 0.853763
O O1 0.643924 0.780412 0.886530
O O2 0.630176 0.000000 0.005700
O O3 0.500000 0.780493 0.000000
O O4 0.670276 0.718232 0.050692
O O5 0.500000 0.324610 0.500000
O O6 0.347600 0.500000 0.524572
O O7 0.338424 0.238151 0.439011
O O8 0.360890 0.238522 0.609118
O O9 0.524806 0.213683 0.686913
O O10 0.701361 0.271451 0.723880
O O11 0.658713 0.000000 0.664445
O O12 0.628081 0.730933 0.219939
O O13 0.609455 0.000000 0.292740
O O14 0.687515 0.500000 0.837008
O O15 0.824705 0.709887 0.842907
O O16 0.911122 0.500000 0.937456
O O17 0.007288 0.265841 0.866862
O O18 0.881685 0.223928 0.999034
O O19 0.806768 0.766045 0.160291
O O20 0.913294 0.000000 0.108648
O O21 0.274707 0.500000 0.847632
#
# Coordination Sequence:
#
# PCOD8063216 Si02
#       8
#     4   4   4   4   4   4   4   4
#     4  11  23  36  49  68  99 137 174 210 248 296
#     4   9  17  31  51  74 100 131 169 212 256 301
#     4  10  20  33  51  74 104 138 172 212 253 298
#     4  10  20  34  51  74 103 136 173 212 255 301
#     4  11  22  34  51  74 101 135 171 209 252 301
#     4  10  20  35  53  74 100 129 166 213 260 303
#     4  11  21  34  54  75  97 129 168 212 259 305
#     4  12  23  35  51  73 101 135 172 211 254 302
#
# _framework density 17.332511
#
# number of rings (size 3 to 8) (size 9 to 14) (size 15 to 20)
#    0.000    1.500    1.250    6.000    0.000    8.500 
#    0.000    0.000    0.000    0.000    0.000    0.875 
#    0.000    7.000    0.000    0.000    0.000    0.000 
#
# Total GULP energy -396949.999844 kJ/mol
# GULP energy per Si atom -12404.687495 kJ/mol
# Density = 1.729306 g / cm^3
# Si number density = 17.332511 Si / 1000 Ang^3
#
#
#
# Elastic Constant Matrix: (Units=GPa)
#
#
# Indices 1 2 3 4 5 6 
#
# 1 69.0389 35.1722 18.8049 0.0000 15.3165 0.0000
# 2 35.1722 86.6173 18.0346 0.0000 8.5865 0.0000
# 3 18.8049 18.0346 72.3175 0.0000 20.5759 0.0000
# 4 0.0000 0.0000 0.0000 32.9127 0.0000 1.0433
# 5 15.3165 8.5865 20.5759 0.0000 17.5040 0.0000
# 6 0.0000 0.0000 0.0000 1.0433 0.0000 20.4839
#
#
#
# Elastic Compliance Matrix: (Units=1/GPa)
#
#
# Indices 1 2 3 4 5 6 
#
# 1 0.021608 -0.007335 0.000851 0.000000 -0.016310 0.000000
# 2 -0.007335 0.014821 -0.002323 0.000000 0.001879 0.000000
# 3 0.000851 -0.002323 0.021146 0.000000 -0.024462 0.000000
# 4 0.000000 0.000000 0.000000 0.030433 0.000000 -0.001550
# 5 -0.016310 0.001879 -0.024462 0.000000 0.099235 0.000000
# 6 0.000000 0.000000 0.000000 -0.001550 0.000000 0.048898
#
#
# Mechanical properties :
#
#
# Convention : Reuss Voigt Hill
#
# Bulk Modulus (GPa) = 25.02471 41.33302 33.17886
# Shear Modulus (GPa) = 18.72141 24.57758 21.64949
#
# Velocity S-wave (km/s) = 3.29010 3.76973 3.53805
# Velocity P-wave (km/s) = 5.37609 6.54573 5.98953
#
# Compressibility (1/GPa) = 0.03996051
#
# Stress axis : x y z
#
# Youngs Moduli (GPa) = 46.27953 67.47256 47.29028
#
# Poissons Ratio (x) = 0.49488 -0.04024
# Poissons Ratio (y) = 0.33944 0.10987
# Poissons Ratio (z) = -0.03938 0.15676
#
# Static dielectric constant tensor:
#      x y z
#    x 3.207210 0.000000 0.051690 
#    y 0.000000 3.368440 0.000000 
#    z 0.051690 0.000000 3.149250 
# 
# 
# High freq. dielectric constant tensor:
#      x y z
#    x 1.648540 0.000000 0.007660 
#    y 0.000000 1.690160 0.000000 
#    z 0.007660 0.000000 1.652270 
# 
# From -- ./inp_files/66113.got.cif
#   From: 2010.06.25/outbox.cif.g09.slc.cpg/sg10_34_cif.got.tgz:66113.got - 2010.06.27 22:07:45.
