data_PCOD8063702
_publ_section_title
;
Structure prediction by ZEFSAII (Michael W. Deem and Ramdas Pophale) SiO2 
 PCOD8063702
Probable space group: P 2/M
;
_chemical_formula_sum "Si O2"
_cell_formula_units_Z 28
_cell_length_a 9.392638
_cell_length_b 8.870674
_cell_length_c 29.713398
_cell_angle_alpha 90.000000
_cell_angle_beta 142.625169
_cell_angle_gamma 90.000000
_cell_volume 1502.811106
_symmetry_space_group_name_H-M "P 2/M"
_symmetry_group_IT_number 10
_symmetry_cell_setting 'monoclinic'
loop_
_space_group_symop_operation_xyz
x,y,z
-x,y,-z
-x,-y,-z
x,-y,z
loop_
_atom_site_type_symbol
_atom_site_label
_atom_site_fract_x
_atom_site_fract_y
_atom_site_fract_z
Si Si1 0.318794 0.320429 0.364831
Si Si2 0.842941 0.319739 0.500915
Si Si3 0.999848 0.321722 0.363918
Si Si4 0.907867 0.678996 0.200640
Si Si5 0.922406 0.821832 0.931374
Si Si6 0.576319 0.677829 0.196991
Si Si7 0.225223 0.676056 0.930369
O O1 0.324248 0.500000 0.367065
O O2 0.580930 0.255414 0.427637
O O3 0.199448 0.258873 0.380488
O O4 0.161250 0.266127 0.282798
O O5 0.840509 0.500000 0.500801
O O6 0.000000 0.256570 0.500000
O O7 0.953452 0.254788 0.574841
O O8 0.022858 0.500000 0.371303
O O9 0.742638 0.278311 0.280967
O O10 0.896810 0.500000 0.197246
O O11 0.700031 0.733864 0.181832
O O12 0.872816 0.741751 0.141557
O O13 0.665038 0.762465 0.855568
O O14 0.106810 0.762249 0.941534
O O15 0.920541 0.000000 0.928825
O O16 0.000000 0.763254 0.000000
O O17 0.528812 0.500000 0.183529
O O18 0.168324 0.500000 0.921289
O O19 0.500000 0.707663 0.000000
#
# Coordination Sequence:
#
# PCOD8063702 Si02
#       7
#     4   4   4   4   4   4   4
#     4   8  13  22  36  55  87 126 155 186 233 286
#     4   9  15  20  29  52  89 128 159 188 228 278
#     4   8  14  24  39  60  86 120 158 192 231 279
#     4   8  15  28  47  72  97 123 160 204 246 286
#     4  11  24  38  51  71 100 131 161 195 238 288
#     4   9  17  32  54  75  96 124 161 204 244 285
#     4  10  20  34  54  77  99 126 162 202 242 286
#
# _framework density 18.631748999999999
#
# number of rings (size 3 to 8) (size 9 to 14) (size 15 to 20)
#    0.000    3.000    0.000    3.429    0.000    5.429 
#    0.000    5.000    0.000    0.000    0.000    0.000 
#    0.000   14.286    0.000    0.000    0.000    0.000 
#
# Total GULP energy -347069.897902 kJ/mol
# GULP energy per Si atom -12395.353496 kJ/mol
# Density = 1.858934 g / cm^3
# Si number density = 18.631749 Si / 1000 Ang^3
#
#
#
# Elastic Constant Matrix: (Units=GPa)
#
#
# Indices 1 2 3 4 5 6 
#
# 1 134.5269 26.2031 88.5729 0.0000 -7.3556 0.0000
# 2 26.2031 22.4053 24.8827 0.0000 2.0689 0.0000
# 3 88.5729 24.8827 155.5357 0.0000 -8.3546 0.0000
# 4 0.0000 0.0000 0.0000 4.2549 0.0000 -4.1730
# 5 -7.3556 2.0689 -8.3546 0.0000 39.2523 0.0000
# 6 0.0000 0.0000 0.0000 -4.1730 0.0000 8.7262
#
#
#
# Elastic Compliance Matrix: (Units=1/GPa)
#
#
# Indices 1 2 3 4 5 6 
#
# 1 0.013224 -0.008946 -0.006010 0.000000 0.001670 0.000000
# 2 -0.008946 0.061222 -0.005021 0.000000 -0.005972 0.000000
# 3 -0.006010 -0.005021 0.010732 0.000000 0.001423 0.000000
# 4 0.000000 0.000000 0.000000 0.442602 0.000000 0.211658
# 5 0.001670 -0.005972 0.001423 0.000000 0.026407 0.000000
# 6 0.000000 0.000000 0.000000 0.211658 0.000000 0.215816
#
#
# Mechanical properties :
#
#
# Convention : Reuss Voigt Hill
#
# Bulk Modulus (GPa) = 22.11177 65.75394 43.93286
# Shear Modulus (GPa) = 6.06039 21.96728 14.01384
#
# Velocity S-wave (km/s) = 1.80549 3.43742 2.74551
# Velocity P-wave (km/s) = 4.02988 7.14999 5.80355
#
# Compressibility (1/GPa) = 0.04522477
#
# Stress axis : x y z
#
# Youngs Moduli (GPa) = 75.61924 16.33407 93.18356
#
# Poissons Ratio (x) = 0.14612 0.56003
# Poissons Ratio (y) = 0.67646 0.46786
# Poissons Ratio (z) = 0.45447 0.08201
#
# Static dielectric constant tensor:
#      x y z
#    x 3.594790 0.000000 -0.166170 
#    y 0.000000 2.735680 0.000000 
#    z -0.166170 0.000000 3.845870 
# 
# 
# High freq. dielectric constant tensor:
#      x y z
#    x 1.726770 0.000000 -0.002070 
#    y 0.000000 1.650590 0.000000 
#    z -0.002070 0.000000 1.742920 
# 
# From -- ./inp_files/37011.got.cif
#   From: 2010.06.25/outbox.cif.g09.slc.cpg/sg10_19_cif.got.tgz:37011.got - 2010.06.27 22:07:45.
