data_PCOD8063248
_publ_section_title
;
Structure prediction by ZEFSAII (Michael W. Deem and Ramdas Pophale) SiO2 
 PCOD8063248
Probable space group: P 2/M
;
_chemical_formula_sum "Si O2"
_cell_formula_units_Z 32
_cell_length_a 32.541815
_cell_length_b 9.066845
_cell_length_c 16.625747
_cell_angle_alpha 90.000000
_cell_angle_beta 21.231605
_cell_angle_gamma 90.000000
_cell_volume 1776.454888
_symmetry_space_group_name_H-M "P 2/M"
_symmetry_group_IT_number 10
_symmetry_cell_setting 'monoclinic'
loop_
_space_group_symop_operation_xyz
x,y,z
-x,y,-z
-x,-y,-z
x,-y,z
loop_
_atom_site_type_symbol
_atom_site_label
_atom_site_fract_x
_atom_site_fract_y
_atom_site_fract_z
Si Si1 0.233120 0.828324 0.251137
Si Si2 0.111184 0.668940 0.337685
Si Si3 0.679073 0.326347 0.325257
Si Si4 0.336846 0.667955 0.831492
Si Si5 0.865372 0.665822 0.244122
Si Si6 0.543635 0.826116 0.247729
Si Si7 0.870464 0.171422 0.392891
Si Si8 0.133210 0.173548 0.918773
O O1 0.137990 0.750139 0.371515
O O2 0.210280 0.786020 0.385193
O O3 0.216328 0.000000 0.267007
O O4 0.359651 0.779885 0.993462
O O5 0.088811 0.500000 0.401303
O O6 0.000000 0.739832 0.500000
O O7 0.209617 0.688525 0.093478
O O8 0.685772 0.500000 0.329276
O O9 0.661538 0.287215 0.264089
O O10 0.571807 0.256078 0.568150
O O11 0.795604 0.251739 0.141074
O O12 0.379123 0.500000 0.767089
O O13 0.420261 0.773572 0.729006
O O14 0.817083 0.500000 0.324513
O O15 0.821517 0.737601 0.406927
O O16 0.823183 0.762554 0.246003
O O17 0.000000 0.665714 0.000000
O O18 0.522808 0.000000 0.286802
O O19 0.862007 0.000000 0.386110
O O20 0.001046 0.211701 0.174632
O O21 0.155881 0.000000 0.878671
#
# Coordination Sequence:
#
# PCOD8063248 Si02
#       8
#     4   4   4   4   4   4   4   4
#     4   9  19  34  51  73  99 131 168 207 248 294
#     4   9  18  31  47  68  98 134 168 205 248 296
#     4  11  22  34  51  73 101 133 168 213 257 298
#     4   9  19  34  49  69  97 132 171 211 256 297
#     4   9  17  31  51  76 105 135 165 198 242 296
#     4  10  20  35  53  72  97 131 174 215 252 295
#     4   9  18  33  53  77 105 134 165 201 245 300
#     4  10  20  33  51  77 106 134 164 201 249 300
#
# _framework density 18.013404000000001
#
# number of rings (size 3 to 8) (size 9 to 14) (size 15 to 20)
#    0.000    2.500    0.000    1.875    1.750    5.750 
#    0.000    0.000    0.000    0.750    0.000    5.250 
#    0.000    0.000    0.000    0.000    0.000    0.000 
#
# Total GULP energy -396830.992743 kJ/mol
# GULP energy per Si atom -12400.968523 kJ/mol
# Density = 1.797240 g / cm^3
# Si number density = 18.013404 Si / 1000 Ang^3
#
#
#
# Elastic Constant Matrix: (Units=GPa)
#
#
# Indices 1 2 3 4 5 6 
#
# 1 60.3904 37.0583 36.9026 0.0000 18.8700 0.0000
# 2 37.0583 78.0616 29.5551 0.0000 7.2822 0.0000
# 3 36.9026 29.5551 59.2890 0.0000 8.7911 0.0000
# 4 0.0000 0.0000 0.0000 23.4903 0.0000 -2.0278
# 5 18.8700 7.2822 8.7911 0.0000 25.1338 0.0000
# 6 0.0000 0.0000 0.0000 -2.0278 0.0000 34.3830
#
#
#
# Elastic Compliance Matrix: (Units=1/GPa)
#
#
# Indices 1 2 3 4 5 6 
#
# 1 0.039554 -0.010698 -0.016182 0.000000 -0.020937 0.000000
# 2 -0.010698 0.018772 -0.003253 0.000000 0.003730 0.000000
# 3 -0.016182 -0.003253 0.028075 0.000000 0.003272 0.000000
# 4 0.000000 0.000000 0.000000 0.042789 0.000000 0.002524
# 5 -0.020937 0.003730 0.003272 0.000000 0.053281 0.000000
# 6 0.000000 0.000000 0.000000 0.002524 0.000000 0.029233
#
#
# Mechanical properties :
#
#
# Convention : Reuss Voigt Hill
#
# Bulk Modulus (GPa) = 38.26044 44.97477 41.61761
# Shear Modulus (GPa) = 17.81388 22.88307 20.34847
#
# Velocity S-wave (km/s) = 3.14813 3.56804 3.36464
# Velocity P-wave (km/s) = 5.87370 6.48045 6.18452
#
# Compressibility (1/GPa) = 0.02613666
#
# Stress axis : x y z
#
# Youngs Moduli (GPa) = 25.28204 53.26982 35.61915
#
# Poissons Ratio (x) = 0.56986 0.57639
# Poissons Ratio (y) = 0.27046 0.11586
# Poissons Ratio (z) = 0.40911 0.17327
#
# Static dielectric constant tensor:
#      x y z
#    x 3.276880 0.000000 0.079780 
#    y 0.000000 3.378010 0.000000 
#    z 0.079780 0.000000 3.355750 
# 
# 
# High freq. dielectric constant tensor:
#      x y z
#    x 1.685230 0.000000 0.007500 
#    y 0.000000 1.702130 0.000000 
#    z 0.007500 0.000000 1.687430 
# 
# From -- ./inp_files/72179.got.cif
#   From: 2010.06.25/outbox.cif.g09.slc.cpg/sg10_37_cif.got.tgz:72179.got - 2010.06.27 22:07:45.
