data_PCOD8063531
_publ_section_title
;
Structure prediction by ZEFSAII (Michael W. Deem and Ramdas Pophale) SiO2 
 PCOD8063531
Probable space group: P 2/M
;
_chemical_formula_sum "Si O2"
_cell_formula_units_Z 28
_cell_length_a 24.496305
_cell_length_b 8.835726
_cell_length_c 22.083468
_cell_angle_alpha 90.000000
_cell_angle_beta 17.551953
_cell_angle_gamma 90.000000
_cell_volume 1441.447716
_symmetry_space_group_name_H-M "P 2/M"
_symmetry_group_IT_number 10
_symmetry_cell_setting 'monoclinic'
loop_
_space_group_symop_operation_xyz
x,y,z
-x,y,-z
-x,-y,-z
x,-y,z
loop_
_atom_site_type_symbol
_atom_site_label
_atom_site_fract_x
_atom_site_fract_y
_atom_site_fract_z
Si Si1 0.212755 0.819018 0.287241
Si Si2 0.352897 0.670958 0.833790
Si Si3 0.923211 0.828049 0.142961
Si Si4 0.456201 0.682047 0.131365
Si Si5 0.613428 0.680237 0.659749
Si Si6 0.489356 0.828040 0.444473
Si Si7 0.960443 0.329047 0.226244
O O1 0.288276 0.748914 0.270165
O O2 0.000000 0.774678 0.500000
O O3 0.233028 0.000000 0.266964
O O4 0.346726 0.748881 0.094833
O O5 0.420917 0.500000 0.753614
O O6 0.460622 0.745272 0.775783
O O7 0.378177 0.749557 0.742568
O O8 0.141984 0.679777 0.074073
O O9 0.709183 0.813771 0.372473
O O10 0.001097 0.749542 0.119645
O O11 0.991683 0.000000 0.072103
O O12 0.000000 0.751958 0.000000
O O13 0.459740 0.500000 0.120743
O O14 0.421200 0.740373 0.236367
O O15 0.611996 0.500000 0.663999
O O16 0.803002 0.745284 0.433402
O O17 0.500000 0.751966 0.500000
O O18 0.555421 0.000000 0.380798
O O19 0.904569 0.500000 0.269962
#
# Coordination Sequence:
#
# PCOD8063531 Si02
#       7
#     4   4   4   4   4   4   4
#     4  10  21  38  59  85 122 160 191 229 278 331
#     4  10  20  35  55  77 103 138 177 219 271 328
#     4  10  20  34  52  74 101 134 173 222 278 330
#     4  10  20  35  60  90 116 150 194 240 284 328
#     4   9  19  36  55  80 114 144 178 228 278 326
#     4  10  20  34  52  74 101 134 173 222 278 330
#     4  10  20  35  55  77 103 138 177 219 271 328
#
# _framework density 19.424916
#
# number of rings (size 3 to 8) (size 9 to 14) (size 15 to 20)
#    0.000    2.143    1.429    2.571    0.000    4.571 
#    0.000    5.714    0.000    0.000    0.000    0.000 
#    0.000    0.000    0.000    0.000    0.000    0.000 
#
# Total GULP energy -347048.255924 kJ/mol
# GULP energy per Si atom -12394.580569 kJ/mol
# Density = 1.938070 g / cm^3
# Si number density = 19.424916 Si / 1000 Ang^3
#
#
#
# Elastic Constant Matrix: (Units=GPa)
#
#
# Indices 1 2 3 4 5 6 
#
# 1 151.8469 33.6084 84.2697 0.0000 16.6629 0.0000
# 2 33.6084 57.9509 34.9792 0.0000 -1.2951 0.0000
# 3 84.2697 34.9792 133.7950 0.0000 0.3935 0.0000
# 4 0.0000 0.0000 0.0000 22.5680 0.0000 -40.5029
# 5 16.6629 -1.2951 0.3935 0.0000 40.3433 0.0000
# 6 0.0000 0.0000 0.0000 -40.5029 0.0000 -20.5059
#
#
#
# Elastic Compliance Matrix: (Units=1/GPa)
#
#
# Indices 1 2 3 4 5 6 
#
# 1 0.011228 -0.002797 -0.006327 0.000000 -0.004665 0.000000
# 2 -0.002797 0.021206 -0.003788 0.000000 0.001873 0.000000
# 3 -0.006327 -0.003788 0.012442 0.000000 0.002370 0.000000
# 4 0.000000 0.000000 0.000000 0.009750 0.000000 -0.019257
# 5 -0.004665 0.001873 0.002370 0.000000 0.026751 0.000000
# 6 0.000000 0.000000 0.000000 -0.019257 0.000000 -0.010730
#
#
# Mechanical properties :
#
#
# Convention : Reuss Voigt Hill
#
# Bulk Modulus (GPa) = 52.48517 72.14528 62.31522
# Shear Modulus (GPa) = 48.62788 21.19676 34.91232
#
# Velocity S-wave (km/s) = 5.00880 3.30694 4.24405
# Velocity P-wave (km/s) = 7.78004 7.19738 7.49438
#
# Compressibility (1/GPa) = 0.01905300
#
# Stress axis : x y z
#
# Youngs Moduli (GPa) = 89.06544 47.15564 80.37072
#
# Poissons Ratio (x) = 0.13189 0.50848
# Poissons Ratio (y) = 0.24911 0.30445
# Poissons Ratio (z) = 0.56349 0.17863
#
# Static dielectric constant tensor:
#      x y z
#    x 3.659790 0.000000 -0.021400 
#    y 0.000000 3.353180 0.000000 
#    z -0.021400 0.000000 3.682260 
# 
# 
# High freq. dielectric constant tensor:
#      x y z
#    x 1.759790 0.000000 -0.006570 
#    y 0.000000 1.731010 0.000000 
#    z -0.006570 0.000000 1.766720 
# 
# From -- ./inp_files/86443.got.cif
#   From: 2010.06.25/outbox.cif.g09.slc.cpg/sg10_44_cif.got.tgz:86443.got - 2010.06.27 22:07:45.
