data_PCOD8063208
_publ_section_title
;
Structure prediction by ZEFSAII (Michael W. Deem and Ramdas Pophale) SiO2 
 PCOD8063208
Probable space group: P 2/M
;
_chemical_formula_sum "Si O2"
_cell_formula_units_Z 28
_cell_length_a 12.191047
_cell_length_b 8.638785
_cell_length_c 15.226490
_cell_angle_alpha 90.000000
_cell_angle_beta 59.735833
_cell_angle_gamma 90.000000
_cell_volume 1385.038612
_symmetry_space_group_name_H-M "P 2/M"
_symmetry_group_IT_number 10
_symmetry_cell_setting 'monoclinic'
loop_
_space_group_symop_operation_xyz
x,y,z
-x,y,-z
-x,-y,-z
x,-y,z
loop_
_atom_site_type_symbol
_atom_site_label
_atom_site_fract_x
_atom_site_fract_y
_atom_site_fract_z
Si Si1 0.726839 0.826734 0.207987
Si Si2 0.528634 0.320556 0.712380
Si Si3 0.139848 0.683569 0.690944
Si Si4 0.625051 0.181363 0.504661
Si Si5 0.889437 0.826489 0.982080
Si Si6 0.862835 0.678459 0.812882
Si Si7 0.587984 0.684831 0.883895
O O1 0.612173 0.708197 0.266974
O O2 0.841609 0.766920 0.222517
O O3 0.686003 0.000000 0.255318
O O4 0.762881 0.830405 0.091616
O O5 0.564017 0.500000 0.692252
O O6 0.619495 0.227308 0.609452
O O7 0.538171 0.259222 0.808766
O O8 0.143151 0.500000 0.702633
O O9 0.248713 0.735001 0.580690
O O10 0.997203 0.735847 0.716038
O O11 0.500000 0.235443 0.500000
O O12 0.644460 0.000000 0.486799
O O13 0.868533 0.704302 0.914433
O O14 0.920135 0.000000 0.933695
O O15 0.000000 0.765256 0.000000
O O16 0.848304 0.500000 0.798230
O O17 0.731749 0.755829 0.831496
O O18 0.588049 0.500000 0.889510
O O19 0.500000 0.749127 0.000000
#
# Coordination Sequence:
#
# PCOD8063208 Si02
#       7
#     4   4   4   4   4   4   4
#     4  11  21  34  53  80 118 155 189 235 291 348
#     4  11  22  37  62  89 115 151 197 245 291 345
#     4  11  22  35  56  86 116 148 191 241 291 349
#     4  11  23  39  60  85 118 158 193 239 297 354
#     4  10  20  33  50  77 115 155 191 229 285 351
#     4  10  21  37  58  85 117 152 196 246 293 344
#     4   9  19  38  62  88 120 156 193 238 292 344
#
# _framework density 20.216042000000002
#
# number of rings (size 3 to 8) (size 9 to 14) (size 15 to 20)
#    0.000    1.571    2.857    2.571    0.000    3.714 
#    0.000    2.143    0.000    8.143    0.000    0.000 
#    0.000    0.000    0.000    0.000    0.000    0.000 
#
# Total GULP energy -347016.761094 kJ/mol
# GULP energy per Si atom -12393.455753 kJ/mol
# Density = 2.017003 g / cm^3
# Si number density = 20.216042 Si / 1000 Ang^3
#
#
#
# Elastic Constant Matrix: (Units=GPa)
#
#
# Indices 1 2 3 4 5 6 
#
# 1 116.3879 19.6100 45.1328 0.0000 -19.3710 0.0000
# 2 19.6100 32.7064 19.6172 0.0000 -4.7750 0.0000
# 3 45.1328 19.6172 120.0487 0.0000 -8.5114 0.0000
# 4 0.0000 0.0000 0.0000 24.5137 0.0000 -1.7710
# 5 -19.3710 -4.7750 -8.5114 0.0000 34.5542 0.0000
# 6 0.0000 0.0000 0.0000 -1.7710 0.0000 12.2136
#
#
#
# Elastic Compliance Matrix: (Units=1/GPa)
#
#
# Indices 1 2 3 4 5 6 
#
# 1 0.011383 -0.004146 -0.003247 0.000000 0.005009 0.000000
# 2 -0.004146 0.035800 -0.004178 0.000000 0.001594 0.000000
# 3 -0.003247 -0.004178 0.010242 0.000000 0.000125 0.000000
# 4 0.000000 0.000000 0.000000 0.041225 0.000000 0.005978
# 5 0.005009 0.001594 0.000125 0.000000 0.031999 0.000000
# 6 0.000000 0.000000 0.000000 0.005978 0.000000 0.082743
#
#
# Mechanical properties :
#
#
# Convention : Reuss Voigt Hill
#
# Bulk Modulus (GPa) = 29.16951 48.65143 38.91047
# Shear Modulus (GPa) = 20.16429 26.57517 23.36973
#
# Velocity S-wave (km/s) = 3.16165 3.62962 3.40369
# Velocity P-wave (km/s) = 5.27146 6.45628 5.89372
#
# Compressibility (1/GPa) = 0.03428237
#
# Stress axis : x y z
#
# Youngs Moduli (GPa) = 87.84816 27.93303 97.63437
#
# Poissons Ratio (x) = 0.11582 0.31701
# Poissons Ratio (y) = 0.36425 0.40794
# Poissons Ratio (z) = 0.28523 0.11671
#
# Static dielectric constant tensor:
#      x y z
#    x 3.825240 0.000000 -0.188910 
#    y 0.000000 3.435510 0.000000 
#    z -0.188910 0.000000 3.801770 
# 
# 
# High freq. dielectric constant tensor:
#      x y z
#    x 1.780180 0.000000 -0.018610 
#    y 0.000000 1.769500 0.000000 
#    z -0.018610 0.000000 1.793410 
# 
# From -- ./inp_files/50075.got.cif
#   From: 2010.06.25/outbox.cif.g09.slc.cpg/sg10_26_cif.got.tgz:50075.got - 2010.06.27 22:07:45.
