data_PCOD8063602
_publ_section_title
;
Structure prediction by ZEFSAII (Michael W. Deem and Ramdas Pophale) SiO2 
 PCOD8063602
Probable space group: P 2/M
;
_chemical_formula_sum "Si O2"
_cell_formula_units_Z 20
_cell_length_a 9.703653
_cell_length_b 9.343856
_cell_length_c 27.228635
_cell_angle_alpha 90.000000
_cell_angle_beta 153.120845
_cell_angle_gamma 90.000000
_cell_volume 1116.173224
_symmetry_space_group_name_H-M "P 2/M"
_symmetry_group_IT_number 10
_symmetry_cell_setting 'monoclinic'
loop_
_space_group_symop_operation_xyz
x,y,z
-x,y,-z
-x,-y,-z
x,-y,z
loop_
_atom_site_type_symbol
_atom_site_label
_atom_site_fract_x
_atom_site_fract_y
_atom_site_fract_z
Si Si1 0.306873 0.333592 0.986324
Si Si2 0.556973 0.334840 0.171619
Si Si3 0.724161 0.832987 0.831116
Si Si4 0.181598 0.667040 0.418421
Si Si5 0.083686 0.835864 0.580871
O O1 0.214439 0.500000 0.953660
O O2 0.504167 0.301890 0.097723
O O3 0.500000 0.287414 0.000000
O O4 0.004492 0.238700 0.892000
O O5 0.487494 0.500000 0.162323
O O6 0.332070 0.240084 0.133713
O O7 0.908902 0.295659 0.294046
O O8 0.437545 0.806976 0.704506
O O9 0.789150 0.000000 0.860706
O O10 0.500000 0.728186 0.500000
O O11 0.204026 0.500000 0.435545
O O12 0.130932 0.741263 0.453865
O O13 0.000000 0.787171 0.500000
O O14 0.999992 0.000000 0.563764
#
# Coordination Sequence:
#
# PCOD8063602 Si02
#       5
#     4   4   4   4   4
#     4  10  21  35  51  73 101 132 164 200 246 296
#     4   9  18  34  53  72  99 134 166 198 242 294
#     4  10  20  34  53  75  98 128 167 206 242 287
#     4   9  18  32  51  76 102 128 163 205 244 285
#     4   9  19  35  52  72 100 132 164 199 244 296
#
# _framework density 17.918365999999999
#
# number of rings (size 3 to 8) (size 9 to 14) (size 15 to 20)
#    0.000    2.600    0.000    1.200    0.000    6.800 
#    0.000    2.000    0.000    0.000    0.000    0.000 
#    0.000    0.000    0.000    0.000    0.000    0.000 
#
# Total GULP energy -248039.563878 kJ/mol
# GULP energy per Si atom -12401.978194 kJ/mol
# Density = 1.787758 g / cm^3
# Si number density = 17.918366 Si / 1000 Ang^3
#
#
#
# Elastic Constant Matrix: (Units=GPa)
#
#
# Indices 1 2 3 4 5 6 
#
# 1 159.6194 68.4906 86.2047 0.0000 6.8619 0.0000
# 2 68.4906 68.3883 50.5035 0.0000 9.4049 0.0000
# 3 86.2047 50.5035 95.2048 0.0000 6.2739 0.0000
# 4 0.0000 0.0000 0.0000 53.2151 0.0000 49.4458
# 5 6.8619 9.4049 6.2739 0.0000 38.0509 0.0000
# 6 0.0000 0.0000 0.0000 49.4458 0.0000 111.6343
#
#
#
# Elastic Compliance Matrix: (Units=1/GPa)
#
#
# Indices 1 2 3 4 5 6 
#
# 1 0.014496 -0.008056 -0.008908 0.000000 0.000846 0.000000
# 2 -0.008056 0.029097 -0.007848 0.000000 -0.004445 0.000000
# 3 -0.008908 -0.007848 0.022746 0.000000 -0.000204 0.000000
# 4 0.000000 0.000000 0.000000 0.031934 0.000000 -0.014145
# 5 0.000846 -0.004445 -0.000204 0.000000 0.027260 0.000000
# 6 0.000000 0.000000 0.000000 -0.014145 0.000000 0.015223
#
#
# Mechanical properties :
#
#
# Convention : Reuss Voigt Hill
#
# Bulk Modulus (GPa) = 59.82418 81.51225 70.66821
# Shear Modulus (GPa) = 25.51635 48.44764 36.98200
#
# Velocity S-wave (km/s) = 3.77773 5.20545 4.54796
# Velocity P-wave (km/s) = 7.24485 9.03983 8.19166
#
# Compressibility (1/GPa) = 0.01671565
#
# Stress axis : x y z
#
# Youngs Moduli (GPa) = 68.98425 34.36784 43.96287
#
# Poissons Ratio (x) = 0.27685 0.39163
# Poissons Ratio (y) = 0.55570 0.34503
# Poissons Ratio (z) = 0.61453 0.26973
#
# Static dielectric constant tensor:
#      x y z
#    x 3.304030 0.000000 -0.003780 
#    y 0.000000 3.315380 0.000000 
#    z -0.003780 0.000000 3.441250 
# 
# 
# High freq. dielectric constant tensor:
#      x y z
#    x 1.688240 0.000000 -0.001300 
#    y 0.000000 1.692280 0.000000 
#    z -0.001300 0.000000 1.701230 
# 
# From -- ./inp_files/22381.got.cif
#   From: 2010.06.25/outbox.cif.g09.slc.cpg/sg10_12_cif.got.tgz:22381.got - 2010.06.27 22:07:45.
