data_PCOD8063804
_publ_section_title
;
Structure prediction by ZEFSAII (Michael W. Deem and Ramdas Pophale) SiO2 
 PCOD8063804
Probable space group: P 2/M
;
_chemical_formula_sum "Si O2"
_cell_formula_units_Z 28
_cell_length_a 29.245779
_cell_length_b 9.201065
_cell_length_c 9.460177
_cell_angle_alpha 90.000000
_cell_angle_beta 143.626870
_cell_angle_gamma 90.000000
_cell_volume 1509.682187
_symmetry_space_group_name_H-M "P 2/M"
_symmetry_group_IT_number 10
_symmetry_cell_setting 'monoclinic'
loop_
_space_group_symop_operation_xyz
x,y,z
-x,y,-z
-x,-y,-z
x,-y,z
loop_
_atom_site_type_symbol
_atom_site_label
_atom_site_fract_x
_atom_site_fract_y
_atom_site_fract_z
Si Si1 0.923765 0.328980 0.722816
Si Si2 0.376807 0.332207 0.563420
Si Si3 0.798680 0.331039 0.885195
Si Si4 0.193992 0.831051 0.379408
Si Si5 0.511304 0.669318 0.688422
Si Si6 0.373597 0.831834 0.835915
Si Si7 0.930674 0.671327 0.421004
O O1 0.905706 0.500000 0.680814
O O2 0.851922 0.244950 0.609484
O O3 0.933842 0.268525 0.588474
O O4 0.000000 0.290923 0.000000
O O5 0.384098 0.500000 0.625242
O O6 0.289890 0.294275 0.298743
O O7 0.432629 0.291795 0.574003
O O8 0.402346 0.239536 0.761930
O O9 0.810144 0.500000 0.875751
O O10 0.828730 0.240615 0.826247
O O11 0.849165 0.286719 0.146793
O O12 0.283461 0.804524 0.634577
O O13 0.172929 0.000000 0.319975
O O14 0.500000 0.718171 0.500000
O O15 0.531557 0.500000 0.751313
O O16 0.582963 0.758989 0.925718
O O17 0.394713 0.000000 0.881815
O O18 0.941909 0.500000 0.456295
O O19 0.000000 0.739253 0.500000
#
# Coordination Sequence:
#
# PCOD8063804 Si02
#       7
#     4   4   4   4   4   4   4
#     4  10  20  34  55  81 106 136 174 213 256 307
#     4   9  18  33  53  76 101 132 171 213 258 308
#     4   9  17  32  54  76 100 133 172 214 258 304
#     4  10  21  36  53  76 106 137 171 212 257 307
#     4  10  21  35  52  77 107 136 170 215 263 310
#     4  10  21  36  54  76 102 136 176 213 254 308
#     4   9  17  30  51  79 106 131 166 212 254 297
#
# _framework density 18.546951
#
# number of rings (size 3 to 8) (size 9 to 14) (size 15 to 20)
#    0.000    2.429    0.000    2.143    0.000    8.000 
#    0.000    3.571    0.000    5.143    0.000    0.000 
#    0.000    0.000    0.000    0.000    0.000    0.000 
#
# Total GULP energy -347288.874739 kJ/mol
# GULP energy per Si atom -12403.174098 kJ/mol
# Density = 1.850474 g / cm^3
# Si number density = 18.546951 Si / 1000 Ang^3
#
#
#
# Elastic Constant Matrix: (Units=GPa)
#
#
# Indices 1 2 3 4 5 6 
#
# 1 150.4313 55.0450 71.8399 0.0000 -20.2112 0.0000
# 2 55.0450 64.8412 51.9117 0.0000 -7.0921 0.0000
# 3 71.8399 51.9117 137.1723 0.0000 -25.2104 0.0000
# 4 0.0000 0.0000 0.0000 15.0427 0.0000 11.0330
# 5 -20.2112 -7.0921 -25.2104 0.0000 27.8482 0.0000
# 6 0.0000 0.0000 0.0000 11.0330 0.0000 11.5285
#
#
#
# Elastic Compliance Matrix: (Units=1/GPa)
#
#
# Indices 1 2 3 4 5 6 
#
# 1 0.010812 -0.006880 -0.002325 0.000000 0.003989 0.000000
# 2 -0.006880 0.026632 -0.007373 0.000000 -0.004886 0.000000
# 3 -0.002325 -0.007373 0.012767 0.000000 0.007993 0.000000
# 4 0.000000 0.000000 0.000000 0.223013 0.000000 -0.213427
# 5 0.003989 -0.004886 0.007993 0.000000 0.044796 0.000000
# 6 0.000000 0.000000 0.000000 -0.213427 0.000000 0.290994
#
#
# Mechanical properties :
#
#
# Convention : Reuss Voigt Hill
#
# Bulk Modulus (GPa) = 58.64078 78.89311 68.76695
# Shear Modulus (GPa) = 7.71778 22.46044 15.08911
#
# Velocity S-wave (km/s) = 2.04212 3.48372 2.85540
# Velocity P-wave (km/s) = 6.10299 7.66884 6.93028
#
# Compressibility (1/GPa) = 0.01705298
#
# Stress axis : x y z
#
# Youngs Moduli (GPa) = 92.49341 37.54941 78.32617
#
# Poissons Ratio (x) = 0.25835 0.18213
# Poissons Ratio (y) = 0.63637 0.57751
# Poissons Ratio (z) = 0.21507 0.27686
#
# Static dielectric constant tensor:
#      x y z
#    x 3.478290 0.000000 0.002300 
#    y 0.000000 3.250680 0.000000 
#    z 0.002300 0.000000 3.507190 
# 
# 
# High freq. dielectric constant tensor:
#      x y z
#    x 1.722940 0.000000 0.004110 
#    y 0.000000 1.698590 0.000000 
#    z 0.004110 0.000000 1.727230 
# 
# From -- ./inp_files/37240.got.cif
#   From: 2010.06.25/outbox.cif.g09.slc.cpg/sg10_19_cif.got.tgz:37240.got - 2010.06.27 22:07:45.
