data_PCOD8063371
_publ_section_title
;
Structure prediction by ZEFSAII (Michael W. Deem and Ramdas Pophale) SiO2 
 PCOD8063371
Probable space group: P 2/M
;
_chemical_formula_sum "Si O2"
_cell_formula_units_Z 32
_cell_length_a 14.070074
_cell_length_b 9.541813
_cell_length_c 24.358659
_cell_angle_alpha 90.000000
_cell_angle_beta 30.639980
_cell_angle_gamma 90.000000
_cell_volume 1666.655296
_symmetry_space_group_name_H-M "P 2/M"
_symmetry_group_IT_number 10
_symmetry_cell_setting 'monoclinic'
loop_
_space_group_symop_operation_xyz
x,y,z
-x,y,-z
-x,-y,-z
x,-y,z
loop_
_atom_site_type_symbol
_atom_site_label
_atom_site_fract_x
_atom_site_fract_y
_atom_site_fract_z
Si Si1 0.784624 0.657907 0.111869
Si Si2 0.218822 0.163049 0.393966
Si Si3 0.253097 0.842175 0.771568
Si Si4 0.335681 0.157484 0.455866
Si Si5 0.014156 0.662203 0.812127
Si Si6 0.534193 0.660927 0.811158
Si Si7 0.405886 0.333483 0.991958
Si Si8 0.304463 0.338529 0.572208
O O1 0.762742 0.500000 0.146052
O O2 0.692585 0.770019 0.198105
O O3 0.675821 0.672514 0.108548
O O4 0.000000 0.698096 0.000000
O O5 0.288469 0.216342 0.418844
O O6 0.318372 0.247740 0.295819
O O7 0.000000 0.191375 0.500000
O O8 0.268529 0.000000 0.361258
O O9 0.442923 0.842332 0.642502
O O10 0.092546 0.752731 0.822970
O O11 0.180466 0.000000 0.817156
O O12 0.244833 0.254619 0.547378
O O13 0.254975 0.000000 0.501685
O O14 0.016248 0.500000 0.829448
O O15 0.137931 0.686249 0.697066
O O16 0.807422 0.717968 0.902798
O O17 0.602923 0.500000 0.775065
O O18 0.518820 0.716288 0.881576
O O19 0.408983 0.500000 0.992456
O O20 0.500000 0.269789 0.000000
O O21 0.500000 0.283864 0.500000
O O22 0.325879 0.500000 0.544714
#
# Coordination Sequence:
#
# PCOD8063371 Si02
#       8
#     4   4   4   4   4   4   4   4
#     4  10  20  34  54  82 115 150 186 226 281 342
#     4  10  22  41  61  81 112 154 191 226 280 343
#     4  11  21  33  53  81 112 146 186 231 279 332
#     4  10  21  36  54  78 109 148 187 226 278 334
#     4  10  20  36  57  81 114 151 188 231 283 341
#     4  10  20  35  59  88 113 143 187 235 279 328
#     4   9  19  37  60  84 111 147 188 231 279 332
#     4  10  20  33  53  83 113 146 186 229 279 333
#
# _framework density 19.200132
#
# number of rings (size 3 to 8) (size 9 to 14) (size 15 to 20)
#    0.000    2.000    2.500    1.125    0.000    5.250 
#    0.000    3.125    0.000    1.500    0.000    0.000 
#    0.000    0.000    0.000    0.000    0.000    0.000 
#
# Total GULP energy -396808.555285 kJ/mol
# GULP energy per Si atom -12400.267353 kJ/mol
# Density = 1.915643 g / cm^3
# Si number density = 19.200132 Si / 1000 Ang^3
#
#
#
# Elastic Constant Matrix: (Units=GPa)
#
#
# Indices 1 2 3 4 5 6 
#
# 1 125.0741 42.3520 50.5713 0.0000 13.5994 0.0000
# 2 42.3520 70.4421 38.7925 0.0000 14.2729 0.0000
# 3 50.5713 38.7925 92.7760 0.0000 8.7832 0.0000
# 4 0.0000 0.0000 0.0000 17.7641 0.0000 1.2136
# 5 13.5994 14.2729 8.7832 0.0000 35.6027 0.0000
# 6 0.0000 0.0000 0.0000 1.2136 0.0000 20.4181
#
#
#
# Elastic Compliance Matrix: (Units=1/GPa)
#
#
# Indices 1 2 3 4 5 6 
#
# 1 0.011293 -0.004102 -0.004288 0.000000 -0.001611 0.000000
# 2 -0.004102 0.021101 -0.006077 0.000000 -0.005394 0.000000
# 3 -0.004288 -0.006077 0.015636 0.000000 0.000217 0.000000
# 4 0.000000 0.000000 0.000000 0.056523 0.000000 -0.003360
# 5 -0.001611 -0.005394 0.000217 0.000000 0.030812 0.000000
# 6 0.000000 0.000000 0.000000 -0.003360 0.000000 0.049176
#
#
# Mechanical properties :
#
#
# Convention : Reuss Voigt Hill
#
# Bulk Modulus (GPa) = 52.36217 61.30264 56.83240
# Shear Modulus (GPa) = 22.74368 25.19541 23.96954
#
# Velocity S-wave (km/s) = 3.44548 3.62643 3.53711
# Velocity P-wave (km/s) = 6.56958 7.03791 6.80778
#
# Compressibility (1/GPa) = 0.01909776
#
# Stress axis : x y z
#
# Youngs Moduli (GPa) = 88.54832 47.39004 63.95325
#
# Poissons Ratio (x) = 0.19439 0.27424
# Poissons Ratio (y) = 0.36321 0.38862
# Poissons Ratio (z) = 0.37971 0.28797
#
# Static dielectric constant tensor:
#      x y z
#    x 3.597170 0.000000 0.021570 
#    y 0.000000 3.357930 0.000000 
#    z 0.021570 0.000000 3.413270 
# 
# 
# High freq. dielectric constant tensor:
#      x y z
#    x 1.748230 0.000000 0.004170 
#    y 0.000000 1.726220 0.000000 
#    z 0.004170 0.000000 1.745090 
# 
# From -- ./inp_files/66456.got.cif
#   From: 2010.06.25/outbox.cif.g09.slc.cpg/sg10_34_cif.got.tgz:66456.got - 2010.06.27 22:07:45.
