data_PCOD8063249
_publ_section_title
;
Structure prediction by ZEFSAII (Michael W. Deem and Ramdas Pophale) SiO2 
 PCOD8063249
Probable space group: P 2/M
;
_chemical_formula_sum "Si O2"
_cell_formula_units_Z 24
_cell_length_a 11.744483
_cell_length_b 9.364574
_cell_length_c 24.115346
_cell_angle_alpha 90.000000
_cell_angle_beta 28.165508
_cell_angle_gamma 90.000000
_cell_volume 1251.918197
_symmetry_space_group_name_H-M "P 2/M"
_symmetry_group_IT_number 10
_symmetry_cell_setting 'monoclinic'
loop_
_space_group_symop_operation_xyz
x,y,z
-x,y,-z
-x,-y,-z
x,-y,z
loop_
_atom_site_type_symbol
_atom_site_label
_atom_site_fract_x
_atom_site_fract_y
_atom_site_fract_z
Si Si1 0.819706 0.337187 0.938838
Si Si2 0.238760 0.669532 0.366866
Si Si3 0.636545 0.332616 0.280486
Si Si4 0.395182 0.840240 0.601283
Si Si5 0.170304 0.839676 0.169932
Si Si6 0.338292 0.335424 0.201387
O O1 0.833970 0.500000 0.910952
O O2 0.717808 0.241738 0.931539
O O3 0.082581 0.289178 0.848616
O O4 0.629087 0.322028 0.070708
O O5 0.226777 0.500000 0.370602
O O6 0.480514 0.719660 0.295004
O O7 0.258061 0.726387 0.295576
O O8 0.000000 0.730953 0.500000
O O9 0.606788 0.500000 0.302549
O O10 0.521701 0.257425 0.383491
O O11 0.500000 0.772271 0.500000
O O12 0.110710 0.843945 0.720310
O O13 0.500049 0.000000 0.564701
O O14 0.209454 0.757324 0.210153
O O15 0.277414 0.000000 0.127522
O O16 0.258526 0.500000 0.228501
#
# Coordination Sequence:
#
# PCOD8063249 Si02
#       6
#     4   4   4   4   4   4
#     4   9  18  33  52  77 104 132 169 209 252 300
#     4   9  19  34  51  75 104 133 168 212 256 294
#     4   9  18  33  53  75 100 130 169 211 247 295
#     4   9  19  34  51  72 101 135 167 205 254 301
#     4  10  20  33  51  77 106 134 167 209 255 303
#     4  10  20  33  52  75 104 139 169 205 252 301
#
# _framework density 19.170582
#
# number of rings (size 3 to 8) (size 9 to 14) (size 15 to 20)
#    0.000    2.667    0.000    1.000    2.333    4.333 
#    0.000    4.167    0.000    1.000    0.000    5.833 
#    0.000    0.000    0.000    0.000    0.000    0.000 
#
# Total GULP energy -297547.108451 kJ/mol
# GULP energy per Si atom -12397.796185 kJ/mol
# Density = 1.912695 g / cm^3
# Si number density = 19.170582 Si / 1000 Ang^3
#
#
#
# Elastic Constant Matrix: (Units=GPa)
#
#
# Indices 1 2 3 4 5 6 
#
# 1 132.4128 45.6414 48.4473 0.0000 16.1156 0.0000
# 2 45.6414 61.1365 26.2527 0.0000 7.2376 0.0000
# 3 48.4473 26.2527 90.4677 0.0000 27.9252 0.0000
# 4 0.0000 0.0000 0.0000 17.2771 0.0000 -1.0914
# 5 16.1156 7.2376 27.9252 0.0000 30.7360 0.0000
# 6 0.0000 0.0000 0.0000 -1.0914 0.0000 7.2780
#
#
#
# Elastic Compliance Matrix: (Units=1/GPa)
#
#
# Indices 1 2 3 4 5 6 
#
# 1 0.011402 -0.006743 -0.003883 0.000000 -0.000863 0.000000
# 2 -0.006743 0.022684 -0.003355 0.000000 0.001242 0.000000
# 3 -0.003883 -0.003355 0.018393 0.000000 -0.013885 0.000000
# 4 0.000000 0.000000 0.000000 0.058434 0.000000 0.008763
# 5 -0.000863 0.001242 -0.013885 0.000000 0.045310 0.000000
# 6 0.000000 0.000000 0.000000 0.008763 0.000000 0.138714
#
#
# Mechanical properties :
#
#
# Convention : Reuss Voigt Hill
#
# Bulk Modulus (GPa) = 40.78830 58.29999 49.54414
# Shear Modulus (GPa) = 15.10253 21.96993 18.53623
#
# Velocity S-wave (km/s) = 2.80982 3.38897 3.11289
# Velocity P-wave (km/s) = 5.64353 6.76688 6.23058
#
# Compressibility (1/GPa) = 0.02451683
#
# Stress axis : x y z
#
# Youngs Moduli (GPa) = 87.70411 44.08339 54.36944
#
# Poissons Ratio (x) = 0.29724 0.21112
# Poissons Ratio (y) = 0.59135 0.18243
# Poissons Ratio (z) = 0.34056 0.14792
#
# Static dielectric constant tensor:
#      x y z
#    x 3.509190 0.000000 0.032890 
#    y 0.000000 3.532880 0.000000 
#    z 0.032890 0.000000 3.671560 
# 
# 
# High freq. dielectric constant tensor:
#      x y z
#    x 1.738340 0.000000 -0.002690 
#    y 0.000000 1.719890 0.000000 
#    z -0.002690 0.000000 1.754550 
# 
# From -- ./inp_files/45155.got.cif
#   From: 2010.06.25/outbox.cif.g09.slc.cpg/sg10_23_cif.got.tgz:45155.got - 2010.06.27 22:07:45.
