data_PCOD8063237
_publ_section_title
;
Structure prediction by ZEFSAII (Michael W. Deem and Ramdas Pophale) SiO2 
 PCOD8063237
Probable space group: P 2/M
;
_chemical_formula_sum "Si O2"
_cell_formula_units_Z 28
_cell_length_a 29.670925
_cell_length_b 8.604140
_cell_length_c 9.349711
_cell_angle_alpha 90.000000
_cell_angle_beta 141.978891
_cell_angle_gamma 90.000000
_cell_volume 1470.223760
_symmetry_space_group_name_H-M "P 2/M"
_symmetry_group_IT_number 10
_symmetry_cell_setting 'monoclinic'
loop_
_space_group_symop_operation_xyz
x,y,z
-x,y,-z
-x,-y,-z
x,-y,z
loop_
_atom_site_type_symbol
_atom_site_label
_atom_site_fract_x
_atom_site_fract_y
_atom_site_fract_z
Si Si1 0.500000 0.183712 0.335675
Si Si2 0.933542 0.315200 0.423494
Si Si3 0.227370 0.684704 0.657551
Si Si4 0.364586 0.684860 0.824492
Si Si5 0.066458 0.684800 0.255782
Si Si6 0.364585 0.315140 0.498436
Si Si7 0.772630 0.315296 0.020703
O O1 0.500000 0.241599 0.500000
O O2 0.570718 0.247642 0.433595
O O3 0.500000 0.000000 0.327266
O O4 0.429282 0.247640 0.080007
O O5 0.937758 0.500000 0.426697
O O6 0.944157 0.255780 0.610393
O O7 0.000000 0.239972 0.500000
O O8 0.853171 0.260684 0.167558
O O9 0.229759 0.500000 0.667851
O O10 0.288571 0.747856 0.701615
O O11 0.146829 0.739316 0.401703
O O12 0.242336 0.748032 0.855839
O O13 0.368769 0.500000 0.840071
O O14 0.370433 0.744767 0.676082
O O15 0.062242 0.500000 0.237906
O O16 0.000000 0.760028 0.000000
O O17 0.368768 0.500000 0.503771
O O18 0.288571 0.252143 0.241241
O O19 0.770241 0.500000 0.019057
#
# Coordination Sequence:
#
# PCOD8063237 Si02
#       7
#     4   4   4   4   4   4   4
#     4  11  24  39  54  72  94 123 158 193 234 286
#     4   8  13  20  31  50  79 116 154 189 227 270
#     4   8  14  25  40  59  86 121 158 193 230 274
#     4  10  20  33  51  75  99 124 157 196 238 283
#     4   8  13  20  31  50  79 116 154 189 227 270
#     4  10  20  33  51  75  99 124 157 196 238 283
#     4   8  14  25  40  59  86 121 158 193 230 274
#
# _framework density 19.044719000000001
#
# number of rings (size 3 to 8) (size 9 to 14) (size 15 to 20)
#    0.000    3.000    0.000    3.429    0.000    5.714 
#    0.000    5.714    0.000    0.000    0.000    0.000 
#    0.000    1.143    0.000    3.714    0.000    7.429 
#
# Total GULP energy -346991.507354 kJ/mol
# GULP energy per Si atom -12392.553834 kJ/mol
# Density = 1.900137 g / cm^3
# Si number density = 19.044719 Si / 1000 Ang^3
#
#
#
# Elastic Constant Matrix: (Units=GPa)
#
#
# Indices 1 2 3 4 5 6 
#
# 1 192.2092 17.2893 106.5799 0.0000 16.1909 0.0000
# 2 17.2893 10.7552 17.2012 0.0000 -0.2954 0.0000
# 3 106.5799 17.2012 200.8431 0.0000 12.6786 0.0000
# 4 0.0000 0.0000 0.0000 0.8242 0.0000 -9.6670
# 5 16.1909 -0.2954 12.6786 0.0000 33.4912 0.0000
# 6 0.0000 0.0000 0.0000 -9.6670 0.0000 3.7149
#
#
#
# Elastic Compliance Matrix: (Units=1/GPa)
#
#
# Indices 1 2 3 4 5 6 
#
# 1 0.008002 -0.007427 -0.003444 0.000000 -0.002630 0.000000
# 2 -0.007427 0.115311 -0.006378 0.000000 0.007022 0.000000
# 3 -0.003444 -0.006378 0.007429 0.000000 -0.001203 0.000000
# 4 0.000000 0.000000 0.000000 -0.041099 0.000000 -0.106948
# 5 -0.002630 0.007022 -0.001203 0.000000 0.031648 0.000000
# 6 0.000000 0.000000 0.000000 -0.106948 0.000000 -0.009118
#
#
# Mechanical properties :
#
#
# Convention : Reuss Voigt Hill
#
# Bulk Modulus (GPa) = 10.39031 76.21649 43.30340
# Shear Modulus (GPa) = 27.97160 25.12187 26.54673
#
# Velocity S-wave (km/s) = 3.83656 3.63588 3.73757
# Velocity P-wave (km/s) = 5.00931 7.59821 6.43529
#
# Compressibility (1/GPa) = 0.09624352
#
# Stress axis : x y z
#
# Youngs Moduli (GPa) = 124.96578 8.67219 134.60840
#
# Poissons Ratio (x) = 0.06441 0.46363
# Poissons Ratio (y) = 0.92818 0.85848
# Poissons Ratio (z) = 0.43042 0.05531
#
# Static dielectric constant tensor:
#      x y z
#    x 3.888850 0.000000 0.145250 
#    y 0.000000 2.825870 0.000000 
#    z 0.145250 0.000000 3.932280 
# 
# 
# High freq. dielectric constant tensor:
#      x y z
#    x 1.751560 0.000000 0.010660 
#    y 0.000000 1.670770 0.000000 
#    z 0.010660 0.000000 1.754750 
# 
# From -- ./inp_files/38048.got.cif
#   From: 2010.06.25/outbox.cif.g09.slc.cpg/sg10_20_cif.got.tgz:38048.got - 2010.06.27 22:07:45.
