data_PCOD8063978
_publ_section_title
;
Structure prediction by ZEFSAII (Michael W. Deem and Ramdas Pophale) SiO2 
 PCOD8063978
Probable space group: P 2/M
;
_chemical_formula_sum "Si O2"
_cell_formula_units_Z 26
_cell_length_a 21.505180
_cell_length_b 9.887677
_cell_length_c 8.291618
_cell_angle_alpha 90.000000
_cell_angle_beta 47.290643
_cell_angle_gamma 90.000000
_cell_volume 1295.531726
_symmetry_space_group_name_H-M "P 2/M"
_symmetry_group_IT_number 10
_symmetry_cell_setting 'monoclinic'
loop_
_space_group_symop_operation_xyz
x,y,z
-x,y,-z
-x,-y,-z
x,-y,z
loop_
_atom_site_type_symbol
_atom_site_label
_atom_site_fract_x
_atom_site_fract_y
_atom_site_fract_z
Si Si1 0.617318 0.842386 0.141669
Si Si2 0.225387 0.845633 0.360159
Si Si3 0.048370 0.843837 0.567943
Si Si4 0.513282 0.653505 0.793446
Si Si5 0.000000 0.258427 0.000000
Si Si6 0.675416 0.350349 0.311469
Si Si7 0.815093 0.352530 0.302034
O O1 0.534244 0.759036 0.239584
O O2 0.657612 0.774334 0.226830
O O3 0.594888 0.000000 0.214673
O O4 0.685934 0.828479 0.881759
O O5 0.145809 0.791345 0.393886
O O6 0.229318 0.761964 0.515905
O O7 0.208022 0.000000 0.439753
O O8 0.009487 0.824827 0.816181
O O9 0.000000 0.772141 0.500000
O O10 0.047192 0.000000 0.531221
O O11 0.478248 0.500000 0.830704
O O12 0.612037 0.660236 0.575585
O O13 0.500000 0.700875 0.000000
O O14 0.916553 0.346603 0.116354
O O15 0.663247 0.500000 0.251324
O O16 0.772284 0.336493 0.201431
O O17 0.791734 0.500000 0.414250
#
# Coordination Sequence:
#
# PCOD8063978 Si02
#       7
#     4   4   4   4   2   4   4
#     4  11  23  37  57  86 120 150 184 238 294 339
#     4   9  20  37  55  81 112 146 190 234 284 343
#     4   9  18  33  55  81 113 153 199 241 286 354
#     4  10  21  39  62  84 110 150 196 235 277 340
#     4  10  20  34  58  86 119 152 193 250 311 346
#     4  10  22  38  57  83 113 151 194 232 278 347
#     4  10  21  38  60  84 115 151 192 239 293 347
#
# _framework density 20.068978999999999
#
# number of rings (size 3 to 8) (size 9 to 14) (size 15 to 20)
#    0.000    2.154    0.000    2.308    2.154    6.462 
#    0.000    0.000    0.000    2.308    0.000    0.000 
#    0.000    0.000    0.000    0.000    0.000    0.000 
#
# Total GULP energy -322186.413456 kJ/mol
# GULP energy per Si atom -12391.785133 kJ/mol
# Density = 2.002330 g / cm^3
# Si number density = 20.068979 Si / 1000 Ang^3
#
#
#
# Elastic Constant Matrix: (Units=GPa)
#
#
# Indices 1 2 3 4 5 6 
#
# 1 111.4531 40.1543 17.1779 0.0000 -5.5938 0.0000
# 2 40.1543 85.3181 16.6818 0.0000 -4.3538 0.0000
# 3 17.1779 16.6818 50.1618 0.0000 -3.9756 0.0000
# 4 0.0000 0.0000 0.0000 24.5763 0.0000 5.0565
# 5 -5.5938 -4.3538 -3.9756 0.0000 29.3136 0.0000
# 6 0.0000 0.0000 0.0000 5.0565 0.0000 28.3630
#
#
#
# Elastic Compliance Matrix: (Units=1/GPa)
#
#
# Indices 1 2 3 4 5 6 
#
# 1 0.011061 -0.004733 -0.002125 0.000000 0.001120 0.000000
# 2 -0.004733 0.014611 -0.003172 0.000000 0.000837 0.000000
# 3 -0.002125 -0.003172 0.021884 0.000000 0.002091 0.000000
# 4 0.000000 0.000000 0.000000 0.042239 0.000000 -0.007530
# 5 0.001120 0.000837 0.002091 0.000000 0.034735 0.000000
# 6 0.000000 0.000000 0.000000 -0.007530 0.000000 0.036600
#
#
# Mechanical properties :
#
#
# Convention : Reuss Voigt Hill
#
# Bulk Modulus (GPa) = 36.36904 43.88456 40.12680
# Shear Modulus (GPa) = 26.26646 27.97851 27.12248
#
# Velocity S-wave (km/s) = 3.62167 3.73784 3.68021
# Velocity P-wave (km/s) = 5.97076 6.36733 6.17223
#
# Compressibility (1/GPa) = 0.02749592
#
# Stress axis : x y z
#
# Youngs Moduli (GPa) = 90.40409 68.43955 45.69577
#
# Poissons Ratio (x) = 0.32395 0.09711
# Poissons Ratio (y) = 0.42791 0.14494
# Poissons Ratio (z) = 0.19212 0.21709
#
# Static dielectric constant tensor:
#      x y z
#    x 3.825010 0.000000 -0.162940 
#    y 0.000000 3.650190 0.000000 
#    z -0.162940 0.000000 3.579950 
# 
# 
# High freq. dielectric constant tensor:
#      x y z
#    x 1.791890 0.000000 -0.012420 
#    y 0.000000 1.776340 0.000000 
#    z -0.012420 0.000000 1.775120 
# 
# From -- ./inp_files/34219.got.cif
#   From: 2010.06.25/outbox.cif.g09.slc.cpg/sg10_18_cif.got.tgz:34219.got - 2010.06.27 22:07:45.
