data_PCOD8063296
_publ_section_title
;
Structure prediction by ZEFSAII (Michael W. Deem and Ramdas Pophale) SiO2 
 PCOD8063296
Probable space group: P 2/M
;
_chemical_formula_sum "Si O2"
_cell_formula_units_Z 32
_cell_length_a 24.311605
_cell_length_b 9.632178
_cell_length_c 19.598108
_cell_angle_alpha 90.000000
_cell_angle_beta 23.631791
_cell_angle_gamma 90.000000
_cell_volume 1839.679657
_symmetry_space_group_name_H-M "P 2/M"
_symmetry_group_IT_number 10
_symmetry_cell_setting 'monoclinic'
loop_
_space_group_symop_operation_xyz
x,y,z
-x,y,-z
-x,-y,-z
x,-y,z
loop_
_atom_site_type_symbol
_atom_site_label
_atom_site_fract_x
_atom_site_fract_y
_atom_site_fract_z
Si Si1 0.982463 0.841469 0.308667
Si Si2 0.559517 0.662946 0.359317
Si Si3 0.676296 0.339989 0.474292
Si Si4 0.937137 0.840441 0.143278
Si Si5 0.180217 0.157859 0.970906
Si Si6 0.734703 0.657763 0.556977
Si Si7 0.096498 0.838200 0.452019
Si Si8 0.646076 0.337985 0.805407
O O1 0.869246 0.750806 0.399218
O O2 0.988359 0.806757 0.382307
O O3 0.937616 0.000000 0.347547
O O4 0.130963 0.814633 0.105160
O O5 0.500000 0.708921 0.500000
O O6 0.589417 0.500000 0.323669
O O7 0.455544 0.709783 0.418170
O O8 0.701256 0.738937 0.184819
O O9 0.708504 0.500000 0.420898
O O10 0.805572 0.252614 0.304638
O O11 0.645055 0.318215 0.590485
O O12 0.889468 0.000000 0.197080
O O13 0.000000 0.796163 0.000000
O O14 0.048870 0.811842 0.073877
O O15 0.232300 0.000000 0.902301
O O16 0.786693 0.500000 0.502391
O O17 0.644809 0.694459 0.725808
O O18 0.235742 0.749532 0.291489
O O19 0.000000 0.789784 0.500000
O O20 0.135829 0.000000 0.401035
O O21 0.672055 0.500000 0.791258
O O22 0.500000 0.288700 0.000000
#
# Coordination Sequence:
#
# PCOD8063296 Si02
#       8
#     4   4   4   4   4   4   4   4
#     4   9  17  32  53  75 102 132 165 206 250 294
#     4  10  22  38  52  70 101 137 169 204 250 302
#     4  10  20  34  52  74  99 130 169 208 248 296
#     4  10  20  33  52  78 102 125 161 208 251 296
#     4  10  20  34  52  75 101 130 166 205 249 300
#     4   9  17  31  52  75 100 130 167 208 250 294
#     4   9  18  33  53  76 104 136 168 205 247 293
#     4   9  18  33  52  75 104 135 167 206 250 295
#
# _framework density 17.394331999999999
#
# number of rings (size 3 to 8) (size 9 to 14) (size 15 to 20)
#    0.000    2.500    1.250    0.750    0.000    2.500 
#    2.250    0.000    0.000    0.000    0.000    0.000 
#    0.000    0.000    0.000    0.000    0.000    0.000 
#
# Total GULP energy -396789.572950 kJ/mol
# GULP energy per Si atom -12399.674155 kJ/mol
# Density = 1.735474 g / cm^3
# Si number density = 17.394332 Si / 1000 Ang^3
#
#
#
# Elastic Constant Matrix: (Units=GPa)
#
#
# Indices 1 2 3 4 5 6 
#
# 1 94.8904 31.7905 37.6836 0.0000 11.6743 0.0000
# 2 31.7905 54.1752 49.2749 0.0000 0.6733 0.0000
# 3 37.6836 49.2749 112.0445 0.0000 10.5460 0.0000
# 4 0.0000 0.0000 0.0000 30.0128 0.0000 -4.8947
# 5 11.6743 0.6733 10.5460 0.0000 17.0805 0.0000
# 6 0.0000 0.0000 0.0000 -4.8947 0.0000 18.8316
#
#
#
# Elastic Compliance Matrix: (Units=1/GPa)
#
#
# Indices 1 2 3 4 5 6 
#
# 1 0.014555 -0.007950 -0.000522 0.000000 -0.009312 0.000000
# 2 -0.007950 0.036060 -0.014399 0.000000 0.012903 0.000000
# 3 -0.000522 -0.014399 0.016293 0.000000 -0.009135 0.000000
# 4 0.000000 0.000000 0.000000 0.034794 0.000000 0.009044
# 5 -0.009312 0.012903 -0.009135 0.000000 0.070043 0.000000
# 6 0.000000 0.000000 0.000000 0.009044 0.000000 0.055453
#
#
# Mechanical properties :
#
#
# Convention : Reuss Voigt Hill
#
# Bulk Modulus (GPa) = 47.24820 55.40089 51.32454
# Shear Modulus (GPa) = 17.85736 22.67571 20.26653
#
# Velocity S-wave (km/s) = 3.20757 3.61449 3.41709
# Velocity P-wave (km/s) = 6.39843 7.02414 6.71857
#
# Compressibility (1/GPa) = 0.02116483
#
# Stress axis : x y z
#
# Youngs Moduli (GPa) = 68.70436 27.73144 61.37593
#
# Poissons Ratio (x) = 0.22047 0.03207
# Poissons Ratio (y) = 0.54621 0.88376
# Poissons Ratio (z) = 0.03590 0.39931
#
# Static dielectric constant tensor:
#      x y z
#    x 3.502230 0.000000 0.252090 
#    y 0.000000 3.241110 0.000000 
#    z 0.252090 0.000000 3.204290 
# 
# 
# High freq. dielectric constant tensor:
#      x y z
#    x 1.677670 0.000000 0.017480 
#    y 0.000000 1.672070 0.000000 
#    z 0.017480 0.000000 1.662340 
# 
# From -- ./inp_files/86860.got.cif
#   From: 2010.06.25/outbox.cif.g09.slc.cpg/sg10_44_cif.got.tgz:86860.got - 2010.06.27 22:07:45.
