data_PCOD8063667
_publ_section_title
;
Structure prediction by ZEFSAII (Michael W. Deem and Ramdas Pophale) SiO2 
 PCOD8063667
Probable space group: P 2/M
;
_chemical_formula_sum "Si O2"
_cell_formula_units_Z 32
_cell_length_a 12.532223
_cell_length_b 9.273399
_cell_length_c 32.495376
_cell_angle_alpha 90.000000
_cell_angle_beta 26.110441
_cell_angle_gamma 90.000000
_cell_volume 1662.044963
_symmetry_space_group_name_H-M "P 2/M"
_symmetry_group_IT_number 10
_symmetry_cell_setting 'monoclinic'
loop_
_space_group_symop_operation_xyz
x,y,z
-x,y,-z
-x,-y,-z
x,-y,z
loop_
_atom_site_type_symbol
_atom_site_label
_atom_site_fract_x
_atom_site_fract_y
_atom_site_fract_z
Si Si1 0.183029 0.831143 0.401568
Si Si2 0.754986 0.843232 0.109098
Si Si3 0.009153 0.665071 0.086531
Si Si4 0.114496 0.165448 0.574912
Si Si5 0.996529 0.164800 0.708761
Si Si6 0.408809 0.671043 0.612237
Si Si7 0.620711 0.334771 0.284068
Si Si8 0.545749 0.168157 0.099096
O O1 0.439722 0.754813 0.318109
O O2 0.000000 0.774239 0.500000
O O3 0.079515 0.789461 0.392630
O O4 0.225691 0.000000 0.391585
O O5 0.800214 0.727700 0.128973
O O6 0.565842 0.785159 0.140330
O O7 0.669076 0.000000 0.157002
O O8 0.000000 0.869109 0.000000
O O9 0.055263 0.500000 0.058369
O O10 0.895472 0.680412 0.171537
O O11 0.266103 0.746605 0.995145
O O12 0.991808 0.188707 0.661435
O O13 0.350002 0.264699 0.491009
O O14 0.195880 0.000000 0.539953
O O15 0.179429 0.273545 0.666524
O O16 0.729296 0.199386 0.819343
O O17 0.070790 0.000000 0.693080
O O18 0.417225 0.500000 0.605743
O O19 0.382905 0.724034 0.668207
O O20 0.535121 0.500000 0.312397
O O21 0.611238 0.000000 0.072273
#
# Coordination Sequence:
#
# PCOD8063667 Si02
#       8
#     4   4   4   4   4   4   4   4
#     4  10  20  35  59  89 115 143 186 232 274 332
#     4   8  15  29  50  74 104 140 175 216 269 325
#     4  10  20  34  53  79 111 148 187 226 273 329
#     4  10  21  38  60  87 116 145 180 229 285 335
#     4  10  22  39  60  83 112 147 186 234 285 332
#     4  11  23  40  59  80 111 150 192 233 276 332
#     4  10  23  39  55  80 117 156 188 225 280 335
#     4   9  19  36  55  79 110 145 184 228 279 329
#
# _framework density 19.253388999999999
#
# number of rings (size 3 to 8) (size 9 to 14) (size 15 to 20)
#    0.000    2.250    1.250    1.875    1.750    7.000 
#    0.000    0.625    0.000    3.750    0.000    0.000 
#    0.000    0.000    0.000    0.000    0.000    0.000 
#
# Total GULP energy -396755.845784 kJ/mol
# GULP energy per Si atom -12398.620181 kJ/mol
# Density = 1.920957 g / cm^3
# Si number density = 19.253389 Si / 1000 Ang^3
#
#
#
# Elastic Constant Matrix: (Units=GPa)
#
#
# Indices 1 2 3 4 5 6 
#
# 1 85.6903 33.0121 32.7852 0.0000 -18.1081 0.0000
# 2 33.0121 72.4386 42.6071 0.0000 -10.8810 0.0000
# 3 32.7852 42.6071 99.1668 0.0000 -6.8859 0.0000
# 4 0.0000 0.0000 0.0000 24.0589 0.0000 -0.6267
# 5 -18.1081 -10.8810 -6.8859 0.0000 16.4288 0.0000
# 6 0.0000 0.0000 0.0000 -0.6267 0.0000 26.2235
#
#
#
# Elastic Compliance Matrix: (Units=1/GPa)
#
#
# Indices 1 2 3 4 5 6 
#
# 1 0.017637 -0.003887 -0.003079 0.000000 0.015574 0.000000
# 2 -0.003887 0.020778 -0.007194 0.000000 0.006462 0.000000
# 3 -0.003079 -0.007194 0.014035 0.000000 -0.002276 0.000000
# 4 0.000000 0.000000 0.000000 0.041590 0.000000 0.000994
# 5 0.015574 0.006462 -0.002276 0.000000 0.081361 0.000000
# 6 0.000000 0.000000 0.000000 0.000994 0.000000 0.038158
#
#
# Mechanical properties :
#
#
# Convention : Reuss Voigt Hill
#
# Bulk Modulus (GPa) = 41.44229 52.67828 47.06029
# Shear Modulus (GPa) = 20.00631 23.26833 21.63732
#
# Velocity S-wave (km/s) = 3.22701 3.48017 3.35598
# Velocity P-wave (km/s) = 5.95451 6.60066 6.28589
#
# Compressibility (1/GPa) = 0.02412994
#
# Stress axis : x y z
#
# Youngs Moduli (GPa) = 56.70003 48.12805 71.25172
#
# Poissons Ratio (x) = 0.18706 0.21941
# Poissons Ratio (y) = 0.22038 0.51255
# Poissons Ratio (z) = 0.17460 0.34621
#
# Static dielectric constant tensor:
#      x y z
#    x 3.759400 0.000000 0.010480 
#    y 0.000000 3.438650 0.000000 
#    z 0.010480 0.000000 3.492840 
# 
# 
# High freq. dielectric constant tensor:
#      x y z
#    x 1.735980 0.000000 -0.000150 
#    y 0.000000 1.742080 0.000000 
#    z -0.000150 0.000000 1.753310 
# 
# From -- ./inp_files/94988.got.cif
#   From: 2010.06.25/outbox.cif.g09.slc.cpg/sg10_48_cif.got.tgz:94988.got - 2010.06.27 22:07:45.
