data_PCOD8063573
_publ_section_title
;
Structure prediction by ZEFSAII (Michael W. Deem and Ramdas Pophale) SiO2 
 PCOD8063573
Probable space group: P 2/M
;
_chemical_formula_sum "Si O2"
_cell_formula_units_Z 28
_cell_length_a 15.177349
_cell_length_b 8.700225
_cell_length_c 19.474999
_cell_angle_alpha 90.000000
_cell_angle_beta 36.292143
_cell_angle_gamma 90.000000
_cell_volume 1522.138384
_symmetry_space_group_name_H-M "P 2/M"
_symmetry_group_IT_number 10
_symmetry_cell_setting 'monoclinic'
loop_
_space_group_symop_operation_xyz
x,y,z
-x,y,-z
-x,-y,-z
x,-y,z
loop_
_atom_site_type_symbol
_atom_site_label
_atom_site_fract_x
_atom_site_fract_y
_atom_site_fract_z
Si Si1 0.101382 0.818617 0.496933
Si Si2 0.350797 0.322016 0.135211
Si Si3 0.994455 0.679890 0.841052
Si Si4 0.295164 0.320601 0.893174
Si Si5 0.849920 0.172835 0.137364
Si Si6 0.594447 0.820687 0.756183
Si Si7 0.939900 0.818553 0.734444
O O1 0.273894 0.772279 0.378739
O O2 0.000000 0.744801 0.500000
O O3 0.045177 0.760728 0.606170
O O4 0.085744 0.000000 0.502037
O O5 0.335500 0.500000 0.165688
O O6 0.348194 0.215714 0.203764
O O7 0.216027 0.270963 0.171122
O O8 0.500000 0.291210 0.000000
O O9 0.000123 0.500000 0.822364
O O10 0.019227 0.772757 0.755384
O O11 0.129219 0.725370 0.807406
O O12 0.836649 0.731017 0.972886
O O13 0.284617 0.500000 0.886083
O O14 0.281981 0.238429 0.827437
O O15 0.450547 0.279252 0.830120
O O16 0.809310 0.000000 0.184671
O O17 0.000000 0.180331 0.000000
O O18 0.554843 0.000000 0.775340
O O19 0.911739 0.000000 0.749154
#
# Coordination Sequence:
#
# PCOD8063573 Si02
#       7
#     4   4   4   4   4   4   4
#     4   9  18  36  56  75 100 133 176 226 271 305
#     4  11  23  36  49  72 108 141 168 209 266 317
#     4  10  20  34  52  78 113 145 171 209 265 317
#     4  10  20  34  52  78 113 145 171 209 265 317
#     4   9  17  31  53  80 107 138 179 217 251 307
#     4  11  21  35  56  77 101 136 179 221 260 310
#     4  11  21  35  56  77 101 136 179 221 260 310
#
# _framework density 18.395174000000001
#
# number of rings (size 3 to 8) (size 9 to 14) (size 15 to 20)
#    0.000    1.857    1.429    3.429    0.000    8.000 
#    0.000    3.571    0.000    0.857    0.000    6.000 
#    0.000    0.000    0.000    0.000    0.000    0.000 
#
# Total GULP energy -347280.135044 kJ/mol
# GULP energy per Si atom -12402.861966 kJ/mol
# Density = 1.835331 g / cm^3
# Si number density = 18.395174 Si / 1000 Ang^3
#
#
#
# Elastic Constant Matrix: (Units=GPa)
#
#
# Indices 1 2 3 4 5 6 
#
# 1 83.9501 14.6299 25.0452 0.0000 23.6147 0.0000
# 2 14.6299 50.8872 34.6560 0.0000 3.6880 0.0000
# 3 25.0452 34.6560 77.4640 0.0000 21.0747 0.0000
# 4 0.0000 0.0000 0.0000 14.8668 0.0000 3.4517
# 5 23.6147 3.6880 21.0747 0.0000 19.3044 0.0000
# 6 0.0000 0.0000 0.0000 3.4517 0.0000 35.9072
#
#
#
# Elastic Compliance Matrix: (Units=1/GPa)
#
#
# Indices 1 2 3 4 5 6 
#
# 1 0.019347 -0.006183 0.003739 0.000000 -0.026568 0.000000
# 2 -0.006183 0.032321 -0.018263 0.000000 0.021327 0.000000
# 3 0.003739 -0.018263 0.028686 0.000000 -0.032401 0.000000
# 4 0.000000 0.000000 0.000000 0.068800 0.000000 -0.006614
# 5 -0.026568 0.021327 -0.032401 0.000000 0.115600 0.000000
# 6 0.000000 0.000000 0.000000 -0.006614 0.000000 0.028485
#
#
# Mechanical properties :
#
#
# Convention : Reuss Voigt Hill
#
# Bulk Modulus (GPa) = 25.68051 40.10703 32.89377
# Shear Modulus (GPa) = 14.38301 23.21368 18.79835
#
# Velocity S-wave (km/s) = 2.79926 3.55624 3.20021
# Velocity P-wave (km/s) = 4.94354 6.22196 5.61923
#
# Compressibility (1/GPa) = 0.03894004
#
# Stress axis : x y z
#
# Youngs Moduli (GPa) = 51.68693 30.93973 34.86050
#
# Poissons Ratio (x) = 0.19131 -0.13034
# Poissons Ratio (y) = 0.31959 0.63665
# Poissons Ratio (z) = -0.19325 0.56504
#
# Static dielectric constant tensor:
#      x y z
#    x 3.402260 0.000000 0.092550 
#    y 0.000000 3.307030 0.000000 
#    z 0.092550 0.000000 3.337470 
# 
# 
# High freq. dielectric constant tensor:
#      x y z
#    x 1.717060 0.000000 0.009600 
#    y 0.000000 1.714080 0.000000 
#    z 0.009600 0.000000 1.687820 
# 
# From -- ./inp_files/68565.got.cif
#   From: 2010.06.25/outbox.cif.g09.slc.cpg/sg10_35_cif.got.tgz:68565.got - 2010.06.27 22:07:45.
