data_PCOD8063273
_publ_section_title
;
Structure prediction by ZEFSAII (Michael W. Deem and Ramdas Pophale) SiO2 
 PCOD8063273
Probable space group: P 2/M
;
_chemical_formula_sum "Si O2"
_cell_formula_units_Z 32
_cell_length_a 14.525087
_cell_length_b 9.150488
_cell_length_c 23.196015
_cell_angle_alpha 90.000000
_cell_angle_beta 31.724375
_cell_angle_gamma 90.000000
_cell_volume 1621.155517
_symmetry_space_group_name_H-M "P 2/M"
_symmetry_group_IT_number 10
_symmetry_cell_setting 'monoclinic'
loop_
_space_group_symop_operation_xyz
x,y,z
-x,y,-z
-x,-y,-z
x,-y,z
loop_
_atom_site_type_symbol
_atom_site_label
_atom_site_fract_x
_atom_site_fract_y
_atom_site_fract_z
Si Si1 0.577852 0.840185 0.813874
Si Si2 0.684351 0.160007 0.882849
Si Si3 0.751662 0.671814 0.026764
Si Si4 0.198932 0.339645 0.873985
Si Si5 0.295597 0.331708 0.613444
Si Si6 0.885040 0.827295 0.187769
Si Si7 0.002482 0.331826 0.681915
Si Si8 0.895285 0.671729 0.611925
O O1 0.685250 0.863314 0.814510
O O2 0.404321 0.750024 0.924064
O O3 0.706487 0.747947 0.704541
O O4 0.532651 0.000000 0.811037
O O5 0.858651 0.255332 0.801002
O O6 0.701359 0.000000 0.904662
O O7 0.500000 0.235182 0.000000
O O8 0.763059 0.500000 0.007077
O O9 0.699281 0.702430 0.121750
O O10 0.930367 0.745536 0.911579
O O11 0.257794 0.500000 0.819578
O O12 0.226856 0.220235 0.809219
O O13 0.000000 0.349048 0.000000
O O14 0.500000 0.295515 0.500000
O O15 0.267201 0.500000 0.647816
O O16 0.219828 0.220854 0.700443
O O17 0.195697 0.302162 0.605717
O O18 0.913012 0.000000 0.172246
O O19 0.951807 0.500000 0.712505
O O20 0.996197 0.283058 0.617793
O O21 0.861838 0.500000 0.628482
O O22 0.000000 0.724347 0.500000
#
# Coordination Sequence:
#
# PCOD8063273 Si02
#       8
#     4   4   4   4   4   4   4   4
#     4  10  20  33  51  81 117 147 181 226 279 337
#     4   9  19  34  52  78 114 150 181 218 276 342
#     4  10  20  35  56  82 114 149 187 228 278 337
#     4   8  16  33  54  76 105 143 184 223 268 326
#     4  10  22  41  60  80 111 150 196 244 284 336
#     4  11  22  35  56  82 112 147 185 233 290 342
#     4   9  19  36  58  83 107 142 190 237 283 329
#     4   9  18  36  59  81 110 145 188 236 283 336
#
# _framework density 19.739007999999998
#
# number of rings (size 3 to 8) (size 9 to 14) (size 15 to 20)
#    0.000    2.500    0.000    2.625    1.750    4.500 
#    2.250    0.000    0.000    0.000    0.000    0.000 
#    0.000    0.000    0.000    0.000    0.000    0.000 
#
# Total GULP energy -396539.596746 kJ/mol
# GULP energy per Si atom -12391.862398 kJ/mol
# Density = 1.969408 g / cm^3
# Si number density = 19.739008 Si / 1000 Ang^3
#
#
#
# Elastic Constant Matrix: (Units=GPa)
#
#
# Indices 1 2 3 4 5 6 
#
# 1 68.3785 34.7430 36.9217 0.0000 -7.8443 0.0000
# 2 34.7430 109.5513 50.2945 0.0000 -3.8905 0.0000
# 3 36.9217 50.2945 113.7299 0.0000 -8.2380 0.0000
# 4 0.0000 0.0000 0.0000 20.8144 0.0000 2.0258
# 5 -7.8443 -3.8905 -8.2380 0.0000 30.4684 0.0000
# 6 0.0000 0.0000 0.0000 2.0258 0.0000 17.2650
#
#
#
# Elastic Compliance Matrix: (Units=1/GPa)
#
#
# Indices 1 2 3 4 5 6 
#
# 1 0.019368 -0.004076 -0.004245 0.000000 0.003318 0.000000
# 2 -0.004076 0.012311 -0.004165 0.000000 -0.000603 0.000000
# 3 -0.004245 -0.004165 0.012133 0.000000 0.001656 0.000000
# 4 0.000000 0.000000 0.000000 0.048599 0.000000 -0.005702
# 5 0.003318 -0.000603 0.001656 0.000000 0.034046 0.000000
# 6 0.000000 0.000000 0.000000 -0.005702 0.000000 0.058590
#
#
# Mechanical properties :
#
#
# Convention : Reuss Voigt Hill
#
# Bulk Modulus (GPa) = 53.07619 59.50867 56.29243
# Shear Modulus (GPa) = 23.11627 25.02295 24.06961
#
# Velocity S-wave (km/s) = 3.42584 3.56433 3.49577
# Velocity P-wave (km/s) = 6.52655 6.86676 6.69882
#
# Compressibility (1/GPa) = 0.01884084
#
# Stress axis : x y z
#
# Youngs Moduli (GPa) = 51.63115 81.22544 82.42201
#
# Poissons Ratio (x) = 0.33105 0.34988
# Poissons Ratio (y) = 0.21043 0.34329
# Poissons Ratio (z) = 0.21917 0.33830
#
# Static dielectric constant tensor:
#      x y z
#    x 3.967180 0.000000 0.030010 
#    y 0.000000 3.744330 0.000000 
#    z 0.030010 0.000000 3.354440 
# 
# 
# High freq. dielectric constant tensor:
#      x y z
#    x 1.766490 0.000000 0.000780 
#    y 0.000000 1.766130 0.000000 
#    z 0.000780 0.000000 1.748080 
# 
# From -- ./inp_files/89540.got.cif
#   From: 2010.06.25/outbox.cif.g09.slc.cpg/sg10_45_cif.got.tgz:89540.got - 2010.06.27 22:07:45.
