data_PCOD8063697
_publ_section_title
;
Structure prediction by ZEFSAII (Michael W. Deem and Ramdas Pophale) SiO2 
 PCOD8063697
Probable space group: P 2/M
;
_chemical_formula_sum "Si O2"
_cell_formula_units_Z 26
_cell_length_a 17.148629
_cell_length_b 9.501538
_cell_length_c 6.926854
_cell_angle_alpha 90.000000
_cell_angle_beta 83.426451
_cell_angle_gamma 90.000000
_cell_volume 1121.230101
_symmetry_space_group_name_H-M "P 2/M"
_symmetry_group_IT_number 10
_symmetry_cell_setting 'monoclinic'
loop_
_space_group_symop_operation_xyz
x,y,z
-x,y,-z
-x,-y,-z
x,-y,z
loop_
_atom_site_type_symbol
_atom_site_label
_atom_site_fract_x
_atom_site_fract_y
_atom_site_fract_z
Si Si1 0.070506 0.838665 0.616446
Si Si2 0.500000 0.228429 0.000000
Si Si3 0.197090 0.163986 0.261917
Si Si4 0.296994 0.349007 0.730186
Si Si5 0.570711 0.845509 0.363418
Si Si6 0.656423 0.653454 0.842530
Si Si7 0.867755 0.333385 0.076887
O O1 0.152018 0.824252 0.476803
O O2 0.065325 0.740408 0.810618
O O3 0.000000 0.788378 0.500000
O O4 0.057866 0.000000 0.686148
O O5 0.449035 0.140678 0.859432
O O6 0.563318 0.313260 0.851159
O O7 0.283541 0.232768 0.267965
O O8 0.205576 0.000000 0.194662
O O9 0.146350 0.250918 0.118388
O O10 0.308806 0.500000 0.625555
O O11 0.350408 0.237736 0.602129
O O12 0.206312 0.309131 0.761257
O O13 0.327449 0.355674 0.937357
O O14 0.500000 0.772807 0.500000
O O15 0.585916 0.000000 0.443181
O O16 0.672753 0.500000 0.744012
O O17 0.884335 0.500000 0.033663
#
# Coordination Sequence:
#
# PCOD8063697 Si02
#       7
#     4   2   4   4   4   4   4
#     4  10  23  42  62  87 119 154 193 235 282 344
#     4  10  20  34  54  76 106 148 184 224 280 330
#     4  10  21  38  61  87 116 153 195 238 287 343
#     4   8  17  34  53  75 104 140 181 222 272 334
#     4  10  21  34  49  73 103 136 179 229 276 325
#     4   9  18  34  56  81 111 147 189 234 279 333
#     4  10  21  38  61  87 116 150 187 234 289 340
#
# _framework density 23.188817
#
# number of rings (size 3 to 8) (size 9 to 14) (size 15 to 20)
#    0.000    2.462    0.000    2.308    0.000   11.077 
#    0.000    7.692    0.000    0.000    0.000    0.000 
#    0.000    0.000    0.000    0.000    0.000    0.000 
#
# Total GULP energy -322137.693134 kJ/mol
# GULP energy per Si atom -12389.911274 kJ/mol
# Density = 2.313604 g / cm^3
# Si number density = 23.188817 Si / 1000 Ang^3
#
#
#
# Elastic Constant Matrix: (Units=GPa)
#
#
# Indices 1 2 3 4 5 6 
#
# 1 40.7296 6.5062 -6.5413 0.0000 7.3189 0.0000
# 2 6.5062 126.9228 21.8903 0.0000 10.8994 0.0000
# 3 -6.5413 21.8903 50.4421 0.0000 10.3257 0.0000
# 4 0.0000 0.0000 0.0000 38.2995 0.0000 -14.1434
# 5 7.3189 10.8994 10.3257 0.0000 35.1468 0.0000
# 6 0.0000 0.0000 0.0000 -14.1434 0.0000 18.8373
#
#
#
# Elastic Compliance Matrix: (Units=1/GPa)
#
#
# Indices 1 2 3 4 5 6 
#
# 1 0.026949 -0.001778 0.005641 0.000000 -0.006718 0.000000
# 2 -0.001778 0.008725 -0.003765 0.000000 -0.001229 0.000000
# 3 0.005641 -0.003765 0.023612 0.000000 -0.006944 0.000000
# 4 0.000000 0.000000 0.000000 0.036127 0.000000 0.027125
# 5 -0.006718 -0.001229 -0.006944 0.000000 0.032272 0.000000
# 6 0.000000 0.000000 0.000000 0.027125 0.000000 0.073452
#
#
# Mechanical properties :
#
#
# Convention : Reuss Voigt Hill
#
# Bulk Modulus (GPa) = 16.81148 29.08944 22.95046
# Shear Modulus (GPa) = 22.64833 31.53936 27.09384
#
# Velocity S-wave (km/s) = 3.12860 3.69197 3.42190
# Velocity P-wave (km/s) = 4.50737 5.54491 5.05284
#
# Compressibility (1/GPa) = 0.05948315
#
# Stress axis : x y z
#
# Youngs Moduli (GPa) = 37.10674 114.61491 42.35192
#
# Poissons Ratio (x) = 0.20373 -0.23892
# Poissons Ratio (y) = 0.06596 0.15946
# Poissons Ratio (z) = -0.20933 0.43154
#
# Static dielectric constant tensor:
#      x y z
#    x 4.437140 0.000000 -0.028660 
#    y 0.000000 4.319600 0.000000 
#    z -0.028660 0.000000 3.849230 
# 
# 
# High freq. dielectric constant tensor:
#      x y z
#    x 1.914770 0.000000 0.002510 
#    y 0.000000 1.909900 0.000000 
#    z 0.002510 0.000000 1.912310 
# 
# From -- ./inp_files/31598.got.cif
#   From: 2010.06.25/outbox.cif.g09.slc.cpg/sg10_16_cif.got.tgz:31598.got - 2010.06.27 22:07:45.
