data_PCOD8063119
_publ_section_title
;
Structure prediction by ZEFSAII (Michael W. Deem and Ramdas Pophale) SiO2 
 PCOD8063119
Probable space group: P 2/M
;
_chemical_formula_sum "Si O2"
_cell_formula_units_Z 26
_cell_length_a 24.497086
_cell_length_b 13.093312
_cell_length_c 10.090399
_cell_angle_alpha 90.000000
_cell_angle_beta 30.982410
_cell_angle_gamma 90.000000
_cell_volume 1666.056188
_symmetry_space_group_name_H-M "P 2/M"
_symmetry_group_IT_number 10
_symmetry_cell_setting 'monoclinic'
loop_
_space_group_symop_operation_xyz
x,y,z
-x,y,-z
-x,-y,-z
x,-y,z
loop_
_atom_site_type_symbol
_atom_site_label
_atom_site_fract_x
_atom_site_fract_y
_atom_site_fract_z
Si Si1 0.277454 0.745197 0.032531
Si Si2 0.002284 0.765908 0.145122
Si Si3 0.928818 0.380356 0.522455
Si Si4 0.207798 0.117511 0.408908
Si Si5 0.212203 0.116815 0.698927
Si Si6 0.659328 0.118425 0.318382
Si Si7 0.500000 0.234962 0.500000
O O1 0.192187 0.655167 0.202571
O O2 0.273121 0.807589 0.178406
O O3 0.257123 0.824432 0.953784
O O4 0.398761 0.699819 0.765364
O O5 0.978541 0.671633 0.290192
O O6 0.916878 0.856361 0.340372
O O7 0.000000 0.723517 0.000000
O O8 0.116197 0.811353 0.943616
O O9 0.927754 0.500000 0.498966
O O10 0.000000 0.350480 0.500000
O O11 0.249463 0.138209 0.471300
O O12 0.224368 0.000000 0.332630
O O13 0.310543 0.139848 0.591585
O O14 0.173623 0.000000 0.792587
O O15 0.541614 0.162395 0.533975
O O16 0.663729 0.000000 0.275033
#
# Coordination Sequence:
#
# PCOD8063119 Si02
#       7
#     4   4   4   4   4   4   2
#     4   9  18  31  47  64  88 120 155 181 225 270
#     4   9  17  29  45  66  95 124 151 176 220 276
#     4  10  20  33  49  70  92 112 143 193 240 272
#     4   9  16  26  42  66  96 124 151 184 218 258
#     4   9  16  26  42  67  96 126 154 181 214 258
#     4   9  16  27  45  65  89 121 155 184 214 256
#     4   8  19  30  47  64  88 124 159 184 219 258
#
# _framework density 15.605715999999999
#
# number of rings (size 3 to 8) (size 9 to 14) (size 15 to 20)
#    0.923    2.000    0.000    2.077    0.000    2.154 
#    0.000    1.154    0.000   10.154    0.000    0.000 
#    0.000    4.308    0.000    0.000    0.000    0.000 
#
# Total GULP energy -322158.399986 kJ/mol
# GULP energy per Si atom -12390.707692 kJ/mol
# Density = 1.557020 g / cm^3
# Si number density = 15.605716 Si / 1000 Ang^3
#
#
#
# Elastic Constant Matrix: (Units=GPa)
#
#
# Indices 1 2 3 4 5 6 
#
# 1 107.6172 37.7881 42.4701 0.0000 -1.6781 0.0000
# 2 37.7881 56.8146 33.7050 0.0000 -1.1861 0.0000
# 3 42.4701 33.7050 89.1358 0.0000 -4.2351 0.0000
# 4 0.0000 0.0000 0.0000 17.7359 0.0000 1.1498
# 5 -1.6781 -1.1861 -4.2351 0.0000 23.0065 0.0000
# 6 0.0000 0.0000 0.0000 1.1498 0.0000 18.8874
#
#
#
# Elastic Compliance Matrix: (Units=1/GPa)
#
#
# Indices 1 2 3 4 5 6 
#
# 1 0.013043 -0.006430 -0.003787 0.000000 -0.000077 0.000000
# 2 -0.006430 0.025865 -0.006734 0.000000 -0.000375 0.000000
# 3 -0.003787 -0.006734 0.015677 0.000000 0.002262 0.000000
# 4 0.000000 0.000000 0.000000 0.056606 0.000000 -0.003446
# 5 -0.000077 -0.000375 0.002262 0.000000 0.043857 0.000000
# 6 0.000000 0.000000 0.000000 -0.003446 0.000000 0.053155
#
#
# Mechanical properties :
#
#
# Convention : Reuss Voigt Hill
#
# Bulk Modulus (GPa) = 48.35005 53.49930 50.92468
# Shear Modulus (GPa) = 20.08014 21.23293 20.65654
#
# Velocity S-wave (km/s) = 3.59098 3.69262 3.64215
# Velocity P-wave (km/s) = 6.94572 7.24823 7.09859
#
# Compressibility (1/GPa) = 0.02068250
#
# Stress axis : x y z
#
# Youngs Moduli (GPa) = 76.66737 38.66166 63.78715
#
# Poissons Ratio (x) = 0.24861 0.24155
# Poissons Ratio (y) = 0.49300 0.42957
# Poissons Ratio (z) = 0.29033 0.26037
#
# Static dielectric constant tensor:
#      x y z
#    x 3.064200 0.000000 0.094150 
#    y 0.000000 2.658900 0.000000 
#    z 0.094150 0.000000 2.881120 
# 
# 
# High freq. dielectric constant tensor:
#      x y z
#    x 1.605790 0.000000 0.007020 
#    y 0.000000 1.569810 0.000000 
#    z 0.007020 0.000000 1.589290 
# 
# From -- ./inp_files/34993.got.cif
#   From: 2010.06.25/outbox.cif.g09.slc.cpg/sg10_18_cif.got.tgz:34993.got - 2010.06.27 22:07:45.
