data_PCOD8063165
_publ_section_title
;
Structure prediction by ZEFSAII (Michael W. Deem and Ramdas Pophale) SiO2 
 PCOD8063165
Probable space group: P 2/M
;
_chemical_formula_sum "Si O2"
_cell_formula_units_Z 32
_cell_length_a 22.642011
_cell_length_b 9.073116
_cell_length_c 28.033409
_cell_angle_alpha 90.000000
_cell_angle_beta 162.020464
_cell_angle_gamma 90.000000
_cell_volume 1777.673729
_symmetry_space_group_name_H-M "P 2/M"
_symmetry_group_IT_number 10
_symmetry_cell_setting 'monoclinic'
loop_
_space_group_symop_operation_xyz
x,y,z
-x,y,-z
-x,-y,-z
x,-y,z
loop_
_atom_site_type_symbol
_atom_site_label
_atom_site_fract_x
_atom_site_fract_y
_atom_site_fract_z
Si Si1 0.111131 0.174785 0.728011
Si Si2 0.580793 0.327591 0.709467
Si Si3 0.905210 0.672405 0.033763
Si Si4 0.166684 0.166232 0.166621
Si Si5 0.157512 0.823866 0.657463
Si Si6 0.578859 0.174786 0.961865
Si Si7 0.137564 0.830739 0.900878
Si Si8 0.808939 0.169249 0.572148
O O1 0.107429 0.237971 0.671574
O O2 0.295878 0.238934 0.897956
O O3 0.917882 0.218316 0.607503
O O4 0.128808 0.000000 0.740629
O O5 0.580474 0.500000 0.698886
O O6 0.648689 0.247828 0.713127
O O7 0.370170 0.275416 0.560653
O O8 0.719696 0.286802 0.859971
O O9 0.946573 0.500000 0.064854
O O10 0.868961 0.724612 0.059246
O O11 0.094121 0.752182 0.158389
O O12 0.224747 0.000000 0.224664
O O13 0.000000 0.170705 0.000000
O O14 0.000000 0.761311 0.500000
O O15 0.156975 0.000000 0.656942
O O16 0.364155 0.762085 0.799849
O O17 0.676846 0.218406 0.987091
O O18 0.576451 0.000000 0.964461
O O19 0.947606 0.810270 0.723680
O O20 0.156920 0.000000 0.932605
O O21 0.740072 0.000000 0.515648
#
# Coordination Sequence:
#
# PCOD8063165 Si02
#       8
#     4   4   4   4   4   4   4   4
#     4   8  14  25  40  58  85 122 158 192 235 286
#     4  10  20  33  50  73 100 129 161 198 241 290
#     4  10  20  33  50  73 100 129 161 198 241 290
#     4   9  17  31  52  75  98 127 162 198 238 285
#     4   9  15  21  33  59  92 121 152 193 238 282
#     4   8  14  25  40  58  85 122 158 192 235 286
#     4   9  18  32  49  70  96 127 165 206 245 287
#     4   9  18  32  49  70  96 127 165 206 245 287
#
# _framework density 18.001052999999999
#
# number of rings (size 3 to 8) (size 9 to 14) (size 15 to 20)
#    0.000    3.000    0.000    3.000    0.000    6.000 
#    0.000    3.125    0.000    3.750    0.000    0.875 
#    0.000    7.000    0.000    0.000    0.000    0.000 
#
# Total GULP energy -396726.350584 kJ/mol
# GULP energy per Si atom -12397.698456 kJ/mol
# Density = 1.796008 g / cm^3
# Si number density = 18.001053 Si / 1000 Ang^3
#
#
#
# Elastic Constant Matrix: (Units=GPa)
#
#
# Indices 1 2 3 4 5 6 
#
# 1 147.4842 43.3753 73.7877 0.0000 16.1494 0.0000
# 2 43.3753 58.3516 33.5952 0.0000 6.5220 0.0000
# 3 73.7877 33.5952 97.4402 0.0000 17.1642 0.0000
# 4 0.0000 0.0000 0.0000 15.8904 0.0000 -5.7037
# 5 16.1494 6.5220 17.1642 0.0000 23.7982 0.0000
# 6 0.0000 0.0000 0.0000 -5.7037 0.0000 7.5705
#
#
#
# Elastic Compliance Matrix: (Units=1/GPa)
#
#
# Indices 1 2 3 4 5 6 
#
# 1 0.011860 -0.004526 -0.007127 0.000000 -0.001667 0.000000
# 2 -0.004526 0.023117 -0.004545 0.000000 0.000014 0.000000
# 3 -0.007127 -0.004545 0.018506 0.000000 -0.007266 0.000000
# 4 0.000000 0.000000 0.000000 0.086258 0.000000 0.064988
# 5 -0.001667 0.000014 -0.007266 0.000000 0.048388 0.000000
# 6 0.000000 0.000000 0.000000 0.064988 0.000000 0.181055
#
#
# Mechanical properties :
#
#
# Convention : Reuss Voigt Hill
#
# Bulk Modulus (GPa) = 47.42239 67.19916 57.31077
# Shear Modulus (GPa) = 12.23663 19.61967 15.92815
#
# Velocity S-wave (km/s) = 2.61007 3.30497 2.97786
# Velocity P-wave (km/s) = 5.95691 7.20940 6.61288
#
# Compressibility (1/GPa) = 0.02108709
#
# Stress axis : x y z
#
# Youngs Moduli (GPa) = 84.31939 43.25739 54.03567
#
# Poissons Ratio (x) = 0.19580 0.38509
# Poissons Ratio (y) = 0.38167 0.24560
# Poissons Ratio (z) = 0.60090 0.19661
#
# Static dielectric constant tensor:
#      x y z
#    x 3.507290 0.000000 0.110440 
#    y 0.000000 2.932780 0.000000 
#    z 0.110440 0.000000 3.347390 
# 
# 
# High freq. dielectric constant tensor:
#      x y z
#    x 1.706210 0.000000 0.013140 
#    y 0.000000 1.656160 0.000000 
#    z 0.013140 0.000000 1.687160 
# 
# From -- ./inp_files/93730.got.cif
#   From: 2010.06.25/outbox.cif.g09.slc.cpg/sg10_47_cif.got.tgz:93730.got - 2010.06.27 22:07:45.
