data_PCOD8063509
_publ_section_title
;
Structure prediction by ZEFSAII (Michael W. Deem and Ramdas Pophale) SiO2 
 PCOD8063509
Probable space group: P 2/M
;
_chemical_formula_sum "Si O2"
_cell_formula_units_Z 32
_cell_length_a 9.076838
_cell_length_b 14.421353
_cell_length_c 26.761891
_cell_angle_alpha 90.000000
_cell_angle_beta 31.105590
_cell_angle_gamma 90.000000
_cell_volume 1809.780777
_symmetry_space_group_name_H-M "P 2/M"
_symmetry_group_IT_number 10
_symmetry_cell_setting 'monoclinic'
loop_
_space_group_symop_operation_xyz
x,y,z
-x,y,-z
-x,-y,-z
x,-y,z
loop_
_atom_site_type_symbol
_atom_site_label
_atom_site_fract_x
_atom_site_fract_y
_atom_site_fract_z
Si Si1 0.108182 0.894175 0.571822
Si Si2 0.316270 0.610345 0.909268
Si Si3 0.245128 0.395969 0.295811
Si Si4 0.679584 0.391713 0.897967
Si Si5 0.794434 0.742472 0.605930
Si Si6 0.319474 0.604433 0.597972
Si Si7 0.754108 0.893294 0.356648
Si Si8 0.778491 0.727141 0.282616
O O1 0.413927 0.880141 0.457137
O O2 0.115875 0.863603 0.627623
O O3 0.871193 0.838599 0.610342
O O4 0.013730 0.000000 0.595996
O O5 0.303197 0.500000 0.914568
O O6 0.470836 0.643510 0.813429
O O7 0.485060 0.644522 0.909034
O O8 0.000000 0.653636 0.000000
O O9 0.294237 0.500000 0.300952
O O10 0.148611 0.338867 0.371428
O O11 0.012005 0.394345 0.319514
O O12 0.769610 0.500000 0.865683
O O13 0.961593 0.328074 0.818271
O O14 0.500000 0.376766 0.000000
O O15 0.461420 0.746628 0.689033
O O16 0.000000 0.722838 0.500000
O O17 0.500000 0.647940 0.500000
O O18 0.427803 0.500000 0.577435
O O19 0.373232 0.665488 0.630896
O O20 0.880505 0.824832 0.277555
O O21 0.831847 0.000000 0.321288
#
# Coordination Sequence:
#
# PCOD8063509 Si02
#       8
#     4   4   4   4   4   4   4   4
#     4   9  19  37  57  78 108 145 187 230 273 322
#     4   9  18  35  58  78  97 134 184 236 282 316
#     4  10  21  36  51  72 107 146 191 228 264 320
#     4  10  22  39  58  83 112 145 187 234 283 329
#     4  12  24  34  48  81 118 152 182 220 277 322
#     4  10  20  34  52  72 101 150 195 224 260 318
#     4   9  19  36  60  82 103 142 189 232 275 328
#     4  12  22  33  56  81 115 147 183 227 280 337
#
# _framework density 17.681698999999998
#
# number of rings (size 3 to 8) (size 9 to 14) (size 15 to 20)
#    0.000    1.875    2.500    2.625    3.500    2.000 
#    0.000    0.000    0.000    0.375    0.000    0.000 
#    0.000    3.000    0.000    0.000    0.000    0.000 
#
# Total GULP energy -396817.481358 kJ/mol
# GULP energy per Si atom -12400.546292 kJ/mol
# Density = 1.764145 g / cm^3
# Si number density = 17.681699 Si / 1000 Ang^3
#
#
#
# Elastic Constant Matrix: (Units=GPa)
#
#
# Indices 1 2 3 4 5 6 
#
# 1 98.8620 43.9516 35.7290 0.0000 -7.8861 0.0000
# 2 43.9516 79.4355 36.9945 0.0000 4.3724 0.0000
# 3 35.7290 36.9945 87.8357 0.0000 -8.8271 0.0000
# 4 0.0000 0.0000 0.0000 15.5825 0.0000 3.4838
# 5 -7.8861 4.3724 -8.8271 0.0000 26.2199 0.0000
# 6 0.0000 0.0000 0.0000 3.4838 0.0000 21.1914
#
#
#
# Elastic Compliance Matrix: (Units=1/GPa)
#
#
# Indices 1 2 3 4 5 6 
#
# 1 0.014569 -0.007199 -0.002415 0.000000 0.004769 0.000000
# 2 -0.007199 0.019878 -0.006205 0.000000 -0.007569 0.000000
# 3 -0.002415 -0.006205 0.015537 0.000000 0.005539 0.000000
# 4 0.000000 0.000000 0.000000 0.066623 0.000000 -0.010953
# 5 0.004769 -0.007569 0.005539 0.000000 0.042700 0.000000
# 6 0.000000 0.000000 0.000000 -0.010953 0.000000 0.048989
#
#
# Mechanical properties :
#
#
# Convention : Reuss Voigt Hill
#
# Bulk Modulus (GPa) = 54.50355 55.49814 55.00085
# Shear Modulus (GPa) = 20.32116 22.56264 21.44190
#
# Velocity S-wave (km/s) = 3.39378 3.57605 3.48611
# Velocity P-wave (km/s) = 6.80064 6.96465 6.88313
#
# Compressibility (1/GPa) = 0.01834743
#
# Stress axis : x y z
#
# Youngs Moduli (GPa) = 68.64055 50.30668 64.36207
#
# Poissons Ratio (x) = 0.36214 0.15543
# Poissons Ratio (y) = 0.49412 0.39934
# Poissons Ratio (z) = 0.16576 0.31213
#
# Static dielectric constant tensor:
#      x y z
#    x 3.312310 0.000000 -0.027980 
#    y 0.000000 3.194540 0.000000 
#    z -0.027980 0.000000 3.180330 
# 
# 
# High freq. dielectric constant tensor:
#      x y z
#    x 1.688520 0.000000 0.001500 
#    y 0.000000 1.665840 0.000000 
#    z 0.001500 0.000000 1.664120 
# 
# From -- ./inp_files/82845.got.cif
#   From: 2010.06.25/outbox.cif.g09.slc.cpg/sg10_42_cif.got.tgz:82845.got - 2010.06.27 22:07:45.
