data_PCOD8063595
_publ_section_title
;
Structure prediction by ZEFSAII (Michael W. Deem and Ramdas Pophale) SiO2 
 PCOD8063595
Probable space group: P 2/M
;
_chemical_formula_sum "Si O2"
_cell_formula_units_Z 32
_cell_length_a 17.682242
_cell_length_b 8.458002
_cell_length_c 23.744625
_cell_angle_alpha 90.000000
_cell_angle_beta 30.938152
_cell_angle_gamma 90.000000
_cell_volume 1825.696555
_symmetry_space_group_name_H-M "P 2/M"
_symmetry_group_IT_number 10
_symmetry_cell_setting 'monoclinic'
loop_
_space_group_symop_operation_xyz
x,y,z
-x,y,-z
-x,-y,-z
x,-y,z
loop_
_atom_site_type_symbol
_atom_site_label
_atom_site_fract_x
_atom_site_fract_y
_atom_site_fract_z
Si Si1 0.446514 0.816455 0.972799
Si Si2 0.266013 0.185754 0.404503
Si Si3 0.386750 0.188334 0.444609
Si Si4 0.378509 0.173534 0.625723
Si Si5 0.152227 0.189185 0.684835
Si Si6 0.867761 0.317543 0.818405
Si Si7 0.945017 0.817423 0.650672
Si Si8 0.689600 0.681547 0.742693
O O1 0.533154 0.716749 0.870904
O O2 0.481330 0.000000 0.941409
O O3 0.500000 0.760034 0.000000
O O4 0.274165 0.785926 0.076238
O O5 0.365728 0.241501 0.393694
O O6 0.324585 0.282443 0.314171
O O7 0.096877 0.230325 0.524094
O O8 0.283130 0.000000 0.382247
O O9 0.540216 0.260003 0.373002
O O10 0.245524 0.244578 0.570694
O O11 0.394999 0.000000 0.444282
O O12 0.500000 0.156886 0.500000
O O13 0.234255 0.254462 0.689525
O O14 0.328372 0.000000 0.677773
O O15 0.993251 0.269181 0.782752
O O16 0.137502 0.000000 0.695764
O O17 0.827463 0.500000 0.851193
O O18 0.920784 0.287201 0.721137
O O19 0.815207 0.791260 0.689142
O O20 0.947851 0.000000 0.667881
O O21 0.732387 0.500000 0.724817
#
# Coordination Sequence:
#
# PCOD8063595 Si02
#       8
#     4   4   4   4   4   4   4   4
#     4  11  23  40  61  76  93 128 173 216 256 305
#     4  10  20  34  53  75 104 140 179 214 246 296
#     4   8  13  25  46  74 102 134 173 212 248 287
#     4   7  11  20  42  72 100 129 168 212 248 285
#     4   9  15  28  48  73 103 136 172 209 249 299
#     4  12  23  33  51  78 107 136 167 210 261 307
#     4  11  21  36  55  75 100 137 179 213 249 297
#     4  12  25  38  53  75 104 134 169 214 261 307
#
# _framework density 17.527557000000002
#
# number of rings (size 3 to 8) (size 9 to 14) (size 15 to 20)
#    0.000    2.000    2.500    4.875    0.000    3.000 
#    0.000    0.000    0.000    4.125    0.000    0.875 
#    0.000    7.000    0.000    0.000    0.000    0.000 
#
# Total GULP energy -396663.745591 kJ/mol
# GULP energy per Si atom -12395.742050 kJ/mol
# Density = 1.748766 g / cm^3
# Si number density = 17.527557 Si / 1000 Ang^3
#
#
#
# Elastic Constant Matrix: (Units=GPa)
#
#
# Indices 1 2 3 4 5 6 
#
# 1 127.8935 12.8893 52.9792 0.0000 -21.8647 0.0000
# 2 12.8893 40.4234 17.2325 0.0000 1.6710 0.0000
# 3 52.9792 17.2325 83.7611 0.0000 -3.0613 0.0000
# 4 0.0000 0.0000 0.0000 12.0207 0.0000 3.4422
# 5 -21.8647 1.6710 -3.0613 0.0000 22.9195 0.0000
# 6 0.0000 0.0000 0.0000 3.4422 0.0000 10.8203
#
#
#
# Elastic Compliance Matrix: (Units=1/GPa)
#
#
# Indices 1 2 3 4 5 6 
#
# 1 0.013066 -0.001426 -0.007548 0.000000 0.011560 0.000000
# 2 -0.001426 0.027444 -0.004891 0.000000 -0.004015 0.000000
# 3 -0.007548 -0.004891 0.017555 0.000000 -0.004500 0.000000
# 4 0.000000 0.000000 0.000000 0.091527 0.000000 -0.029117
# 5 0.011560 -0.004015 -0.004500 0.000000 0.054351 0.000000
# 6 0.000000 0.000000 0.000000 -0.029117 0.000000 0.101681
#
#
# Mechanical properties :
#
#
# Convention : Reuss Voigt Hill
#
# Bulk Modulus (GPa) = 32.96637 46.47557 39.72097
# Shear Modulus (GPa) = 14.55748 20.41725 17.48737
#
# Velocity S-wave (km/s) = 2.88505 3.41672 3.16208
# Velocity P-wave (km/s) = 5.47240 6.49142 6.00357
#
# Compressibility (1/GPa) = 0.03033394
#
# Stress axis : x y z
#
# Youngs Moduli (GPa) = 76.53482 36.43813 56.96446
#
# Poissons Ratio (x) = 0.05197 0.42999
# Poissons Ratio (y) = 0.10915 0.27860
# Poissons Ratio (z) = 0.57771 0.17821
#
# Static dielectric constant tensor:
#      x y z
#    x 3.665840 0.000000 -0.191090 
#    y 0.000000 2.993230 0.000000 
#    z -0.191090 0.000000 3.010120 
# 
# 
# High freq. dielectric constant tensor:
#      x y z
#    x 1.686750 0.000000 -0.017530 
#    y 0.000000 1.654400 0.000000 
#    z -0.017530 0.000000 1.642090 
# 
# From -- ./inp_files/79933.got.cif
#   From: 2010.06.25/outbox.cif.g09.slc.cpg/sg10_40_cif.got.tgz:79933.got - 2010.06.27 22:07:45.
