data_PCOD8063540
_publ_section_title
;
Structure prediction by ZEFSAII (Michael W. Deem and Ramdas Pophale) SiO2 
 PCOD8063540
Probable space group: P 2/M
;
_chemical_formula_sum "Si O2"
_cell_formula_units_Z 32
_cell_length_a 18.205681
_cell_length_b 9.334455
_cell_length_c 23.568043
_cell_angle_alpha 90.000000
_cell_angle_beta 24.577391
_cell_angle_gamma 90.000000
_cell_volume 1665.832315
_symmetry_space_group_name_H-M "P 2/M"
_symmetry_group_IT_number 10
_symmetry_cell_setting 'monoclinic'
loop_
_space_group_symop_operation_xyz
x,y,z
-x,y,-z
-x,-y,-z
x,-y,z
loop_
_atom_site_type_symbol
_atom_site_label
_atom_site_fract_x
_atom_site_fract_y
_atom_site_fract_z
Si Si1 0.984613 0.667610 0.157146
Si Si2 0.281674 0.157842 0.904167
Si Si3 0.857344 0.669110 0.446719
Si Si4 0.659702 0.157884 0.345750
Si Si5 0.532646 0.841659 0.106801
Si Si6 0.824300 0.833279 0.587893
Si Si7 0.835746 0.665142 0.851548
Si Si8 0.539662 0.831497 0.625136
O O1 0.975282 0.500000 0.154259
O O2 0.794239 0.732067 0.278863
O O3 0.044758 0.709187 0.178369
O O4 0.119396 0.732215 0.016016
O O5 0.357334 0.151672 0.913452
O O6 0.436880 0.210251 0.754404
O O7 0.215419 0.000000 0.931756
O O8 0.820687 0.500000 0.477334
O O9 0.840346 0.741094 0.519898
O O10 0.718720 0.739342 0.500241
O O11 0.052509 0.698351 0.283820
O O12 0.500000 0.141931 0.500000
O O13 0.584932 0.217344 0.338906
O O14 0.747096 0.000000 0.275872
O O15 0.338576 0.778444 0.258306
O O16 0.511626 0.000000 0.094872
O O17 0.646914 0.747102 0.982333
O O18 0.000000 0.811359 0.500000
O O19 0.792792 0.000000 0.593325
O O20 0.785062 0.500000 0.891567
O O21 0.587010 0.000000 0.587812
#
# Coordination Sequence:
#
# PCOD8063540 Si02
#       8
#     4   4   4   4   4   4   4   4
#     4  10  20  34  52  74 106 142 181 228 277 327
#     4   9  17  32  53  75 101 135 179 226 270 324
#     4  11  22  36  57  85 115 144 184 230 274 332
#     4  10  21  35  51  73 102 140 184 228 279 333
#     4   9  17  33  57  83 107 140 185 225 268 324
#     4  10  21  39  62  87 116 146 180 225 274 328
#     4   9  20  36  54  80 112 150 188 226 274 326
#     4  10  20  35  55  77 106 142 183 232 278 324
#
# _framework density 19.209617000000001
#
# number of rings (size 3 to 8) (size 9 to 14) (size 15 to 20)
#    0.000    2.250    1.250    1.500    0.000    4.000 
#    0.000    3.125    0.000    3.750    0.000    0.000 
#    0.000    0.000    0.000    0.000    0.000    0.000 
#
# Total GULP energy -396732.157417 kJ/mol
# GULP energy per Si atom -12397.879919 kJ/mol
# Density = 1.916590 g / cm^3
# Si number density = 19.209617 Si / 1000 Ang^3
#
#
#
# Elastic Constant Matrix: (Units=GPa)
#
#
# Indices 1 2 3 4 5 6 
#
# 1 38.4022 34.5863 29.8313 0.0000 -7.3045 0.0000
# 2 34.5863 84.7846 63.1394 0.0000 -8.1634 0.0000
# 3 29.8313 63.1394 137.5910 0.0000 -6.4504 0.0000
# 4 0.0000 0.0000 0.0000 29.7576 0.0000 3.9422
# 5 -7.3045 -8.1634 -6.4504 0.0000 23.3966 0.0000
# 6 0.0000 0.0000 0.0000 3.9422 0.0000 17.6450
#
#
#
# Elastic Compliance Matrix: (Units=1/GPa)
#
#
# Indices 1 2 3 4 5 6 
#
# 1 0.042704 -0.015292 -0.001891 0.000000 0.007475 0.000000
# 2 -0.015292 0.023779 -0.007528 0.000000 0.001447 0.000000
# 3 -0.001891 -0.007528 0.011126 0.000000 -0.000150 0.000000
# 4 0.000000 0.000000 0.000000 0.034630 0.000000 -0.007737
# 5 0.007475 0.001447 -0.000150 0.000000 0.045539 0.000000
# 6 0.000000 0.000000 0.000000 -0.007737 0.000000 0.058402
#
#
# Mechanical properties :
#
#
# Convention : Reuss Voigt Hill
#
# Bulk Modulus (GPa) = 35.48014 57.32132 46.40073
# Shear Modulus (GPa) = 18.18209 23.04122 20.61166
#
# Velocity S-wave (km/s) = 3.07988 3.46708 3.27920
# Velocity P-wave (km/s) = 5.58190 6.77733 6.20846
#
# Compressibility (1/GPa) = 0.02818478
#
# Stress axis : x y z
#
# Youngs Moduli (GPa) = 23.41727 42.05469 89.88348
#
# Poissons Ratio (x) = 0.64312 0.16993
# Poissons Ratio (y) = 0.35811 0.67668
# Poissons Ratio (z) = 0.04427 0.31660
#
# Static dielectric constant tensor:
#      x y z
#    x 2.490850 0.000000 -0.102540 
#    y 0.000000 3.585320 0.000000 
#    z -0.102540 0.000000 3.679020 
# 
# 
# High freq. dielectric constant tensor:
#      x y z
#    x 1.724080 0.000000 0.003090 
#    y 0.000000 1.740210 0.000000 
#    z 0.003090 0.000000 1.759450 
# 
# From -- ./inp_files/93601.got.cif
#   From: 2010.06.25/outbox.cif.g09.slc.cpg/sg10_47_cif.got.tgz:93601.got - 2010.06.27 22:07:45.
