data_PCOD8063270
_publ_section_title
;
Structure prediction by ZEFSAII (Michael W. Deem and Ramdas Pophale) SiO2 
 PCOD8063270
Probable space group: P 2/M
;
_chemical_formula_sum "Si O2"
_cell_formula_units_Z 28
_cell_length_a 20.429035
_cell_length_b 9.300216
_cell_length_c 23.350218
_cell_angle_alpha 90.000000
_cell_angle_beta 19.149566
_cell_angle_gamma 90.000000
_cell_volume 1455.299337
_symmetry_space_group_name_H-M "P 2/M"
_symmetry_group_IT_number 10
_symmetry_cell_setting 'monoclinic'
loop_
_space_group_symop_operation_xyz
x,y,z
-x,y,-z
-x,-y,-z
x,-y,z
loop_
_atom_site_type_symbol
_atom_site_label
_atom_site_fract_x
_atom_site_fract_y
_atom_site_fract_z
Si Si1 0.284328 0.845762 0.649375
Si Si2 0.106904 0.333419 0.253763
Si Si3 0.209277 0.336023 0.299338
Si Si4 0.309725 0.168487 0.399014
Si Si5 0.538561 0.169883 0.093447
Si Si6 0.215157 0.348033 0.803257
Si Si7 0.493026 0.833719 0.366742
O O1 0.500000 0.857139 0.500000
O O2 0.172690 0.724477 0.776741
O O3 0.306958 0.805400 0.563725
O O4 0.173521 0.000000 0.746527
O O5 0.084174 0.500000 0.253614
O O6 0.206811 0.323707 0.233266
O O7 0.890895 0.260775 0.436686
O O8 0.248988 0.249710 0.091208
O O9 0.257841 0.500000 0.278270
O O10 0.380027 0.228922 0.178971
O O11 0.000000 0.286753 0.500000
O O12 0.453253 0.204045 0.227050
O O13 0.431810 0.216131 0.354266
O O14 0.252454 0.000000 0.447944
O O15 0.568669 0.000000 0.059181
O O16 0.333946 0.500000 0.697433
O O17 0.317315 0.252399 0.767426
O O18 0.000000 0.389446 0.000000
O O19 0.554459 0.000000 0.316809
#
# Coordination Sequence:
#
# PCOD8063270 Si02
#       7
#     4   4   4   4   4   4   4
#     4   8  15  30  53  76  97 128 173 218 260 312
#     4  11  23  39  61  86 115 154 196 241 293 350
#     4  10  20  37  60  85 115 152 196 243 293 347
#     4  10  22  41  61  83 117 155 194 242 289 342
#     4  11  23  38  60  88 119 153 193 244 296 344
#     4  10  20  33  51  80 115 143 174 223 275 324
#     4   9  19  37  58  79 105 142 186 226 272 330
#
# _framework density 19.240029
#
# number of rings (size 3 to 8) (size 9 to 14) (size 15 to 20)
#    0.000    2.143    1.429    2.571    0.000    8.000 
#    2.571    0.000    0.000    0.000    0.000    0.000 
#    0.000    0.000    0.000    0.000    0.000    0.000 
#
# Total GULP energy -347019.653978 kJ/mol
# GULP energy per Si atom -12393.559071 kJ/mol
# Density = 1.919624 g / cm^3
# Si number density = 19.240029 Si / 1000 Ang^3
#
#
#
# Elastic Constant Matrix: (Units=GPa)
#
#
# Indices 1 2 3 4 5 6 
#
# 1 107.2301 49.9076 33.5182 0.0000 15.1765 0.0000
# 2 49.9076 117.7916 59.2563 0.0000 9.6433 0.0000
# 3 33.5182 59.2563 95.8163 0.0000 20.6887 0.0000
# 4 0.0000 0.0000 0.0000 43.4239 0.0000 -55.3250
# 5 15.1765 9.6433 20.6887 0.0000 21.1432 0.0000
# 6 0.0000 0.0000 0.0000 -55.3250 0.0000 262.5997
#
#
#
# Elastic Compliance Matrix: (Units=1/GPa)
#
#
# Indices 1 2 3 4 5 6 
#
# 1 0.012494 -0.004758 0.000051 0.000000 -0.006847 0.000000
# 2 -0.004758 0.014227 -0.008204 0.000000 0.004954 0.000000
# 3 0.000051 -0.008204 0.018628 0.000000 -0.014522 0.000000
# 4 0.000000 0.000000 0.000000 0.031478 0.000000 0.006632
# 5 -0.006847 0.004954 -0.014522 0.000000 0.064162 0.000000
# 6 0.000000 0.000000 0.000000 0.006632 0.000000 0.005205
#
#
# Mechanical properties :
#
#
# Convention : Reuss Voigt Hill
#
# Bulk Modulus (GPa) = 51.21355 67.35577 59.28466
# Shear Modulus (GPa) = 28.00719 77.31043 52.65881
#
# Velocity S-wave (km/s) = 3.81947 6.34581 5.23725
# Velocity P-wave (km/s) = 6.79170 9.42213 8.21291
#
# Compressibility (1/GPa) = 0.01952608
#
# Stress axis : x y z
#
# Youngs Moduli (GPa) = 80.04036 70.28869 53.68286
#
# Poissons Ratio (x) = 0.33447 -0.00273
# Poissons Ratio (y) = 0.38087 0.44039
# Poissons Ratio (z) = -0.00406 0.57662
#
# Static dielectric constant tensor:
#      x y z
#    x 3.833990 0.000000 0.417100 
#    y 0.000000 3.709030 0.000000 
#    z 0.417100 0.000000 3.480750 
# 
# 
# High freq. dielectric constant tensor:
#      x y z
#    x 1.738560 0.000000 0.020250 
#    y 0.000000 1.758820 0.000000 
#    z 0.020250 0.000000 1.739510 
# 
# From -- ./inp_files/90351.got.cif
#   From: 2010.06.25/outbox.cif.g09.slc.cpg/sg10_46_cif.got.tgz:90351.got - 2010.06.27 22:07:45.
