data_PCOD8063272
_publ_section_title
;
Structure prediction by ZEFSAII (Michael W. Deem and Ramdas Pophale) SiO2 
 PCOD8063272
Probable space group: P 2/M
;
_chemical_formula_sum "Si O2"
_cell_formula_units_Z 26
_cell_length_a 8.038583
_cell_length_b 13.576237
_cell_length_c 12.501020
_cell_angle_alpha 90.000000
_cell_angle_beta 116.615363
_cell_angle_gamma 90.000000
_cell_volume 1219.715286
_symmetry_space_group_name_H-M "P 2/M"
_symmetry_group_IT_number 10
_symmetry_cell_setting 'monoclinic'
loop_
_space_group_symop_operation_xyz
x,y,z
-x,y,-z
-x,-y,-z
x,-y,z
loop_
_atom_site_type_symbol
_atom_site_label
_atom_site_fract_x
_atom_site_fract_y
_atom_site_fract_z
Si Si1 0.687094 0.253224 0.199387
Si Si2 0.346446 0.110491 0.098808
Si Si3 0.785027 0.614346 0.422916
Si Si4 0.020629 0.889876 0.622903
Si Si5 0.500000 0.696782 0.500000
Si Si6 0.921834 0.254351 0.082038
Si Si7 0.742799 0.170308 0.703866
O O1 0.495278 0.197287 0.119973
O O2 0.683696 0.330895 0.294785
O O3 0.761913 0.305459 0.110224
O O4 0.829769 0.165786 0.264024
O O5 0.321059 0.098869 0.219264
O O6 0.396748 0.000000 0.070456
O O7 0.159708 0.149594 0.986772
O O8 0.778825 0.500000 0.392818
O O9 0.669713 0.632915 0.499379
O O10 0.000000 0.648833 0.500000
O O11 0.821012 0.890396 0.624888
O O12 0.000000 0.839804 0.500000
O O13 0.095810 0.000000 0.629575
O O14 0.430189 0.764031 0.382683
O O15 0.098580 0.242999 0.208591
O O16 0.000000 0.315024 0.000000
#
# Coordination Sequence:
#
# PCOD8063272 Si02
#       7
#     4   4   4   4   2   4   4
#     4  11  20  38  59  86 121 157 206 267 317 375
#     4  11  22  36  57  88 123 168 218 259 301 365
#     4  11  24  42  69 100 128 164 210 266 332 397
#     4  10  20  33  51  80 121 167 203 243 306 378
#     4  12  21  42  69  98 132 168 209 264 325 388
#     4   9  21  37  58  85 114 165 208 255 306 364
#     4  10  21  36  57  85 124 166 204 256 311 364
#
# _framework density 21.31645
#
# number of rings (size 3 to 8) (size 9 to 14) (size 15 to 20)
#    0.000    1.538    1.538    4.846    0.000    6.462 
#    0.000    0.769    0.000    2.308    0.000    0.000 
#    0.000    0.000    0.000    0.000    0.000    0.000 
#
# Total GULP energy -322131.806640 kJ/mol
# GULP energy per Si atom -12389.684871 kJ/mol
# Density = 2.126793 g / cm^3
# Si number density = 21.316450 Si / 1000 Ang^3
#
#
#
# Elastic Constant Matrix: (Units=GPa)
#
#
# Indices 1 2 3 4 5 6 
#
# 1 121.6214 7.5787 31.8563 0.0000 -17.4326 0.0000
# 2 7.5787 61.0622 13.4662 0.0000 10.0060 0.0000
# 3 31.8563 13.4662 91.5925 0.0000 -5.4696 0.0000
# 4 0.0000 0.0000 0.0000 7.7065 0.0000 3.9286
# 5 -17.4326 10.0060 -5.4696 0.0000 51.8546 0.0000
# 6 0.0000 0.0000 0.0000 3.9286 0.0000 22.9628
#
#
#
# Elastic Compliance Matrix: (Units=1/GPa)
#
#
# Indices 1 2 3 4 5 6 
#
# 1 0.009506 -0.001030 -0.002971 0.000000 0.003081 0.000000
# 2 -0.001030 0.017713 -0.002487 0.000000 -0.004026 0.000000
# 3 -0.002971 -0.002487 0.012364 0.000000 0.000785 0.000000
# 4 0.000000 0.000000 0.000000 0.142160 0.000000 -0.024322
# 5 0.003081 -0.004026 0.000785 0.000000 0.021180 0.000000
# 6 0.000000 0.000000 0.000000 -0.024322 0.000000 0.047710
#
#
# Mechanical properties :
#
#
# Convention : Reuss Voigt Hill
#
# Bulk Modulus (GPa) = 37.58196 42.23095 39.90645
# Shear Modulus (GPa) = 18.35026 31.26310 24.80668
#
# Velocity S-wave (km/s) = 2.93721 3.83380 3.41506
# Velocity P-wave (km/s) = 5.40108 6.28107 5.85762
#
# Compressibility (1/GPa) = 0.02660851
#
# Stress axis : x y z
#
# Youngs Moduli (GPa) = 105.19446 56.45683 80.88194
#
# Poissons Ratio (x) = 0.05812 0.24030
# Poissons Ratio (y) = 0.10830 0.20112
# Poissons Ratio (z) = 0.31253 0.14038
#
# Static dielectric constant tensor:
#      x y z
#    x 4.399330 0.000000 -0.384210 
#    y 0.000000 3.273060 0.000000 
#    z -0.384210 0.000000 4.037400 
# 
# 
# High freq. dielectric constant tensor:
#      x y z
#    x 1.858770 0.000000 -0.014340 
#    y 0.000000 1.773180 0.000000 
#    z -0.014340 0.000000 1.848120 
# 
# From -- ./inp_files/42799.got.cif
#   From: 2010.06.25/outbox.cif.g09.slc.cpg/sg10_22_cif.got.tgz:42799.got - 2010.06.27 22:07:45.
