data_PCOD8063517
_publ_section_title
;
Structure prediction by ZEFSAII (Michael W. Deem and Ramdas Pophale) SiO2 
 PCOD8063517
Probable space group: P 2/M
;
_chemical_formula_sum "Si O2"
_cell_formula_units_Z 24
_cell_length_a 11.258289
_cell_length_b 8.952746
_cell_length_c 23.553312
_cell_angle_alpha 90.000000
_cell_angle_beta 35.008914
_cell_angle_gamma 90.000000
_cell_volume 1361.972761
_symmetry_space_group_name_H-M "P 2/M"
_symmetry_group_IT_number 10
_symmetry_cell_setting 'monoclinic'
loop_
_space_group_symop_operation_xyz
x,y,z
-x,y,-z
-x,-y,-z
x,-y,z
loop_
_atom_site_type_symbol
_atom_site_label
_atom_site_fract_x
_atom_site_fract_y
_atom_site_fract_z
Si Si1 0.203217 0.828906 0.846760
Si Si2 0.026257 0.176824 0.721827
Si Si3 0.411335 0.325661 0.095803
Si Si4 0.338147 0.674962 0.685366
Si Si5 0.344399 0.164400 0.508829
Si Si6 0.728763 0.828490 0.050825
O O1 0.323620 0.721260 0.756655
O O2 0.297305 0.800990 0.872008
O O3 0.237036 0.000000 0.815087
O O4 0.960748 0.790118 0.940865
O O5 0.793923 0.232796 0.812375
O O6 0.151306 0.248474 0.724756
O O7 0.127414 0.220639 0.621001
O O8 0.033610 0.000000 0.727823
O O9 0.359967 0.500000 0.119565
O O10 0.577732 0.283796 0.078097
O O11 0.500000 0.280765 0.000000
O O12 0.314761 0.500000 0.687689
O O13 0.564942 0.723012 0.573516
O O14 0.500000 0.153225 0.500000
O O15 0.318747 0.000000 0.491025
O O16 0.675243 0.000000 0.056641
#
# Coordination Sequence:
#
# PCOD8063517 Si02
#       6
#     4   4   4   4   4   4
#     4   9  18  34  54  74  98 129 168 209 243 285
#     4  10  20  34  52  72  98 134 171 206 244 288
#     4  11  23  35  49  74 106 135 162 197 246 300
#     4  11  20  29  48  78 106 131 161 200 251 300
#     4   8  16  31  49  70  96 128 166 205 245 289
#     4   9  19  35  54  74  96 130 172 207 242 285
#
# _framework density 17.621497000000002
#
# number of rings (size 3 to 8) (size 9 to 14) (size 15 to 20)
#    0.000    2.333    0.000    5.500    0.000    9.000 
#    0.000    1.667    0.000    1.000    0.000    7.000 
#    0.000    0.000    0.000    0.000    0.000    0.000 
#
# Total GULP energy -297592.220423 kJ/mol
# GULP energy per Si atom -12399.675851 kJ/mol
# Density = 1.758139 g / cm^3
# Si number density = 17.621497 Si / 1000 Ang^3
#
#
#
# Elastic Constant Matrix: (Units=GPa)
#
#
# Indices 1 2 3 4 5 6 
#
# 1 68.9221 36.9358 45.4233 0.0000 4.6051 0.0000
# 2 36.9358 93.7495 60.7554 0.0000 7.8295 0.0000
# 3 45.4233 60.7554 127.7006 0.0000 11.0373 0.0000
# 4 0.0000 0.0000 0.0000 23.2396 0.0000 -0.3892
# 5 4.6051 7.8295 11.0373 0.0000 23.2374 0.0000
# 6 0.0000 0.0000 0.0000 -0.3892 0.0000 22.2650
#
#
#
# Elastic Compliance Matrix: (Units=1/GPa)
#
#
# Indices 1 2 3 4 5 6 
#
# 1 0.020349 -0.004807 -0.004946 0.000000 -0.000064 0.000000
# 2 -0.004807 0.016628 -0.006048 0.000000 -0.001778 0.000000
# 3 -0.004946 -0.006048 0.012729 0.000000 -0.003028 0.000000
# 4 0.000000 0.000000 0.000000 0.043043 0.000000 0.000752
# 5 -0.000064 -0.001778 -0.003028 0.000000 0.045084 0.000000
# 6 0.000000 0.000000 0.000000 0.000752 0.000000 0.044927
#
#
# Mechanical properties :
#
#
# Convention : Reuss Voigt Hill
#
# Bulk Modulus (GPa) = 55.23078 64.06681 59.64879
# Shear Modulus (GPa) = 22.68653 23.56556 23.12604
#
# Velocity S-wave (km/s) = 3.59198 3.66090 3.62660
# Velocity P-wave (km/s) = 6.97237 7.36924 7.17355
#
# Compressibility (1/GPa) = 0.01810585
#
# Stress axis : x y z
#
# Youngs Moduli (GPa) = 49.14295 60.13867 78.56029
#
# Poissons Ratio (x) = 0.28906 0.38854
# Poissons Ratio (y) = 0.23621 0.47512
# Poissons Ratio (z) = 0.24305 0.36371
#
# Static dielectric constant tensor:
#      x y z
#    x 2.962710 0.000000 0.091570 
#    y 0.000000 3.228480 0.000000 
#    z 0.091570 0.000000 3.609560 
# 
# 
# High freq. dielectric constant tensor:
#      x y z
#    x 1.648890 0.000000 0.011170 
#    y 0.000000 1.682760 0.000000 
#    z 0.011170 0.000000 1.691530 
# 
# From -- ./inp_files/56523.got.cif
#   From: 2010.06.25/outbox.cif.g09.slc.cpg/sg10_29_cif.got.tgz:56523.got - 2010.06.27 22:07:45.
