data_PCOD8063048
_publ_section_title
;
Structure prediction by ZEFSAII (Michael W. Deem and Ramdas Pophale) SiO2 
 PCOD8063048
Probable space group: P 2/M
;
_chemical_formula_sum "Si O2"
_cell_formula_units_Z 32
_cell_length_a 16.677046
_cell_length_b 21.238645
_cell_length_c 16.444907
_cell_angle_alpha 90.000000
_cell_angle_beta 162.896787
_cell_angle_gamma 90.000000
_cell_volume 1713.023832
_symmetry_space_group_name_H-M "P 2/M"
_symmetry_group_IT_number 10
_symmetry_cell_setting 'monoclinic'
loop_
_space_group_symop_operation_xyz
x,y,z
-x,y,-z
-x,-y,-z
x,-y,z
loop_
_atom_site_type_symbol
_atom_site_label
_atom_site_fract_x
_atom_site_fract_y
_atom_site_fract_z
Si Si1 0.539966 0.797873 0.945246
Si Si2 0.530986 0.331119 0.852975
Si Si3 0.762184 0.256173 0.707677
Si Si4 0.600623 0.118735 0.509887
Si Si5 0.884010 0.072251 0.066758
Si Si6 0.065390 0.295532 0.290361
Si Si7 0.944980 0.833685 0.635781
Si Si8 0.738208 0.430248 0.293764
O O1 0.528359 0.722807 0.919159
O O2 0.343750 0.833429 0.690661
O O3 0.500000 0.812442 0.000000
O O4 0.837852 0.826034 0.224465
O O5 0.358961 0.312546 0.608450
O O6 0.383758 0.391654 0.748880
O O7 0.834846 0.340497 0.109177
O O8 0.500000 0.287173 0.500000
O O9 0.655789 0.193314 0.560057
O O10 0.898454 0.302575 0.772374
O O11 0.000000 0.237340 0.000000
O O12 0.500000 0.096442 0.500000
O O13 0.874901 0.078905 0.764710
O O14 0.386148 0.105777 0.229808
O O15 0.999973 0.102333 0.262337
O O16 0.813632 0.000000 0.015750
O O17 0.003238 0.223049 0.250590
O O18 0.823983 0.500000 0.408901
O O19 0.000000 0.399222 0.500000
O O20 0.500000 0.436801 0.000000
#
# Coordination Sequence:
#
# PCOD8063048 Si02
#       8
#     4   4   4   4   4   4   4   4
#     4  10  20  34  55  78 100 130 166 220 270 313
#     4  10  20  32  52  82 111 141 181 226 256 311
#     4  11  21  34  55  78 107 143 175 214 273 339
#     4  11  23  36  55  77 102 137 172 212 256 318
#     4  12  24  38  55  73 102 137 175 216 257 324
#     4  10  20  33  53  77 106 140 175 225 273 312
#     4  10  21  35  53  73 101 130 168 212 269 327
#     4  10  20  34  53  78 117 162 191 215 253 309
#
# _framework density 18.680418
#
# number of rings (size 3 to 8) (size 9 to 14) (size 15 to 20)
#    0.000    1.500    1.250    5.250    3.500    3.500 
#    0.000    0.000    0.000    2.250    0.000    0.000 
#    0.000   10.000    0.000    0.000    0.000    0.000 
#
# Total GULP energy -396624.147803 kJ/mol
# GULP energy per Si atom -12394.504619 kJ/mol
# Density = 1.863790 g / cm^3
# Si number density = 18.680418 Si / 1000 Ang^3
#
#
#
# Elastic Constant Matrix: (Units=GPa)
#
#
# Indices 1 2 3 4 5 6 
#
# 1 113.8785 31.8262 16.8110 0.0000 11.0445 0.0000
# 2 31.8262 49.1491 4.1447 0.0000 -1.8983 0.0000
# 3 16.8110 4.1447 78.4241 0.0000 5.8427 0.0000
# 4 0.0000 0.0000 0.0000 15.3133 0.0000 2.8037
# 5 11.0445 -1.8983 5.8427 0.0000 30.5316 0.0000
# 6 0.0000 0.0000 0.0000 2.8037 0.0000 22.6799
#
#
#
# Elastic Compliance Matrix: (Units=1/GPa)
#
#
# Indices 1 2 3 4 5 6 
#
# 1 0.011555 -0.007501 -0.001759 0.000000 -0.004310 0.000000
# 2 -0.007501 0.025374 -0.000054 0.000000 0.004301 0.000000
# 3 -0.001759 -0.000054 0.013273 0.000000 -0.001907 0.000000
# 4 0.000000 0.000000 0.000000 0.066815 0.000000 -0.008260
# 5 -0.004310 0.004301 -0.001907 0.000000 0.034944 0.000000
# 6 0.000000 0.000000 0.000000 -0.008260 0.000000 0.045113
#
#
# Mechanical properties :
#
#
# Convention : Reuss Voigt Hill
#
# Bulk Modulus (GPa) = 31.67073 38.55728 35.11401
# Shear Modulus (GPa) = 22.10169 26.28294 24.19231
#
# Velocity S-wave (km/s) = 3.44342 3.75504 3.60260
# Velocity P-wave (km/s) = 5.72716 6.28377 6.01191
#
# Compressibility (1/GPa) = 0.03157489
#
# Stress axis : x y z
#
# Youngs Moduli (GPa) = 86.54081 39.41061 75.33951
#
# Poissons Ratio (x) = 0.29560 0.13256
# Poissons Ratio (y) = 0.64911 0.00404
# Poissons Ratio (z) = 0.15227 0.00211
#
# Static dielectric constant tensor:
#      x y z
#    x 3.425590 0.000000 0.237980 
#    y 0.000000 3.148560 0.000000 
#    z 0.237980 0.000000 3.640770 
# 
# 
# High freq. dielectric constant tensor:
#      x y z
#    x 1.729220 0.000000 0.012710 
#    y 0.000000 1.669680 0.000000 
#    z 0.012710 0.000000 1.748890 
# 
# From -- ./inp_files/67962.got.cif
#   From: 2010.06.25/outbox.cif.g09.slc.cpg/sg10_34_cif.got.tgz:67962.got - 2010.06.27 22:07:45.
