data_PCOD8063039
_publ_section_title
;
Structure prediction by ZEFSAII (Michael W. Deem and Ramdas Pophale) SiO2 
 PCOD8063039
Probable space group: P 2/M
;
_chemical_formula_sum "Si O2"
_cell_formula_units_Z 28
_cell_length_a 9.331344
_cell_length_b 9.333279
_cell_length_c 25.162305
_cell_angle_alpha 90.000000
_cell_angle_beta 134.782109
_cell_angle_gamma 90.000000
_cell_volume 1555.461238
_symmetry_space_group_name_H-M "P 2/M"
_symmetry_group_IT_number 10
_symmetry_cell_setting 'monoclinic'
loop_
_space_group_symop_operation_xyz
x,y,z
-x,y,-z
-x,-y,-z
x,-y,z
loop_
_atom_site_type_symbol
_atom_site_label
_atom_site_fract_x
_atom_site_fract_y
_atom_site_fract_z
Si Si1 0.115110 0.841126 0.689780
Si Si2 0.699077 0.332642 0.700942
Si Si3 0.666762 0.168500 0.586790
Si Si4 0.092528 0.840758 0.807373
Si Si5 0.448900 0.344835 0.926841
Si Si6 0.499373 0.666479 0.760106
Si Si7 0.221482 0.668118 0.071282
O O1 0.150020 0.846318 0.761226
O O2 0.280031 0.737440 0.707924
O O3 0.885179 0.785326 0.620090
O O4 0.141787 0.000000 0.671998
O O5 0.724112 0.500000 0.694787
O O6 0.610927 0.253649 0.625887
O O7 0.557489 0.305696 0.714413
O O8 0.912144 0.266437 0.772518
O O9 0.500000 0.207308 0.500000
O O10 0.671670 0.000000 0.602454
O O11 0.285194 0.778912 0.886923
O O12 0.041609 0.000000 0.815447
O O13 0.373840 0.500000 0.883448
O O14 0.639908 0.292214 0.942687
O O15 0.500000 0.374543 0.000000
O O16 0.470528 0.500000 0.764995
O O17 0.668589 0.728128 0.845932
O O18 0.190971 0.500000 0.071181
O O19 0.000000 0.736490 0.000000
#
# Coordination Sequence:
#
# PCOD8063039 Si02
#       7
#     4   4   4   4   4   4   4
#     4   9  18  33  55  79 103 136 177 218 262 318
#     4  10  21  34  54  83 111 139 181 223 265 321
#     4   9  19  38  61  84 111 143 179 217 263 321
#     4  10  20  35  53  74 104 142 182 224 271 321
#     4  10  20  32  52  77 101 134 181 231 279 325
#     4  10  20  34  54  79 108 143 181 224 272 322
#     4   9  18  32  50  73 104 140 179 226 274 315
#
# _framework density 18.001090999999999
#
# number of rings (size 3 to 8) (size 9 to 14) (size 15 to 20)
#    0.000    2.429    1.429    1.714    2.000    4.000 
#    0.000    0.714    0.000    5.143    0.000    0.000 
#    0.000    0.000    0.000    0.000    0.000    0.000 
#
# Total GULP energy -347011.780483 kJ/mol
# GULP energy per Si atom -12393.277874 kJ/mol
# Density = 1.796012 g / cm^3
# Si number density = 18.001091 Si / 1000 Ang^3
#
#
#
# Elastic Constant Matrix: (Units=GPa)
#
#
# Indices 1 2 3 4 5 6 
#
# 1 105.8151 55.1036 59.3605 0.0000 5.7260 0.0000
# 2 55.1036 74.5241 48.5879 0.0000 3.4277 0.0000
# 3 59.3605 48.5879 131.1464 0.0000 7.0434 0.0000
# 4 0.0000 0.0000 0.0000 25.7126 0.0000 -0.6820
# 5 5.7260 3.4277 7.0434 0.0000 15.7431 0.0000
# 6 0.0000 0.0000 0.0000 -0.6820 0.0000 23.3729
#
#
#
# Elastic Compliance Matrix: (Units=1/GPa)
#
#
# Indices 1 2 3 4 5 6 
#
# 1 0.016871 -0.009850 -0.003865 0.000000 -0.002262 0.000000
# 2 -0.009850 0.023457 -0.004252 0.000000 0.000378 0.000000
# 3 -0.003865 -0.004252 0.011091 0.000000 -0.002630 0.000000
# 4 0.000000 0.000000 0.000000 0.038922 0.000000 0.001136
# 5 -0.002262 0.000378 -0.002630 0.000000 0.065437 0.000000
# 6 0.000000 0.000000 0.000000 0.001136 0.000000 0.042818
#
#
# Mechanical properties :
#
#
# Convention : Reuss Voigt Hill
#
# Bulk Modulus (GPa) = 64.58572 70.84331 67.71451
# Shear Modulus (GPa) = 20.86010 22.86128 21.86069
#
# Velocity S-wave (km/s) = 3.40784 3.56756 3.48862
# Velocity P-wave (km/s) = 7.17225 7.51069 7.34342
#
# Compressibility (1/GPa) = 0.01548330
#
# Stress axis : x y z
#
# Youngs Moduli (GPa) = 59.27413 42.63167 90.16093
#
# Poissons Ratio (x) = 0.41993 0.34850
# Poissons Ratio (y) = 0.58386 0.38338
# Poissons Ratio (z) = 0.22911 0.18128
#
# Static dielectric constant tensor:
#      x y z
#    x 3.285250 0.000000 0.106820 
#    y 0.000000 3.400950 0.000000 
#    z 0.106820 0.000000 3.398500 
# 
# 
# High freq. dielectric constant tensor:
#      x y z
#    x 1.692550 0.000000 0.006040 
#    y 0.000000 1.684840 0.000000 
#    z 0.006040 0.000000 1.690020 
# 
# From -- ./inp_files/86668.got.cif
#   From: 2010.06.25/outbox.cif.g09.slc.cpg/sg10_44_cif.got.tgz:86668.got - 2010.06.27 22:07:45.
