data_PCOD8063406
_publ_section_title
;
Structure prediction by ZEFSAII (Michael W. Deem and Ramdas Pophale) SiO2 
 PCOD8063406
Probable space group: P 2/M
;
_chemical_formula_sum "Si O2"
_cell_formula_units_Z 32
_cell_length_a 29.114406
_cell_length_b 8.857921
_cell_length_c 12.191252
_cell_angle_alpha 90.000000
_cell_angle_beta 147.930880
_cell_angle_gamma 90.000000
_cell_volume 1669.302628
_symmetry_space_group_name_H-M "P 2/M"
_symmetry_group_IT_number 10
_symmetry_cell_setting 'monoclinic'
loop_
_space_group_symop_operation_xyz
x,y,z
-x,y,-z
-x,-y,-z
x,-y,z
loop_
_atom_site_type_symbol
_atom_site_label
_atom_site_fract_x
_atom_site_fract_y
_atom_site_fract_z
Si Si1 0.848203 0.320799 0.922455
Si Si2 0.342760 0.320374 0.412067
Si Si3 0.997107 0.821528 0.367557
Si Si4 0.337163 0.320863 0.939577
Si Si5 0.497799 0.679933 0.120146
Si Si6 0.100087 0.334110 0.210576
Si Si7 0.403614 0.679777 0.303644
Si Si8 0.845952 0.176069 0.467713
O O1 0.855956 0.500000 0.949537
O O2 0.751369 0.260648 0.745811
O O3 0.868213 0.266292 0.840309
O O4 0.913387 0.250192 0.141942
O O5 0.346336 0.500000 0.422291
O O6 0.417475 0.257676 0.644430
O O7 0.356779 0.259386 0.317398
O O8 0.085060 0.767574 0.484269
O O9 0.000000 0.768242 0.500000
O O10 0.987847 0.000000 0.339489
O O11 0.337364 0.500000 0.938167
O O12 0.243291 0.263645 0.719560
O O13 0.410462 0.261207 0.003217
O O14 0.356586 0.257883 0.100395
O O15 0.498868 0.500000 0.122989
O O16 0.500000 0.741838 0.000000
O O17 0.143315 0.500000 0.322207
O O18 0.117980 0.211366 0.339336
O O19 0.000000 0.361763 0.000000
O O20 0.500000 0.744431 0.500000
O O21 0.405095 0.500000 0.304879
O O22 0.828614 0.000000 0.419567
#
# Coordination Sequence:
#
# PCOD8063406 Si02
#       8
#     4   4   4   4   4   4   4   4
#     4  10  21  35  57  87 113 139 175 228 280 322
#     4   9  17  29  47  77 112 139 170 215 267 321
#     4  10  23  42  58  75 108 151 188 223 269 331
#     4  10  20  33  55  83 109 142 183 228 274 319
#     4   9  17  29  48  77 112 146 177 215 268 325
#     4  10  20  37  59  83 111 139 177 230 280 325
#     4   9  15  28  49  76 108 138 174 222 269 316
#     4  11  24  39  57  80 109 148 188 226 274 330
#
# _framework density 19.169682000000002
#
# number of rings (size 3 to 8) (size 9 to 14) (size 15 to 20)
#    0.000    2.250    2.500    0.375    3.500    1.500 
#    0.000    0.000    0.000    1.500    0.000    0.000 
#    0.000    0.000    0.000    0.000    0.000    0.000 
#
# Total GULP energy -396705.014879 kJ/mol
# GULP energy per Si atom -12397.031715 kJ/mol
# Density = 1.912605 g / cm^3
# Si number density = 19.169682 Si / 1000 Ang^3
#
#
#
# Elastic Constant Matrix: (Units=GPa)
#
#
# Indices 1 2 3 4 5 6 
#
# 1 197.0471 19.5755 92.8133 0.0000 -4.1581 0.0000
# 2 19.5755 13.7080 17.6157 0.0000 -1.0686 0.0000
# 3 92.8133 17.6157 134.3821 0.0000 3.3202 0.0000
# 4 0.0000 0.0000 0.0000 6.4046 0.0000 -4.3829
# 5 -4.1581 -1.0686 3.3202 0.0000 42.3803 0.0000
# 6 0.0000 0.0000 0.0000 -4.3829 0.0000 15.3995
#
#
#
# Elastic Compliance Matrix: (Units=1/GPa)
#
#
# Indices 1 2 3 4 5 6 
#
# 1 0.007848 -0.004967 -0.004795 0.000000 0.001020 0.000000
# 2 -0.004967 0.091285 -0.008597 0.000000 0.002488 0.000000
# 3 -0.004795 -0.008597 0.011920 0.000000 -0.001621 0.000000
# 4 0.000000 0.000000 0.000000 0.193905 0.000000 0.055188
# 5 0.001020 0.002488 -0.001621 0.000000 0.023886 0.000000
# 6 0.000000 0.000000 0.000000 0.055188 0.000000 0.080644
#
#
# Mechanical properties :
#
#
# Convention : Reuss Voigt Hill
#
# Bulk Modulus (GPa) = 13.45247 67.23845 40.34546
# Shear Modulus (GPa) = 10.61606 27.17905 18.89756
#
# Velocity S-wave (km/s) = 2.35584 3.76947 3.14316
# Velocity P-wave (km/s) = 3.79905 7.35505 5.85361
#
# Compressibility (1/GPa) = 0.07433582
#
# Stress axis : x y z
#
# Youngs Moduli (GPa) = 127.41670 10.95472 83.89207
#
# Poissons Ratio (x) = 0.05441 0.40224
# Poissons Ratio (y) = 0.63282 0.72126
# Poissons Ratio (z) = 0.61093 0.09418
#
# Static dielectric constant tensor:
#      x y z
#    x 3.871480 0.000000 -0.017200 
#    y 0.000000 2.997210 0.000000 
#    z -0.017200 0.000000 3.584110 
# 
# 
# High freq. dielectric constant tensor:
#      x y z
#    x 1.765490 0.000000 -0.000630 
#    y 0.000000 1.690700 0.000000 
#    z -0.000630 0.000000 1.755460 
# 
# From -- ./inp_files/58378.got.cif
#   From: 2010.06.25/outbox.cif.g09.slc.cpg/sg10_30_cif.got.tgz:58378.got - 2010.06.27 22:07:45.
