data_PCOD8063274
_publ_section_title
;
Structure prediction by ZEFSAII (Michael W. Deem and Ramdas Pophale) SiO2 
 PCOD8063274
Probable space group: P 2/M
;
_chemical_formula_sum "Si O2"
_cell_formula_units_Z 24
_cell_length_a 12.432384
_cell_length_b 7.954374
_cell_length_c 21.130367
_cell_angle_alpha 90.000000
_cell_angle_beta 141.309620
_cell_angle_gamma 90.000000
_cell_volume 1306.246169
_symmetry_space_group_name_H-M "P 2/M"
_symmetry_group_IT_number 10
_symmetry_cell_setting 'monoclinic'
loop_
_space_group_symop_operation_xyz
x,y,z
-x,y,-z
-x,-y,-z
x,-y,z
loop_
_atom_site_type_symbol
_atom_site_label
_atom_site_fract_x
_atom_site_fract_y
_atom_site_fract_z
Si Si1 0.965928 0.806834 0.102814
Si Si2 0.607185 0.194526 0.888192
Si Si3 0.372011 0.692396 0.886470
Si Si4 0.696069 0.315030 0.800039
Si Si5 0.004228 0.805588 0.742182
Si Si6 0.779047 0.500000 0.606559
Si Si7 0.546284 0.500000 0.623317
O O1 0.127365 0.783553 0.131004
O O2 0.002750 0.733302 0.189274
O O3 0.926339 0.000000 0.093975
O O4 0.793208 0.728022 0.993435
O O5 0.459951 0.293016 0.858263
O O6 0.584941 0.220500 0.802524
O O7 0.588795 0.000000 0.896613
O O8 0.321960 0.500000 0.876983
O O9 0.199850 0.802925 0.807526
O O10 0.500000 0.760144 0.000000
O O11 0.746437 0.500000 0.848327
O O12 0.584316 0.333409 0.683834
O O13 0.889194 0.672238 0.650302
O O14 0.936690 0.000000 0.704799
O O15 0.672905 0.500000 0.622326
O O16 0.651116 0.500000 0.488083
#
# Coordination Sequence:
#
# PCOD8063274 Si02
#       7
#     4   4   4   4   4   2   2
#     4  10  20  33  51  81 119 157 187 225 277 338
#     4  11  22  34  52  79 121 161 190 227 274 340
#     4  11  22  35  55  84 118 157 196 233 276 332
#     4  10  20  36  53  80 108 149 192 230 287 339
#     4  11  21  36  60  86 119 154 189 234 287 340
#     4  11  20  44  61  87 116 145 194 243 304 347
#     4   9  22  38  63  80 114 146 182 253 301 337
#
# _framework density 18.373259000000001
#
# number of rings (size 3 to 8) (size 9 to 14) (size 15 to 20)
#    0.500    1.000    4.167    2.000    0.000    4.000 
#    0.000    3.333    0.000    2.000    0.000    2.333 
#    0.000    0.000    0.000    0.000    0.000    0.000 
#
# Total GULP energy -297535.298337 kJ/mol
# GULP energy per Si atom -12397.304097 kJ/mol
# Density = 1.833144 g / cm^3
# Si number density = 18.373259 Si / 1000 Ang^3
#
#
#
# Elastic Constant Matrix: (Units=GPa)
#
#
# Indices 1 2 3 4 5 6 
#
# 1 111.9544 9.8481 25.8964 0.0000 2.2592 0.0000
# 2 9.8481 70.4289 32.9575 0.0000 4.6393 0.0000
# 3 25.8964 32.9575 85.7224 0.0000 8.2315 0.0000
# 4 0.0000 0.0000 0.0000 17.7837 0.0000 0.2919
# 5 2.2592 4.6393 8.2315 0.0000 20.8317 0.0000
# 6 0.0000 0.0000 0.0000 0.2919 0.0000 30.1930
#
#
#
# Elastic Compliance Matrix: (Units=1/GPa)
#
#
# Indices 1 2 3 4 5 6 
#
# 1 0.009604 0.000015 -0.002917 0.000000 0.000108 0.000000
# 2 0.000015 0.017346 -0.006551 0.000000 -0.001276 0.000000
# 3 -0.002917 -0.006551 0.015483 0.000000 -0.004343 0.000000
# 4 0.000000 0.000000 0.000000 0.056240 0.000000 -0.000544
# 5 0.000108 -0.001276 -0.004343 0.000000 0.049992 0.000000
# 6 0.000000 0.000000 0.000000 -0.000544 0.000000 0.033126
#
#
# Mechanical properties :
#
#
# Convention : Reuss Voigt Hill
#
# Bulk Modulus (GPa) = 42.50660 45.05663 43.78162
# Shear Modulus (GPa) = 23.97637 27.05527 25.51582
#
# Velocity S-wave (km/s) = 3.61634 3.84153 3.73063
# Velocity P-wave (km/s) = 6.37358 6.65226 6.51441
#
# Compressibility (1/GPa) = 0.02352576
#
# Stress axis : x y z
#
# Youngs Moduli (GPa) = 104.12850 57.64924 64.58869
#
# Poissons Ratio (x) = -0.00088 0.18843
# Poissons Ratio (y) = -0.00159 0.42313
# Poissons Ratio (z) = 0.30378 0.37767
#
# Static dielectric constant tensor:
#      x y z
#    x 3.267270 0.000000 -0.054030 
#    y 0.000000 3.239610 0.000000 
#    z -0.054030 0.000000 3.248550 
# 
# 
# High freq. dielectric constant tensor:
#      x y z
#    x 1.714740 0.000000 0.000530 
#    y 0.000000 1.710970 0.000000 
#    z 0.000530 0.000000 1.675710 
# 
# From -- ./inp_files/83450.got.cif
#   From: 2010.06.25/outbox.cif.g09.slc.cpg/sg10_42_cif.got.tgz:83450.got - 2010.06.27 22:07:45.
