data_PCOD8063066
_publ_section_title
;
Structure prediction by ZEFSAII (Michael W. Deem and Ramdas Pophale) SiO2 
 PCOD8063066
Probable space group: P 2/M
;
_chemical_formula_sum "Si O2"
_cell_formula_units_Z 24
_cell_length_a 10.220789
_cell_length_b 7.844053
_cell_length_c 22.115423
_cell_angle_alpha 90.000000
_cell_angle_beta 134.955224
_cell_angle_gamma 90.000000
_cell_volume 1254.712793
_symmetry_space_group_name_H-M "P 2/M"
_symmetry_group_IT_number 10
_symmetry_cell_setting 'monoclinic'
loop_
_space_group_symop_operation_xyz
x,y,z
-x,y,-z
-x,-y,-z
x,-y,z
loop_
_atom_site_type_symbol
_atom_site_label
_atom_site_fract_x
_atom_site_fract_y
_atom_site_fract_z
Si Si1 0.884389 0.188580 0.742779
Si Si2 0.530897 0.796746 0.697579
Si Si3 0.833751 0.805379 0.483605
Si Si4 0.199534 0.000000 0.896422
Si Si5 0.996383 0.308323 0.343749
Si Si6 0.530524 0.000000 0.910333
Si Si7 0.576439 0.302952 0.207201
O O1 0.720810 0.269384 0.729267
O O2 0.922413 0.303710 0.697043
O O3 0.823943 0.000000 0.699583
O O4 0.071427 0.168695 0.844363
O O5 0.364201 0.728696 0.600375
O O6 0.513791 0.706834 0.756474
O O7 0.534409 0.000000 0.707578
O O8 0.869469 0.792169 0.566865
O O9 0.000000 0.715520 0.500000
O O10 0.825560 0.000000 0.460864
O O11 0.358131 0.000000 0.898489
O O12 0.279068 0.000000 0.989786
O O13 0.992211 0.500000 0.365867
O O14 0.788176 0.235012 0.278225
O O15 0.532513 0.173709 0.872075
O O16 0.565121 0.500000 0.180132
#
# Coordination Sequence:
#
# PCOD8063066 Si02
#       7
#     4   4   4   2   4   2   4
#     4   9  19  38  59  81 112 148 194 226 294 349
#     4  10  20  36  58  85 114 155 192 240 284 339
#     4  10  20  32  54  81 111 147 201 241 278 325
#     4   9  20  37  65  90 109 150 186 241 299 345
#     4  11  22  35  54  81 117 156 192 242 287 335
#     4  11  20  39  67  90 116 143 196 241 292 350
#     4  11  22  36  60  90 118 153 193 239 290 344
#
# _framework density 19.127883000000001
#
# number of rings (size 3 to 8) (size 9 to 14) (size 15 to 20)
#    0.500    1.333    4.167    0.500    1.167    2.333 
#    0.000    7.500    0.000    1.000    0.000    0.000 
#    0.000    0.000    0.000    0.000    0.000    0.000 
#
# Total GULP energy -297510.361538 kJ/mol
# GULP energy per Si atom -12396.265064 kJ/mol
# Density = 1.908435 g / cm^3
# Si number density = 19.127883 Si / 1000 Ang^3
#
#
#
# Elastic Constant Matrix: (Units=GPa)
#
#
# Indices 1 2 3 4 5 6 
#
# 1 139.6806 13.4791 62.9273 0.0000 1.2891 0.0000
# 2 13.4791 54.2042 29.9755 0.0000 -6.2300 0.0000
# 3 62.9273 29.9755 153.0710 0.0000 -6.3673 0.0000
# 4 0.0000 0.0000 0.0000 5.7158 0.0000 -2.9499
# 5 1.2891 -6.2300 -6.3673 0.0000 27.9590 0.0000
# 6 0.0000 0.0000 0.0000 -2.9499 0.0000 18.2462
#
#
#
# Elastic Compliance Matrix: (Units=1/GPa)
#
#
# Indices 1 2 3 4 5 6 
#
# 1 0.008835 -0.000346 -0.003619 0.000000 -0.001309 0.000000
# 2 -0.000346 0.021094 -0.003829 0.000000 0.003844 0.000000
# 3 -0.003619 -0.003829 0.008825 0.000000 0.001324 0.000000
# 4 0.000000 0.000000 0.000000 0.190879 0.000000 0.030860
# 5 -0.001309 0.003844 0.001324 0.000000 0.036985 0.000000
# 6 0.000000 0.000000 0.000000 0.030860 0.000000 0.059795
#
#
# Mechanical properties :
#
#
# Convention : Reuss Voigt Hill
#
# Bulk Modulus (GPa) = 43.16424 62.19108 52.67766
# Shear Modulus (GPa) = 14.29706 26.42247 20.35976
#
# Velocity S-wave (km/s) = 2.73691 3.72070 3.26606
# Velocity P-wave (km/s) = 5.70988 7.14437 6.46702
#
# Compressibility (1/GPa) = 0.02316732
#
# Stress axis : x y z
#
# Youngs Moduli (GPa) = 113.18725 47.40704 113.31024
#
# Poissons Ratio (x) = 0.01641 0.41003
# Poissons Ratio (y) = 0.03919 0.43381
# Poissons Ratio (z) = 0.40959 0.18150
#
# Static dielectric constant tensor:
#      x y z
#    x 3.474590 0.000000 0.130890 
#    y 0.000000 3.212400 0.000000 
#    z 0.130890 0.000000 3.462860 
# 
# 
# High freq. dielectric constant tensor:
#      x y z
#    x 1.744200 0.000000 -0.000900 
#    y 0.000000 1.723580 0.000000 
#    z -0.000900 0.000000 1.729420 
# 
# From -- ./inp_files/82076.got.cif
#   From: 2010.06.25/outbox.cif.g09.slc.cpg/sg10_42_cif.got.tgz:82076.got - 2010.06.27 22:07:45.
