data_PCOD8063980
_publ_section_title
;
Structure prediction by ZEFSAII (Michael W. Deem and Ramdas Pophale) SiO2 
 PCOD8063980
Probable space group: P 2/M
;
_chemical_formula_sum "Si O2"
_cell_formula_units_Z 24
_cell_length_a 22.571964
_cell_length_b 9.496639
_cell_length_c 10.845984
_cell_angle_alpha 90.000000
_cell_angle_beta 147.839263
_cell_angle_gamma 90.000000
_cell_volume 1237.546909
_symmetry_space_group_name_H-M "P 2/M"
_symmetry_group_IT_number 10
_symmetry_cell_setting 'monoclinic'
loop_
_space_group_symop_operation_xyz
x,y,z
-x,y,-z
-x,-y,-z
x,-y,z
loop_
_atom_site_type_symbol
_atom_site_label
_atom_site_fract_x
_atom_site_fract_y
_atom_site_fract_z
Si Si1 0.537144 0.334475 0.431093
Si Si2 0.202529 0.841117 0.594334
Si Si3 0.004770 0.655873 0.152420
Si Si4 0.875416 0.157325 0.270665
Si Si5 0.580218 0.664961 0.025852
Si Si6 0.215423 0.663198 0.098675
O O1 0.500000 0.270939 0.500000
O O2 0.518015 0.500000 0.401992
O O3 0.470055 0.277093 0.193109
O O4 0.666103 0.295806 0.633312
O O5 0.092813 0.771847 0.345375
O O6 0.189163 0.845153 0.716130
O O7 0.214964 0.000000 0.564050
O O8 0.308921 0.749715 0.745879
O O9 0.034167 0.500000 0.258650
O O10 0.000000 0.645420 0.000000
O O11 0.882786 0.704889 0.981423
O O12 0.000000 0.222341 0.500000
O O13 0.885619 0.000000 0.232616
O O14 0.798495 0.253259 0.051661
O O15 0.608822 0.500000 0.065894
O O16 0.500000 0.692955 0.000000
O O17 0.213955 0.500000 0.060962
#
# Coordination Sequence:
#
# PCOD8063980 Si02
#       6
#     4   4   4   4   4   4
#     4   9  18  34  56  84 116 147 185 237 291 343
#     4  11  23  39  60  84 117 155 193 239 289 349
#     4  10  22  37  57  85 116 150 192 242 291 344
#     4  10  20  36  55  80 117 154 188 230 285 344
#     4  10  22  39  63  88 114 152 196 244 296 348
#     4  10  20  34  58  87 113 145 190 241 289 344
#
# _framework density 19.393204000000001
#
# number of rings (size 3 to 8) (size 9 to 14) (size 15 to 20)
#    0.000    2.000    1.667    1.500    2.333    3.667 
#    0.000    0.833    0.000    3.000    0.000    0.000 
#    0.000    0.000    0.000    0.000    0.000    0.000 
#
# Total GULP energy -297553.867097 kJ/mol
# GULP energy per Si atom -12398.077796 kJ/mol
# Density = 1.934906 g / cm^3
# Si number density = 19.393204 Si / 1000 Ang^3
#
#
#
# Elastic Constant Matrix: (Units=GPa)
#
#
# Indices 1 2 3 4 5 6 
#
# 1 101.1252 35.5988 46.2157 0.0000 10.3118 0.0000
# 2 35.5988 71.8262 46.5230 0.0000 12.9330 0.0000
# 3 46.2157 46.5230 102.3609 0.0000 16.5545 0.0000
# 4 0.0000 0.0000 0.0000 -2.8957 0.0000 -3.4747
# 5 10.3118 12.9330 16.5545 0.0000 36.4419 0.0000
# 6 0.0000 0.0000 0.0000 -3.4747 0.0000 23.3517
#
#
#
# Elastic Compliance Matrix: (Units=1/GPa)
#
#
# Indices 1 2 3 4 5 6 
#
# 1 0.013157 -0.003734 -0.004161 0.000000 -0.000507 0.000000
# 2 -0.003734 0.021134 -0.007423 0.000000 -0.003072 0.000000
# 3 -0.004161 -0.007423 0.015547 0.000000 -0.003251 0.000000
# 4 0.000000 0.000000 0.000000 -0.293022 0.000000 -0.043601
# 5 -0.000507 -0.003072 -0.003251 0.000000 0.030152 0.000000
# 6 0.000000 0.000000 0.000000 -0.043601 0.000000 0.036336
#
#
# Mechanical properties :
#
#
# Convention : Reuss Voigt Hill
#
# Bulk Modulus (GPa) = 52.07657 59.10970 55.59313
# Shear Modulus (GPa) = -35.80115 21.17791 -7.31162
#
# Velocity S-wave (km/s) = -4.30125 3.30817 -1.94381
# Velocity P-wave (km/s) = 1.49788 6.71846 4.86731
#
# Compressibility (1/GPa) = 0.01920249
#
# Stress axis : x y z
#
# Youngs Moduli (GPa) = 76.00728 47.31668 64.31954
#
# Poissons Ratio (x) = 0.17669 0.26763
# Poissons Ratio (y) = 0.28383 0.47742
# Poissons Ratio (z) = 0.31626 0.35122
#
# Static dielectric constant tensor:
#      x y z
#    x 3.597150 0.000000 0.080350 
#    y 0.000000 3.593620 0.000000 
#    z 0.080350 0.000000 3.554970 
# 
# 
# High freq. dielectric constant tensor:
#      x y z
#    x 1.762370 0.000000 0.008840 
#    y 0.000000 1.732090 0.000000 
#    z 0.008840 0.000000 1.757670 
# 
# From -- ./inp_files/56521.got.cif
#   From: 2010.06.25/outbox.cif.g09.slc.cpg/sg10_29_cif.got.tgz:56521.got - 2010.06.27 22:07:45.
