data_PCOD8063438
_publ_section_title
;
Structure prediction by ZEFSAII (Michael W. Deem and Ramdas Pophale) SiO2 
 PCOD8063438
Probable space group: P 2/M
;
_chemical_formula_sum "Si O2"
_cell_formula_units_Z 32
_cell_length_a 31.245485
_cell_length_b 8.830223
_cell_length_c 15.191838
_cell_angle_alpha 90.000000
_cell_angle_beta 151.602356
_cell_angle_gamma 90.000000
_cell_volume 1993.426304
_symmetry_space_group_name_H-M "P 2/M"
_symmetry_group_IT_number 10
_symmetry_cell_setting 'monoclinic'
loop_
_space_group_symop_operation_xyz
x,y,z
-x,y,-z
-x,-y,-z
x,-y,z
loop_
_atom_site_type_symbol
_atom_site_label
_atom_site_fract_x
_atom_site_fract_y
_atom_site_fract_z
Si Si1 0.198038 0.323736 0.312081
Si Si2 0.118325 0.676323 0.358626
Si Si3 0.126890 0.179840 0.669136
Si Si4 0.248955 0.179282 0.736833
Si Si5 0.071620 0.821249 0.945754
Si Si6 0.611116 0.678790 0.283664
Si Si7 0.585032 0.321070 0.039735
Si Si8 0.065676 0.820661 0.739875
O O1 0.193763 0.500000 0.278234
O O2 0.147292 0.294178 0.311219
O O3 0.301060 0.263808 0.505626
O O4 0.153694 0.224396 0.156043
O O5 0.120655 0.500000 0.386260
O O6 0.187284 0.760430 0.546771
O O7 0.018231 0.738266 0.186490
O O8 0.210318 0.237834 0.761136
O O9 0.131324 0.237508 0.779241
O O10 0.035068 0.241718 0.458810
O O11 0.125572 0.000000 0.665021
O O12 0.350609 0.240271 0.914136
O O13 0.248983 0.000000 0.731469
O O14 0.098320 0.767447 0.895091
O O15 0.054610 0.000000 0.919399
O O16 0.615867 0.500000 0.282537
O O17 0.610665 0.741172 0.183084
O O18 0.519144 0.724530 0.168035
O O19 0.599224 0.500000 0.058092
O O20 0.062788 0.000000 0.730918
#
# Coordination Sequence:
#
# PCOD8063438 Si02
#       8
#     4   4   4   4   4   4   4   4
#     4  10  20  34  48  64  88 126 164 187 215 265
#     4  11  21  33  47  63  91 130 164 186 212 266
#     4   8  14  26  45  65  88 119 150 181 222 278
#     4  11  19  28  46  73  98 119 147 189 235 272
#     4  11  21  32  47  69  93 119 154 197 232 261
#     4   8  15  30  50  66  85 120 162 188 212 268
#     4   9  16  30  50  68  88 119 155 188 223 272
#     4   8  14  27  45  64  87 118 153 183 221 273
#
# _framework density 16.052762999999999
#
# number of rings (size 3 to 8) (size 9 to 14) (size 15 to 20)
#    0.000    2.500    2.500    3.000    0.000    2.500 
#    0.000    1.875    0.000    3.750    0.000    0.875 
#    0.000    7.000    0.000    0.000    0.000    0.000 
#
# Total GULP energy -396575.199936 kJ/mol
# GULP energy per Si atom -12392.974998 kJ/mol
# Density = 1.601623 g / cm^3
# Si number density = 16.052763 Si / 1000 Ang^3
#
#
#
# Elastic Constant Matrix: (Units=GPa)
#
#
# Indices 1 2 3 4 5 6 
#
# 1 137.1544 36.9087 66.9394 0.0000 10.9084 0.0000
# 2 36.9087 35.6243 21.3607 0.0000 3.6851 0.0000
# 3 66.9394 21.3607 88.9579 0.0000 11.3953 0.0000
# 4 0.0000 0.0000 0.0000 12.3524 0.0000 12.5136
# 5 10.9084 3.6851 11.3953 0.0000 21.9475 0.0000
# 6 0.0000 0.0000 0.0000 12.5136 0.0000 5.5486
#
#
#
# Elastic Compliance Matrix: (Units=1/GPa)
#
#
# Indices 1 2 3 4 5 6 
#
# 1 0.013810 -0.009400 -0.007989 0.000000 -0.001138 0.000000
# 2 -0.009400 0.039238 -0.002253 0.000000 -0.000747 0.000000
# 3 -0.007989 -0.002253 0.018465 0.000000 -0.005238 0.000000
# 4 0.000000 0.000000 0.000000 -0.063016 0.000000 0.142117
# 5 -0.001138 -0.000747 -0.005238 0.000000 0.048974 0.000000
# 6 0.000000 0.000000 0.000000 0.142117 0.000000 -0.140287
#
#
# Mechanical properties :
#
#
# Convention : Reuss Voigt Hill
#
# Bulk Modulus (GPa) = 31.02801 56.90604 43.96702
# Shear Modulus (GPa) = -152.49017 17.07157 -67.70930
#
# Velocity S-wave (km/s) = -9.75701 3.26462 -6.50160
# Velocity P-wave (km/s) = 10.37120 7.05242 5.37704
#
# Compressibility (1/GPa) = 0.03222895
#
# Stress axis : x y z
#
# Youngs Moduli (GPa) = 72.40960 25.48558 54.15686
#
# Poissons Ratio (x) = 0.23957 0.43267
# Poissons Ratio (y) = 0.68066 0.12200
# Poissons Ratio (z) = 0.57849 0.05741
#
# Static dielectric constant tensor:
#      x y z
#    x 3.419610 0.000000 0.091990 
#    y 0.000000 2.797510 0.000000 
#    z 0.091990 0.000000 3.122330 
# 
# 
# High freq. dielectric constant tensor:
#      x y z
#    x 1.617030 0.000000 0.009660 
#    y 0.000000 1.592980 0.000000 
#    z 0.009660 0.000000 1.595760 
# 
# From -- ./inp_files/66083.got.cif
#   From: 2010.06.25/outbox.cif.g09.slc.cpg/sg10_34_cif.got.tgz:66083.got - 2010.06.27 22:07:45.
