data_PCOD8063478
_publ_section_title
;
Structure prediction by ZEFSAII (Michael W. Deem and Ramdas Pophale) SiO2 
 PCOD8063478
Probable space group: P 2/M
;
_chemical_formula_sum "Si O2"
_cell_formula_units_Z 32
_cell_length_a 15.043301
_cell_length_b 8.630967
_cell_length_c 30.905163
_cell_angle_alpha 90.000000
_cell_angle_beta 28.452900
_cell_angle_gamma 90.000000
_cell_volume 1911.781974
_symmetry_space_group_name_H-M "P 2/M"
_symmetry_group_IT_number 10
_symmetry_cell_setting 'monoclinic'
loop_
_space_group_symop_operation_xyz
x,y,z
-x,y,-z
-x,-y,-z
x,-y,z
loop_
_atom_site_type_symbol
_atom_site_label
_atom_site_fract_x
_atom_site_fract_y
_atom_site_fract_z
Si Si1 0.442312 0.681926 0.932256
Si Si2 0.540320 0.682181 0.417947
Si Si3 0.183154 0.316428 0.865787
Si Si4 0.149226 0.319626 0.213438
Si Si5 0.858402 0.180840 0.876986
Si Si6 0.253963 0.180771 0.747093
Si Si7 0.769826 0.682026 0.059927
Si Si8 0.773879 0.181815 0.394320
O O1 0.404940 0.500000 0.956344
O O2 0.656551 0.726234 0.847339
O O3 0.389705 0.731674 0.905689
O O4 0.319602 0.779828 0.017905
O O5 0.521192 0.500000 0.430611
O O6 0.594033 0.728939 0.346486
O O7 0.341631 0.757846 0.515042
O O8 0.700651 0.741158 0.381564
O O9 0.196181 0.500000 0.852446
O O10 0.287990 0.229835 0.782048
O O11 0.279220 0.263657 0.870164
O O12 0.969828 0.254598 0.958356
O O13 0.106666 0.500000 0.236688
O O14 0.155713 0.278649 0.160420
O O15 0.990262 0.225274 0.307020
O O16 0.045622 0.229408 0.822066
O O17 0.858787 0.000000 0.865085
O O18 0.288558 0.000000 0.726264
O O19 0.794048 0.500000 0.051797
O O20 0.747893 0.000000 0.401005
#
# Coordination Sequence:
#
# PCOD8063478 Si02
#       8
#     4   4   4   4   4   4   4   4
#     4  10  20  34  51  70  97 132 173 213 247 287
#     4  11  21  34  54  75  97 127 164 204 243 295
#     4   9  16  29  51  72  94 127 166 204 246 296
#     4  11  22  34  50  71  96 133 175 210 242 288
#     4  11  22  33  46  67 100 137 171 207 245 290
#     4  11  21  32  47  73 104 134 163 199 248 296
#     4   8  15  29  49  72  95 124 164 209 250 288
#     4  11  21  35  52  72 100 130 160 203 250 294
#
# _framework density 16.738310999999999
#
# number of rings (size 3 to 8) (size 9 to 14) (size 15 to 20)
#    0.000    1.750    2.500    5.250    0.000    3.500 
#    0.000    1.875    0.000    0.000    0.000    0.875 
#    0.000    7.000    0.000    0.000    0.000    0.000 
#
# Total GULP energy -396832.627482 kJ/mol
# GULP energy per Si atom -12401.019609 kJ/mol
# Density = 1.670021 g / cm^3
# Si number density = 16.738311 Si / 1000 Ang^3
#
#
#
# Elastic Constant Matrix: (Units=GPa)
#
#
# Indices 1 2 3 4 5 6 
#
# 1 81.9871 30.3897 59.2469 0.0000 8.3718 0.0000
# 2 30.3897 126.2011 56.7473 0.0000 7.2738 0.0000
# 3 59.2469 56.7473 123.8646 0.0000 13.0296 0.0000
# 4 0.0000 0.0000 0.0000 24.6667 0.0000 -2.3501
# 5 8.3718 7.2738 13.0296 0.0000 24.9051 0.0000
# 6 0.0000 0.0000 0.0000 -2.3501 0.0000 8.2556
#
#
#
# Elastic Compliance Matrix: (Units=1/GPa)
#
#
# Indices 1 2 3 4 5 6 
#
# 1 0.018742 -0.000585 -0.008521 0.000000 -0.001671 0.000000
# 2 -0.000585 0.010005 -0.004251 0.000000 -0.000501 0.000000
# 3 -0.008521 -0.004251 0.014460 0.000000 -0.003459 0.000000
# 4 0.000000 0.000000 0.000000 0.041671 0.000000 0.011862
# 5 -0.001671 -0.000501 -0.003459 0.000000 0.042671 0.000000
# 6 0.000000 0.000000 0.000000 0.011862 0.000000 0.124507
#
#
# Mechanical properties :
#
#
# Convention : Reuss Voigt Hill
#
# Bulk Modulus (GPa) = 60.63023 69.42451 65.02737
# Shear Modulus (GPa) = 17.58906 23.94340 20.76623
#
# Velocity S-wave (km/s) = 3.24516 3.78624 3.52609
# Velocity P-wave (km/s) = 7.09525 7.78978 7.45061
#
# Compressibility (1/GPa) = 0.01649342
#
# Stress axis : x y z
#
# Youngs Moduli (GPa) = 53.35596 99.94753 69.15434
#
# Poissons Ratio (x) = 0.05851 0.58924
# Poissons Ratio (y) = 0.03124 0.29398
# Poissons Ratio (z) = 0.45463 0.42488
#
# Static dielectric constant tensor:
#      x y z
#    x 3.213200 0.000000 0.079030 
#    y 0.000000 3.069130 0.000000 
#    z 0.079030 0.000000 3.137930 
# 
# 
# High freq. dielectric constant tensor:
#      x y z
#    x 1.624680 0.000000 0.013140 
#    y 0.000000 1.645920 0.000000 
#    z 0.013140 0.000000 1.635420 
# 
# From -- ./inp_files/95260.got.cif
#   From: 2010.06.25/outbox.cif.g09.slc.cpg/sg10_48_cif.got.tgz:95260.got - 2010.06.27 22:07:45.
