data_PCOD8063302
_publ_section_title
;
Structure prediction by ZEFSAII (Michael W. Deem and Ramdas Pophale) SiO2 
 PCOD8063302
Probable space group: P 2/M
;
_chemical_formula_sum "Si O2"
_cell_formula_units_Z 32
_cell_length_a 23.426881
_cell_length_b 9.275130
_cell_length_c 22.030124
_cell_angle_alpha 90.000000
_cell_angle_beta 19.954609
_cell_angle_gamma 90.000000
_cell_volume 1633.641078
_symmetry_space_group_name_H-M "P 2/M"
_symmetry_group_IT_number 10
_symmetry_cell_setting 'monoclinic'
loop_
_space_group_symop_operation_xyz
x,y,z
-x,y,-z
-x,-y,-z
x,-y,z
loop_
_atom_site_type_symbol
_atom_site_label
_atom_site_fract_x
_atom_site_fract_y
_atom_site_fract_z
Si Si1 0.001811 0.834211 0.569786
Si Si2 0.144694 0.668610 0.741936
Si Si3 0.686563 0.669655 0.683544
Si Si4 0.846694 0.665601 0.400607
Si Si5 0.815952 0.165977 0.935911
Si Si6 0.650094 0.167877 0.979793
Si Si7 0.804710 0.831837 0.081149
Si Si8 0.313315 0.346310 0.694225
O O1 0.000000 0.817802 0.500000
O O2 0.152730 0.736996 0.443802
O O3 0.032196 0.000000 0.559512
O O4 0.819778 0.782029 0.775920
O O5 0.102534 0.500000 0.788038
O O6 0.224674 0.704024 0.595498
O O7 0.256446 0.720262 0.686606
O O8 0.983107 0.763150 0.911839
O O9 0.678719 0.500000 0.706490
O O10 0.706561 0.699036 0.591275
O O11 0.512516 0.742435 0.879581
O O12 0.900498 0.500000 0.349793
O O13 0.014770 0.750604 0.248303
O O14 0.676022 0.198973 0.025462
O O15 0.739298 0.205964 0.078603
O O16 0.869554 0.000000 0.880645
O O17 0.614039 0.000000 0.002500
O O18 0.689481 0.765665 0.248043
O O19 0.815601 0.000000 0.081515
O O20 0.500000 0.390883 0.500000
O O21 0.218081 0.500000 0.803495
#
# Coordination Sequence:
#
# PCOD8063302 Si02
#       8
#     4   4   4   4   4   4   4   4
#     4  10  22  42  67  90 116 157 205 246 282 334
#     4   9  18  34  54  74 100 137 183 227 269 328
#     4  11  23  37  59  92 126 157 191 239 298 350
#     4   9  18  33  54  80 109 143 183 231 284 338
#     4   9  18  34  56  81 108 143 185 232 285 338
#     4  10  21  38  61  87 118 156 197 241 287 342
#     4  10  20  33  52  78 105 134 176 227 281 337
#     4  10  21  35  50  69  98 140 184 226 275 331
#
# _framework density 19.588145999999998
#
# number of rings (size 3 to 8) (size 9 to 14) (size 15 to 20)
#    0.000    2.250    1.250    1.125    0.000    6.000 
#    0.000    3.750    0.000    0.000    0.000    0.000 
#    0.000    0.000    0.000    0.000    0.000    0.000 
#
# Total GULP energy -396527.817808 kJ/mol
# GULP energy per Si atom -12391.494306 kJ/mol
# Density = 1.954356 g / cm^3
# Si number density = 19.588146 Si / 1000 Ang^3
#
#
#
# Elastic Constant Matrix: (Units=GPa)
#
#
# Indices 1 2 3 4 5 6 
#
# 1 88.8050 35.1684 53.4512 0.0000 5.3034 0.0000
# 2 35.1684 72.9051 52.5834 0.0000 -1.9709 0.0000
# 3 53.4512 52.5834 113.7259 0.0000 -2.4328 0.0000
# 4 0.0000 0.0000 0.0000 29.9000 0.0000 -3.1480
# 5 5.3034 -1.9709 -2.4328 0.0000 18.8125 0.0000
# 6 0.0000 0.0000 0.0000 -3.1480 0.0000 33.3231
#
#
#
# Elastic Compliance Matrix: (Units=1/GPa)
#
#
# Indices 1 2 3 4 5 6 
#
# 1 0.016923 -0.003745 -0.006350 0.000000 -0.005984 0.000000
# 2 -0.003745 0.021424 -0.008098 0.000000 0.002253 0.000000
# 3 -0.006350 -0.008098 0.015585 0.000000 0.002957 0.000000
# 4 0.000000 0.000000 0.000000 0.033781 0.000000 0.003191
# 5 -0.005984 0.002253 0.002957 0.000000 0.055462 0.000000
# 6 0.000000 0.000000 0.000000 0.003191 0.000000 0.030311
#
#
# Mechanical properties :
#
#
# Convention : Reuss Voigt Hill
#
# Bulk Modulus (GPa) = 56.99072 61.98244 59.48658
# Shear Modulus (GPa) = 23.17806 25.35598 24.26702
#
# Velocity S-wave (km/s) = 3.44360 3.60176 3.52357
# Velocity P-wave (km/s) = 6.70588 7.00060 6.85482
#
# Compressibility (1/GPa) = 0.01754672
#
# Stress axis : x y z
#
# Youngs Moduli (GPa) = 59.08977 46.67569 64.16379
#
# Poissons Ratio (x) = 0.17481 0.40747
# Poissons Ratio (y) = 0.22130 0.51957
# Poissons Ratio (z) = 0.37524 0.37796
#
# Static dielectric constant tensor:
#      x y z
#    x 4.177990 0.000000 0.345280 
#    y 0.000000 3.659440 0.000000 
#    z 0.345280 0.000000 3.483550 
# 
# 
# High freq. dielectric constant tensor:
#      x y z
#    x 1.774270 0.000000 0.010080 
#    y 0.000000 1.759600 0.000000 
#    z 0.010080 0.000000 1.745390 
# 
# From -- ./inp_files/90573.got.cif
#   From: 2010.06.25/outbox.cif.g09.slc.cpg/sg10_46_cif.got.tgz:90573.got - 2010.06.27 22:07:45.
