data_PCOD8063983
_publ_section_title
;
Structure prediction by ZEFSAII (Michael W. Deem and Ramdas Pophale) SiO2 
 PCOD8063983
Probable space group: P 2/M
;
_chemical_formula_sum "Si O2"
_cell_formula_units_Z 22
_cell_length_a 8.390253
_cell_length_b 17.502480
_cell_length_c 13.293730
_cell_angle_alpha 90.000000
_cell_angle_beta 146.298962
_cell_angle_gamma 90.000000
_cell_volume 1083.189712
_symmetry_space_group_name_H-M "P 2/M"
_symmetry_group_IT_number 10
_symmetry_cell_setting 'monoclinic'
loop_
_space_group_symop_operation_xyz
x,y,z
-x,y,-z
-x,-y,-z
x,-y,z
loop_
_atom_site_type_symbol
_atom_site_label
_atom_site_fract_x
_atom_site_fract_y
_atom_site_fract_z
Si Si1 0.942245 0.770332 0.752223
Si Si2 0.729896 0.817526 0.423668
Si Si3 0.685547 0.307232 0.792402
Si Si4 0.500000 0.681862 0.000000
Si Si5 0.693961 0.083351 0.699066
Si Si6 0.692717 0.589591 0.294739
O O1 0.836959 0.782646 0.584773
O O2 0.717821 0.712297 0.690465
O O3 0.938925 0.852135 0.810236
O O4 0.259469 0.735722 0.922858
O O5 0.540617 0.750899 0.272483
O O6 0.524005 0.891001 0.327023
O O7 0.000000 0.842519 0.500000
O O8 0.554976 0.390037 0.752342
O O9 0.000000 0.295223 0.000000
O O10 0.363050 0.629323 0.841560
O O11 0.500000 0.076107 0.500000
O O12 0.830309 0.000000 0.796807
O O13 0.683717 0.500000 0.271238
O O14 0.000000 0.615992 0.500000
#
# Coordination Sequence:
#
# PCOD8063983 Si02
#       6
#     4   4   4   2   4   4
#     4  10  21  35  60  88 116 158 205 247 301 361
#     4  10  20  34  58  88 119 156 203 251 303 361
#     4  11  20  37  58  86 114 155 198 249 295 357
#     4  12  21  40  63  92 124 162 204 256 305 368
#     4   8  16  33  55  83 120 158 200 249 302 357
#     4  11  25  43  63  90 126 163 200 251 311 369
#
# _framework density 20.310385
#
# number of rings (size 3 to 8) (size 9 to 14) (size 15 to 20)
#    0.000    1.818    1.818    4.636    0.000    0.727 
#    0.000    0.455    0.000   13.091    0.000    0.000 
#    0.000    0.727    0.000    0.000    0.000    0.000 
#
# Total GULP energy -272611.118500 kJ/mol
# GULP energy per Si atom -12391.414477 kJ/mol
# Density = 2.026416 g / cm^3
# Si number density = 20.310385 Si / 1000 Ang^3
#
#
#
# Elastic Constant Matrix: (Units=GPa)
#
#
# Indices 1 2 3 4 5 6 
#
# 1 134.4026 65.1119 45.0967 0.0000 17.3382 0.0000
# 2 65.1119 117.6770 67.6794 0.0000 16.4013 0.0000
# 3 45.0967 67.6794 100.1799 0.0000 8.8410 0.0000
# 4 0.0000 0.0000 0.0000 16.6403 0.0000 7.9706
# 5 17.3382 16.4013 8.8410 0.0000 36.1988 0.0000
# 6 0.0000 0.0000 0.0000 7.9706 0.0000 7.9886
#
#
#
# Elastic Compliance Matrix: (Units=1/GPa)
#
#
# Indices 1 2 3 4 5 6 
#
# 1 0.010485 -0.004675 -0.001334 0.000000 -0.002578 0.000000
# 2 -0.004675 0.016602 -0.008835 0.000000 -0.003125 0.000000
# 3 -0.001334 -0.008835 0.016498 0.000000 0.000613 0.000000
# 4 0.000000 0.000000 0.000000 0.115105 0.000000 -0.114845
# 5 -0.002578 -0.003125 0.000613 0.000000 0.030126 0.000000
# 6 0.000000 0.000000 0.000000 -0.114845 0.000000 0.239764
#
#
# Mechanical properties :
#
#
# Convention : Reuss Voigt Hill
#
# Bulk Modulus (GPa) = 71.96681 78.67058 75.31870
# Shear Modulus (GPa) = 10.80145 23.79031 17.29588
#
# Velocity S-wave (km/s) = 2.30862 3.42619 2.92135
# Velocity P-wave (km/s) = 6.52815 7.38038 6.96731
#
# Compressibility (1/GPa) = 0.01389529
#
# Stress axis : x y z
#
# Youngs Moduli (GPa) = 95.37042 60.23514 60.61496
#
# Poissons Ratio (x) = 0.28160 0.08087
# Poissons Ratio (y) = 0.44586 0.53556
# Poissons Ratio (z) = 0.12725 0.53220
#
# Static dielectric constant tensor:
#      x y z
#    x 3.939010 0.000000 0.159500 
#    y 0.000000 3.960960 0.000000 
#    z 0.159500 0.000000 3.690810 
# 
# 
# High freq. dielectric constant tensor:
#      x y z
#    x 1.797530 0.000000 0.004370 
#    y 0.000000 1.780790 0.000000 
#    z 0.004370 0.000000 1.791160 
# 
# From -- ./inp_files/62260.got.cif
#   From: 2010.06.25/outbox.cif.g09.slc.cpg/sg10_32_cif.got.tgz:62260.got - 2010.06.27 22:07:45.
