data_PCOD8063998
_publ_section_title
;
Structure prediction by ZEFSAII (Michael W. Deem and Ramdas Pophale) SiO2 
 PCOD8063998
Probable space group: P 2/M
;
_chemical_formula_sum "Si O2"
_cell_formula_units_Z 32
_cell_length_a 22.975859
_cell_length_b 16.179608
_cell_length_c 22.409677
_cell_angle_alpha 90.000000
_cell_angle_beta 12.678510
_cell_angle_gamma 90.000000
_cell_volume 1828.398611
_symmetry_space_group_name_H-M "P 2/M"
_symmetry_group_IT_number 10
_symmetry_cell_setting 'monoclinic'
loop_
_space_group_symop_operation_xyz
x,y,z
-x,y,-z
-x,-y,-z
x,-y,z
loop_
_atom_site_type_symbol
_atom_site_label
_atom_site_fract_x
_atom_site_fract_y
_atom_site_fract_z
Si Si1 0.854080 0.094990 0.015244
Si Si2 0.741680 0.650725 0.296054
Si Si3 0.382481 0.191135 0.518339
Si Si4 0.255492 0.904001 0.415190
Si Si5 0.251010 0.098426 0.284674
Si Si6 0.242429 0.152650 0.019272
Si Si7 0.613114 0.308886 0.186794
Si Si8 0.141896 0.594572 0.689593
O O1 0.753770 0.106309 0.047989
O O2 0.123795 0.144738 0.753742
O O3 0.910766 0.000000 0.972934
O O4 0.621140 0.126502 0.293418
O O5 0.500000 0.612630 0.500000
O O6 0.698421 0.750130 0.345811
O O7 0.759547 0.603978 0.341076
O O8 0.000000 0.632815 0.000000
O O9 0.499827 0.250911 0.351257
O O10 0.248291 0.869105 0.355101
O O11 0.049134 0.852307 0.660914
O O12 0.175137 0.000000 0.497821
O O13 0.550342 0.892929 0.145325
O O14 0.000000 0.132506 0.500000
O O15 0.259397 0.000000 0.276936
O O16 0.500000 0.134907 0.000000
O O17 0.317401 0.250009 0.938740
O O18 0.378487 0.374850 0.408374
O O19 0.878287 0.352768 0.944026
O O20 0.079723 0.500000 0.736758
#
# Coordination Sequence:
#
# PCOD8063998 Si02
#       8
#     4   4   4   4   4   4   4   4
#     4  11  20  32  51  71  93 121 158 204 246 281
#     4  11  21  35  55  74  95 122 151 187 233 277
#     4  10  20  35  51  69  93 125 157 185 230 296
#     4  11  20  29  44  69  98 128 172 221 250 268
#     4   9  17  29  42  57  85 129 175 213 247 282
#     4  11  20  31  47  70  98 125 158 201 249 287
#     4  10  20  36  52  71  99 130 155 180 228 295
#     4  11  22  37  56  78 100 121 152 185 218 278
#
# _framework density 17.501653999999998
#
# number of rings (size 3 to 8) (size 9 to 14) (size 15 to 20)
#    0.000    1.500    0.000   10.125    0.000    2.500 
#    0.000    0.000    0.000    7.500    0.000    0.000 
#    0.000    0.000    0.000    0.000    0.000  157.500 
#
# Total GULP energy -396753.995532 kJ/mol
# GULP energy per Si atom -12398.562360 kJ/mol
# Density = 1.746182 g / cm^3
# Si number density = 17.501654 Si / 1000 Ang^3
#
#
#
# Elastic Constant Matrix: (Units=GPa)
#
#
# Indices 1 2 3 4 5 6 
#
# 1 26.6352 12.9204 15.6699 0.0000 -1.9425 0.0000
# 2 12.9204 75.2113 25.8637 0.0000 -1.7202 0.0000
# 3 15.6699 25.8637 117.8778 0.0000 -14.0928 0.0000
# 4 0.0000 0.0000 0.0000 22.6431 0.0000 -0.9649
# 5 -1.9425 -1.7202 -14.0928 0.0000 27.3330 0.0000
# 6 0.0000 0.0000 0.0000 -0.9649 0.0000 10.1355
#
#
#
# Elastic Compliance Matrix: (Units=1/GPa)
#
#
# Indices 1 2 3 4 5 6 
#
# 1 0.042999 -0.005872 -0.004376 0.000000 0.000430 0.000000
# 2 -0.005872 0.015198 -0.002653 0.000000 -0.000829 0.000000
# 3 -0.004376 -0.002653 0.010220 0.000000 0.004791 0.000000
# 4 0.000000 0.000000 0.000000 0.044343 0.000000 0.004221
# 5 0.000430 -0.000829 0.004791 0.000000 0.039035 0.000000
# 6 0.000000 0.000000 0.000000 0.004221 0.000000 0.099065
#
#
# Mechanical properties :
#
#
# Convention : Reuss Voigt Hill
#
# Bulk Modulus (GPa) = 23.46631 36.51470 29.99050
# Shear Modulus (GPa) = 17.18999 23.04034 20.11517
#
# Velocity S-wave (km/s) = 3.13739 3.63225 3.39385
# Velocity P-wave (km/s) = 5.15378 6.20483 5.70357
#
# Compressibility (1/GPa) = 0.04261429
#
# Stress axis : x y z
#
# Youngs Moduli (GPa) = 23.25651 65.79806 97.84681
#
# Poissons Ratio (x) = 0.38636 0.42819
# Poissons Ratio (y) = 0.13656 0.25960
# Poissons Ratio (z) = 0.10177 0.17457
#
# Static dielectric constant tensor:
#      x y z
#    x 3.054420 0.000000 0.104480 
#    y 0.000000 3.384490 0.000000 
#    z 0.104480 0.000000 3.642920 
# 
# 
# High freq. dielectric constant tensor:
#      x y z
#    x 1.640500 0.000000 -0.005390 
#    y 0.000000 1.649450 0.000000 
#    z -0.005390 0.000000 1.706860 
# 
# From -- ./inp_files/91130.got.cif
#   From: 2010.06.25/outbox.cif.g09.slc.cpg/sg10_46_cif.got.tgz:91130.got - 2010.06.27 22:07:45.
