data_PCOD8063645
_publ_section_title
;
Structure prediction by ZEFSAII (Michael W. Deem and Ramdas Pophale) SiO2 
 PCOD8063645
Probable space group: P 2/M
;
_chemical_formula_sum "Si O2"
_cell_formula_units_Z 32
_cell_length_a 16.296355
_cell_length_b 9.318138
_cell_length_c 24.541349
_cell_angle_alpha 90.000000
_cell_angle_beta 26.182339
_cell_angle_gamma 90.000000
_cell_volume 1644.304895
_symmetry_space_group_name_H-M "P 2/M"
_symmetry_group_IT_number 10
_symmetry_cell_setting 'monoclinic'
loop_
_space_group_symop_operation_xyz
x,y,z
-x,y,-z
-x,-y,-z
x,-y,z
loop_
_atom_site_type_symbol
_atom_site_label
_atom_site_fract_x
_atom_site_fract_y
_atom_site_fract_z
Si Si1 0.546701 0.669231 0.757274
Si Si2 0.418216 0.168055 0.373689
Si Si3 0.969431 0.667994 0.781025
Si Si4 0.802520 0.156786 0.198564
Si Si5 0.867859 0.667201 0.962013
Si Si6 0.295088 0.841912 0.620048
Si Si7 0.015238 0.165492 0.652448
Si Si8 0.849199 0.832949 0.635457
O O1 0.581415 0.500000 0.734560
O O2 0.610875 0.740244 0.663049
O O3 0.665825 0.737749 0.735128
O O4 0.331919 0.706441 0.895488
O O5 0.610648 0.219139 0.287696
O O6 0.238847 0.196697 0.518984
O O7 0.426110 0.000000 0.353458
O O8 0.954035 0.500000 0.780848
O O9 0.182105 0.720887 0.655853
O O10 0.898962 0.747284 0.768152
O O11 0.871371 0.716669 0.896067
O O12 0.780200 0.136631 0.275357
O O13 0.981862 0.260182 0.086407
O O14 0.846172 0.000000 0.146533
O O15 0.914093 0.500000 0.936290
O O16 0.500000 0.779791 0.500000
O O17 0.287884 0.000000 0.594818
O O18 0.931793 0.211546 0.644304
O O19 0.976108 0.000000 0.687592
O O20 0.000000 0.794553 0.500000
O O21 0.794883 0.000000 0.665299
#
# Coordination Sequence:
#
# PCOD8063645 Si02
#       8
#     4   4   4   4   4   4   4   4
#     4  11  23  38  58  82 109 145 187 228 271 325
#     4  10  20  36  56  82 115 146 180 226 282 331
#     4  10  20  34  53  77 108 145 184 224 268 318
#     4   9  18  31  52  79 105 142 190 232 266 315
#     4   9  21  40  55  73 111 156 188 222 272 320
#     4   9  16  29  49  72 102 141 184 226 272 321
#     4  10  20  36  59  84 113 143 174 219 279 336
#     4  10  20  39  63  85 110 142 174 217 281 335
#
# _framework density 19.461110000000001
#
# number of rings (size 3 to 8) (size 9 to 14) (size 15 to 20)
#    0.000    2.250    1.250    1.500    0.000    6.000 
#    0.000    5.625    0.000    3.750    0.000    0.000 
#    0.000    0.000    0.000    0.000    0.000    0.000 
#
# Total GULP energy -396585.175012 kJ/mol
# GULP energy per Si atom -12393.286719 kJ/mol
# Density = 1.941682 g / cm^3
# Si number density = 19.461110 Si / 1000 Ang^3
#
#
#
# Elastic Constant Matrix: (Units=GPa)
#
#
# Indices 1 2 3 4 5 6 
#
# 1 80.9021 27.0077 1.5849 0.0000 -7.9436 0.0000
# 2 27.0077 56.8052 23.9389 0.0000 -4.7180 0.0000
# 3 1.5849 23.9389 45.5446 0.0000 -9.8358 0.0000
# 4 0.0000 0.0000 0.0000 26.7151 0.0000 -0.5537
# 5 -7.9436 -4.7180 -9.8358 0.0000 31.8980 0.0000
# 6 0.0000 0.0000 0.0000 -0.5537 0.0000 27.5868
#
#
#
# Elastic Compliance Matrix: (Units=1/GPa)
#
#
# Indices 1 2 3 4 5 6 
#
# 1 0.015804 -0.009397 0.005291 0.000000 0.004177 0.000000
# 2 -0.009397 0.028204 -0.015108 0.000000 -0.002827 0.000000
# 3 0.005291 -0.015108 0.031621 0.000000 0.008833 0.000000
# 4 0.000000 0.000000 0.000000 0.037448 0.000000 0.000752
# 5 0.004177 -0.002827 0.008833 0.000000 0.034696 0.000000
# 6 0.000000 0.000000 0.000000 0.000752 0.000000 0.036264
#
#
# Mechanical properties :
#
#
# Convention : Reuss Voigt Hill
#
# Bulk Modulus (GPa) = 26.88030 32.03501 29.45766
# Shear Modulus (GPa) = 21.28895 25.95468 23.62182
#
# Velocity S-wave (km/s) = 3.31104 3.65591 3.48774
# Velocity P-wave (km/s) = 5.33475 5.85813 5.60255
#
# Compressibility (1/GPa) = 0.03720196
#
# Stress axis : x y z
#
# Youngs Moduli (GPa) = 63.27461 35.45642 31.62469
#
# Poissons Ratio (x) = 0.33318 -0.16734
# Poissons Ratio (y) = 0.59459 0.47778
# Poissons Ratio (z) = -0.33481 0.53567
#
# Static dielectric constant tensor:
#      x y z
#    x 3.604750 0.000000 0.111450 
#    y 0.000000 3.582100 0.000000 
#    z 0.111450 0.000000 3.228910 
# 
# 
# High freq. dielectric constant tensor:
#      x y z
#    x 1.763600 0.000000 0.004080 
#    y 0.000000 1.746760 0.000000 
#    z 0.004080 0.000000 1.742760 
# 
# From -- ./inp_files/89486.got.cif
#   From: 2010.06.25/outbox.cif.g09.slc.cpg/sg10_45_cif.got.tgz:89486.got - 2010.06.27 22:07:45.
