data_PCOD8063191
_publ_section_title
;
Structure prediction by ZEFSAII (Michael W. Deem and Ramdas Pophale) SiO2 
 PCOD8063191
Probable space group: P 2/M
;
_chemical_formula_sum "Si O2"
_cell_formula_units_Z 28
_cell_length_a 14.533672
_cell_length_b 9.003699
_cell_length_c 13.170060
_cell_angle_alpha 90.000000
_cell_angle_beta 123.198697
_cell_angle_gamma 90.000000
_cell_volume 1442.094395
_symmetry_space_group_name_H-M "P 2/M"
_symmetry_group_IT_number 10
_symmetry_cell_setting 'monoclinic'
loop_
_space_group_symop_operation_xyz
x,y,z
-x,y,-z
-x,-y,-z
x,-y,z
loop_
_atom_site_type_symbol
_atom_site_label
_atom_site_fract_x
_atom_site_fract_y
_atom_site_fract_z
Si Si1 0.326464 0.176099 0.219769
Si Si2 0.440754 0.172933 0.706769
Si Si3 0.888626 0.327466 0.568052
Si Si4 0.706877 0.827865 0.574003
Si Si5 0.899861 0.176454 0.007428
Si Si6 0.101725 0.824239 0.761461
Si Si7 0.259357 0.327418 0.715730
O O1 0.433863 0.232309 0.223404
O O2 0.336484 0.225300 0.343000
O O3 0.325231 0.000000 0.212987
O O4 0.215593 0.242394 0.103385
O O5 0.388201 0.202301 0.564702
O O6 0.378375 0.264279 0.756275
O O7 0.433968 0.000000 0.731199
O O8 0.913110 0.500000 0.598891
O O9 0.815223 0.267061 0.615874
O O10 0.826974 0.295791 0.425899
O O11 0.003385 0.241172 0.634536
O O12 0.742655 0.000000 0.596927
O O13 0.915160 0.226734 0.132645
O O14 0.897892 0.000000 0.997525
O O15 0.000000 0.240592 0.000000
O O16 0.216439 0.757593 0.789582
O O17 0.105248 0.000000 0.752437
O O18 0.271593 0.500000 0.747610
#
# Coordination Sequence:
#
# PCOD8063191 Si02
#       7
#     4   4   4   4   4   4   4
#     4   9  16  29  51  77 105 135 167 208 254 295
#     4   9  17  30  51  79 105 130 167 211 250 294
#     4  10  20  33  50  74 104 136 166 201 253 309
#     4   9  16  28  50  79 106 132 165 206 251 298
#     4   9  18  32  51  77 105 131 162 202 249 298
#     4  11  21  33  53  77  99 130 172 212 248 291
#     4  10  21  36  52  72 102 136 166 203 255 308
#
# _framework density 19.416204
#
# number of rings (size 3 to 8) (size 9 to 14) (size 15 to 20)
#    0.000    2.429    0.000    3.000    0.000    7.429 
#    0.000    1.429    0.000   17.143    0.000    0.000 
#    0.000    0.000    0.000    0.000    0.000    0.000 
#
# Total GULP energy -347222.267098 kJ/mol
# GULP energy per Si atom -12400.795254 kJ/mol
# Density = 1.937201 g / cm^3
# Si number density = 19.416204 Si / 1000 Ang^3
#
#
#
# Elastic Constant Matrix: (Units=GPa)
#
#
# Indices 1 2 3 4 5 6 
#
# 1 181.3729 49.5738 51.9634 0.0000 -3.9475 0.0000
# 2 49.5738 60.3461 25.3457 0.0000 -6.4440 0.0000
# 3 51.9634 25.3457 51.7919 0.0000 0.3569 0.0000
# 4 0.0000 0.0000 0.0000 11.2714 0.0000 1.2886
# 5 -3.9475 -6.4440 0.3569 0.0000 32.6313 0.0000
# 6 0.0000 0.0000 0.0000 1.2886 0.0000 12.5035
#
#
#
# Elastic Compliance Matrix: (Units=1/GPa)
#
#
# Indices 1 2 3 4 5 6 
#
# 1 0.008543 -0.004266 -0.006486 0.000000 0.000262 0.000000
# 2 -0.004266 0.023590 -0.007293 0.000000 0.004222 0.000000
# 3 -0.006486 -0.007293 0.029402 0.000000 -0.002546 0.000000
# 4 0.000000 0.000000 0.000000 0.089778 0.000000 -0.009252
# 5 0.000262 0.004222 -0.002546 0.000000 0.031539 0.000000
# 6 0.000000 0.000000 0.000000 -0.009252 0.000000 0.080931
#
#
# Mechanical properties :
#
#
# Convention : Reuss Voigt Hill
#
# Bulk Modulus (GPa) = 39.30036 60.80852 50.05444
# Shear Modulus (GPa) = 16.21511 22.38979 19.30245
#
# Velocity S-wave (km/s) = 2.89300 3.39949 3.15642
# Velocity P-wave (km/s) = 5.60752 6.84070 6.25457
#
# Compressibility (1/GPa) = 0.02544506
#
# Stress axis : x y z
#
# Youngs Moduli (GPa) = 117.04855 42.39127 34.01166
#
# Poissons Ratio (x) = 0.18086 0.22059
# Poissons Ratio (y) = 0.49937 0.24804
# Poissons Ratio (z) = 0.75914 0.30915
#
# Static dielectric constant tensor:
#      x y z
#    x 3.849900 0.000000 0.024620 
#    y 0.000000 3.216700 0.000000 
#    z 0.024620 0.000000 3.416730 
# 
# 
# High freq. dielectric constant tensor:
#      x y z
#    x 1.774070 0.000000 -0.003330 
#    y 0.000000 1.721240 0.000000 
#    z -0.003330 0.000000 1.735370 
# 
# From -- ./inp_files/49461.got.cif
#   From: 2010.06.25/outbox.cif.g09.slc.cpg/sg10_25_cif.got.tgz:49461.got - 2010.06.27 22:07:45.
