data_PCOD8063711
_publ_section_title
;
Structure prediction by ZEFSAII (Michael W. Deem and Ramdas Pophale) SiO2 
 PCOD8063711
Probable space group: P 2/M
;
_chemical_formula_sum "Si O2"
_cell_formula_units_Z 30
_cell_length_a 10.865517
_cell_length_b 9.430019
_cell_length_c 17.584587
_cell_angle_alpha 90.000000
_cell_angle_beta 116.322469
_cell_angle_gamma 90.000000
_cell_volume 1614.933492
_symmetry_space_group_name_H-M "P 2/M"
_symmetry_group_IT_number 10
_symmetry_cell_setting 'monoclinic'
loop_
_space_group_symop_operation_xyz
x,y,z
-x,y,-z
-x,-y,-z
x,-y,z
loop_
_atom_site_type_symbol
_atom_site_label
_atom_site_fract_x
_atom_site_fract_y
_atom_site_fract_z
Si Si1 0.993882 0.342305 0.165769
Si Si2 0.296966 0.843738 0.062739
Si Si3 0.734392 0.836092 0.120279
Si Si4 0.737699 0.663995 0.670852
Si Si5 0.537726 0.664379 0.176303
Si Si6 0.561780 0.338792 0.355523
Si Si7 0.000000 0.255679 0.000000
Si Si8 0.654375 0.160763 0.512352
O O1 0.954869 0.500000 0.183724
O O2 0.885039 0.231297 0.168669
O O3 0.140911 0.294920 0.238461
O O4 0.998081 0.349921 0.075384
O O5 0.382378 0.724536 0.130941
O O6 0.351397 0.000000 0.100266
O O7 0.321329 0.818913 0.980060
O O8 0.136123 0.840322 0.039161
O O9 0.631198 0.753801 0.145968
O O10 0.743301 0.000000 0.147247
O O11 0.743508 0.500000 0.648173
O O12 0.597508 0.700224 0.676141
O O13 0.752073 0.757544 0.598429
O O14 0.534219 0.500000 0.150975
O O15 0.597909 0.682247 0.277246
O O16 0.589151 0.500000 0.389048
O O17 0.660188 0.237302 0.431932
O O18 0.500000 0.167964 0.500000
O O19 0.706521 0.000000 0.517647
#
# Coordination Sequence:
#
# PCOD8063711 Si02
#       8
#     4   4   4   4   4   4   2   4
#     4  10  20  34  54  78 104 136 174 215 257 301
#     4  10  21  36  53  74 104 141 176 210 254 307
#     4  10  22  38  53  71 100 139 178 215 258 305
#     4   9  17  31  51  75 104 136 166 200 251 309
#     4  11  22  35  54  78 102 132 175 220 258 300
#     4   9  18  32  50  75 105 134 163 202 255 308
#     4  10  20  34  54  80 110 138 172 212 254 300
#     4   9  17  29  47  74 104 133 166 203 245 298
#
# _framework density 18.576616000000001
#
# number of rings (size 3 to 8) (size 9 to 14) (size 15 to 20)
#    0.000    2.267    0.000    2.800    0.000    9.600 
#    0.000    2.667    0.000    0.800    0.000    5.600 
#    0.000    0.000    0.000    0.000    0.000    0.000 
#
# Total GULP energy -372007.709591 kJ/mol
# GULP energy per Si atom -12400.256986 kJ/mol
# Density = 1.853434 g / cm^3
# Si number density = 18.576616 Si / 1000 Ang^3
#
#
#
# Elastic Constant Matrix: (Units=GPa)
#
#
# Indices 1 2 3 4 5 6 
#
# 1 71.6855 38.8355 28.4748 0.0000 -4.6784 0.0000
# 2 38.8355 123.0208 50.0337 0.0000 -2.1620 0.0000
# 3 28.4748 50.0337 86.3798 0.0000 5.2571 0.0000
# 4 0.0000 0.0000 0.0000 24.2534 0.0000 5.7039
# 5 -4.6784 -2.1620 5.2571 0.0000 20.4760 0.0000
# 6 0.0000 0.0000 0.0000 5.7039 0.0000 20.6924
#
#
#
# Elastic Compliance Matrix: (Units=1/GPa)
#
#
# Indices 1 2 3 4 5 6 
#
# 1 0.017972 -0.004011 -0.003886 0.000000 0.004680 0.000000
# 2 -0.004011 0.011683 -0.005551 0.000000 0.001743 0.000000
# 3 -0.003886 -0.005551 0.016420 0.000000 -0.005690 0.000000
# 4 0.000000 0.000000 0.000000 0.044090 0.000000 -0.012153
# 5 0.004680 0.001743 -0.005690 0.000000 0.051552 0.000000
# 6 0.000000 0.000000 0.000000 -0.012153 0.000000 0.051677
#
#
# Mechanical properties :
#
#
# Convention : Reuss Voigt Hill
#
# Bulk Modulus (GPa) = 52.14155 57.30820 54.72488
# Shear Modulus (GPa) = 22.05744 24.00052 23.02898
#
# Velocity S-wave (km/s) = 3.44957 3.59830 3.52472
# Velocity P-wave (km/s) = 6.63290 6.94121 6.78880
#
# Compressibility (1/GPa) = 0.01917856
#
# Stress axis : x y z
#
# Youngs Moduli (GPa) = 55.64331 85.59364 60.90319
#
# Poissons Ratio (x) = 0.34328 0.23668
# Poissons Ratio (y) = 0.22316 0.33808
# Poissons Ratio (z) = 0.21624 0.47515
#
# Static dielectric constant tensor:
#      x y z
#    x 3.170040 0.000000 -0.008760 
#    y 0.000000 3.483430 0.000000 
#    z -0.008760 0.000000 3.437970 
# 
# 
# High freq. dielectric constant tensor:
#      x y z
#    x 1.692610 0.000000 -0.002620 
#    y 0.000000 1.729020 0.000000 
#    z -0.002620 0.000000 1.718180 
# 
# From -- ./inp_files/76250.got.cif
#   From: 2010.06.25/outbox.cif.g09.slc.cpg/sg10_39_cif.got.tgz:76250.got - 2010.06.27 22:07:45.
