data_PCOD8063928
_publ_section_title
;
Structure prediction by ZEFSAII (Michael W. Deem and Ramdas Pophale) SiO2 
 PCOD8063928
Probable space group: P 2/M
;
_chemical_formula_sum "Si O2"
_cell_formula_units_Z 32
_cell_length_a 14.468677
_cell_length_b 9.155013
_cell_length_c 24.428976
_cell_angle_alpha 90.000000
_cell_angle_beta 150.708123
_cell_angle_gamma 90.000000
_cell_volume 1583.185141
_symmetry_space_group_name_H-M "P 2/M"
_symmetry_group_IT_number 10
_symmetry_cell_setting 'monoclinic'
loop_
_space_group_symop_operation_xyz
x,y,z
-x,y,-z
-x,-y,-z
x,-y,z
loop_
_atom_site_type_symbol
_atom_site_label
_atom_site_fract_x
_atom_site_fract_y
_atom_site_fract_z
Si Si1 0.675624 0.329368 0.688063
Si Si2 0.815012 0.327030 0.876065
Si Si3 0.102611 0.241313 0.500148
Si Si4 0.450933 0.664890 0.744095
Si Si5 0.711198 0.827755 0.125723
Si Si6 0.247938 0.664863 0.742420
Si Si7 0.716593 0.161606 0.513311
Si Si8 0.067848 0.672789 0.282445
O O1 0.619007 0.500000 0.658688
O O2 0.808281 0.289806 0.808202
O O3 0.487105 0.235840 0.594035
O O4 0.791587 0.287413 0.693995
O O5 0.813999 0.500000 0.883390
O O6 0.632173 0.254830 0.811274
O O7 0.000000 0.257886 0.000000
O O8 0.275464 0.336354 0.611959
O O9 0.192285 0.137209 0.500010
O O10 0.000000 0.161561 0.500000
O O11 0.952820 0.344630 0.392199
O O12 0.508766 0.500000 0.785070
O O13 0.398990 0.730571 0.776736
O O14 0.751083 0.778289 0.207996
O O15 0.862155 0.744741 0.164762
O O16 0.743627 0.000000 0.137568
O O17 0.500000 0.782121 0.000000
O O18 0.296284 0.500000 0.787302
O O19 0.851871 0.261240 0.620062
O O20 0.696508 0.000000 0.528805
O O21 0.042840 0.500000 0.276522
#
# Coordination Sequence:
#
# PCOD8063928 Si02
#       8
#     4   4   4   4   4   4   4   4
#     4  10  22  40  62  89 120 157 201 250 301 354
#     4   9  17  31  55  85 116 150 189 238 292 344
#     4  10  20  34  56  89 123 155 190 240 296 361
#     4   9  17  31  54  86 121 151 185 237 297 354
#     4  11  25  43  61  84 119 163 203 244 299 356
#     4  10  20  34  59  90 116 150 195 243 294 352
#     4  12  24  38  61  91 124 162 197 241 301 367
#     4  11  24  41  64  91 118 155 202 255 302 348
#
# _framework density 20.212419000000001
#
# number of rings (size 3 to 8) (size 9 to 14) (size 15 to 20)
#    0.000    1.750    2.500    1.875    0.000    7.250 
#    0.000    4.375    0.000    0.375    0.000    0.000 
#    0.000    0.000    0.000    0.000    0.000    0.000 
#
# Total GULP energy -396543.772215 kJ/mol
# GULP energy per Si atom -12391.992882 kJ/mol
# Density = 2.016641 g / cm^3
# Si number density = 20.212419 Si / 1000 Ang^3
#
#
#
# Elastic Constant Matrix: (Units=GPa)
#
#
# Indices 1 2 3 4 5 6 
#
# 1 156.9832 38.0822 57.5427 0.0000 15.6605 0.0000
# 2 38.0822 77.8704 33.9648 0.0000 7.6763 0.0000
# 3 57.5427 33.9648 125.0238 0.0000 20.0531 0.0000
# 4 0.0000 0.0000 0.0000 18.2560 0.0000 5.0716
# 5 15.6605 7.6763 20.0531 0.0000 26.8595 0.0000
# 6 0.0000 0.0000 0.0000 5.0716 0.0000 13.3821
#
#
#
# Elastic Compliance Matrix: (Units=1/GPa)
#
#
# Indices 1 2 3 4 5 6 
#
# 1 0.008212 -0.002621 -0.002749 0.000000 -0.001987 0.000000
# 2 -0.002621 0.015449 -0.002871 0.000000 -0.000743 0.000000
# 3 -0.002749 -0.002871 0.010968 0.000000 -0.005766 0.000000
# 4 0.000000 0.000000 0.000000 0.061222 0.000000 -0.023202
# 5 -0.001987 -0.000743 -0.005766 0.000000 0.042906 0.000000
# 6 0.000000 0.000000 0.000000 -0.023202 0.000000 0.083520
#
#
# Mechanical properties :
#
#
# Convention : Reuss Voigt Hill
#
# Bulk Modulus (GPa) = 55.10609 68.78410 61.94510
# Shear Modulus (GPa) = 20.42409 27.05205 23.73807
#
# Velocity S-wave (km/s) = 3.18224 3.66237 3.43071
# Velocity P-wave (km/s) = 6.38943 7.21030 6.81224
#
# Compressibility (1/GPa) = 0.01814682
#
# Stress axis : x y z
#
# Youngs Moduli (GPa) = 121.77738 64.72728 91.17040
#
# Poissons Ratio (x) = 0.16966 0.25061
# Poissons Ratio (y) = 0.31920 0.26180
# Poissons Ratio (z) = 0.33474 0.18586
#
# Static dielectric constant tensor:
#      x y z
#    x 4.152360 0.000000 0.224500 
#    y 0.000000 3.256510 0.000000 
#    z 0.224500 0.000000 3.835090 
# 
# 
# High freq. dielectric constant tensor:
#      x y z
#    x 1.810500 0.000000 0.007000 
#    y 0.000000 1.751060 0.000000 
#    z 0.007000 0.000000 1.785240 
# 
# From -- ./inp_files/89601.got.cif
#   From: 2010.06.25/outbox.cif.g09.slc.cpg/sg10_45_cif.got.tgz:89601.got - 2010.06.27 22:07:45.
