data_PCOD8063558
_publ_section_title
;
Structure prediction by ZEFSAII (Michael W. Deem and Ramdas Pophale) SiO2 
 PCOD8063558
Probable space group: P 2/M
;
_chemical_formula_sum "Si O2"
_cell_formula_units_Z 32
_cell_length_a 29.796120
_cell_length_b 9.446638
_cell_length_c 5.391468
_cell_angle_alpha 90.000000
_cell_angle_beta 100.700487
_cell_angle_gamma 90.000000
_cell_volume 1491.165125
_symmetry_space_group_name_H-M "P 2/M"
_symmetry_group_IT_number 10
_symmetry_cell_setting 'monoclinic'
loop_
_space_group_symop_operation_xyz
x,y,z
-x,y,-z
-x,-y,-z
x,-y,z
loop_
_atom_site_type_symbol
_atom_site_label
_atom_site_fract_x
_atom_site_fract_y
_atom_site_fract_z
Si Si1 0.625288 0.344650 0.181279
Si Si2 0.899351 0.668971 0.396945
Si Si3 0.467121 0.654655 0.179393
Si Si4 0.948185 0.668517 0.947068
Si Si5 0.672079 0.156324 0.891016
Si Si6 0.796608 0.666995 0.287961
Si Si7 0.744956 0.331716 0.733103
Si Si8 0.579778 0.845609 0.538327
O O1 0.642021 0.500000 0.292982
O O2 0.601186 0.253884 0.360116
O O3 0.585921 0.367858 0.938934
O O4 0.670554 0.262112 0.127405
O O5 0.900115 0.500000 0.397465
O O6 0.923919 0.726111 0.172399
O O7 0.847807 0.728925 0.343944
O O8 0.923834 0.726091 0.672047
O O9 0.487342 0.500000 0.276012
O O10 0.465575 0.766486 0.404165
O O11 0.500000 0.719528 0.000000
O O12 0.946640 0.500000 0.945402
O O13 0.000000 0.724175 0.000000
O O14 0.698129 0.240686 0.697033
O O15 0.619084 0.129750 0.780667
O O16 0.694112 0.000000 0.966829
O O17 0.799548 0.500000 0.294568
O O18 0.770967 0.718103 0.511427
O O19 0.772314 0.716496 0.009177
O O20 0.735259 0.500000 0.723337
O O21 0.565016 0.000000 0.417867
#
# Coordination Sequence:
#
# PCOD8063558 Si02
#       8
#     4   4   4   4   4   4   4   4
#     4  10  20  35  57  80 103 135 173 213 259 311
#     4   9  15  24  37  53  82 122 162 214 264 306
#     4   9  19  36  55  77 105 137 175 216 256 307
#     4   9  15  21  32  53  81 119 169 215 256 308
#     4  10  22  38  54  75 103 135 169 213 267 322
#     4   9  18  31  47  69  96 129 175 223 271 321
#     4  10  20  34  52  76 101 131 176 226 267 321
#     4  10  21  36  54  77 106 138 171 211 263 323
#
# _framework density 21.459728999999999
#
# number of rings (size 3 to 8) (size 9 to 14) (size 15 to 20)
#    0.000    2.500    0.000    2.250    1.750    7.250 
#    0.000    2.500    0.000    0.000    0.000    0.000 
#    0.000    0.000    0.000    0.000    0.000   43.750 
#
# Total GULP energy -396468.338980 kJ/mol
# GULP energy per Si atom -12389.635593 kJ/mol
# Density = 2.141089 g / cm^3
# Si number density = 21.459729 Si / 1000 Ang^3
#
#
#
# Elastic Constant Matrix: (Units=GPa)
#
#
# Indices 1 2 3 4 5 6 
#
# 1 102.3902 20.3647 33.6755 0.0000 -31.3373 0.0000
# 2 20.3647 112.7160 22.0667 0.0000 -30.6867 0.0000
# 3 33.6755 22.0667 123.9316 0.0000 -33.1958 0.0000
# 4 0.0000 0.0000 0.0000 12.8394 0.0000 -1.2878
# 5 -31.3373 -30.6867 -33.1958 0.0000 48.9734 0.0000
# 6 0.0000 0.0000 0.0000 -1.2878 0.0000 16.2986
#
#
#
# Elastic Compliance Matrix: (Units=1/GPa)
#
#
# Indices 1 2 3 4 5 6 
#
# 1 0.012375 -0.000076 -0.001516 0.000000 0.006843 0.000000
# 2 -0.000076 0.010699 -0.000124 0.000000 0.006571 0.000000
# 3 -0.001516 -0.000124 0.010046 0.000000 0.005762 0.000000
# 4 0.000000 0.000000 0.000000 0.078507 0.000000 0.006203
# 5 0.006843 0.006571 0.005762 0.000000 0.032821 0.000000
# 6 0.000000 0.000000 0.000000 0.006203 0.000000 0.061845
#
#
# Mechanical properties :
#
#
# Convention : Reuss Voigt Hill
#
# Bulk Modulus (GPa) = 33.68421 54.58352 44.13386
# Shear Modulus (GPa) = 22.76642 33.15101 27.95871
#
# Velocity S-wave (km/s) = 3.26066 3.93466 3.61341
# Velocity P-wave (km/s) = 5.46868 6.79210 6.16600
#
# Compressibility (1/GPa) = 0.02968750
#
# Stress axis : x y z
#
# Youngs Moduli (GPa) = 80.81018 93.46790 99.53842
#
# Poissons Ratio (x) = 0.00710 0.15090
# Poissons Ratio (y) = 0.00614 0.01237
# Poissons Ratio (z) = 0.12251 0.01161
#
# Static dielectric constant tensor:
#      x y z
#    x 4.255090 0.000000 0.100490 
#    y 0.000000 3.839400 0.000000 
#    z 0.100490 0.000000 4.055320 
# 
# 
# High freq. dielectric constant tensor:
#      x y z
#    x 1.842200 0.000000 -0.009590 
#    y 0.000000 1.792430 0.000000 
#    z -0.009590 0.000000 1.845930 
# 
# From -- ./inp_files/13629.got.cif
#   From: 2010.06.25/outbox.cif.g09.slc.cpg/sg10_7_cif.got.tgz:13629.got - 2010.06.27 22:07:45.
