data_PCOD8063904
_publ_section_title
;
Structure prediction by ZEFSAII (Michael W. Deem and Ramdas Pophale) SiO2 
 PCOD8063904
Probable space group: P 2/M
;
_chemical_formula_sum "Si O2"
_cell_formula_units_Z 28
_cell_length_a 15.097676
_cell_length_b 8.568622
_cell_length_c 10.772625
_cell_angle_alpha 90.000000
_cell_angle_beta 62.959254
_cell_angle_gamma 90.000000
_cell_volume 1241.269279
_symmetry_space_group_name_H-M "P 2/M"
_symmetry_group_IT_number 10
_symmetry_cell_setting 'monoclinic'
loop_
_space_group_symop_operation_xyz
x,y,z
-x,y,-z
-x,-y,-z
x,-y,z
loop_
_atom_site_type_symbol
_atom_site_label
_atom_site_fract_x
_atom_site_fract_y
_atom_site_fract_z
Si Si1 0.186140 0.178002 0.781503
Si Si2 0.065429 0.680044 0.572359
Si Si3 0.725762 0.674215 0.507176
Si Si4 0.973957 0.176625 0.863471
Si Si5 0.573866 0.814454 0.061434
Si Si6 0.233112 0.319184 0.991804
Si Si7 0.477582 0.819353 0.376679
O O1 0.220807 0.302218 0.659034
O O2 0.254184 0.215370 0.856207
O O3 0.068406 0.203551 0.903110
O O4 0.203481 0.000000 0.726464
O O5 0.042910 0.500000 0.624527
O O6 0.182031 0.696496 0.456155
O O7 0.000000 0.735633 0.500000
O O8 0.043207 0.799689 0.697913
O O9 0.680830 0.500000 0.542539
O O10 0.638083 0.796472 0.584200
O O11 0.933107 0.000000 0.897282
O O12 0.882412 0.293995 0.898459
O O13 0.683764 0.742495 0.963743
O O14 0.538742 0.750743 0.220211
O O15 0.578262 0.000000 0.055272
O O16 0.500000 0.753954 0.000000
O O17 0.249893 0.500000 0.956147
O O18 0.500000 0.743209 0.500000
O O19 0.502404 0.000000 0.370716
#
# Coordination Sequence:
#
# PCOD8063904 Si02
#       7
#     4   4   4   4   4   4   4
#     4  10  20  36  58  85 118 152 189 235 288 349
#     4   9  19  36  55  79 114 151 186 229 285 347
#     4  10  20  34  56  85 115 147 186 237 293 347
#     4  10  21  36  56  83 114 150 192 236 284 346
#     4  10  23  43  63  85 117 157 202 251 299 351
#     4  12  24  37  58  85 115 152 191 237 293 352
#     4  10  21  38  61  86 113 150 195 244 297 351
#
# _framework density 22.557552999999999
#
# number of rings (size 3 to 8) (size 9 to 14) (size 15 to 20)
#    0.000    1.857    0.000    3.857    0.000    7.714 
#    0.000    2.857    0.000    0.000    0.000    0.000 
#    0.000    0.000    0.000    0.000    0.000    0.000 
#
# Total GULP energy -346955.532380 kJ/mol
# GULP energy per Si atom -12391.269014 kJ/mol
# Density = 2.250621 g / cm^3
# Si number density = 22.557553 Si / 1000 Ang^3
#
#
#
# Elastic Constant Matrix: (Units=GPa)
#
#
# Indices 1 2 3 4 5 6 
#
# 1 170.0427 37.3665 29.4214 0.0000 -5.2254 0.0000
# 2 37.3665 53.5959 9.6588 0.0000 3.7287 0.0000
# 3 29.4214 9.6588 45.7686 0.0000 -9.2919 0.0000
# 4 0.0000 0.0000 0.0000 23.3967 0.0000 -5.3689
# 5 -5.2254 3.7287 -9.2919 0.0000 29.3629 0.0000
# 6 0.0000 0.0000 0.0000 -5.3689 0.0000 29.7920
#
#
#
# Elastic Compliance Matrix: (Units=1/GPa)
#
#
# Indices 1 2 3 4 5 6 
#
# 1 0.007574 -0.004661 -0.003731 0.000000 0.000759 0.000000
# 2 -0.004661 0.022718 -0.002727 0.000000 -0.004577 0.000000
# 3 -0.003731 -0.002727 0.026458 0.000000 0.008055 0.000000
# 4 0.000000 0.000000 0.000000 0.044585 0.000000 0.008035
# 5 0.000759 -0.004577 0.008055 0.000000 0.037322 0.000000
# 6 0.000000 0.000000 0.000000 0.008035 0.000000 0.035014
#
#
# Mechanical properties :
#
#
# Convention : Reuss Voigt Hill
#
# Bulk Modulus (GPa) = 28.97596 46.92227 37.94911
# Shear Modulus (GPa) = 24.10644 29.37435 26.74039
#
# Velocity S-wave (km/s) = 3.27259 3.61251 3.44674
# Velocity P-wave (km/s) = 5.21086 6.18438 5.71837
#
# Compressibility (1/GPa) = 0.03451137
#
# Stress axis : x y z
#
# Youngs Moduli (GPa) = 132.03091 44.01865 37.79518
#
# Poissons Ratio (x) = 0.20517 0.14102
# Poissons Ratio (y) = 0.61538 0.10308
# Poissons Ratio (z) = 0.49261 0.12005
#
# Static dielectric constant tensor:
#      x y z
#    x 4.524990 0.000000 -0.063910 
#    y 0.000000 3.611700 0.000000 
#    z -0.063910 0.000000 4.056010 
# 
# 
# High freq. dielectric constant tensor:
#      x y z
#    x 1.913780 0.000000 -0.010980 
#    y 0.000000 1.867120 0.000000 
#    z -0.010980 0.000000 1.873280 
# 
# From -- ./inp_files/49203.got.cif
#   From: 2010.06.25/outbox.cif.g09.slc.cpg/sg10_25_cif.got.tgz:49203.got - 2010.06.27 22:07:45.
