data_PCOD8063210
_publ_section_title
;
Structure prediction by ZEFSAII (Michael W. Deem and Ramdas Pophale) SiO2 
 PCOD8063210
Probable space group: P 2/M
;
_chemical_formula_sum "Si O2"
_cell_formula_units_Z 30
_cell_length_a 5.350217
_cell_length_b 15.991835
_cell_length_c 16.291396
_cell_angle_alpha 90.000000
_cell_angle_beta 84.069103
_cell_angle_gamma 90.000000
_cell_volume 1386.427231
_symmetry_space_group_name_H-M "P 2/M"
_symmetry_group_IT_number 10
_symmetry_cell_setting 'monoclinic'
loop_
_space_group_symop_operation_xyz
x,y,z
-x,y,-z
-x,-y,-z
x,-y,z
loop_
_atom_site_type_symbol
_atom_site_label
_atom_site_fract_x
_atom_site_fract_y
_atom_site_fract_z
Si Si1 0.000000 0.342192 0.000000
Si Si2 0.295677 0.863698 0.721597
Si Si3 0.755595 0.908260 0.806546
Si Si4 0.771826 0.265955 0.857301
Si Si5 0.380115 0.407661 0.872067
Si Si6 0.239333 0.902757 0.538045
Si Si7 0.764706 0.402466 0.449378
Si Si8 0.172494 0.681771 0.727904
O O1 0.961239 0.278160 0.925949
O O2 0.207143 0.406402 0.958807
O O3 0.558081 0.908757 0.736634
O O4 0.211576 0.888162 0.634287
O O5 0.348115 0.764162 0.729737
O O6 0.051808 0.894407 0.780180
O O7 0.667353 0.829544 0.865354
O O8 0.730299 0.000000 0.849646
O O9 0.568550 0.334329 0.883762
O O10 0.894303 0.285951 0.763643
O O11 0.503493 0.500000 0.861768
O O12 0.247733 0.390948 0.788771
O O13 0.500000 0.859945 0.500000
O O14 0.000000 0.860813 0.500000
O O15 0.245100 0.000000 0.514820
O O16 0.500000 0.374699 0.500000
O O17 0.752490 0.500000 0.427637
O O18 0.816626 0.351702 0.364651
O O19 0.000000 0.382762 0.500000
#
# Coordination Sequence:
#
# PCOD8063210 Si02
#       8
#     2   4   4   4   4   4   4   4
#     4  10  23  42  63  96 138 166 205 262 327 396
#     4  11  22  38  61  89 122 164 215 271 323 388
#     4  11  22  40  65  92 125 168 217 265 319 379
#     4  10  23  41  64  97 130 170 213 272 322 395
#     4  11  22  40  67  96 131 171 211 262 327 395
#     4  10  20  33  50  79 116 154 201 258 322 385
#     4  10  23  40  60  88 127 175 226 277 329 386
#     4  10  23  40  61  91 130 166 224 273 328 381
#
# _framework density 21.638351
#
# number of rings (size 3 to 8) (size 9 to 14) (size 15 to 20)
#    0.000    1.600    1.333    3.000    1.867    5.867 
#    0.000    0.333    0.000    1.600    0.000    0.000 
#    0.000    0.000    0.000    0.000    0.000    0.000 
#
# Total GULP energy -371659.446484 kJ/mol
# GULP energy per Si atom -12388.648216 kJ/mol
# Density = 2.158910 g / cm^3
# Si number density = 21.638351 Si / 1000 Ang^3
#
#
#
# Elastic Constant Matrix: (Units=GPa)
#
#
# Indices 1 2 3 4 5 6 
#
# 1 103.2586 39.8935 32.7791 0.0000 -14.5021 0.0000
# 2 39.8935 162.5314 41.4743 0.0000 -1.9873 0.0000
# 3 32.7791 41.4743 100.9638 0.0000 -5.6536 0.0000
# 4 0.0000 0.0000 0.0000 10.7003 0.0000 -8.5372
# 5 -14.5021 -1.9873 -5.6536 0.0000 21.7498 0.0000
# 6 0.0000 0.0000 0.0000 -8.5372 0.0000 11.9020
#
#
#
# Elastic Compliance Matrix: (Units=1/GPa)
#
#
# Indices 1 2 3 4 5 6 
#
# 1 0.012460 -0.002280 -0.002694 0.000000 0.007399 0.000000
# 2 -0.002280 0.007291 -0.002336 0.000000 -0.001462 0.000000
# 3 -0.002694 -0.002336 0.011798 0.000000 0.001057 0.000000
# 4 0.000000 0.000000 0.000000 0.218497 0.000000 0.156725
# 5 0.007399 -0.001462 0.001057 0.000000 0.051052 0.000000
# 6 0.000000 0.000000 0.000000 0.156725 0.000000 0.196436
#
#
# Mechanical properties :
#
#
# Convention : Reuss Voigt Hill
#
# Bulk Modulus (GPa) = 59.07763 66.11640 62.59702
# Shear Modulus (GPa) = 9.65627 25.71088 17.68357
#
# Velocity S-wave (km/s) = 2.11477 3.45078 2.86183
# Velocity P-wave (km/s) = 5.77274 6.81900 6.31757
#
# Compressibility (1/GPa) = 0.01692688
#
# Stress axis : x y z
#
# Youngs Moduli (GPa) = 80.25776 137.16118 84.75880
#
# Poissons Ratio (x) = 0.31277 0.22836
# Poissons Ratio (y) = 0.18301 0.19803
# Poissons Ratio (z) = 0.21623 0.32046
#
# Static dielectric constant tensor:
#      x y z
#    x 4.138860 0.000000 0.008730 
#    y 0.000000 4.117040 0.000000 
#    z 0.008730 0.000000 3.794510 
# 
# 
# High freq. dielectric constant tensor:
#      x y z
#    x 1.856020 0.000000 -0.000110 
#    y 0.000000 1.853730 0.000000 
#    z -0.000110 0.000000 1.831810 
# 
# From -- ./inp_files/73512.got.cif
#   From: 2010.06.25/outbox.cif.g09.slc.cpg/sg10_37_cif.got.tgz:73512.got - 2010.06.27 22:07:45.
