data_PCOD8063380
_publ_section_title
;
Structure prediction by ZEFSAII (Michael W. Deem and Ramdas Pophale) SiO2 
 PCOD8063380
Probable space group: P 2/M
;
_chemical_formula_sum "Si O2"
_cell_formula_units_Z 20
_cell_length_a 13.638665
_cell_length_b 9.777150
_cell_length_c 22.108705
_cell_angle_alpha 90.000000
_cell_angle_beta 158.933586
_cell_angle_gamma 90.000000
_cell_volume 1059.706910
_symmetry_space_group_name_H-M "P 2/M"
_symmetry_group_IT_number 10
_symmetry_cell_setting 'monoclinic'
loop_
_space_group_symop_operation_xyz
x,y,z
-x,y,-z
-x,-y,-z
x,-y,z
loop_
_atom_site_type_symbol
_atom_site_label
_atom_site_fract_x
_atom_site_fract_y
_atom_site_fract_z
Si Si1 0.233203 0.661675 0.681267
Si Si2 0.303548 0.153988 0.100877
Si Si3 0.353143 0.339700 0.476211
Si Si4 0.687243 0.846552 0.751687
Si Si5 0.224561 0.660398 0.813263
O O1 0.279612 0.500000 0.702530
O O2 0.515406 0.735014 0.828589
O O3 0.159253 0.708466 0.707018
O O4 0.000000 0.710370 0.500000
O O5 0.329030 0.173677 0.186628
O O6 0.392967 0.000000 0.134128
O O7 0.991487 0.180241 0.902056
O O8 0.500000 0.287917 0.500000
O O9 0.400161 0.500000 0.513217
O O10 0.484578 0.263545 0.607972
O O11 0.031106 0.303065 0.290544
O O12 0.595825 0.000000 0.681176
O O13 0.271018 0.500000 0.837603
O O14 0.500000 0.728598 0.000000
#
# Coordination Sequence:
#
# PCOD8063380 Si02
#       5
#     4   4   4   4   4
#     4  10  20  33  54  81 108 141 183 226 274 325
#     4   9  19  35  55  79 107 142 181 222 270 327
#     4  10  21  35  56  83 107 138 187 229 261 318
#     4   9  19  36  55  77 109 144 177 220 278 326
#     4   9  19  35  53  76 113 149 173 215 279 330
#
# _framework density 18.873142999999999
#
# number of rings (size 3 to 8) (size 9 to 14) (size 15 to 20)
#    0.000    2.600    0.000    2.400    2.800    4.000 
#    0.000    3.000    0.000    1.200    0.000    0.000 
#    0.000    0.000    0.000    0.000    0.000    0.000 
#
# Total GULP energy -247946.976979 kJ/mol
# GULP energy per Si atom -12397.348849 kJ/mol
# Density = 1.883019 g / cm^3
# Si number density = 18.873143 Si / 1000 Ang^3
#
#
#
# Elastic Constant Matrix: (Units=GPa)
#
#
# Indices 1 2 3 4 5 6 
#
# 1 100.3885 21.5358 50.8250 0.0000 14.7492 0.0000
# 2 21.5358 38.0633 26.6561 0.0000 6.8111 0.0000
# 3 50.8250 26.6561 112.7762 0.0000 -0.4954 0.0000
# 4 0.0000 0.0000 0.0000 23.8137 0.0000 0.1013
# 5 14.7492 6.8111 -0.4954 0.0000 31.4207 0.0000
# 6 0.0000 0.0000 0.0000 0.1013 0.0000 18.4777
#
#
#
# Elastic Compliance Matrix: (Units=1/GPa)
#
#
# Indices 1 2 3 4 5 6 
#
# 1 0.014478 -0.002979 -0.005848 0.000000 -0.006243 0.000000
# 2 -0.002979 0.033687 -0.006646 0.000000 -0.006009 0.000000
# 3 -0.005848 -0.006646 0.013093 0.000000 0.004392 0.000000
# 4 0.000000 0.000000 0.000000 0.041994 0.000000 -0.000230
# 5 -0.006243 -0.006009 0.004392 0.000000 0.036128 0.000000
# 6 0.000000 0.000000 0.000000 -0.000230 0.000000 0.054121
#
#
# Mechanical properties :
#
#
# Convention : Reuss Voigt Hill
#
# Bulk Modulus (GPa) = 32.99077 49.91797 41.45437
# Shear Modulus (GPa) = 21.31720 24.88982 23.10351
#
# Velocity S-wave (km/s) = 3.36445 3.63546 3.50258
# Velocity P-wave (km/s) = 5.71060 6.64295 6.19434
#
# Compressibility (1/GPa) = 0.03031151
#
# Stress axis : x y z
#
# Youngs Moduli (GPa) = 69.06794 29.68484 76.37660
#
# Poissons Ratio (x) = 0.08843 0.44668
# Poissons Ratio (y) = 0.20576 0.50762
# Poissons Ratio (z) = 0.40393 0.19729
#
# Static dielectric constant tensor:
#      x y z
#    x 3.527250 0.000000 0.059750 
#    y 0.000000 3.218320 0.000000 
#    z 0.059750 0.000000 3.613490 
# 
# 
# High freq. dielectric constant tensor:
#      x y z
#    x 1.734800 0.000000 0.006170 
#    y 0.000000 1.708000 0.000000 
#    z 0.006170 0.000000 1.738150 
# 
# From -- ./inp_files/17871.got.cif
#   From: 2010.06.25/outbox.cif.g09.slc.cpg/sg10_9_cif.got.tgz:17871.got - 2010.06.27 22:07:45.
