data_PCOD8063350
_publ_section_title
;
Structure prediction by ZEFSAII (Michael W. Deem and Ramdas Pophale) SiO2 
 PCOD8063350
Probable space group: P 2/M
;
_chemical_formula_sum "Si O2"
_cell_formula_units_Z 28
_cell_length_a 12.074927
_cell_length_b 11.867823
_cell_length_c 20.793625
_cell_angle_alpha 90.000000
_cell_angle_beta 149.818295
_cell_angle_gamma 90.000000
_cell_volume 1498.071824
_symmetry_space_group_name_H-M "P 2/M"
_symmetry_group_IT_number 10
_symmetry_cell_setting 'monoclinic'
loop_
_space_group_symop_operation_xyz
x,y,z
-x,y,-z
-x,-y,-z
x,-y,z
loop_
_atom_site_type_symbol
_atom_site_label
_atom_site_fract_x
_atom_site_fract_y
_atom_site_fract_z
Si Si1 0.447002 0.121716 0.047547
Si Si2 0.753966 0.377054 0.351538
Si Si3 0.858592 0.757370 0.286371
Si Si4 0.639234 0.500000 0.479172
Si Si5 0.158894 0.500000 0.278440
Si Si6 0.633540 0.868501 0.631267
Si Si7 0.061731 0.268911 0.821949
Si Si8 0.319655 0.735665 0.563236
O O1 0.676140 0.144598 0.199373
O O2 0.356042 0.000000 0.026455
O O3 0.500000 0.111270 0.000000
O O4 0.270078 0.222974 0.967490
O O5 0.638402 0.500000 0.299051
O O6 0.756835 0.342782 0.278403
O O7 0.634057 0.283413 0.337301
O O8 0.000000 0.385116 0.500000
O O9 0.884349 0.716097 0.226124
O O10 0.091365 0.802237 0.432580
O O11 0.374113 0.500000 0.341910
O O12 0.745725 0.500000 0.602410
O O13 0.724952 0.611657 0.487937
O O14 0.012805 0.390320 0.189020
O O15 0.500000 0.841759 0.500000
O O16 0.524716 0.801508 0.635884
O O17 0.876556 0.824986 0.740048
O O18 0.637876 0.000000 0.650400
#
# Coordination Sequence:
#
# PCOD8063350 Si02
#       8
#     4   4   4   2   2   4   4   4
#     4   9  20  38  55  72 103 149 190 223 265 315
#     4   9  19  32  51  77 111 149 178 214 264 324
#     4  10  20  33  53  80 108 144 183 219 259 325
#     4  11  18  30  51  78 116 152 164 205 281 348
#     4  11  20  28  51  80 120 140 168 215 279 338
#     4  11  21  33  53  80 110 141 177 229 278 318
#     4  11  20  34  52  84 110 142 177 223 273 329
#     4  11  19  34  53  82 113 143 181 216 272 330
#
# _framework density 18.690691999999999
#
# number of rings (size 3 to 8) (size 9 to 14) (size 15 to 20)
#    0.000    1.714    5.000    0.429    2.000    1.143 
#    1.286    1.786    0.000    3.429    0.000    4.000 
#    0.000    0.000    0.000    0.000    0.000    0.000 
#
# Total GULP energy -347011.633512 kJ/mol
# GULP energy per Si atom -12393.272625 kJ/mol
# Density = 1.864815 g / cm^3
# Si number density = 18.690692 Si / 1000 Ang^3
#
#
#
# Elastic Constant Matrix: (Units=GPa)
#
#
# Indices 1 2 3 4 5 6 
#
# 1 96.4740 35.0299 27.0118 0.0000 3.8902 0.0000
# 2 35.0299 101.4764 36.1692 0.0000 10.3436 0.0000
# 3 27.0118 36.1692 70.8679 0.0000 16.9451 0.0000
# 4 0.0000 0.0000 0.0000 9.7240 0.0000 18.4681
# 5 3.8902 10.3436 16.9451 0.0000 18.5731 0.0000
# 6 0.0000 0.0000 0.0000 18.4681 0.0000 8.2284
#
#
#
# Elastic Compliance Matrix: (Units=1/GPa)
#
#
# Indices 1 2 3 4 5 6 
#
# 1 0.012481 -0.003247 -0.003719 0.000000 0.002587 0.000000
# 2 -0.003247 0.012919 -0.004858 0.000000 -0.002082 0.000000
# 3 -0.003719 -0.004858 0.021966 0.000000 -0.016557 0.000000
# 4 0.000000 0.000000 0.000000 -0.031520 0.000000 0.070743
# 5 0.002587 -0.002082 -0.016557 0.000000 0.069564 0.000000
# 6 0.000000 0.000000 0.000000 0.070743 0.000000 -0.037248
#
#
# Mechanical properties :
#
#
# Convention : Reuss Voigt Hill
#
# Bulk Modulus (GPa) = 42.15931 51.69336 46.92634
# Shear Modulus (GPa) = 62.72155 18.67894 40.70025
#
# Velocity S-wave (km/s) = 5.79918 3.16471 4.67150
# Velocity P-wave (km/s) = 8.21255 6.40868 7.36604
#
# Compressibility (1/GPa) = 0.02371955
#
# Stress axis : x y z
#
# Youngs Moduli (GPa) = 80.11981 77.40441 45.52389
#
# Poissons Ratio (x) = 0.25131 0.16929
# Poissons Ratio (y) = 0.26013 0.22116
# Poissons Ratio (z) = 0.29795 0.37604
#
# Static dielectric constant tensor:
#      x y z
#    x 3.568990 0.000000 0.103950 
#    y 0.000000 3.555980 0.000000 
#    z 0.103950 0.000000 3.364900 
# 
# 
# High freq. dielectric constant tensor:
#      x y z
#    x 1.716570 0.000000 0.019040 
#    y 0.000000 1.722790 0.000000 
#    z 0.019040 0.000000 1.693190 
# 
# From -- ./inp_files/55887.got.cif
#   From: 2010.06.25/outbox.cif.g09.slc.cpg/sg10_28_cif.got.tgz:55887.got - 2010.06.27 22:07:45.
