data_PCOD8063691
_publ_section_title
;
Structure prediction by ZEFSAII (Michael W. Deem and Ramdas Pophale) SiO2 
 PCOD8063691
Probable space group: P 2/M
;
_chemical_formula_sum "Si O2"
_cell_formula_units_Z 26
_cell_length_a 11.892657
_cell_length_b 7.877481
_cell_length_c 14.922292
_cell_angle_alpha 90.000000
_cell_angle_beta 110.943400
_cell_angle_gamma 90.000000
_cell_volume 1305.623541
_symmetry_space_group_name_H-M "P 2/M"
_symmetry_group_IT_number 10
_symmetry_cell_setting 'monoclinic'
loop_
_space_group_symop_operation_xyz
x,y,z
-x,y,-z
-x,-y,-z
x,-y,z
loop_
_atom_site_type_symbol
_atom_site_label
_atom_site_fract_x
_atom_site_fract_y
_atom_site_fract_z
Si Si1 0.906274 0.500000 0.892109
Si Si2 0.604674 0.500000 0.604279
Si Si3 0.459294 0.311715 0.896800
Si Si4 0.379722 0.500000 0.182365
Si Si5 0.972407 0.812496 0.788525
Si Si6 0.206306 0.693472 0.770662
Si Si7 0.765095 0.809972 0.595178
Si Si8 0.869517 0.803972 0.437500
O O1 0.930559 0.671354 0.845616
O O2 0.763978 0.500000 0.874790
O O3 0.000000 0.500000 0.000000
O O4 0.500000 0.500000 0.500000
O O5 0.572249 0.500000 0.700996
O O6 0.678144 0.671991 0.612574
O O7 0.417057 0.500000 0.914713
O O8 0.564575 0.330985 0.850956
O O9 0.338799 0.224099 0.823880
O O10 0.500000 0.214923 0.000000
O O11 0.111804 0.799198 0.802135
O O12 0.896949 0.790986 0.675844
O O13 0.950927 0.000000 0.824575
O O14 0.195230 0.500000 0.799243
O O15 0.182870 0.697565 0.658561
O O16 0.777530 0.778445 0.493206
O O17 0.713635 0.000000 0.598926
O O18 0.000000 0.730739 0.500000
O O19 0.881178 0.000000 0.412299
#
# Coordination Sequence:
#
# PCOD8063691 Si02
#       8
#     2   2   4   2   4   4   4   4
#     4  12  26  40  70  96 121 163 213 254 328 380
#     4  12  26  39  63  85 121 168 214 252 309 365
#     4   8  19  36  61  86 120 161 201 254 313 362
#     4  10  21  41  58  93 124 158 212 259 303 381
#     4  11  22  41  64  93 130 162 204 265 315 373
#     4  11  21  33  61  94 123 157 209 250 315 374
#     4  10  22  40  59  85 126 165 205 254 312 369
#     4  10  20  34  53  83 121 160 191 242 306 360
#
# _framework density 19.913855000000002
#
# number of rings (size 3 to 8) (size 9 to 14) (size 15 to 20)
#    0.462    1.231    3.846    0.462    5.385    0.923 
#    0.000    0.000    0.000    3.692    0.000    0.000 
#    0.000    0.000    0.000    0.000    0.000    0.000 
#
# Total GULP energy -322198.400551 kJ/mol
# GULP energy per Si atom -12392.246175 kJ/mol
# Density = 1.986853 g / cm^3
# Si number density = 19.913855 Si / 1000 Ang^3
#
#
#
# Elastic Constant Matrix: (Units=GPa)
#
#
# Indices 1 2 3 4 5 6 
#
# 1 138.2417 43.2167 65.3263 0.0000 7.7270 0.0000
# 2 43.2167 94.4561 28.7384 0.0000 -3.7891 0.0000
# 3 65.3263 28.7384 128.5714 0.0000 12.8127 0.0000
# 4 0.0000 0.0000 0.0000 -29.9020 0.0000 -0.9835
# 5 7.7270 -3.7891 12.8127 0.0000 36.3924 0.0000
# 6 0.0000 0.0000 0.0000 -0.9835 0.0000 -0.9528
#
#
#
# Elastic Compliance Matrix: (Units=1/GPa)
#
#
# Indices 1 2 3 4 5 6 
#
# 1 0.010480 -0.003484 -0.004444 0.000000 -0.001023 0.000000
# 2 -0.003484 0.012683 -0.001316 0.000000 0.002524 0.000000
# 3 -0.004444 -0.001316 0.010622 0.000000 -0.002933 0.000000
# 4 0.000000 0.000000 0.000000 -0.034618 0.000000 0.035733
# 5 -0.001023 0.002524 -0.002933 0.000000 0.028991 0.000000
# 6 0.000000 0.000000 0.000000 0.035733 0.000000 -1.086404
#
#
# Mechanical properties :
#
#
# Convention : Reuss Voigt Hill
#
# Bulk Modulus (GPa) = 65.37413 70.64800 68.01107
# Shear Modulus (GPa) = -4.83251 16.04003 5.60376
#
# Velocity S-wave (km/s) = -1.55948 2.84116 1.67932
# Velocity P-wave (km/s) = 5.44583 6.80564 6.16335
#
# Compressibility (1/GPa) = 0.01529657
#
# Stress axis : x y z
#
# Youngs Moduli (GPa) = 95.41857 78.84812 94.14117
#
# Poissons Ratio (x) = 0.27470 0.41838
# Poissons Ratio (y) = 0.33243 0.12391
# Poissons Ratio (z) = 0.42406 0.10378
#
# Static dielectric constant tensor:
#      x y z
#    x 3.528140 0.000000 0.171440 
#    y 0.000000 3.413990 0.000000 
#    z 0.171440 0.000000 3.873980 
# 
# 
# High freq. dielectric constant tensor:
#      x y z
#    x 1.768140 0.000000 0.004890 
#    y 0.000000 1.757730 0.000000 
#    z 0.004890 0.000000 1.783340 
# 
# From -- ./inp_files/63590.got.cif
#   From: 2010.06.25/outbox.cif.g09.slc.cpg/sg10_32_cif.got.tgz:63590.got - 2010.06.27 22:07:45.
