data_PCOD8063235
_publ_section_title
;
Structure prediction by ZEFSAII (Michael W. Deem and Ramdas Pophale) SiO2 
 PCOD8063235
Probable space group: P 2/M
;
_chemical_formula_sum "Si O2"
_cell_formula_units_Z 24
_cell_length_a 13.549442
_cell_length_b 13.235501
_cell_length_c 20.435489
_cell_angle_alpha 90.000000
_cell_angle_beta 158.396766
_cell_angle_gamma 90.000000
_cell_volume 1349.284473
_symmetry_space_group_name_H-M "P 2/M"
_symmetry_group_IT_number 10
_symmetry_cell_setting 'monoclinic'
loop_
_space_group_symop_operation_xyz
x,y,z
-x,y,-z
-x,-y,-z
x,-y,z
loop_
_atom_site_type_symbol
_atom_site_label
_atom_site_fract_x
_atom_site_fract_y
_atom_site_fract_z
Si Si1 0.023080 0.115848 0.799403
Si Si2 0.064708 0.751469 0.140344
Si Si3 0.550164 0.235976 0.104696
Si Si4 0.078797 0.116554 0.411671
Si Si5 0.607357 0.381705 0.882719
Si Si6 0.419447 0.236538 0.241187
O O1 0.850918 0.178944 0.746310
O O2 0.889796 0.131416 0.646667
O O3 0.019402 0.000000 0.818403
O O4 0.328951 0.153559 0.988265
O O5 0.323324 0.729858 0.254730
O O6 0.927531 0.646296 0.080948
O O7 0.832656 0.809609 0.954866
O O8 0.538705 0.332977 0.144545
O O9 0.835365 0.182424 0.289184
O O10 0.500000 0.274058 0.000000
O O11 0.350242 0.153154 0.613305
O O12 0.027845 0.000000 0.398051
O O13 0.561775 0.500000 0.856736
O O14 0.478855 0.335984 0.736196
#
# Coordination Sequence:
#
# PCOD8063235 Si02
#       6
#     4   4   4   4   4   4
#     4   9  17  32  53  74 100 139 175 204 246 298
#     4   8  18  34  52  73 102 132 168 213 250 294
#     4   9  18  34  53  76 104 132 168 214 253 296
#     4  10  20  33  51  75 107 142 172 201 244 302
#     4   9  18  35  57  75  95 132 173 209 260 312
#     4   9  19  34  49  76 104 133 168 208 252 296
#
# _framework density 17.787206000000001
#
# number of rings (size 3 to 8) (size 9 to 14) (size 15 to 20)
#    1.000    2.000    0.000    0.500    0.000    6.333 
#    0.000    5.833    0.000    4.000    0.000   11.667 
#    0.000    0.000    0.000    0.000    0.000    0.000 
#
# Total GULP energy -297370.620211 kJ/mol
# GULP energy per Si atom -12390.442509 kJ/mol
# Density = 1.774672 g / cm^3
# Si number density = 17.787206 Si / 1000 Ang^3
#
#
#
# Elastic Constant Matrix: (Units=GPa)
#
#
# Indices 1 2 3 4 5 6 
#
# 1 125.7935 67.4920 18.6632 0.0000 10.8130 0.0000
# 2 67.4920 122.5274 29.3104 0.0000 -3.7458 0.0000
# 3 18.6632 29.3104 53.3487 0.0000 2.1753 0.0000
# 4 0.0000 0.0000 0.0000 12.1895 0.0000 -3.2836
# 5 10.8130 -3.7458 2.1753 0.0000 16.2581 0.0000
# 6 0.0000 0.0000 0.0000 -3.2836 0.0000 19.8364
#
#
#
# Elastic Compliance Matrix: (Units=1/GPa)
#
#
# Indices 1 2 3 4 5 6 
#
# 1 0.012764 -0.007337 -0.000019 0.000000 -0.010177 0.000000
# 2 -0.007337 0.013749 -0.005345 0.000000 0.008763 0.000000
# 3 -0.000019 -0.005345 0.021857 0.000000 -0.004143 0.000000
# 4 0.000000 0.000000 0.000000 0.085867 0.000000 0.014214
# 5 -0.010177 0.008763 -0.004143 0.000000 0.070850 0.000000
# 6 0.000000 0.000000 0.000000 0.014214 0.000000 0.052765
#
#
# Mechanical properties :
#
#
# Convention : Reuss Voigt Hill
#
# Bulk Modulus (GPa) = 43.53887 59.17786 51.35836
# Shear Modulus (GPa) = 17.18748 22.07040 19.62894
#
# Velocity S-wave (km/s) = 3.11188 3.52632 3.32557
# Velocity P-wave (km/s) = 6.11903 7.06556 6.60926
#
# Compressibility (1/GPa) = 0.02296798
#
# Stress axis : x y z
#
# Youngs Moduli (GPa) = 78.34642 72.73027 45.75286
#
# Poissons Ratio (x) = 0.53364 0.00087
# Poissons Ratio (y) = 0.57485 0.24453
# Poissons Ratio (z) = 0.00149 0.38871
#
# Static dielectric constant tensor:
#      x y z
#    x 3.632760 0.000000 -0.009820 
#    y 0.000000 2.919380 0.000000 
#    z -0.009820 0.000000 2.971770 
# 
# 
# High freq. dielectric constant tensor:
#      x y z
#    x 1.706170 0.000000 0.003730 
#    y 0.000000 1.656060 0.000000 
#    z 0.003730 0.000000 1.661210 
# 
# From -- ./inp_files/89740.got.cif
#   From: 2010.06.25/outbox.cif.g09.slc.cpg/sg10_45_cif.got.tgz:89740.got - 2010.06.27 22:07:45.
