data_PCOD8063368
_publ_section_title
;
Structure prediction by ZEFSAII (Michael W. Deem and Ramdas Pophale) SiO2 
 PCOD8063368
Probable space group: P 2/M
;
_chemical_formula_sum "Si O2"
_cell_formula_units_Z 32
_cell_length_a 21.913262
_cell_length_b 9.367781
_cell_length_c 15.103562
_cell_angle_alpha 90.000000
_cell_angle_beta 30.209375
_cell_angle_gamma 90.000000
_cell_volume 1560.020921
_symmetry_space_group_name_H-M "P 2/M"
_symmetry_group_IT_number 10
_symmetry_cell_setting 'monoclinic'
loop_
_space_group_symop_operation_xyz
x,y,z
-x,y,-z
-x,-y,-z
x,-y,z
loop_
_atom_site_type_symbol
_atom_site_label
_atom_site_fract_x
_atom_site_fract_y
_atom_site_fract_z
Si Si1 0.980715 0.665614 0.623010
Si Si2 0.382792 0.658841 0.320320
Si Si3 0.805094 0.667080 0.994519
Si Si4 0.573806 0.841028 0.998545
Si Si5 0.439392 0.163421 0.665254
Si Si6 0.120322 0.334865 0.904439
Si Si7 0.756604 0.344067 0.685210
Si Si8 0.309987 0.163346 0.561449
O O1 0.950115 0.500000 0.650257
O O2 0.000000 0.733651 0.500000
O O3 0.107332 0.693742 0.514677
O O4 0.876909 0.729987 0.818091
O O5 0.407513 0.500000 0.327627
O O6 0.508078 0.745535 0.154795
O O7 0.326118 0.647429 0.295841
O O8 0.288027 0.745385 0.500072
O O9 0.778312 0.500000 0.016888
O O10 0.676359 0.745407 0.161108
O O11 0.888669 0.689862 0.978082
O O12 0.590262 0.000000 0.016395
O O13 0.500000 0.845894 0.000000
O O14 0.705981 0.772611 0.817192
O O15 0.500000 0.224639 0.500000
O O16 0.545759 0.173870 0.603981
O O17 0.396819 0.000000 0.703755
O O18 0.150285 0.500000 0.845628
O O19 0.231780 0.234373 0.736819
O O20 0.000000 0.289267 0.000000
O O21 0.754823 0.500000 0.734806
O O22 0.268285 0.000000 0.601348
#
# Coordination Sequence:
#
# PCOD8063368 Si02
#       8
#     4   4   4   4   4   4   4   4
#     4   9  19  36  57  84 115 147 191 245 294 343
#     4  10  20  33  53  82 115 150 193 239 294 356
#     4  10  21  37  62  91 118 155 202 247 296 353
#     4   9  17  31  51  76 110 146 184 230 282 341
#     4  10  21  40  61  82 116 156 193 241 303 363
#     4  10  22  38  59  87 122 157 193 241 295 351
#     4   9  18  33  56  79 109 152 193 237 294 354
#     4  11  23  38  58  85 118 154 195 240 295 358
#
# _framework density 20.512546
#
# number of rings (size 3 to 8) (size 9 to 14) (size 15 to 20)
#    0.000    2.250    1.250    1.125    1.750    4.500 
#    0.000    1.875    0.000    0.750    0.000    0.000 
#    0.000    0.000    0.000    0.000    0.000    0.000 
#
# Total GULP energy -396560.402063 kJ/mol
# GULP energy per Si atom -12392.512564 kJ/mol
# Density = 2.046586 g / cm^3
# Si number density = 20.512546 Si / 1000 Ang^3
#
#
#
# Elastic Constant Matrix: (Units=GPa)
#
#
# Indices 1 2 3 4 5 6 
#
# 1 49.8750 26.7512 41.0616 0.0000 -2.1962 0.0000
# 2 26.7512 117.0264 68.1786 0.0000 2.8361 0.0000
# 3 41.0616 68.1786 164.1623 0.0000 6.2579 0.0000
# 4 0.0000 0.0000 0.0000 18.8961 0.0000 -0.3701
# 5 -2.1962 2.8361 6.2579 0.0000 32.1181 0.0000
# 6 0.0000 0.0000 0.0000 -0.3701 0.0000 15.7421
#
#
#
# Elastic Compliance Matrix: (Units=1/GPa)
#
#
# Indices 1 2 3 4 5 6 
#
# 1 0.026251 -0.002878 -0.005490 0.000000 0.003119 0.000000
# 2 -0.002878 0.011588 -0.004077 0.000000 -0.000426 0.000000
# 3 -0.005490 -0.004077 0.009227 0.000000 -0.001813 0.000000
# 4 0.000000 0.000000 0.000000 0.052945 0.000000 0.001245
# 5 0.003119 -0.000426 -0.001813 0.000000 0.031739 0.000000
# 6 0.000000 0.000000 0.000000 0.001245 0.000000 0.063553
#
#
# Mechanical properties :
#
#
# Convention : Reuss Voigt Hill
#
# Bulk Modulus (GPa) = 45.09137 67.00517 56.04827
# Shear Modulus (GPa) = 21.96983 26.35608 24.16296
#
# Velocity S-wave (km/s) = 3.27623 3.58841 3.43587
# Velocity P-wave (km/s) = 6.02840 7.06436 6.56684
#
# Compressibility (1/GPa) = 0.02217719
#
# Stress axis : x y z
#
# Youngs Moduli (GPa) = 38.09419 86.29376 108.37937
#
# Poissons Ratio (x) = 0.24836 0.59496
# Poissons Ratio (y) = 0.10964 0.44183
# Poissons Ratio (z) = 0.20912 0.35179
#
# Static dielectric constant tensor:
#      x y z
#    x 3.628060 0.000000 0.112000 
#    y 0.000000 3.775030 0.000000 
#    z 0.112000 0.000000 3.845800 
# 
# 
# High freq. dielectric constant tensor:
#      x y z
#    x 1.790280 0.000000 0.006350 
#    y 0.000000 1.785690 0.000000 
#    z 0.006350 0.000000 1.804800 
# 
# From -- ./inp_files/71418.got.cif
#   From: 2010.06.25/outbox.cif.g09.slc.cpg/sg10_36_cif.got.tgz:71418.got - 2010.06.27 22:07:45.
