data_PCOD8063301
_publ_section_title
;
Structure prediction by ZEFSAII (Michael W. Deem and Ramdas Pophale) SiO2 
 PCOD8063301
Probable space group: P 2/M
;
_chemical_formula_sum "Si O2"
_cell_formula_units_Z 28
_cell_length_a 29.403830
_cell_length_b 9.187596
_cell_length_c 9.454817
_cell_angle_alpha 90.000000
_cell_angle_beta 143.702280
_cell_angle_gamma 90.000000
_cell_volume 1512.052141
_symmetry_space_group_name_H-M "P 2/M"
_symmetry_group_IT_number 10
_symmetry_cell_setting 'monoclinic'
loop_
_space_group_symop_operation_xyz
x,y,z
-x,y,-z
-x,-y,-z
x,-y,z
loop_
_atom_site_type_symbol
_atom_site_label
_atom_site_fract_x
_atom_site_fract_y
_atom_site_fract_z
Si Si1 0.992582 0.168938 0.320768
Si Si2 0.876547 0.669273 0.838039
Si Si3 0.696178 0.829319 0.093281
Si Si4 0.431332 0.328703 0.733812
Si Si5 0.423986 0.328313 0.396344
Si Si6 0.127762 0.832798 0.453018
Si Si7 0.300084 0.668460 0.613664
O O1 0.000000 0.219872 0.500000
O O2 0.073620 0.202922 0.449446
O O3 0.970771 0.000000 0.254024
O O4 0.923879 0.260147 0.082491
O O5 0.894855 0.500000 0.877495
O O6 0.901417 0.737348 0.751103
O O7 0.787455 0.702077 0.645930
O O8 0.785389 0.794210 0.285606
O O9 0.672009 0.763377 0.183777
O O10 0.678939 0.000000 0.051515
O O11 0.648569 0.753604 0.850611
O O12 0.443707 0.500000 0.755648
O O13 0.433634 0.267604 0.580102
O O14 0.350492 0.288458 0.603989
O O15 0.500000 0.259976 0.000000
O O16 0.500000 0.287919 0.500000
O O17 0.407414 0.500000 0.351114
O O18 0.121239 0.000000 0.388998
O O19 0.312204 0.500000 0.685879
#
# Coordination Sequence:
#
# PCOD8063301 Si02
#       7
#     4   4   4   4   4   4   4
#     4  10  21  36  53  73 100 136 174 209 249 301
#     4  10  20  33  52  78 104 131 166 210 257 301
#     4  10  20  34  53  77 104 133 167 208 252 298
#     4   9  17  31  53  77  99 129 170 209 244 291
#     4  10  20  34  54  78 103 134 170 207 250 300
#     4   9  19  36  55  74  99 134 172 207 247 300
#     4   9  18  34  54  76 103 133 167 208 253 302
#
# _framework density 18.517880999999999
#
# number of rings (size 3 to 8) (size 9 to 14) (size 15 to 20)
#    0.000    2.429    0.000    2.143    0.000    7.429 
#    0.000    0.714    0.000    1.714    0.000    0.000 
#    0.000    0.000    0.000    0.000    0.000    0.000 
#
# Total GULP energy -347287.782938 kJ/mol
# GULP energy per Si atom -12403.135105 kJ/mol
# Density = 1.847573 g / cm^3
# Si number density = 18.517881 Si / 1000 Ang^3
#
#
#
# Elastic Constant Matrix: (Units=GPa)
#
#
# Indices 1 2 3 4 5 6 
#
# 1 153.6825 47.0069 80.0855 0.0000 -18.5087 0.0000
# 2 47.0069 63.1028 61.4571 0.0000 -8.5480 0.0000
# 3 80.0855 61.4571 151.9877 0.0000 -22.7948 0.0000
# 4 0.0000 0.0000 0.0000 35.4314 0.0000 -2.0053
# 5 -18.5087 -8.5480 -22.7948 0.0000 28.0236 0.0000
# 6 0.0000 0.0000 0.0000 -2.0053 0.0000 18.2076
#
#
#
# Elastic Compliance Matrix: (Units=1/GPa)
#
#
# Indices 1 2 3 4 5 6 
#
# 1 0.009612 -0.003721 -0.003164 0.000000 0.002639 0.000000
# 2 -0.003721 0.027595 -0.009458 0.000000 -0.001733 0.000000
# 3 -0.003164 -0.009458 0.012898 0.000000 0.005517 0.000000
# 4 0.000000 0.000000 0.000000 0.028401 0.000000 0.003128
# 5 0.002639 -0.001733 0.005517 0.000000 0.041387 0.000000
# 6 0.000000 0.000000 0.000000 0.003128 0.000000 0.055267
#
#
# Mechanical properties :
#
#
# Convention : Reuss Voigt Hill
#
# Bulk Modulus (GPa) = 57.40518 82.87466 70.13992
# Shear Modulus (GPa) = 23.40263 28.34741 25.87502
#
# Velocity S-wave (km/s) = 3.55883 3.91680 3.74210
# Velocity P-wave (km/s) = 6.92490 8.08122 7.52530
#
# Compressibility (1/GPa) = 0.01742003
#
# Stress axis : x y z
#
# Youngs Moduli (GPa) = 104.03843 36.23839 77.52846
#
# Poissons Ratio (x) = 0.13484 0.24532
# Poissons Ratio (y) = 0.38710 0.73323
# Poissons Ratio (z) = 0.32921 0.34273
#
# Static dielectric constant tensor:
#      x y z
#    x 3.509500 0.000000 0.013470 
#    y 0.000000 3.261360 0.000000 
#    z 0.013470 0.000000 3.465020 
# 
# 
# High freq. dielectric constant tensor:
#      x y z
#    x 1.723320 0.000000 0.004840 
#    y 0.000000 1.701090 0.000000 
#    z 0.004840 0.000000 1.724350 
# 
# From -- ./inp_files/37032.got.cif
#   From: 2010.06.25/outbox.cif.g09.slc.cpg/sg10_19_cif.got.tgz:37032.got - 2010.06.27 22:07:45.
