data_PCOD8063947
_publ_section_title
;
Structure prediction by ZEFSAII (Michael W. Deem and Ramdas Pophale) SiO2 
 PCOD8063947
Probable space group: P 2/M
;
_chemical_formula_sum "Si O2"
_cell_formula_units_Z 20
_cell_length_a 9.606315
_cell_length_b 22.021259
_cell_length_c 8.808965
_cell_angle_alpha 90.000000
_cell_angle_beta 31.435182
_cell_angle_gamma 90.000000
_cell_volume 971.865548
_symmetry_space_group_name_H-M "P 2/M"
_symmetry_group_IT_number 10
_symmetry_cell_setting 'monoclinic'
loop_
_space_group_symop_operation_xyz
x,y,z
-x,y,-z
-x,-y,-z
x,-y,z
loop_
_atom_site_type_symbol
_atom_site_label
_atom_site_fract_x
_atom_site_fract_y
_atom_site_fract_z
Si Si1 0.440101 0.930866 0.381518
Si Si2 0.078996 0.882036 0.258880
Si Si3 0.945172 0.359972 0.874050
Si Si4 0.779305 0.255420 0.822197
Si Si5 0.551254 0.432432 0.630399
O O1 0.500000 0.917461 0.500000
O O2 0.198275 0.885077 0.573338
O O3 0.343071 0.000000 0.449623
O O4 0.693518 0.921532 0.035031
O O5 0.190652 0.814228 0.158131
O O6 0.000000 0.906585 0.500000
O O7 0.831980 0.295791 0.921319
O O8 0.213954 0.385062 0.545061
O O9 0.722103 0.409888 0.040293
O O10 0.000000 0.351103 0.000000
O O11 0.000000 0.276497 0.500000
O O12 0.500000 0.266778 0.000000
O O13 0.500000 0.434447 0.500000
O O14 0.621373 0.500000 0.624998
#
# Coordination Sequence:
#
# PCOD8063947 Si02
#       5
#     4   4   4   4   4
#     4  11  24  41  62  91 125 156 189 240 303 351
#     4  11  23  41  63  88 117 158 206 241 283 350
#     4  10  20  34  57  86 109 142 193 235 277 339
#     4  11  23  41  60  81 116 154 188 235 293 341
#     4   9  17  31  53  82 114 144 181 234 285 331
#
# _framework density 20.578977999999999
#
# number of rings (size 3 to 8) (size 9 to 14) (size 15 to 20)
#    0.000    1.600    0.000    6.000    0.000    8.000 
#    0.000    2.000    0.000   12.000    0.000    0.000 
#    0.000    0.000    0.000    0.000    0.000    0.000 
#
# Total GULP energy -247934.417411 kJ/mol
# GULP energy per Si atom -12396.720871 kJ/mol
# Density = 2.053214 g / cm^3
# Si number density = 20.578978 Si / 1000 Ang^3
#
#
#
# Elastic Constant Matrix: (Units=GPa)
#
#
# Indices 1 2 3 4 5 6 
#
# 1 99.7566 58.9780 49.0040 0.0000 -22.9369 0.0000
# 2 58.9780 72.1376 30.0471 0.0000 -3.8391 0.0000
# 3 49.0040 30.0471 125.4785 0.0000 -26.2716 0.0000
# 4 0.0000 0.0000 0.0000 31.5963 0.0000 -11.4665
# 5 -22.9369 -3.8391 -26.2716 0.0000 34.8281 0.0000
# 6 0.0000 0.0000 0.0000 -11.4665 0.0000 1.6249
#
#
#
# Elastic Compliance Matrix: (Units=1/GPa)
#
#
# Indices 1 2 3 4 5 6 
#
# 1 0.025577 -0.019084 -0.002770 0.000000 0.012651 0.000000
# 2 -0.019084 0.029686 -0.001902 0.000000 -0.010731 0.000000
# 3 -0.002770 -0.001902 0.010784 0.000000 0.006101 0.000000
# 4 0.000000 0.000000 0.000000 -0.020276 0.000000 -0.143082
# 5 0.012651 -0.010731 0.006101 0.000000 0.040463 0.000000
# 6 0.000000 0.000000 0.000000 -0.143082 0.000000 -0.394269
#
#
# Mechanical properties :
#
#
# Convention : Reuss Voigt Hill
#
# Bulk Modulus (GPa) = 53.95376 63.71453 58.83415
# Shear Modulus (GPa) = -19.65844 24.23277 2.28716
#
# Velocity S-wave (km/s) = -3.09409 3.43527 1.05538
# Velocity P-wave (km/s) = 3.67563 6.83834 5.48968
#
# Compressibility (1/GPa) = 0.01853439
#
# Stress axis : x y z
#
# Youngs Moduli (GPa) = 39.09805 33.68568 92.72834
#
# Poissons Ratio (x) = 0.64285 0.25686
# Poissons Ratio (y) = 0.74614 0.17641
# Poissons Ratio (z) = 0.10830 0.06409
#
# Static dielectric constant tensor:
#      x y z
#    x 3.654240 0.000000 -0.089650 
#    y 0.000000 3.683740 0.000000 
#    z -0.089650 0.000000 3.951760 
# 
# 
# High freq. dielectric constant tensor:
#      x y z
#    x 1.794270 0.000000 -0.016600 
#    y 0.000000 1.804980 0.000000 
#    z -0.016600 0.000000 1.818990 
# 
# From -- ./inp_files/4831.got.cif
#   From: 2010.06.25/outbox.cif.g09.slc.cpg/sg10_3_cif.got.tgz:4831.got - 2010.06.27 22:07:45.
