data_PCOD8063629
_publ_section_title
;
Structure prediction by ZEFSAII (Michael W. Deem and Ramdas Pophale) SiO2 
 PCOD8063629
Probable space group: P 2/M
;
_chemical_formula_sum "Si O2"
_cell_formula_units_Z 32
_cell_length_a 28.301480
_cell_length_b 8.927104
_cell_length_c 22.521016
_cell_angle_alpha 90.000000
_cell_angle_beta 161.692038
_cell_angle_gamma 90.000000
_cell_volume 1787.349060
_symmetry_space_group_name_H-M "P 2/M"
_symmetry_group_IT_number 10
_symmetry_cell_setting 'monoclinic'
loop_
_space_group_symop_operation_xyz
x,y,z
-x,y,-z
-x,-y,-z
x,-y,z
loop_
_atom_site_type_symbol
_atom_site_label
_atom_site_fract_x
_atom_site_fract_y
_atom_site_fract_z
Si Si1 0.286074 0.675539 0.481856
Si Si2 0.652105 0.174775 0.206594
Si Si3 0.537626 0.175350 0.480055
Si Si4 0.189633 0.821658 0.487832
Si Si5 0.086607 0.323122 0.782425
Si Si6 0.038231 0.175009 0.479882
Si Si7 0.592615 0.674242 0.785355
Si Si8 0.155669 0.174885 0.215778
O O1 0.263944 0.500000 0.466492
O O2 0.253077 0.765232 0.501866
O O3 0.455421 0.717570 0.665002
O O4 0.170882 0.729483 0.293836
O O5 0.697204 0.236291 0.325438
O O6 0.785917 0.208315 0.320292
O O7 0.622397 0.000000 0.177823
O O8 0.500000 0.252853 0.000000
O O9 0.500000 0.242644 0.500000
O O10 0.422142 0.243875 0.295115
O O11 0.709649 0.215081 0.668757
O O12 0.509005 0.000000 0.445607
O O13 0.025454 0.754253 0.304632
O O14 0.175156 0.000000 0.470753
O O15 0.062374 0.500000 0.756057
O O16 0.061956 0.266288 0.686142
O O17 0.254388 0.275311 0.000661
O O18 0.000000 0.231329 0.500000
O O19 0.001668 0.000000 0.427671
O O20 0.590840 0.500000 0.769043
O O21 0.157567 0.000000 0.234904
O O22 0.000000 0.222498 0.000000
#
# Coordination Sequence:
#
# PCOD8063629 Si02
#       8
#     4   4   4   4   4   4   4   4
#     4  10  20  35  53  74 103 135 169 209 251 299
#     4   8  15  29  48  70  96 125 159 202 248 293
#     4   9  18  32  50  73  99 128 164 206 250 294
#     4  10  20  34  53  77 103 132 169 211 255 302
#     4  10  20  35  53  74 103 137 172 209 252 301
#     4   9  18  32  50  73 100 130 167 209 251 297
#     4   9  20  36  52  73 102 136 171 207 248 298
#     4   9  18  33  51  72 100 131 165 206 249 295
#
# _framework density 17.90361
#
# number of rings (size 3 to 8) (size 9 to 14) (size 15 to 20)
#    0.000    2.750    0.000    1.875    0.000    4.250 
#    0.000    2.500    0.000    9.375    0.000    0.000 
#    0.000    0.000    0.000    0.000    0.000    0.000 
#
# Total GULP energy -396810.482004 kJ/mol
# GULP energy per Si atom -12400.327563 kJ/mol
# Density = 1.786286 g / cm^3
# Si number density = 17.903610 Si / 1000 Ang^3
#
#
#
# Elastic Constant Matrix: (Units=GPa)
#
#
# Indices 1 2 3 4 5 6 
#
# 1 146.2369 41.7895 63.5567 0.0000 -9.0041 0.0000
# 2 41.7895 52.3495 42.7532 0.0000 -3.5903 0.0000
# 3 63.5567 42.7532 148.9450 0.0000 -4.5698 0.0000
# 4 0.0000 0.0000 0.0000 7.4483 0.0000 8.5543
# 5 -9.0041 -3.5903 -4.5698 0.0000 14.1526 0.0000
# 6 0.0000 0.0000 0.0000 8.5543 0.0000 16.1907
#
#
#
# Elastic Compliance Matrix: (Units=1/GPa)
#
#
# Indices 1 2 3 4 5 6 
#
# 1 0.009715 -0.005481 -0.002450 0.000000 0.004000 0.000000
# 2 -0.005481 0.028276 -0.005721 0.000000 0.001839 0.000000
# 3 -0.002450 -0.005721 0.009402 0.000000 0.000026 0.000000
# 4 0.000000 0.000000 0.000000 0.341455 0.000000 -0.180408
# 5 0.004000 0.001839 0.000026 0.000000 0.073678 0.000000
# 6 0.000000 0.000000 0.000000 -0.180408 0.000000 0.157082
#
#
# Mechanical properties :
#
#
# Convention : Reuss Voigt Hill
#
# Bulk Modulus (GPa) = 49.77514 71.52559 60.65036
# Shear Modulus (GPa) = 7.64983 20.85379 14.25181
#
# Velocity S-wave (km/s) = 2.06931 3.41659 2.82446
# Velocity P-wave (km/s) = 5.79409 7.45662 6.67730
#
# Compressibility (1/GPa) = 0.02009035
#
# Stress axis : x y z
#
# Youngs Moduli (GPa) = 102.92974 35.36568 106.35695
#
# Poissons Ratio (x) = 0.19382 0.26056
# Poissons Ratio (y) = 0.56411 0.60850
# Poissons Ratio (z) = 0.25216 0.20234
#
# Static dielectric constant tensor:
#      x y z
#    x 3.397020 0.000000 -0.001590 
#    y 0.000000 3.177930 0.000000 
#    z -0.001590 0.000000 3.557630 
# 
# 
# High freq. dielectric constant tensor:
#      x y z
#    x 1.696580 0.000000 -0.002020 
#    y 0.000000 1.681660 0.000000 
#    z -0.002020 0.000000 1.696190 
# 
# From -- ./inp_files/87050.got.cif
#   From: 2010.06.25/outbox.cif.g09.slc.cpg/sg10_44_cif.got.tgz:87050.got - 2010.06.27 22:07:45.
