data_PCOD8063746
_publ_section_title
;
Structure prediction by ZEFSAII (Michael W. Deem and Ramdas Pophale) SiO2 
 PCOD8063746
Probable space group: P 2/M
;
_chemical_formula_sum "Si O2"
_cell_formula_units_Z 22
_cell_length_a 12.110365
_cell_length_b 10.608690
_cell_length_c 14.532160
_cell_angle_alpha 90.000000
_cell_angle_beta 29.895811
_cell_angle_gamma 90.000000
_cell_volume 930.568657
_symmetry_space_group_name_H-M "P 2/M"
_symmetry_group_IT_number 10
_symmetry_cell_setting 'monoclinic'
loop_
_space_group_symop_operation_xyz
x,y,z
-x,y,-z
-x,-y,-z
x,-y,z
loop_
_atom_site_type_symbol
_atom_site_label
_atom_site_fract_x
_atom_site_fract_y
_atom_site_fract_z
Si Si1 0.172598 0.500000 0.654247
Si Si2 0.000000 0.705507 0.500000
Si Si3 0.370158 0.254183 0.812835
Si Si4 0.522490 0.639500 0.881946
Si Si5 0.821150 0.000000 0.333878
Si Si6 0.318265 0.000000 0.766218
Si Si7 0.692492 0.500000 0.239847
Si Si8 0.127910 0.758508 0.601687
O O1 0.429785 0.500000 0.441939
O O2 0.163019 0.500000 0.771676
O O3 0.048637 0.624004 0.702187
O O4 0.778247 0.622518 0.666564
O O5 0.980951 0.786691 0.419765
O O6 0.391095 0.268590 0.908104
O O7 0.251142 0.122440 0.875053
O O8 0.239572 0.374318 0.865646
O O9 0.608860 0.248404 0.592980
O O10 0.416004 0.500000 0.955394
O O11 0.500000 0.698270 0.000000
O O12 0.573876 0.000000 0.553105
O O13 0.831426 0.000000 0.216574
O O14 0.944552 0.126262 0.280233
#
# Coordination Sequence:
#
# PCOD8063746 Si02
#       8
#     2   2   4   4   2   2   2   4
#     4   9  16  23  38  69  94 128 174 218 263 313
#     4  10  21  33  54  78 110 146 174 224 270 312
#     4   9  16  28  45  71 100 136 175 215 265 319
#     4  10  20  34  54  81 109 141 180 220 266 323
#     4   9  16  29  42  71 106 138 178 218 261 325
#     4   9  16  26  47  69 105 142 169 220 275 307
#     4   9  14  24  41  63  99 128 167 224 263 307
#     4   9  18  27  44  69 102 137 177 215 262 316
#
# _framework density 23.641458
#
# number of rings (size 3 to 8) (size 9 to 14) (size 15 to 20)
#    0.000    2.727    0.909    1.364    5.091    4.727 
#    0.000    1.364    0.000    0.000    0.000    7.636 
#    0.000    0.000    0.000    0.000    0.000    0.000 
#
# Total GULP energy -272696.302037 kJ/mol
# GULP energy per Si atom -12395.286456 kJ/mol
# Density = 2.358765 g / cm^3
# Si number density = 23.641458 Si / 1000 Ang^3
#
#
#
# Elastic Constant Matrix: (Units=GPa)
#
#
# Indices 1 2 3 4 5 6 
#
# 1 140.1297 92.4727 45.8874 0.0000 66.3140 0.0000
# 2 92.4727 222.5016 38.9844 0.0000 53.5814 0.0000
# 3 45.8874 38.9844 54.8150 0.0000 36.6975 0.0000
# 4 0.0000 0.0000 0.0000 9.5051 0.0000 8.2015
# 5 66.3140 53.5814 36.6975 0.0000 59.5183 0.0000
# 6 0.0000 0.0000 0.0000 8.2015 0.0000 17.7054
#
#
#
# Elastic Compliance Matrix: (Units=1/GPa)
#
#
# Indices 1 2 3 4 5 6 
#
# 1 0.016776 -0.003086 -0.002036 0.000000 -0.014658 0.000000
# 2 -0.003086 0.006342 -0.000693 0.000000 -0.001845 0.000000
# 3 -0.002036 -0.000693 0.031511 0.000000 -0.016538 0.000000
# 4 0.000000 0.000000 0.000000 0.175254 0.000000 -0.081181
# 5 -0.014658 -0.001845 -0.016538 0.000000 0.044991 0.000000
# 6 0.000000 0.000000 0.000000 -0.081181 0.000000 0.094085
#
#
# Mechanical properties :
#
#
# Convention : Reuss Voigt Hill
#
# Bulk Modulus (GPa) = 23.25474 85.79282 54.52378
# Shear Modulus (GPa) = 12.66076 33.35254 23.00665
#
# Velocity S-wave (km/s) = 2.31667 3.76009 3.12292
# Velocity P-wave (km/s) = 4.12477 7.43095 6.00969
#
# Compressibility (1/GPa) = 0.04300199
#
# Stress axis : x y z
#
# Youngs Moduli (GPa) = 59.60952 157.67122 31.73447
#
# Poissons Ratio (x) = 0.48650 0.06460
# Poissons Ratio (y) = 0.18393 0.02198
# Poissons Ratio (z) = 0.12135 0.10920
#
# Static dielectric constant tensor:
#      x y z
#    x 4.156710 0.000000 0.288860 
#    y 0.000000 4.342410 0.000000 
#    z 0.288860 0.000000 3.910910 
# 
# 
# High freq. dielectric constant tensor:
#      x y z
#    x 1.933430 0.000000 0.016960 
#    y 0.000000 1.917200 0.000000 
#    z 0.016960 0.000000 1.923970 
# 
# From -- ./inp_files/45886.got.cif
#   From: 2010.06.25/outbox.cif.g09.slc.cpg/sg10_23_cif.got.tgz:45886.got - 2010.06.27 22:07:45.
