data_PCOD8063879
_publ_section_title
;
Structure prediction by ZEFSAII (Michael W. Deem and Ramdas Pophale) SiO2 
 PCOD8063879
Probable space group: P 2/M
;
_chemical_formula_sum "Si O2"
_cell_formula_units_Z 32
_cell_length_a 19.816675
_cell_length_b 9.306503
_cell_length_c 10.621754
_cell_angle_alpha 90.000000
_cell_angle_beta 124.610130
_cell_angle_gamma 90.000000
_cell_volume 1612.249898
_symmetry_space_group_name_H-M "P 2/M"
_symmetry_group_IT_number 10
_symmetry_cell_setting 'monoclinic'
loop_
_space_group_symop_operation_xyz
x,y,z
-x,y,-z
-x,-y,-z
x,-y,z
loop_
_atom_site_type_symbol
_atom_site_label
_atom_site_fract_x
_atom_site_fract_y
_atom_site_fract_z
Si Si1 0.456439 0.670383 0.822281
Si Si2 0.867335 0.664763 0.921681
Si Si3 0.727453 0.666994 0.342171
Si Si4 0.964075 0.831689 0.232727
Si Si5 0.275923 0.160645 0.141958
Si Si6 0.537713 0.830823 0.674104
Si Si7 0.115681 0.337786 0.348267
Si Si8 0.190821 0.842014 0.784384
O O1 0.461266 0.500000 0.805752
O O2 0.362840 0.729653 0.726870
O O3 0.497742 0.746586 0.747439
O O4 0.500000 0.713524 0.000000
O O5 0.863918 0.500000 0.964177
O O6 0.775989 0.731016 0.826895
O O7 0.901014 0.675741 0.816755
O O8 0.929188 0.753318 0.072959
O O9 0.716644 0.500000 0.307536
O O10 0.789861 0.703798 0.521930
O O11 0.767051 0.726434 0.257767
O O12 0.904552 0.803641 0.288902
O O13 0.054042 0.767825 0.357735
O O14 0.970449 0.000000 0.209571
O O15 0.368142 0.216898 0.232619
O O16 0.272580 0.000000 0.197132
O O17 0.238764 0.158602 0.964836
O O18 0.500000 0.785682 0.500000
O O19 0.527203 0.000000 0.688624
O O20 0.098751 0.500000 0.376861
O O21 0.196391 0.000000 0.727608
#
# Coordination Sequence:
#
# PCOD8063879 Si02
#       8
#     4   4   4   4   4   4   4   4
#     4  10  22  40  62  88 118 155 202 250 296 354
#     4  10  20  34  56  82 110 146 188 228 273 337
#     4  10  22  38  56  80 113 147 184 234 285 335
#     4  10  21  37  57  82 111 144 184 231 279 330
#     4   9  19  36  56  80 113 147 183 232 282 334
#     4  10  22  38  58  88 122 155 195 245 299 356
#     4  10  22  37  52  77 113 148 183 228 280 334
#     4   9  19  36  56  79 106 140 185 230 276 333
#
# _framework density 19.848040000000001
#
# number of rings (size 3 to 8) (size 9 to 14) (size 15 to 20)
#    0.000    2.250    0.000    2.625    1.750    7.500 
#    0.000    2.500    0.000    0.000    0.000    0.000 
#    0.000    0.000    0.000    0.000    0.000    0.000 
#
# Total GULP energy -396769.831469 kJ/mol
# GULP energy per Si atom -12399.057233 kJ/mol
# Density = 1.980287 g / cm^3
# Si number density = 19.848040 Si / 1000 Ang^3
#
#
#
# Elastic Constant Matrix: (Units=GPa)
#
#
# Indices 1 2 3 4 5 6 
#
# 1 115.6616 55.7549 49.6429 0.0000 22.4259 0.0000
# 2 55.7549 73.7330 35.2101 0.0000 11.0271 0.0000
# 3 49.6429 35.2101 63.7969 0.0000 14.9503 0.0000
# 4 0.0000 0.0000 0.0000 11.0303 0.0000 30.6168
# 5 22.4259 11.0271 14.9503 0.0000 37.2171 0.0000
# 6 0.0000 0.0000 0.0000 30.6168 0.0000 -25.9862
#
#
#
# Elastic Compliance Matrix: (Units=1/GPa)
#
#
# Indices 1 2 3 4 5 6 
#
# 1 0.016772 -0.008520 -0.007255 0.000000 -0.004668 0.000000
# 2 -0.008520 0.022822 -0.006165 0.000000 0.000848 0.000000
# 3 -0.007255 -0.006165 0.025688 0.000000 -0.004121 0.000000
# 4 0.000000 0.000000 0.000000 0.021230 0.000000 0.025013
# 5 -0.004668 0.000848 -0.004121 0.000000 0.031086 0.000000
# 6 0.000000 0.000000 0.000000 0.025013 0.000000 -0.009012
#
#
# Mechanical properties :
#
#
# Convention : Reuss Voigt Hill
#
# Bulk Modulus (GPa) = 46.72263 59.37861 53.05062
# Shear Modulus (GPa) = 31.32839 11.95780 21.64309
#
# Velocity S-wave (km/s) = 3.97723 2.45718 3.30576
# Velocity P-wave (km/s) = 6.68449 6.16700 6.43095
#
# Compressibility (1/GPa) = 0.02140291
#
# Stress axis : x y z
#
# Youngs Moduli (GPa) = 59.62408 43.81738 38.92853
#
# Poissons Ratio (x) = 0.37332 0.28242
# Poissons Ratio (y) = 0.50799 0.23999
# Poissons Ratio (z) = 0.43256 0.27013
#
# Static dielectric constant tensor:
#      x y z
#    x 3.740480 0.000000 0.279600 
#    y 0.000000 3.679540 0.000000 
#    z 0.279600 0.000000 3.669940 
# 
# 
# High freq. dielectric constant tensor:
#      x y z
#    x 1.778900 0.000000 0.014710 
#    y 0.000000 1.770070 0.000000 
#    z 0.014710 0.000000 1.775270 
# 
# From -- ./inp_files/55355.got.cif
#   From: 2010.06.25/outbox.cif.g09.slc.cpg/sg10_28_cif.got.tgz:55355.got - 2010.06.27 22:07:45.
