data_PCOD8063936
_publ_section_title
;
Structure prediction by ZEFSAII (Michael W. Deem and Ramdas Pophale) SiO2 
 PCOD8063936
Probable space group: P 2/M
;
_chemical_formula_sum "Si O2"
_cell_formula_units_Z 28
_cell_length_a 14.719401
_cell_length_b 9.734973
_cell_length_c 20.336658
_cell_angle_alpha 90.000000
_cell_angle_beta 29.782515
_cell_angle_gamma 90.000000
_cell_volume 1447.460125
_symmetry_space_group_name_H-M "P 2/M"
_symmetry_group_IT_number 10
_symmetry_cell_setting 'monoclinic'
loop_
_space_group_symop_operation_xyz
x,y,z
-x,y,-z
-x,-y,-z
x,-y,z
loop_
_atom_site_type_symbol
_atom_site_label
_atom_site_fract_x
_atom_site_fract_y
_atom_site_fract_z
Si Si1 0.816134 0.258128 0.648518
Si Si2 0.486327 0.347939 0.932691
Si Si3 0.364289 0.840150 0.366918
Si Si4 0.002162 0.153803 0.653788
Si Si5 0.835915 0.834884 0.891396
Si Si6 0.701728 0.346225 0.188331
Si Si7 0.988308 0.344839 0.114474
O O1 0.682764 0.360949 0.772141
O O2 0.693802 0.179958 0.672100
O O3 0.884115 0.151680 0.661183
O O4 0.000000 0.327758 0.500000
O O5 0.397525 0.500000 0.985004
O O6 0.500000 0.300761 0.000000
O O7 0.360827 0.237029 0.973052
O O8 0.544799 0.761480 0.273268
O O9 0.201072 0.779574 0.515311
O O10 0.400045 0.000000 0.356572
O O11 0.897992 0.220929 0.780615
O O12 0.038686 0.000000 0.653154
O O13 0.984373 0.773106 0.848349
O O14 0.818658 0.000000 0.909902
O O15 0.619022 0.500000 0.239195
O O16 0.794651 0.316430 0.200548
O O17 0.851087 0.330672 0.038546
O O18 0.989176 0.500000 0.143677
#
# Coordination Sequence:
#
# PCOD8063936 Si02
#       7
#     4   4   4   4   4   4   4
#     4  10  20  36  57  82 113 151 192 232 275 330
#     4  11  23  38  55  80 115 151 187 229 276 326
#     4  10  20  34  57  83 109 144 188 234 281 327
#     4   9  19  36  53  77 114 151 184 226 277 333
#     4  11  22  36  58  84 112 147 187 228 278 331
#     4   9  19  37  58  80 108 143 180 226 283 337
#     4   9  19  37  59  80 108 144 180 224 282 339
#
# _framework density 19.34423
#
# number of rings (size 3 to 8) (size 9 to 14) (size 15 to 20)
#    0.000    2.143    1.429    2.571    0.000    7.429 
#    0.000    5.714    0.000    4.286    0.000    0.000 
#    0.000    0.000    0.000    0.000    0.000    0.000 
#
# Total GULP energy -346929.878882 kJ/mol
# GULP energy per Si atom -12390.352817 kJ/mol
# Density = 1.930020 g / cm^3
# Si number density = 19.344230 Si / 1000 Ang^3
#
#
#
# Elastic Constant Matrix: (Units=GPa)
#
#
# Indices 1 2 3 4 5 6 
#
# 1 113.6674 56.8801 51.3529 0.0000 -11.0966 0.0000
# 2 56.8801 101.6775 37.9900 0.0000 -13.3400 0.0000
# 3 51.3529 37.9900 99.5127 0.0000 -3.6208 0.0000
# 4 0.0000 0.0000 0.0000 17.0647 0.0000 -4.0961
# 5 -11.0966 -13.3400 -3.6208 0.0000 32.4932 0.0000
# 6 0.0000 0.0000 0.0000 -4.0961 0.0000 23.3755
#
#
#
# Elastic Compliance Matrix: (Units=1/GPa)
#
#
# Indices 1 2 3 4 5 6 
#
# 1 0.014149 -0.005790 -0.005022 0.000000 0.001895 0.000000
# 2 -0.005790 0.014453 -0.002395 0.000000 0.003689 0.000000
# 3 -0.005022 -0.002395 0.013512 0.000000 -0.001193 0.000000
# 4 0.000000 0.000000 0.000000 0.061174 0.000000 0.010720
# 5 0.001895 0.003689 -0.001193 0.000000 0.032805 0.000000
# 6 0.000000 0.000000 0.000000 0.010720 0.000000 0.044658
#
#
# Mechanical properties :
#
#
# Convention : Reuss Voigt Hill
#
# Bulk Modulus (GPa) = 63.70039 67.47819 65.58929
# Shear Modulus (GPa) = 23.54068 25.82898 24.68483
#
# Velocity S-wave (km/s) = 3.49224 3.65804 3.57610
# Velocity P-wave (km/s) = 7.01872 7.26638 7.14362
#
# Compressibility (1/GPa) = 0.01569849
#
# Stress axis : x y z
#
# Youngs Moduli (GPa) = 70.67696 69.18908 74.01011
#
# Poissons Ratio (x) = 0.40061 0.37168
# Poissons Ratio (y) = 0.40922 0.17729
# Poissons Ratio (z) = 0.35494 0.16574
#
# Static dielectric constant tensor:
#      x y z
#    x 3.644840 0.000000 0.047850 
#    y 0.000000 3.285560 0.000000 
#    z 0.047850 0.000000 3.748560 
# 
# 
# High freq. dielectric constant tensor:
#      x y z
#    x 1.751670 0.000000 0.000650 
#    y 0.000000 1.734760 0.000000 
#    z 0.000650 0.000000 1.752390 
# 
# From -- ./inp_files/84892.got.cif
#   From: 2010.06.25/outbox.cif.g09.slc.cpg/sg10_43_cif.got.tgz:84892.got - 2010.06.27 22:07:45.
