data_PCOD8063240
_publ_section_title
;
Structure prediction by ZEFSAII (Michael W. Deem and Ramdas Pophale) SiO2 
 PCOD8063240
Probable space group: P 2/M
;
_chemical_formula_sum "Si O2"
_cell_formula_units_Z 24
_cell_length_a 18.842213
_cell_length_b 9.029316
_cell_length_c 24.460532
_cell_angle_alpha 90.000000
_cell_angle_beta 161.143016
_cell_angle_gamma 90.000000
_cell_volume 1345.034621
_symmetry_space_group_name_H-M "P 2/M"
_symmetry_group_IT_number 10
_symmetry_cell_setting 'monoclinic'
loop_
_space_group_symop_operation_xyz
x,y,z
-x,y,-z
-x,-y,-z
x,-y,z
loop_
_atom_site_type_symbol
_atom_site_label
_atom_site_fract_x
_atom_site_fract_y
_atom_site_fract_z
Si Si1 0.486517 0.675452 0.153320
Si Si2 0.052528 0.337149 0.474803
Si Si3 0.741418 0.162867 0.819167
Si Si4 0.707490 0.670632 0.689300
Si Si5 0.634561 0.170676 0.152791
Si Si6 0.846070 0.175512 0.012822
O O1 0.455270 0.500000 0.126863
O O2 0.694202 0.716755 0.343883
O O3 0.519711 0.735717 0.116499
O O4 0.270444 0.750080 0.020487
O O5 0.024728 0.500000 0.427517
O O6 0.000000 0.349000 0.500000
O O7 0.885391 0.223408 0.324332
O O8 0.640841 0.276652 0.701982
O O9 0.635840 0.000000 0.733019
O O10 0.706791 0.216852 0.856484
O O11 0.000000 0.151202 0.000000
O O12 0.500000 0.696999 0.500000
O O13 0.777891 0.500000 0.743385
O O14 0.906791 0.764523 0.810137
O O15 0.639479 0.000000 0.174014
O O16 0.500000 0.197297 0.000000
O O17 0.857934 0.000000 0.029503
#
# Coordination Sequence:
#
# PCOD8063240 Si02
#       6
#     4   4   4   4   4   4
#     4  10  20  34  53  76 101 130 167 210 255 300
#     4   8  16  31  50  72  96 126 164 202 243 292
#     4   8  16  31  50  72  96 126 164 202 243 292
#     4  10  20  33  51  76 104 135 170 205 246 299
#     4  10  20  33  51  76 104 135 170 205 246 299
#     4  10  20  34  53  76 101 130 167 210 255 300
#
# _framework density 17.843406000000002
#
# number of rings (size 3 to 8) (size 9 to 14) (size 15 to 20)
#    0.000    2.667    0.000    4.000    0.000   10.000 
#    0.000    1.667    0.000    4.000    0.000    0.000 
#    0.000    0.000    0.000    0.000    0.000    0.000 
#
# Total GULP energy -297493.024043 kJ/mol
# GULP energy per Si atom -12395.542668 kJ/mol
# Density = 1.780279 g / cm^3
# Si number density = 17.843406 Si / 1000 Ang^3
#
#
#
# Elastic Constant Matrix: (Units=GPa)
#
#
# Indices 1 2 3 4 5 6 
#
# 1 74.7947 53.7429 37.7259 0.0000 0.9625 0.0000
# 2 53.7429 120.4005 61.8236 0.0000 -7.2531 0.0000
# 3 37.7259 61.8236 81.4478 0.0000 -7.1857 0.0000
# 4 0.0000 0.0000 0.0000 24.7258 0.0000 -10.7655
# 5 0.9625 -7.2531 -7.1857 0.0000 24.9751 0.0000
# 6 0.0000 0.0000 0.0000 -10.7655 0.0000 12.4804
#
#
#
# Elastic Compliance Matrix: (Units=1/GPa)
#
#
# Indices 1 2 3 4 5 6 
#
# 1 0.020942 -0.007260 -0.004563 0.000000 -0.004228 0.000000
# 2 -0.007260 0.016152 -0.008679 0.000000 0.002473 0.000000
# 3 -0.004563 -0.008679 0.021313 0.000000 0.003787 0.000000
# 4 0.000000 0.000000 0.000000 0.064769 0.000000 0.055869
# 5 -0.004228 0.002473 0.003787 0.000000 0.042011 0.000000
# 6 0.000000 0.000000 0.000000 0.055869 0.000000 0.128318
#
#
# Mechanical properties :
#
#
# Convention : Reuss Voigt Hill
#
# Bulk Modulus (GPa) = 57.45829 64.80310 61.13069
# Shear Modulus (GPa) = 14.69252 20.65964 17.67608
#
# Velocity S-wave (km/s) = 2.87263 3.40638 3.15083
# Velocity P-wave (km/s) = 6.57830 7.20193 6.89717
#
# Compressibility (1/GPa) = 0.01740393
#
# Stress axis : x y z
#
# Youngs Moduli (GPa) = 47.75067 61.91262 46.91887
#
# Poissons Ratio (x) = 0.44947 0.21407
# Poissons Ratio (y) = 0.34666 0.40722
# Poissons Ratio (z) = 0.21787 0.53736
#
# Static dielectric constant tensor:
#      x y z
#    x 3.390300 0.000000 0.045210 
#    y 0.000000 3.439820 0.000000 
#    z 0.045210 0.000000 3.336470 
# 
# 
# High freq. dielectric constant tensor:
#      x y z
#    x 1.672020 0.000000 -0.002920 
#    y 0.000000 1.702490 0.000000 
#    z -0.002920 0.000000 1.675010 
# 
# From -- ./inp_files/33436.got.cif
#   From: 2010.06.25/outbox.cif.g09.slc.cpg/sg10_17_cif.got.tgz:33436.got - 2010.06.27 22:07:45.
