data_PCOD8063725
_publ_section_title
;
Structure prediction by ZEFSAII (Michael W. Deem and Ramdas Pophale) SiO2 
 PCOD8063725
Probable space group: P 2/M
;
_chemical_formula_sum "Si O2"
_cell_formula_units_Z 32
_cell_length_a 31.025045
_cell_length_b 9.014011
_cell_length_c 12.840605
_cell_angle_alpha 90.000000
_cell_angle_beta 153.301687
_cell_angle_gamma 90.000000
_cell_volume 1613.412239
_symmetry_space_group_name_H-M "P 2/M"
_symmetry_group_IT_number 10
_symmetry_cell_setting 'monoclinic'
loop_
_space_group_symop_operation_xyz
x,y,z
-x,y,-z
-x,-y,-z
x,-y,z
loop_
_atom_site_type_symbol
_atom_site_label
_atom_site_fract_x
_atom_site_fract_y
_atom_site_fract_z
Si Si1 0.194727 0.824830 0.365356
Si Si2 0.196175 0.664228 0.047634
Si Si3 0.650036 0.329334 0.967407
Si Si4 0.344402 0.333497 0.555865
Si Si5 0.484361 0.171031 0.719634
Si Si6 0.333753 0.830622 0.210110
Si Si7 0.839760 0.330918 0.497189
Si Si8 0.053484 0.327308 0.905895
O O1 0.294757 0.752912 0.543800
O O2 0.178735 0.782617 0.450084
O O3 0.202648 0.000000 0.369893
O O4 0.103549 0.768333 0.103522
O O5 0.187848 0.500000 0.979918
O O6 0.271541 0.662769 0.303465
O O7 0.231075 0.775581 0.033113
O O8 0.095092 0.715017 0.880916
O O9 0.618610 0.500000 0.897118
O O10 0.585627 0.245927 0.913403
O O11 0.633427 0.262801 0.817834
O O12 0.760548 0.308708 0.237367
O O13 0.371015 0.500000 0.649263
O O14 0.440521 0.249049 0.727329
O O15 0.415331 0.191051 0.471887
O O16 0.501072 0.000000 0.782481
O O17 0.322177 0.000000 0.150868
O O18 0.838807 0.500000 0.538067
O O19 0.940989 0.293213 0.662038
O O20 0.076337 0.500000 0.978257
#
# Coordination Sequence:
#
# PCOD8063725 Si02
#       8
#     4   4   4   4   4   4   4   4
#     4  11  21  33  54  84 112 138 172 216 266 317
#     4   8  15  29  52  80 104 130 169 215 260 306
#     4  11  23  37  54  76 104 141 183 223 262 310
#     4   9  17  32  55  81 108 138 174 216 260 309
#     4  10  20  35  56  82 110 138 172 217 268 319
#     4  10  20  34  54  79 107 139 172 212 265 319
#     4  10  22  39  55  74 104 143 184 222 262 310
#     4   9  18  35  58  80 105 139 178 220 263 310
#
# _framework density 19.833741
#
# number of rings (size 3 to 8) (size 9 to 14) (size 15 to 20)
#    0.000    2.250    0.000    4.125    0.000    9.000 
#    0.000    1.250    0.000    7.500    0.000    0.000 
#    0.000    0.000    0.000    0.000    0.000    0.000 
#
# Total GULP energy -396854.648038 kJ/mol
# GULP energy per Si atom -12401.707751 kJ/mol
# Density = 1.978860 g / cm^3
# Si number density = 19.833741 Si / 1000 Ang^3
#
#
#
# Elastic Constant Matrix: (Units=GPa)
#
#
# Indices 1 2 3 4 5 6 
#
# 1 95.5836 42.3333 20.0381 0.0000 35.1844 0.0000
# 2 42.3333 128.2539 26.3719 0.0000 14.0144 0.0000
# 3 20.0381 26.3719 32.4694 0.0000 13.2337 0.0000
# 4 0.0000 0.0000 0.0000 11.1275 0.0000 -0.8775
# 5 35.1844 14.0144 13.2337 0.0000 20.2958 0.0000
# 6 0.0000 0.0000 0.0000 -0.8775 0.0000 33.7266
#
#
#
# Elastic Compliance Matrix: (Units=1/GPa)
#
#
# Indices 1 2 3 4 5 6 
#
# 1 0.032880 -0.006239 0.008515 0.000000 -0.058244 0.000000
# 2 -0.006239 0.010607 -0.008428 0.000000 0.008987 0.000000
# 3 0.008515 -0.008428 0.049075 0.000000 -0.040940 0.000000
# 4 0.000000 0.000000 0.000000 0.090052 0.000000 0.002343
# 5 -0.058244 0.008987 -0.040940 0.000000 0.170730 0.000000
# 6 0.000000 0.000000 0.000000 0.002343 0.000000 0.029711
#
#
# Mechanical properties :
#
#
# Convention : Reuss Voigt Hill
#
# Bulk Modulus (GPa) = 12.45993 48.19926 30.32959
# Shear Modulus (GPa) = 11.84519 24.20090 18.02304
#
# Velocity S-wave (km/s) = 2.44647 3.49691 3.01775
# Velocity P-wave (km/s) = 3.77837 6.37643 5.24094
#
# Compressibility (1/GPa) = 0.08025729
#
# Stress axis : x y z
#
# Youngs Moduli (GPa) = 30.41375 94.27396 20.37709
#
# Poissons Ratio (x) = 0.58820 -0.17351
# Poissons Ratio (y) = 0.18976 0.17173
# Poissons Ratio (z) = -0.25897 0.79452
#
# Static dielectric constant tensor:
#      x y z
#    x 3.836230 0.000000 0.348710 
#    y 0.000000 3.687600 0.000000 
#    z 0.348710 0.000000 3.290060 
# 
# 
# High freq. dielectric constant tensor:
#      x y z
#    x 1.783910 0.000000 0.021290 
#    y 0.000000 1.776610 0.000000 
#    z 0.021290 0.000000 1.739350 
# 
# From -- ./inp_files/58242.got.cif
#   From: 2010.06.25/outbox.cif.g09.slc.cpg/sg10_30_cif.got.tgz:58242.got - 2010.06.27 22:07:45.
