data_PCOD8063036
_publ_section_title
;
Structure prediction by ZEFSAII (Michael W. Deem and Ramdas Pophale) SiO2 
 PCOD8063036
Probable space group: P 2/M
;
_chemical_formula_sum "Si O2"
_cell_formula_units_Z 30
_cell_length_a 29.451241
_cell_length_b 10.493669
_cell_length_c 5.343802
_cell_angle_alpha 90.000000
_cell_angle_beta 96.902004
_cell_angle_gamma 90.000000
_cell_volume 1639.542157
_symmetry_space_group_name_H-M "P 2/M"
_symmetry_group_IT_number 10
_symmetry_cell_setting 'monoclinic'
loop_
_space_group_symop_operation_xyz
x,y,z
-x,y,-z
-x,-y,-z
x,-y,z
loop_
_atom_site_type_symbol
_atom_site_label
_atom_site_fract_x
_atom_site_fract_y
_atom_site_fract_z
Si Si1 0.975241 0.151807 0.733602
Si Si2 0.500000 0.780505 0.500000
Si Si3 0.871472 0.848151 0.664488
Si Si4 0.327666 0.146295 0.450698
Si Si5 0.822140 0.151607 0.131794
Si Si6 0.449935 0.640883 0.086996
Si Si7 0.420522 0.860155 0.745848
Si Si8 0.281917 0.152125 0.922187
O O1 0.923360 0.202018 0.699265
O O2 0.000000 0.204241 0.500000
O O3 0.976579 0.000000 0.734473
O O4 0.000000 0.204239 0.000000
O O5 0.459290 0.689470 0.372653
O O6 0.472704 0.868109 0.677649
O O7 0.846645 0.795416 0.897733
O O8 0.870093 0.000000 0.663770
O O9 0.846787 0.795439 0.398083
O O10 0.382621 0.161843 0.505256
O O11 0.309360 0.209088 0.181004
O O12 0.312516 0.000000 0.432815
O O13 0.304457 0.207960 0.683096
O O14 0.770093 0.199991 0.096561
O O15 0.824156 0.000000 0.133531
O O16 0.427383 0.500000 0.069394
O O17 0.500000 0.637560 0.000000
O O18 0.416356 0.743320 0.936420
O O19 0.411207 0.000000 0.866866
O O20 0.285155 0.000000 0.922335
#
# Coordination Sequence:
#
# PCOD8063036 Si02
#       8
#     4   2   4   4   4   4   4   4
#     4   9  15  21  27  35  51  75 102 137 188 243
#     4  10  20  32  52  72  94 122 156 190 230 270
#     4   9  15  21  29  42  57  76 109 150 189 238
#     4   9  18  29  43  61  85 111 137 167 210 264
#     4   9  15  22  33  46  61  82 113 151 191 236
#     4   9  19  35  52  70  93 122 156 190 227 271
#     4  10  21  33  49  72  97 123 152 191 232 277
#     4   9  16  27  40  55  76 103 130 161 205 259
#
# _framework density 18.297791
#
# number of rings (size 3 to 8) (size 9 to 14) (size 15 to 20)
#    0.000    2.800    0.000    2.000    1.867    9.867 
#    0.000    0.000    0.000    0.000    0.000    0.000 
#    0.000    0.000    0.000    0.000    0.000    0.000 
#
# Total GULP energy -371719.539066 kJ/mol
# GULP energy per Si atom -12390.651302 kJ/mol
# Density = 1.825614 g / cm^3
# Si number density = 18.297791 Si / 1000 Ang^3
#
#
#
# Elastic Constant Matrix: (Units=GPa)
#
#
# Indices 1 2 3 4 5 6 
#
# 1 101.0108 8.7616 48.4389 0.0000 2.3835 0.0000
# 2 8.7616 46.6018 19.4259 0.0000 12.2765 0.0000
# 3 48.4389 19.4259 155.5768 0.0000 10.1228 0.0000
# 4 0.0000 0.0000 0.0000 7.3014 0.0000 0.9764
# 5 2.3835 12.2765 10.1228 0.0000 38.1453 0.0000
# 6 0.0000 0.0000 0.0000 0.9764 0.0000 -0.3851
#
#
#
# Elastic Compliance Matrix: (Units=1/GPa)
#
#
# Indices 1 2 3 4 5 6 
#
# 1 0.011668 -0.000838 -0.003560 0.000000 0.000485 0.000000
# 2 -0.000838 0.024486 -0.002327 0.000000 -0.007210 0.000000
# 3 -0.003560 -0.002327 0.007900 0.000000 -0.001125 0.000000
# 4 0.000000 0.000000 0.000000 0.102279 0.000000 0.259332
# 5 0.000485 -0.007210 -0.001125 0.000000 0.028804 0.000000
# 6 0.000000 0.000000 0.000000 0.259332 0.000000 -1.939164
#
#
# Mechanical properties :
#
#
# Convention : Reuss Voigt Hill
#
# Bulk Modulus (GPa) = 32.67574 50.71584 41.69579
# Shear Modulus (GPa) = -2.87294 24.11650 10.62178
#
# Velocity S-wave (km/s) = -1.25440 3.63437 2.41196
# Velocity P-wave (km/s) = 3.97473 6.73710 5.53114
#
# Compressibility (1/GPa) = 0.03060375
#
# Stress axis : x y z
#
# Youngs Moduli (GPa) = 85.70263 40.84049 126.58429
#
# Poissons Ratio (x) = 0.03421 0.45063
# Poissons Ratio (y) = 0.07179 0.29461
# Poissons Ratio (z) = 0.30509 0.09505
#
# Static dielectric constant tensor:
#      x y z
#    x 3.393920 0.000000 -0.015070 
#    y 0.000000 2.654590 0.000000 
#    z -0.015070 0.000000 3.718400 
# 
# 
# High freq. dielectric constant tensor:
#      x y z
#    x 1.709010 0.000000 0.001530 
#    y 0.000000 1.606450 0.000000 
#    z 0.001530 0.000000 1.729000 
# 
# From -- ./inp_files/13462.got.cif
#   From: 2010.06.25/outbox.cif.g09.slc.cpg/sg10_7_cif.got.tgz:13462.got - 2010.06.27 22:07:45.
