data_PCOD8063101
_publ_section_title
;
Structure prediction by ZEFSAII (Michael W. Deem and Ramdas Pophale) SiO2 
 PCOD8063101
Probable space group: P 2/M
;
_chemical_formula_sum "Si O2"
_cell_formula_units_Z 32
_cell_length_a 17.816481
_cell_length_b 8.803097
_cell_length_c 23.847852
_cell_angle_alpha 90.000000
_cell_angle_beta 149.027670
_cell_angle_gamma 90.000000
_cell_volume 1924.849469
_symmetry_space_group_name_H-M "P 2/M"
_symmetry_group_IT_number 10
_symmetry_cell_setting 'monoclinic'
loop_
_space_group_symop_operation_xyz
x,y,z
-x,y,-z
-x,-y,-z
x,-y,z
loop_
_atom_site_type_symbol
_atom_site_label
_atom_site_fract_x
_atom_site_fract_y
_atom_site_fract_z
Si Si1 0.768169 0.322853 0.096350
Si Si2 0.654472 0.319617 0.814417
Si Si3 0.388103 0.179600 0.697211
Si Si4 0.113563 0.319258 0.944547
Si Si5 0.063098 0.179700 0.482629
Si Si6 0.114903 0.679156 0.119975
Si Si7 0.441794 0.323560 0.850830
Si Si8 0.810427 0.821272 0.239389
O O1 0.799452 0.500000 0.127522
O O2 0.857096 0.260269 0.099291
O O3 0.825969 0.224078 0.184831
O O4 0.597549 0.293682 0.978525
O O5 0.635570 0.500000 0.803780
O O6 0.497237 0.243265 0.720006
O O7 0.726146 0.264530 0.800311
O O8 0.757599 0.263918 0.931566
O O9 0.226939 0.241020 0.578182
O O10 0.432202 0.233624 0.787000
O O11 0.394164 0.000000 0.700325
O O12 0.118046 0.500000 0.947400
O O13 0.953081 0.260865 0.864240
O O14 0.000000 0.249471 0.500000
O O15 0.960033 0.229590 0.365431
O O16 0.067932 0.000000 0.491379
O O17 0.123025 0.500000 0.128444
O O18 0.000000 0.730459 0.000000
O O19 0.418431 0.500000 0.822650
O O20 0.323427 0.267402 0.819168
O O21 0.782644 0.000000 0.228225
#
# Coordination Sequence:
#
# PCOD8063101 Si02
#       8
#     4   4   4   4   4   4   4   4
#     4  10  20  33  48  69 100 129 154 188 230 277
#     4   9  15  27  45  70  98 122 153 193 230 271
#     4  11  20  31  50  71  93 125 160 193 235 283
#     4   8  13  25  44  67  95 129 156 179 223 279
#     4   9  18  35  52  65  87 120 158 198 240 278
#     4   7  11  20  41  67  91 122 158 184 213 273
#     4  11  21  34  50  70  97 126 154 190 236 278
#     4  11  22  36  52  68  89 122 163 201 233 276
#
# _framework density 16.624676999999998
#
# number of rings (size 3 to 8) (size 9 to 14) (size 15 to 20)
#    0.000    2.500    2.500    3.000    0.000    2.500 
#    0.000    3.125    0.000    4.125    0.000    0.875 
#    0.000    7.000    0.000    0.000    0.000    0.000 
#
# Total GULP energy -396507.906411 kJ/mol
# GULP energy per Si atom -12390.872075 kJ/mol
# Density = 1.658684 g / cm^3
# Si number density = 16.624677 Si / 1000 Ang^3
#
#
#
# Elastic Constant Matrix: (Units=GPa)
#
#
# Indices 1 2 3 4 5 6 
#
# 1 141.8618 23.4711 65.2559 0.0000 32.6271 0.0000
# 2 23.4711 30.2850 24.4566 0.0000 6.7050 0.0000
# 3 65.2559 24.4566 90.2718 0.0000 11.2632 0.0000
# 4 0.0000 0.0000 0.0000 6.2815 0.0000 11.6346
# 5 32.6271 6.7050 11.2632 0.0000 20.8165 0.0000
# 6 0.0000 0.0000 0.0000 11.6346 0.0000 3.2373
#
#
#
# Elastic Compliance Matrix: (Units=1/GPa)
#
#
# Indices 1 2 3 4 5 6 
#
# 1 0.015688 -0.000808 -0.008672 0.000000 -0.019637 0.000000
# 2 -0.000808 0.043574 -0.010325 0.000000 -0.007182 0.000000
# 3 -0.008672 -0.010325 0.019338 0.000000 0.006454 0.000000
# 4 0.000000 0.000000 0.000000 -0.028144 0.000000 0.101145
# 5 -0.019637 -0.007182 0.006454 0.000000 0.077638 0.000000
# 6 0.000000 0.000000 0.000000 0.101145 0.000000 -0.054608
#
#
# Mechanical properties :
#
#
# Convention : Reuss Voigt Hill
#
# Bulk Modulus (GPa) = 25.64692 54.30953 39.97822
# Shear Modulus (GPa) = 39.65358 16.01607 27.83482
#
# Velocity S-wave (km/s) = 4.88917 3.10722 4.09627
# Velocity P-wave (km/s) = 6.87986 6.75367 6.81706
#
# Compressibility (1/GPa) = 0.03899104
#
# Stress axis : x y z
#
# Youngs Moduli (GPa) = 63.74318 22.94951 51.71127
#
# Poissons Ratio (x) = 0.01854 0.44842
# Poissons Ratio (y) = 0.05151 0.53391
# Poissons Ratio (z) = 0.55275 0.23695
#
# Static dielectric constant tensor:
#      x y z
#    x 3.667660 0.000000 0.241290 
#    y 0.000000 2.844440 0.000000 
#    z 0.241290 0.000000 3.040660 
# 
# 
# High freq. dielectric constant tensor:
#      x y z
#    x 1.653920 0.000000 0.017550 
#    y 0.000000 1.612530 0.000000 
#    z 0.017550 0.000000 1.606880 
# 
# From -- ./inp_files/56390.got.cif
#   From: 2010.06.25/outbox.cif.g09.slc.cpg/sg10_29_cif.got.tgz:56390.got - 2010.06.27 22:07:45.
