data_PCOD8063470
_publ_section_title
;
Structure prediction by ZEFSAII (Michael W. Deem and Ramdas Pophale) SiO2 
 PCOD8063470
Probable space group: P 2/M
;
_chemical_formula_sum "Si O2"
_cell_formula_units_Z 22
_cell_length_a 14.065715
_cell_length_b 7.613777
_cell_length_c 10.892401
_cell_angle_alpha 90.000000
_cell_angle_beta 91.870140
_cell_angle_gamma 90.000000
_cell_volume 1165.880941
_symmetry_space_group_name_H-M "P 2/M"
_symmetry_group_IT_number 10
_symmetry_cell_setting 'monoclinic'
loop_
_space_group_symop_operation_xyz
x,y,z
-x,y,-z
-x,-y,-z
x,-y,z
loop_
_atom_site_type_symbol
_atom_site_label
_atom_site_fract_x
_atom_site_fract_y
_atom_site_fract_z
Si Si1 0.890718 0.191543 0.877485
Si Si2 0.400125 0.208447 0.041836
Si Si3 0.766455 0.500000 0.572281
Si Si4 0.959935 0.500000 0.730889
Si Si5 0.170459 0.500000 0.696285
Si Si6 0.304369 0.195220 0.277283
Si Si7 0.783497 0.205365 0.112319
O O1 0.960424 0.331389 0.819732
O O2 0.791873 0.186767 0.802989
O O3 0.940107 0.000000 0.870262
O O4 0.868960 0.237058 0.018554
O O5 0.383599 0.264449 0.183523
O O6 0.401159 0.000000 0.036767
O O7 0.500000 0.289362 0.000000
O O8 0.315470 0.274483 0.950363
O O9 0.871879 0.500000 0.634108
O O10 0.771311 0.500000 0.426901
O O11 0.706698 0.328737 0.610466
O O12 0.058002 0.500000 0.660091
O O13 0.196917 0.322427 0.768261
O O14 0.329210 0.000000 0.329432
O O15 0.777519 0.000000 0.149451
#
# Coordination Sequence:
#
# PCOD8063470 Si02
#       7
#     4   4   2   2   2   4   4
#     4   8  15  30  51  73  97 122 151 196 254 305
#     4   8  14  29  57  86 104 121 152 196 244 294
#     4  10  21  36  50  65  92 133 178 210 231 272
#     4  10  20  34  51  69  90 122 171 221 247 270
#     4  12  24  34  47  68  96 135 173 202 240 286
#     4   8  15  30  52  75  97 123 157 199 245 286
#     4   9  19  34  50  74 106 131 153 190 247 305
#
# _framework density 18.869852000000002
#
# number of rings (size 3 to 8) (size 9 to 14) (size 15 to 20)
#    0.000    3.091    0.000    3.000    0.000    5.091 
#    0.000    3.636    0.000    7.636    0.000    5.091 
#    0.000    0.000    0.000    0.000    0.000    0.000 
#
# Total GULP energy -272682.026970 kJ/mol
# GULP energy per Si atom -12394.637590 kJ/mol
# Density = 1.882690 g / cm^3
# Si number density = 18.869852 Si / 1000 Ang^3
#
#
#
# Elastic Constant Matrix: (Units=GPa)
#
#
# Indices 1 2 3 4 5 6 
#
# 1 35.2215 15.1188 15.7451 0.0000 -17.4081 0.0000
# 2 15.1188 105.2597 60.4583 0.0000 -13.0520 0.0000
# 3 15.7451 60.4583 122.9314 0.0000 -23.2983 0.0000
# 4 0.0000 0.0000 0.0000 46.3627 0.0000 4.8401
# 5 -17.4081 -13.0520 -23.2983 0.0000 26.4836 0.0000
# 6 0.0000 0.0000 0.0000 4.8401 0.0000 14.5526
#
#
#
# Elastic Compliance Matrix: (Units=1/GPa)
#
#
# Indices 1 2 3 4 5 6 
#
# 1 0.043020 -0.003613 0.001547 0.000000 0.027858 0.000000
# 2 -0.003613 0.013564 -0.006470 0.000000 -0.001382 0.000000
# 3 0.001547 -0.006470 0.012849 0.000000 0.009132 0.000000
# 4 0.000000 0.000000 0.000000 0.022345 0.000000 -0.007432
# 5 0.027858 -0.001382 0.009132 0.000000 0.063423 0.000000
# 6 0.000000 0.000000 0.000000 -0.007432 0.000000 0.071188
#
#
# Mechanical properties :
#
#
# Convention : Reuss Voigt Hill
#
# Bulk Modulus (GPa) = 19.09852 49.56190 34.33021
# Shear Modulus (GPa) = 19.16329 28.95248 24.05788
#
# Velocity S-wave (km/s) = 3.19023 3.92129 3.57450
# Velocity P-wave (km/s) = 4.86962 6.84282 5.93875
#
# Compressibility (1/GPa) = 0.05236008
#
# Stress axis : x y z
#
# Youngs Moduli (GPa) = 23.24505 73.72383 77.82581
#
# Poissons Ratio (x) = 0.26638 -0.12037
# Poissons Ratio (y) = 0.08399 0.50354
# Poissons Ratio (z) = -0.03595 0.47700
#
# Static dielectric constant tensor:
#      x y z
#    x 3.488160 0.000000 -0.291510 
#    y 0.000000 3.855490 0.000000 
#    z -0.291510 0.000000 3.206540 
# 
# 
# High freq. dielectric constant tensor:
#      x y z
#    x 1.713670 0.000000 -0.016990 
#    y 0.000000 1.738020 0.000000 
#    z -0.016990 0.000000 1.703320 
# 
# From -- ./inp_files/27124.got.cif
#   From: 2010.06.25/outbox.cif.g09.slc.cpg/sg10_14_cif.got.tgz:27124.got - 2010.06.27 22:07:45.
