data_PCOD8063106
_publ_section_title
;
Structure prediction by ZEFSAII (Michael W. Deem and Ramdas Pophale) SiO2 
 PCOD8063106
Probable space group: P 2/M
;
_chemical_formula_sum "Si O2"
_cell_formula_units_Z 24
_cell_length_a 9.045093
_cell_length_b 18.531403
_cell_length_c 15.761658
_cell_angle_alpha 90.000000
_cell_angle_beta 30.593484
_cell_angle_gamma 90.000000
_cell_volume 1344.599142
_symmetry_space_group_name_H-M "P 2/M"
_symmetry_group_IT_number 10
_symmetry_cell_setting 'monoclinic'
loop_
_space_group_symop_operation_xyz
x,y,z
-x,y,-z
-x,-y,-z
x,-y,z
loop_
_atom_site_type_symbol
_atom_site_label
_atom_site_fract_x
_atom_site_fract_y
_atom_site_fract_z
Si Si1 0.669861 0.915469 0.680542
Si Si2 0.288513 0.584531 0.680542
Si Si3 0.689335 0.334756 0.987018
Si Si4 0.346126 0.579448 0.835656
Si Si5 0.650389 0.834756 0.012982
Si Si6 0.853094 0.920552 0.164344
O O1 0.556301 0.865516 0.812062
O O2 0.483791 0.898934 0.686424
O O3 0.000000 0.894277 0.500000
O O4 0.635020 0.000000 0.722704
O O5 0.500000 0.605724 0.500000
O O6 0.196870 0.500000 0.722702
O O7 0.456938 0.601065 0.686423
O O8 0.007512 0.634484 0.812063
O O9 0.500000 0.357187 0.000000
O O10 0.546839 0.367222 0.143364
O O11 0.693351 0.250000 0.000000
O O12 0.460157 0.500000 0.803826
O O13 0.000000 0.580257 0.000000
O O14 0.500000 0.857187 0.000000
O O15 0.976929 0.867222 0.856638
O O16 0.871629 0.000000 0.196179
O O17 0.000000 0.919746 0.000000
#
# Coordination Sequence:
#
# PCOD8063106 Si02
#       6
#     4   4   4   4   4   4
#     4   9  18  34  55  77 101 130 168 215 262 307
#     4   9  18  34  55  77 101 130 168 215 262 307
#     4  10  20  33  48  73 105 137 175 212 251 303
#     4   8  15  29  50  73  95 127 169 204 245 305
#     4  10  20  33  48  73 105 137 175 212 251 303
#     4   8  15  29  50  73  95 127 169 204 245 305
#
# _framework density 17.849184999999999
#
# number of rings (size 3 to 8) (size 9 to 14) (size 15 to 20)
#    0.000    3.000    0.000    3.000    0.000    8.667 
#    0.000    8.333    0.000    6.000    0.000    0.000 
#    0.000    0.000    0.000    0.000    0.000    0.000 
#
# Total GULP energy -297419.846400 kJ/mol
# GULP energy per Si atom -12392.493600 kJ/mol
# Density = 1.780856 g / cm^3
# Si number density = 17.849185 Si / 1000 Ang^3
#
#
#
# Elastic Constant Matrix: (Units=GPa)
#
#
# Indices 1 2 3 4 5 6 
#
# 1 153.8233 79.6209 55.9731 0.0000 -3.9162 0.0000
# 2 79.6209 92.1294 45.7482 0.0000 -4.2296 0.0000
# 3 55.9731 45.7482 94.4790 0.0000 -3.4947 0.0000
# 4 0.0000 0.0000 0.0000 18.1743 0.0000 -1.3304
# 5 -3.9162 -4.2296 -3.4947 0.0000 33.2977 0.0000
# 6 0.0000 0.0000 0.0000 -1.3304 0.0000 28.8280
#
#
#
# Elastic Compliance Matrix: (Units=1/GPa)
#
#
# Indices 1 2 3 4 5 6 
#
# 1 0.012308 -0.009238 -0.002819 0.000000 -0.000022 0.000000
# 2 -0.009238 0.021264 -0.004782 0.000000 0.001113 0.000000
# 3 -0.002819 -0.004782 0.014592 0.000000 0.000592 0.000000
# 4 0.000000 0.000000 0.000000 0.055209 0.000000 0.002548
# 5 -0.000022 0.001113 0.000592 0.000000 0.030233 0.000000
# 6 0.000000 0.000000 0.000000 0.002548 0.000000 0.034806
#
#
# Mechanical properties :
#
#
# Convention : Reuss Voigt Hill
#
# Bulk Modulus (GPa) = 69.03719 78.12401 73.58060
# Shear Modulus (GPa) = 24.16397 26.66596 25.41497
#
# Velocity S-wave (km/s) = 3.68337 3.86937 3.77752
# Velocity P-wave (km/s) = 7.54001 7.98916 7.76783
#
# Compressibility (1/GPa) = 0.01448495
#
# Stress axis : x y z
#
# Youngs Moduli (GPa) = 81.24805 47.02852 68.52976
#
# Poissons Ratio (x) = 0.43444 0.19321
# Poissons Ratio (y) = 0.75056 0.32772
# Poissons Ratio (z) = 0.22907 0.22490
#
# Static dielectric constant tensor:
#      x y z
#    x 3.638600 0.000000 -0.047950 
#    y 0.000000 3.265600 0.000000 
#    z -0.047950 0.000000 3.254520 
# 
# 
# High freq. dielectric constant tensor:
#      x y z
#    x 1.695430 0.000000 -0.004070 
#    y 0.000000 1.687330 0.000000 
#    z -0.004070 0.000000 1.662820 
# 
# From -- ./inp_files/75416.got.cif
#   From: 2010.06.25/outbox.cif.g09.slc.cpg/sg10_38_cif.got.tgz:75416.got - 2010.06.27 22:07:45.
