data_PCOD8063772
_publ_section_title
;
Structure prediction by ZEFSAII (Michael W. Deem and Ramdas Pophale) SiO2 
 PCOD8063772
Probable space group: P 2/M
;
_chemical_formula_sum "Si O2"
_cell_formula_units_Z 32
_cell_length_a 15.833942
_cell_length_b 9.103780
_cell_length_c 24.709882
_cell_angle_alpha 90.000000
_cell_angle_beta 27.173383
_cell_angle_gamma 90.000000
_cell_volume 1626.664291
_symmetry_space_group_name_H-M "P 2/M"
_symmetry_group_IT_number 10
_symmetry_cell_setting 'monoclinic'
loop_
_space_group_symop_operation_xyz
x,y,z
-x,y,-z
-x,-y,-z
x,-y,z
loop_
_atom_site_type_symbol
_atom_site_label
_atom_site_fract_x
_atom_site_fract_y
_atom_site_fract_z
Si Si1 0.015647 0.668421 0.786642
Si Si2 0.612686 0.330902 0.882556
Si Si3 0.663907 0.331324 0.057224
Si Si4 0.315313 0.665461 0.695316
Si Si5 0.863986 0.840347 0.118450
Si Si6 0.020728 0.825813 0.304311
Si Si7 0.327250 0.325134 0.445704
Si Si8 0.485562 0.162879 0.753469
O O1 0.977169 0.500000 0.790160
O O2 0.234757 0.681079 0.680107
O O3 0.986687 0.776895 0.753677
O O4 0.867161 0.710096 0.918162
O O5 0.677934 0.500000 0.848723
O O6 0.486332 0.301307 0.903111
O O7 0.788883 0.225588 0.777096
O O8 0.500000 0.286759 0.000000
O O9 0.661026 0.500000 0.077787
O O10 0.605746 0.232934 0.141344
O O11 0.308010 0.500000 0.719841
O O12 0.150912 0.748390 0.819257
O O13 0.519952 0.722207 0.594831
O O14 0.666240 0.859821 0.205234
O O15 0.950177 0.000000 0.083797
O O16 0.000000 0.755253 0.000000
O O17 0.859606 0.751113 0.430133
O O18 0.001819 0.000000 0.318520
O O19 0.302641 0.500000 0.457925
O O20 0.368690 0.268844 0.360712
O O21 0.568606 0.000000 0.719986
#
# Coordination Sequence:
#
# PCOD8063772 Si02
#       8
#     4   4   4   4   4   4   4   4
#     4  10  20  37  58  85 119 153 193 239 287 341
#     4  10  20  40  65  88 115 150 187 230 287 346
#     4  10  20  35  60  89 117 150 188 231 285 345
#     4   9  19  33  54  81 108 146 196 243 279 321
#     4   9  17  29  46  71 109 153 189 225 280 341
#     4  12  25  39  59  87 116 150 191 239 293 345
#     4  10  21  40  61  81 112 156 202 241 281 336
#     4  10  20  34  54  82 117 153 189 235 286 335
#
# _framework density 19.672159000000001
#
# number of rings (size 3 to 8) (size 9 to 14) (size 15 to 20)
#    0.000    2.000    1.250    2.625    0.000    3.500 
#    0.000    3.125    0.000    3.750    0.000    0.000 
#    0.000    0.000    0.000    0.000    0.000    0.000 
#
# Total GULP energy -396476.773461 kJ/mol
# GULP energy per Si atom -12389.899171 kJ/mol
# Density = 1.962738 g / cm^3
# Si number density = 19.672159 Si / 1000 Ang^3
#
#
#
# Elastic Constant Matrix: (Units=GPa)
#
#
# Indices 1 2 3 4 5 6 
#
# 1 46.2072 20.2408 14.1182 0.0000 3.9551 0.0000
# 2 20.2408 91.0827 44.3690 0.0000 5.3272 0.0000
# 3 14.1182 44.3690 98.9181 0.0000 4.7849 0.0000
# 4 0.0000 0.0000 0.0000 28.9403 0.0000 0.5990
# 5 3.9551 5.3272 4.7849 0.0000 26.2260 0.0000
# 6 0.0000 0.0000 0.0000 0.5990 0.0000 10.4052
#
#
#
# Elastic Compliance Matrix: (Units=1/GPa)
#
#
# Indices 1 2 3 4 5 6 
#
# 1 0.024270 -0.004631 -0.001266 0.000000 -0.002488 0.000000
# 2 -0.004631 0.015010 -0.006011 0.000000 -0.001254 0.000000
# 3 -0.001266 -0.006011 0.013033 0.000000 -0.000966 0.000000
# 4 0.000000 0.000000 0.000000 0.034595 0.000000 -0.001991
# 5 -0.002488 -0.001254 -0.000966 0.000000 0.038936 0.000000
# 6 0.000000 0.000000 0.000000 -0.001991 0.000000 0.096221
#
#
# Mechanical properties :
#
#
# Convention : Reuss Voigt Hill
#
# Bulk Modulus (GPa) = 35.09235 43.74043 39.41639
# Shear Modulus (GPa) = 19.57867 23.61296 21.59582
#
# Velocity S-wave (km/s) = 3.15818 3.46833 3.31688
# Velocity P-wave (km/s) = 5.58356 6.19048 5.89483
#
# Compressibility (1/GPa) = 0.02849624
#
# Stress axis : x y z
#
# Youngs Moduli (GPa) = 41.20289 66.62444 76.72862
#
# Poissons Ratio (x) = 0.30853 0.09717
# Poissons Ratio (y) = 0.19081 0.46120
# Poissons Ratio (z) = 0.05218 0.40047
#
# Static dielectric constant tensor:
#      x y z
#    x 3.553400 0.000000 -0.086350 
#    y 0.000000 3.837770 0.000000 
#    z -0.086350 0.000000 3.647340 
# 
# 
# High freq. dielectric constant tensor:
#      x y z
#    x 1.757970 0.000000 -0.002470 
#    y 0.000000 1.763860 0.000000 
#    z -0.002470 0.000000 1.763610 
# 
# From -- ./inp_files/89579.got.cif
#   From: 2010.06.25/outbox.cif.g09.slc.cpg/sg10_45_cif.got.tgz:89579.got - 2010.06.27 22:07:45.
