data_PCOD8063413
_publ_section_title
;
Structure prediction by ZEFSAII (Michael W. Deem and Ramdas Pophale) SiO2 
 PCOD8063413
Probable space group: P 2/M
;
_chemical_formula_sum "Si O2"
_cell_formula_units_Z 28
_cell_length_a 9.695924
_cell_length_b 14.449999
_cell_length_c 22.564876
_cell_angle_alpha 90.000000
_cell_angle_beta 154.252758
_cell_angle_gamma 90.000000
_cell_volume 1373.351442
_symmetry_space_group_name_H-M "P 2/M"
_symmetry_group_IT_number 10
_symmetry_cell_setting 'monoclinic'
loop_
_space_group_symop_operation_xyz
x,y,z
-x,y,-z
-x,-y,-z
x,-y,z
loop_
_atom_site_type_symbol
_atom_site_label
_atom_site_fract_x
_atom_site_fract_y
_atom_site_fract_z
Si Si1 0.668281 0.106215 0.800683
Si Si2 0.040547 0.605105 0.949831
Si Si3 0.677555 0.739658 0.720906
Si Si4 0.410530 0.105651 0.095604
Si Si5 0.778739 0.759705 0.151809
Si Si6 0.858200 0.605648 0.509305
Si Si7 0.781207 0.601637 0.234509
O O1 0.507458 0.178199 0.692748
O O2 0.521215 0.124237 0.808673
O O3 0.605455 0.000000 0.757607
O O4 0.043277 0.129470 0.942607
O O5 0.905179 0.500000 0.893645
O O6 0.859070 0.668756 0.833821
O O7 0.409412 0.608097 0.078916
O O8 0.000000 0.645559 0.000000
O O9 0.419523 0.679456 0.585506
O O10 0.919131 0.792275 0.769713
O O11 0.647741 0.163563 0.146337
O O12 0.478235 0.000000 0.105403
O O13 0.929721 0.674553 0.246843
O O14 0.500000 0.727760 0.000000
O O15 0.730597 0.500000 0.463933
O O16 0.000000 0.625922 0.500000
O O17 0.133005 0.623469 0.664101
O O18 0.910207 0.500000 0.267479
#
# Coordination Sequence:
#
# PCOD8063413 Si02
#       7
#     4   4   4   4   4   4   4
#     4   9  19  35  59  90 121 159 204 250 305 361
#     4  10  20  33  55  87 118 154 199 252 303 345
#     4  12  23  35  62  92 123 157 201 258 298 362
#     4   9  19  36  58  88 127 161 196 250 309 364
#     4  12  23  36  55  94 128 160 202 242 306 365
#     4  10  23  43  64  89 119 161 212 256 304 360
#     4  10  22  39  57  80 122 165 199 244 296 359
#
# _framework density 20.388081
#
# number of rings (size 3 to 8) (size 9 to 14) (size 15 to 20)
#    0.000    1.714    2.857    2.143    6.000    5.143 
#    0.000    1.429    0.000    1.286    0.000    2.000 
#    0.000    0.000    0.000    0.000    0.000    0.000 
#
# Total GULP energy -347106.864071 kJ/mol
# GULP energy per Si atom -12396.673717 kJ/mol
# Density = 2.034168 g / cm^3
# Si number density = 20.388081 Si / 1000 Ang^3
#
#
#
# Elastic Constant Matrix: (Units=GPa)
#
#
# Indices 1 2 3 4 5 6 
#
# 1 99.5182 49.3764 9.0402 0.0000 -4.5546 0.0000
# 2 49.3764 109.0689 32.6620 0.0000 -11.2198 0.0000
# 3 9.0402 32.6620 46.0161 0.0000 -7.4836 0.0000
# 4 0.0000 0.0000 0.0000 19.7952 0.0000 -2.9484
# 5 -4.5546 -11.2198 -7.4836 0.0000 23.9170 0.0000
# 6 0.0000 0.0000 0.0000 -2.9484 0.0000 19.8411
#
#
#
# Elastic Compliance Matrix: (Units=1/GPa)
#
#
# Indices 1 2 3 4 5 6 
#
# 1 0.013114 -0.006554 0.002088 0.000000 0.000076 0.000000
# 2 -0.006554 0.015132 -0.008957 0.000000 0.003048 0.000000
# 3 0.002088 -0.008957 0.028511 0.000000 0.005117 0.000000
# 4 0.000000 0.000000 0.000000 0.051661 0.000000 0.007677
# 5 0.000076 0.003048 0.005117 0.000000 0.044857 0.000000
# 6 0.000000 0.000000 0.000000 0.007677 0.000000 0.051541
#
#
# Mechanical properties :
#
#
# Convention : Reuss Voigt Hill
#
# Bulk Modulus (GPa) = 33.43307 48.52894 40.98101
# Shear Modulus (GPa) = 20.69266 23.61232 22.15249
#
# Velocity S-wave (km/s) = 3.18927 3.40684 3.29985
# Velocity P-wave (km/s) = 5.47685 6.27134 5.88751
#
# Compressibility (1/GPa) = 0.02991050
#
# Stress axis : x y z
#
# Youngs Moduli (GPa) = 76.25313 66.08701 35.07413
#
# Poissons Ratio (x) = 0.43316 -0.07325
# Poissons Ratio (y) = 0.49980 0.31416
# Poissons Ratio (z) = -0.15924 0.59194
#
# Static dielectric constant tensor:
#      x y z
#    x 3.744760 0.000000 -0.148280 
#    y 0.000000 3.860380 0.000000 
#    z -0.148280 0.000000 3.464550 
# 
# 
# High freq. dielectric constant tensor:
#      x y z
#    x 1.799250 0.000000 -0.012610 
#    y 0.000000 1.801500 0.000000 
#    z -0.012610 0.000000 1.761170 
# 
# From -- ./inp_files/82886.got.cif
#   From: 2010.06.25/outbox.cif.g09.slc.cpg/sg10_42_cif.got.tgz:82886.got - 2010.06.27 22:07:45.
