data_PCOD8063661
_publ_section_title
;
Structure prediction by ZEFSAII (Michael W. Deem and Ramdas Pophale) SiO2 
 PCOD8063661
Probable space group: P 2/M
;
_chemical_formula_sum "Si O2"
_cell_formula_units_Z 28
_cell_length_a 15.725986
_cell_length_b 8.974471
_cell_length_c 21.153070
_cell_angle_alpha 90.000000
_cell_angle_beta 151.206149
_cell_angle_gamma 90.000000
_cell_volume 1437.938771
_symmetry_space_group_name_H-M "P 2/M"
_symmetry_group_IT_number 10
_symmetry_cell_setting 'monoclinic'
loop_
_space_group_symop_operation_xyz
x,y,z
-x,y,-z
-x,-y,-z
x,-y,z
loop_
_atom_site_type_symbol
_atom_site_label
_atom_site_fract_x
_atom_site_fract_y
_atom_site_fract_z
Si Si1 0.439555 0.675786 0.391181
Si Si2 0.563557 0.824139 0.973517
Si Si3 0.073834 0.175899 0.115677
Si Si4 0.078509 0.175511 0.853559
Si Si5 0.772466 0.826158 0.564296
Si Si6 0.904482 0.668493 0.533611
Si Si7 0.725093 0.667696 0.288777
O O1 0.500000 0.729627 0.500000
O O2 0.419253 0.500000 0.373835
O O3 0.258180 0.747493 0.250908
O O4 0.592766 0.732194 0.444578
O O5 0.421523 0.784315 0.827940
O O6 0.579443 0.000000 0.989628
O O7 0.500000 0.757088 0.000000
O O8 0.750616 0.754974 0.070944
O O9 0.933535 0.218911 0.079813
O O10 0.106857 0.000000 0.135746
O O11 0.000000 0.232500 0.000000
O O12 0.897910 0.230748 0.703020
O O13 0.092317 0.000000 0.854702
O O14 0.874539 0.793485 0.566325
O O15 0.728491 0.000000 0.541659
O O16 0.896003 0.500000 0.555496
O O17 0.755838 0.687623 0.383243
O O18 0.095655 0.702765 0.630779
O O19 0.661183 0.500000 0.232144
#
# Coordination Sequence:
#
# PCOD8063661 Si02
#       7
#     4   4   4   4   4   4   4
#     4  11  23  39  60  86 118 153 191 238 292 348
#     4  10  20  34  53  78 112 148 185 233 284 336
#     4  10  21  39  62  86 116 155 197 243 297 352
#     4   9  19  35  54  79 111 145 184 236 288 339
#     4  11  21  35  60  86 110 145 192 239 289 343
#     4   9  19  36  55  78 112 147 185 234 286 339
#     4   9  19  36  55  76 109 152 188 228 282 338
#
# _framework density 19.472317
#
# number of rings (size 3 to 8) (size 9 to 14) (size 15 to 20)
#    0.000    2.143    1.429    2.571    0.000    4.571 
#    0.000    5.000    0.000    0.000    0.000    0.000 
#    0.000    0.000    0.000    0.000    0.000    0.000 
#
# Total GULP energy -347157.912564 kJ/mol
# GULP energy per Si atom -12398.496877 kJ/mol
# Density = 1.942800 g / cm^3
# Si number density = 19.472317 Si / 1000 Ang^3
#
#
#
# Elastic Constant Matrix: (Units=GPa)
#
#
# Indices 1 2 3 4 5 6 
#
# 1 124.8179 28.3606 58.5037 0.0000 -3.3435 0.0000
# 2 28.3606 28.7484 32.7037 0.0000 -2.7563 0.0000
# 3 58.5037 32.7037 128.5814 0.0000 1.6389 0.0000
# 4 0.0000 0.0000 0.0000 29.8397 0.0000 -1.5570
# 5 -3.3435 -2.7563 1.6389 0.0000 28.6923 0.0000
# 6 0.0000 0.0000 0.0000 -1.5570 0.0000 25.4355
#
#
#
# Elastic Compliance Matrix: (Units=1/GPa)
#
#
# Indices 1 2 3 4 5 6 
#
# 1 0.011215 -0.007277 -0.003262 0.000000 0.000794 0.000000
# 2 -0.007277 0.054524 -0.010620 0.000000 0.004996 0.000000
# 3 -0.003262 -0.010620 0.011989 0.000000 -0.002085 0.000000
# 4 0.000000 0.000000 0.000000 0.033620 0.000000 0.002058
# 5 0.000794 0.004996 -0.002085 0.000000 0.035544 0.000000
# 6 0.000000 0.000000 0.000000 0.002058 0.000000 0.039441
#
#
# Mechanical properties :
#
#
# Convention : Reuss Voigt Hill
#
# Bulk Modulus (GPa) = 28.24107 57.92041 43.08074
# Shear Modulus (GPa) = 20.79380 27.63215 24.21298
#
# Velocity S-wave (km/s) = 3.27137 3.77111 3.53009
# Velocity P-wave (km/s) = 5.36692 6.98364 6.22796
#
# Compressibility (1/GPa) = 0.03540942
#
# Stress axis : x y z
#
# Youngs Moduli (GPa) = 89.16285 18.34055 83.40779
#
# Poissons Ratio (x) = 0.13346 0.27210
# Poissons Ratio (y) = 0.64883 0.88583
# Poissons Ratio (z) = 0.29087 0.19479
#
# Static dielectric constant tensor:
#      x y z
#    x 3.780250 0.000000 -0.001650 
#    y 0.000000 3.265920 0.000000 
#    z -0.001650 0.000000 3.558920 
# 
# 
# High freq. dielectric constant tensor:
#      x y z
#    x 1.766940 0.000000 0.001930 
#    y 0.000000 1.735810 0.000000 
#    z 0.001930 0.000000 1.758360 
# 
# From -- ./inp_files/37031.got.cif
#   From: 2010.06.25/outbox.cif.g09.slc.cpg/sg10_19_cif.got.tgz:37031.got - 2010.06.27 22:07:45.
