data_PCOD8063757
_publ_section_title
;
Structure prediction by ZEFSAII (Michael W. Deem and Ramdas Pophale) SiO2 
 PCOD8063757
Probable space group: P 2/M
;
_chemical_formula_sum "Si O2"
_cell_formula_units_Z 20
_cell_length_a 16.737370
_cell_length_b 12.494010
_cell_length_c 8.583553
_cell_angle_alpha 90.000000
_cell_angle_beta 34.738505
_cell_angle_gamma 90.000000
_cell_volume 1022.828741
_symmetry_space_group_name_H-M "P 2/M"
_symmetry_group_IT_number 10
_symmetry_cell_setting 'monoclinic'
loop_
_space_group_symop_operation_xyz
x,y,z
-x,y,-z
-x,-y,-z
x,-y,z
loop_
_atom_site_type_symbol
_atom_site_label
_atom_site_fract_x
_atom_site_fract_y
_atom_site_fract_z
Si Si1 0.634774 0.762064 0.702094
Si Si2 0.144454 0.877554 0.855591
Si Si3 0.171922 0.625406 0.380950
Si Si4 0.409451 0.619223 0.505937
Si Si5 0.862479 0.314151 0.913381
O O1 0.730330 0.850315 0.464966
O O2 0.724304 0.688624 0.674109
O O3 0.561916 0.685057 0.694042
O O4 0.500000 0.818105 0.000000
O O5 0.159541 0.000000 0.883605
O O6 0.147820 0.808050 0.008317
O O7 0.000000 0.854935 0.000000
O O8 0.212175 0.500000 0.305964
O O9 0.180003 0.681159 0.199250
O O10 0.014820 0.635881 0.699118
O O11 0.500000 0.672126 0.500000
O O12 0.464651 0.500000 0.386273
O O13 0.245072 0.616463 0.812286
#
# Coordination Sequence:
#
# PCOD8063757 Si02
#       5
#     4   4   4   4   4
#     4  11  23  37  58  88 120 152 193 242 290 343
#     4  10  21  42  64  82 110 150 198 248 296 341
#     4  11  21  35  57  88 125 158 190 230 284 345
#     4  10  20  34  54  81 118 161 198 231 282 345
#     4  10  20  36  57  84 115 154 195 242 282 340
#
# _framework density 19.553616999999999
#
# number of rings (size 3 to 8) (size 9 to 14) (size 15 to 20)
#    0.000    1.600    2.000    4.200    0.000    3.600 
#    0.000    6.000    0.000   20.400    0.000    0.000 
#    0.000    0.000    0.000    0.000    0.000    0.000 
#
# Total GULP energy -247988.986781 kJ/mol
# GULP energy per Si atom -12399.449339 kJ/mol
# Density = 1.950911 g / cm^3
# Si number density = 19.553617 Si / 1000 Ang^3
#
#
#
# Elastic Constant Matrix: (Units=GPa)
#
#
# Indices 1 2 3 4 5 6 
#
# 1 93.9748 32.2469 0.5843 0.0000 5.2272 0.0000
# 2 32.2469 95.2979 5.3925 0.0000 11.5852 0.0000
# 3 0.5843 5.3925 83.4839 0.0000 7.4273 0.0000
# 4 0.0000 0.0000 0.0000 77.1552 0.0000 58.8286
# 5 5.2272 11.5852 7.4273 0.0000 22.6754 0.0000
# 6 0.0000 0.0000 0.0000 58.8286 0.0000 73.0400
#
#
#
# Elastic Compliance Matrix: (Units=1/GPa)
#
#
# Indices 1 2 3 4 5 6 
#
# 1 0.012056 -0.003994 0.000246 0.000000 -0.000819 0.000000
# 2 -0.003994 0.012515 -0.000302 0.000000 -0.005375 0.000000
# 3 0.000246 -0.000302 0.012347 0.000000 -0.003947 0.000000
# 4 0.000000 0.000000 0.000000 0.033588 0.000000 -0.027052
# 5 -0.000819 -0.005375 -0.003947 0.000000 0.048328 0.000000
# 6 0.000000 0.000000 0.000000 -0.027052 0.000000 0.035480
#
#
# Mechanical properties :
#
#
# Convention : Reuss Voigt Hill
#
# Bulk Modulus (GPa) = 34.69918 38.80047 36.74982
# Shear Modulus (GPa) = 29.06650 50.20965 39.63808
#
# Velocity S-wave (km/s) = 3.85970 5.07284 4.50727
# Velocity P-wave (km/s) = 6.13573 7.36191 6.77661
#
# Compressibility (1/GPa) = 0.02881913
#
# Stress axis : x y z
#
# Youngs Moduli (GPa) = 82.94886 79.90229 80.98948
#
# Poissons Ratio (x) = 0.31911 -0.01996
# Poissons Ratio (y) = 0.33127 0.02448
# Poissons Ratio (z) = -0.02045 0.02415
#
# Static dielectric constant tensor:
#      x y z
#    x 3.617520 0.000000 -0.036920 
#    y 0.000000 3.309690 0.000000 
#    z -0.036920 0.000000 3.836840 
# 
# 
# High freq. dielectric constant tensor:
#      x y z
#    x 1.767540 0.000000 -0.005190 
#    y 0.000000 1.734360 0.000000 
#    z -0.005190 0.000000 1.782250 
# 
# From -- ./inp_files/23650.got.cif
#   From: 2010.06.25/outbox.cif.g09.slc.cpg/sg10_12_cif.got.tgz:23650.got - 2010.06.27 22:07:45.
