data_PCOD8063050
_publ_section_title
;
Structure prediction by ZEFSAII (Michael W. Deem and Ramdas Pophale) SiO2 
 PCOD8063050
Probable space group: P 2/M
;
_chemical_formula_sum "Si O2"
_cell_formula_units_Z 30
_cell_length_a 12.987664
_cell_length_b 10.109138
_cell_length_c 12.241886
_cell_angle_alpha 90.000000
_cell_angle_beta 89.779822
_cell_angle_gamma 90.000000
_cell_volume 1607.275386
_symmetry_space_group_name_H-M "P 2/M"
_symmetry_group_IT_number 10
_symmetry_cell_setting 'monoclinic'
loop_
_space_group_symop_operation_xyz
x,y,z
-x,y,-z
-x,-y,-z
x,-y,z
loop_
_atom_site_type_symbol
_atom_site_label
_atom_site_fract_x
_atom_site_fract_y
_atom_site_fract_z
Si Si1 0.789546 0.154301 0.761165
Si Si2 0.443000 0.645258 0.887714
Si Si3 0.500000 0.272118 0.500000
Si Si4 0.721615 0.847668 0.158726
Si Si5 0.704234 0.154721 0.405542
Si Si6 0.111343 0.847352 0.017150
Si Si7 0.607849 0.647991 0.709921
Si Si8 0.892750 0.153128 0.541831
O O1 0.828205 0.211160 0.877853
O O2 0.695615 0.242240 0.718578
O O3 0.881474 0.170400 0.672547
O O4 0.753934 0.000000 0.767702
O O5 0.396632 0.500000 0.857519
O O6 0.357193 0.755654 0.905241
O O7 0.520233 0.693063 0.793924
O O8 0.500000 0.632947 0.000000
O O9 0.587880 0.185823 0.440897
O O10 0.441844 0.359534 0.410248
O O11 0.728510 0.796240 0.282703
O O12 0.684712 0.000000 0.152570
O O13 0.829567 0.828826 0.096903
O O14 0.792784 0.218994 0.482642
O O15 0.716594 0.000000 0.412171
O O16 0.094499 0.000000 0.047189
O O17 0.000000 0.778708 0.000000
O O18 0.649375 0.500000 0.737484
O O19 0.000000 0.219778 0.500000
O O20 0.896179 0.000000 0.508730
#
# Coordination Sequence:
#
# PCOD8063050 Si02
#       8
#     4   4   2   4   4   4   4   4
#     4  10  20  35  56  82 109 145 183 224 276 326
#     4  10  21  37  55  75 103 141 180 216 262 318
#     4  12  20  36  54  78 111 150 187 226 271 342
#     4  10  20  34  53  80 108 137 176 221 269 314
#     4  10  20  32  52  82 113 143 178 229 277 321
#     4   9  19  34  55  84 114 141 176 228 281 327
#     4  11  23  37  55  80 110 145 182 224 274 330
#     4   9  18  31  51  80 109 140 182 225 269 324
#
# _framework density 18.665127999999999
#
# number of rings (size 3 to 8) (size 9 to 14) (size 15 to 20)
#    0.000    2.000    2.667    1.200    1.867    1.333 
#    0.000    0.000    0.000    2.000    0.000    0.000 
#    0.000    0.000    0.000    0.000    0.000    0.000 
#
# Total GULP energy -371848.938426 kJ/mol
# GULP energy per Si atom -12394.964614 kJ/mol
# Density = 1.862265 g / cm^3
# Si number density = 18.665128 Si / 1000 Ang^3
#
#
#
# Elastic Constant Matrix: (Units=GPa)
#
#
# Indices 1 2 3 4 5 6 
#
# 1 119.3450 35.5300 50.1234 0.0000 -4.6622 0.0000
# 2 35.5300 40.2259 20.1326 0.0000 -0.5191 0.0000
# 3 50.1234 20.1326 121.7164 0.0000 -4.5391 0.0000
# 4 0.0000 0.0000 0.0000 17.7996 0.0000 1.2842
# 5 -4.6622 -0.5191 -4.5391 0.0000 30.6285 0.0000
# 6 0.0000 0.0000 0.0000 1.2842 0.0000 3.9809
#
#
#
# Elastic Compliance Matrix: (Units=1/GPa)
#
#
# Indices 1 2 3 4 5 6 
#
# 1 0.012771 -0.009436 -0.003652 0.000000 0.001243 0.000000
# 2 -0.009436 0.034077 -0.001793 0.000000 -0.001124 0.000000
# 3 -0.003652 -0.001793 0.010050 0.000000 0.000903 0.000000
# 4 0.000000 0.000000 0.000000 0.057520 0.000000 -0.018556
# 5 0.001243 -0.001124 0.000903 0.000000 0.032953 0.000000
# 6 0.000000 0.000000 0.000000 -0.018556 0.000000 0.257188
#
#
# Mechanical properties :
#
#
# Convention : Reuss Voigt Hill
#
# Bulk Modulus (GPa) = 36.85119 54.76215 45.80667
# Shear Modulus (GPa) = 11.27740 22.18187 16.72964
#
# Velocity S-wave (km/s) = 2.46071 3.45108 2.99708
# Velocity P-wave (km/s) = 5.27822 6.72926 6.04742
#
# Compressibility (1/GPa) = 0.02713616
#
# Stress axis : x y z
#
# Youngs Moduli (GPa) = 78.30534 29.34557 99.50382
#
# Poissons Ratio (x) = 0.27690 0.36337
# Poissons Ratio (y) = 0.73889 0.17837
# Poissons Ratio (z) = 0.28596 0.05261
#
# Static dielectric constant tensor:
#      x y z
#    x 3.455260 0.000000 0.128450 
#    y 0.000000 3.117980 0.000000 
#    z 0.128450 0.000000 3.598880 
# 
# 
# High freq. dielectric constant tensor:
#      x y z
#    x 1.719290 0.000000 -0.004290 
#    y 0.000000 1.679790 0.000000 
#    z -0.004290 0.000000 1.747240 
# 
# From -- ./inp_files/46647.got.cif
#   From: 2010.06.25/outbox.cif.g09.slc.cpg/sg10_24_cif.got.tgz:46647.got - 2010.06.27 22:07:45.
