data_PCOD8063015
_publ_section_title
;
Structure prediction by ZEFSAII (Michael W. Deem and Ramdas Pophale) SiO2 
 PCOD8063015
Probable space group: P 2/M
;
_chemical_formula_sum "Si O2"
_cell_formula_units_Z 28
_cell_length_a 8.403865
_cell_length_b 14.574847
_cell_length_c 13.105735
_cell_angle_alpha 90.000000
_cell_angle_beta 76.559677
_cell_angle_gamma 90.000000
_cell_volume 1561.292663
_symmetry_space_group_name_H-M "P 2/M"
_symmetry_group_IT_number 10
_symmetry_cell_setting 'monoclinic'
loop_
_space_group_symop_operation_xyz
x,y,z
-x,y,-z
-x,-y,-z
x,-y,z
loop_
_atom_site_type_symbol
_atom_site_label
_atom_site_fract_x
_atom_site_fract_y
_atom_site_fract_z
Si Si1 0.710919 0.100845 0.263588
Si Si2 0.081837 0.233753 0.886719
Si Si3 0.131550 0.241872 0.276948
Si Si4 0.289045 0.394562 0.933125
Si Si5 0.661010 0.605548 0.839354
Si Si6 0.655326 0.890328 0.638521
Si Si7 0.119827 0.150112 0.562839
O O1 0.769880 0.167872 0.166431
O O2 0.534086 0.134877 0.325498
O O3 0.835106 0.095761 0.341318
O O4 0.699569 0.000000 0.217119
O O5 0.154062 0.335195 0.894350
O O6 0.942593 0.234142 0.823437
O O7 0.000000 0.193029 0.000000
O O8 0.241784 0.333995 0.259494
O O9 0.245598 0.152435 0.280515
O O10 0.983568 0.241317 0.384268
O O11 0.243395 0.500000 0.920699
O O12 0.468152 0.373209 0.861087
O O13 0.280806 0.371585 0.054486
O O14 0.696372 0.500000 0.807593
O O15 0.714423 0.835860 0.527008
O O16 0.683288 0.000000 0.626612
O O17 0.000000 0.095861 0.500000
#
# Coordination Sequence:
#
# PCOD8063015 Si02
#       7
#     4   4   4   4   4   4   4
#     4  10  21  35  52  75 102 138 179 210 251 309
#     4  11  21  33  49  74 109 141 166 209 259 304
#     4  10  20  32  50  78 107 135 168 209 260 311
#     4   9  18  32  53  76 100 134 175 213 250 294
#     4   9  17  32  53  76 102 135 171 209 251 299
#     4  10  20  36  56  75  98 132 176 225 261 294
#     4   9  19  32  53  78 103 128 163 215 266 297
#
# _framework density 17.933857
#
# number of rings (size 3 to 8) (size 9 to 14) (size 15 to 20)
#    0.000    2.286    1.429    2.571    0.000   10.286 
#    0.000    0.000    0.000    5.571    0.000    0.000 
#    0.000   38.857    0.000    0.000    0.000    0.000 
#
# Total GULP energy -346869.392277 kJ/mol
# GULP energy per Si atom -12388.192581 kJ/mol
# Density = 1.789304 g / cm^3
# Si number density = 17.933857 Si / 1000 Ang^3
#
#
#
# Elastic Constant Matrix: (Units=GPa)
#
#
# Indices 1 2 3 4 5 6 
#
# 1 89.3579 44.3383 58.2137 0.0000 -8.9935 0.0000
# 2 44.3383 87.1094 61.8388 0.0000 -20.2039 0.0000
# 3 58.2137 61.8388 107.5116 0.0000 -18.8338 0.0000
# 4 0.0000 0.0000 0.0000 21.1763 0.0000 -1.4661
# 5 -8.9935 -20.2039 -18.8338 0.0000 40.0566 0.0000
# 6 0.0000 0.0000 0.0000 -1.4661 0.0000 28.5373
#
#
#
# Elastic Compliance Matrix: (Units=1/GPa)
#
#
# Indices 1 2 3 4 5 6 
#
# 1 0.018095 -0.004109 -0.007722 0.000000 -0.001640 0.000000
# 2 -0.004109 0.021278 -0.009040 0.000000 0.005559 0.000000
# 3 -0.007722 -0.009040 0.019157 0.000000 0.002714 0.000000
# 4 0.000000 0.000000 0.000000 0.047391 0.000000 0.002435
# 5 -0.001640 0.005559 0.002714 0.000000 0.028677 0.000000
# 6 0.000000 0.000000 0.000000 0.002435 0.000000 0.035167
#
#
# Mechanical properties :
#
#
# Convention : Reuss Voigt Hill
#
# Bulk Modulus (GPa) = 59.56264 68.08449 63.82356
# Shear Modulus (GPa) = 23.03042 25.92657 24.47850
#
# Velocity S-wave (km/s) = 3.58744 3.80633 3.69851
# Velocity P-wave (km/s) = 7.10240 7.57391 7.34195
#
# Compressibility (1/GPa) = 0.01678905
#
# Stress axis : x y z
#
# Youngs Moduli (GPa) = 55.26307 46.99616 52.19893
#
# Poissons Ratio (x) = 0.19312 0.40307
# Poissons Ratio (y) = 0.22709 0.47188
# Poissons Ratio (z) = 0.42673 0.42485
#
# Static dielectric constant tensor:
#      x y z
#    x 3.513790 0.000000 -0.179110 
#    y 0.000000 3.159170 0.000000 
#    z -0.179110 0.000000 3.391230 
# 
# 
# High freq. dielectric constant tensor:
#      x y z
#    x 1.713430 0.000000 -0.011870 
#    y 0.000000 1.666310 0.000000 
#    z -0.011870 0.000000 1.682840 
# 
# From -- ./inp_files/32826.got.cif
#   From: 2010.06.25/outbox.cif.g09.slc.cpg/sg10_17_cif.got.tgz:32826.got - 2010.06.27 22:07:45.
