data_PCOD8063152
_publ_section_title
;
Structure prediction by ZEFSAII (Michael W. Deem and Ramdas Pophale) SiO2 
 PCOD8063152
Probable space group: P 2/M
;
_chemical_formula_sum "Si O2"
_cell_formula_units_Z 20
_cell_length_a 8.925997
_cell_length_b 7.296282
_cell_length_c 18.313989
_cell_angle_alpha 90.000000
_cell_angle_beta 116.500492
_cell_angle_gamma 90.000000
_cell_volume 1067.408411
_symmetry_space_group_name_H-M "P 2/M"
_symmetry_group_IT_number 10
_symmetry_cell_setting 'monoclinic'
loop_
_space_group_symop_operation_xyz
x,y,z
-x,y,-z
-x,-y,-z
x,-y,z
loop_
_atom_site_type_symbol
_atom_site_label
_atom_site_fract_x
_atom_site_fract_y
_atom_site_fract_z
Si Si1 0.630511 0.207096 0.306224
Si Si2 0.829344 0.785077 0.208163
Si Si3 0.386454 0.500000 0.198497
Si Si4 0.114102 0.500000 0.247335
Si Si5 0.177274 0.212815 0.509122
Si Si6 0.691174 0.500000 0.566760
Si Si7 0.427029 0.500000 0.904151
O O1 0.785249 0.238241 0.284178
O O2 0.469866 0.321149 0.250453
O O3 0.687531 0.260861 0.399533
O O4 0.569246 0.000000 0.289673
O O5 0.684114 0.683296 0.130474
O O6 0.005088 0.684265 0.232672
O O7 0.840210 0.000000 0.187912
O O8 0.192970 0.500000 0.182433
O O9 0.414395 0.500000 0.117178
O O10 0.270289 0.500000 0.338371
O O11 0.222182 0.318332 0.445661
O O12 0.000000 0.280607 0.500000
O O13 0.173047 0.000000 0.488061
O O14 0.500000 0.500000 0.500000
O O15 0.500000 0.500000 0.000000
#
# Coordination Sequence:
#
# PCOD8063152 Si02
#       7
#     4   4   2   2   4   2   2
#     4   9  17  32  52  71  95 133 181 223 258 304
#     4   9  19  36  57  80 107 141 177 212 255 310
#     4  10  20  35  53  75 104 135 168 209 256 308
#     4  11  22  34  51  75 106 145 180 214 260 318
#     4  10  20  33  50  71  95 130 179 230 271 305
#     4  12  24  34  47  72 107 143 180 225 277 316
#     4   9  19  37  63  90 108 129 166 210 257 310
#
# _framework density 18.736971
#
# number of rings (size 3 to 8) (size 9 to 14) (size 15 to 20)
#    0.000    2.200    0.000    3.900    0.000    4.000 
#    0.000    2.000    0.000    1.200    0.000    0.000 
#    0.000    0.000    0.000    0.000    0.000    0.000 
#
# Total GULP energy -247965.246593 kJ/mol
# GULP energy per Si atom -12398.262330 kJ/mol
# Density = 1.869432 g / cm^3
# Si number density = 18.736971 Si / 1000 Ang^3
#
#
#
# Elastic Constant Matrix: (Units=GPa)
#
#
# Indices 1 2 3 4 5 6 
#
# 1 101.7660 36.5254 26.1696 0.0000 -7.3512 0.0000
# 2 36.5254 114.4334 32.1914 0.0000 -3.0742 0.0000
# 3 26.1696 32.1914 81.5914 0.0000 -9.5991 0.0000
# 4 0.0000 0.0000 0.0000 65.0642 0.0000 -76.5767
# 5 -7.3512 -3.0742 -9.5991 0.0000 20.0067 0.0000
# 6 0.0000 0.0000 0.0000 -76.5767 0.0000 146.5490
#
#
#
# Elastic Compliance Matrix: (Units=1/GPa)
#
#
# Indices 1 2 3 4 5 6 
#
# 1 0.011686 -0.003029 -0.002228 0.000000 0.002759 0.000000
# 2 -0.003029 0.010617 -0.003345 0.000000 -0.001087 0.000000
# 3 -0.002228 -0.003345 0.014980 0.000000 0.005854 0.000000
# 4 0.000000 0.000000 0.000000 0.039920 0.000000 0.020859
# 5 0.002759 -0.001087 0.005854 0.000000 0.053639 0.000000
# 6 0.000000 0.000000 0.000000 0.020859 0.000000 0.017723
#
#
# Mechanical properties :
#
#
# Convention : Reuss Voigt Hill
#
# Bulk Modulus (GPa) = 49.80732 54.17373 51.99052
# Shear Modulus (GPa) = 28.99172 59.85093 44.42133
#
# Velocity S-wave (km/s) = 3.93784 5.65792 4.87435
# Velocity P-wave (km/s) = 6.87863 8.46512 7.71277
#
# Compressibility (1/GPa) = 0.02007737
#
# Stress axis : x y z
#
# Youngs Moduli (GPa) = 85.57257 94.18502 66.75753
#
# Poissons Ratio (x) = 0.28528 0.14877
# Poissons Ratio (y) = 0.25920 0.22333
# Poissons Ratio (z) = 0.19070 0.31508
#
# Static dielectric constant tensor:
#      x y z
#    x 3.394350 0.000000 -0.103910 
#    y 0.000000 3.652740 0.000000 
#    z -0.103910 0.000000 3.147250 
# 
# 
# High freq. dielectric constant tensor:
#      x y z
#    x 1.721280 0.000000 -0.004140 
#    y 0.000000 1.742840 0.000000 
#    z -0.004140 0.000000 1.697460 
# 
# From -- ./inp_files/74220.got.cif
#   From: 2010.06.25/outbox.cif.g09.slc.cpg/sg10_38_cif.got.tgz:74220.got - 2010.06.27 22:07:45.
