data_PCOD8063236
_publ_section_title
;
Structure prediction by ZEFSAII (Michael W. Deem and Ramdas Pophale) SiO2 
 PCOD8063236
Probable space group: P 2/M
;
_chemical_formula_sum "Si O2"
_cell_formula_units_Z 32
_cell_length_a 15.579536
_cell_length_b 8.697428
_cell_length_c 27.557751
_cell_angle_alpha 90.000000
_cell_angle_beta 152.313858
_cell_angle_gamma 90.000000
_cell_volume 1734.979720
_symmetry_space_group_name_H-M "P 2/M"
_symmetry_group_IT_number 10
_symmetry_cell_setting 'monoclinic'
loop_
_space_group_symop_operation_xyz
x,y,z
-x,y,-z
-x,-y,-z
x,-y,z
loop_
_atom_site_type_symbol
_atom_site_label
_atom_site_fract_x
_atom_site_fract_y
_atom_site_fract_z
Si Si1 0.579664 0.819184 0.153797
Si Si2 0.705586 0.171246 0.583995
Si Si3 0.183429 0.819401 0.916957
Si Si4 0.295375 0.328883 0.877725
Si Si5 0.192851 0.817803 0.543582
Si Si6 0.196795 0.318137 0.649693
Si Si7 0.818781 0.680510 0.736050
Si Si8 0.419965 0.681685 0.573414
O O1 0.709262 0.772229 0.173457
O O2 0.643783 0.726895 0.232998
O O3 0.598528 0.000000 0.172145
O O4 0.367362 0.768793 0.037880
O O5 0.500000 0.158403 0.500000
O O6 0.821111 0.264235 0.681464
O O7 0.710829 0.263217 0.536043
O O8 0.788685 0.000000 0.618174
O O9 0.173121 0.751000 0.857567
O O10 0.999190 0.756814 0.852005
O O11 0.177378 0.000000 0.909554
O O12 0.219350 0.500000 0.828454
O O13 0.500000 0.338436 0.000000
O O14 0.246328 0.761993 0.623855
O O15 0.357265 0.766130 0.590706
O O16 0.001147 0.741173 0.430244
O O17 0.169944 0.000000 0.531550
O O18 0.189627 0.500000 0.638866
O O19 0.840717 0.500000 0.748320
O O20 0.632633 0.731384 0.670631
O O21 0.400307 0.500000 0.569217
#
# Coordination Sequence:
#
# PCOD8063236 Si02
#       8
#     4   4   4   4   4   4   4   4
#     4  10  20  35  54  78 107 139 176 217 262 310
#     4   9  17  30  48  71 100 134 173 214 255 300
#     4  10  20  33  51  75 107 144 180 218 258 305
#     4   9  17  30  48  71 100 134 173 214 255 300
#     4  11  22  38  59  82 107 134 167 210 261 315
#     4  11  22  38  59  82 107 134 167 210 261 315
#     4  10  20  33  51  75 107 144 180 218 258 305
#     4  10  20  35  54  78 107 139 176 217 262 310
#
# _framework density 18.444019999999998
#
# number of rings (size 3 to 8) (size 9 to 14) (size 15 to 20)
#    0.000    2.000    0.000    5.250    0.000    7.000 
#    0.000    5.000    0.000    0.750    0.000    5.250 
#    0.000    0.000    0.000    0.000    0.000    0.000 
#
# Total GULP energy -396790.902907 kJ/mol
# GULP energy per Si atom -12399.715716 kJ/mol
# Density = 1.840204 g / cm^3
# Si number density = 18.444020 Si / 1000 Ang^3
#
#
#
# Elastic Constant Matrix: (Units=GPa)
#
#
# Indices 1 2 3 4 5 6 
#
# 1 89.5162 26.5458 45.2488 0.0000 4.5329 0.0000
# 2 26.5458 69.1683 16.9855 0.0000 7.1510 0.0000
# 3 45.2488 16.9855 83.4801 0.0000 4.7573 0.0000
# 4 0.0000 0.0000 0.0000 30.6002 0.0000 -0.8075
# 5 4.5329 7.1510 4.7573 0.0000 20.7473 0.0000
# 6 0.0000 0.0000 0.0000 -0.8075 0.0000 31.9260
#
#
#
# Elastic Compliance Matrix: (Units=1/GPa)
#
#
# Indices 1 2 3 4 5 6 
#
# 1 0.016554 -0.004343 -0.008074 0.000000 -0.000269 0.000000
# 2 -0.004343 0.016802 -0.000799 0.000000 -0.004659 0.000000
# 3 -0.008074 -0.000799 0.016619 0.000000 -0.001771 0.000000
# 4 0.000000 0.000000 0.000000 0.032701 0.000000 0.000827
# 5 -0.000269 -0.004659 -0.001771 0.000000 0.050270 0.000000
# 6 0.000000 0.000000 0.000000 0.000827 0.000000 0.031343
#
#
# Mechanical properties :
#
#
# Convention : Reuss Voigt Hill
#
# Bulk Modulus (GPa) = 42.47531 46.63610 44.55570
# Shear Modulus (GPa) = 25.18030 26.88033 26.03032
#
# Velocity S-wave (km/s) = 3.69891 3.82173 3.76082
# Velocity P-wave (km/s) = 6.42821 6.69435 6.56263
#
# Compressibility (1/GPa) = 0.02354309
#
# Stress axis : x y z
#
# Youngs Moduli (GPa) = 60.40960 59.51639 60.17330
#
# Poissons Ratio (x) = 0.25846 0.48582
# Poissons Ratio (y) = 0.26234 0.04810
# Poissons Ratio (z) = 0.48773 0.04757
#
# Static dielectric constant tensor:
#      x y z
#    x 3.315650 0.000000 0.099340 
#    y 0.000000 3.573200 0.000000 
#    z 0.099340 0.000000 3.427640 
# 
# 
# High freq. dielectric constant tensor:
#      x y z
#    x 1.694630 0.000000 0.009620 
#    y 0.000000 1.735000 0.000000 
#    z 0.009620 0.000000 1.707070 
# 
# From -- ./inp_files/93135.got.cif
#   From: 2010.06.25/outbox.cif.g09.slc.cpg/sg10_47_cif.got.tgz:93135.got - 2010.06.27 22:07:45.
