data_PCOD8063293
_publ_section_title
;
Structure prediction by ZEFSAII (Michael W. Deem and Ramdas Pophale) SiO2 
 PCOD8063293
Probable space group: P 2/M
;
_chemical_formula_sum "Si O2"
_cell_formula_units_Z 28
_cell_length_a 13.255620
_cell_length_b 10.522422
_cell_length_c 10.639407
_cell_angle_alpha 90.000000
_cell_angle_beta 79.299934
_cell_angle_gamma 90.000000
_cell_volume 1458.194664
_symmetry_space_group_name_H-M "P 2/M"
_symmetry_group_IT_number 10
_symmetry_cell_setting 'monoclinic'
loop_
_space_group_symop_operation_xyz
x,y,z
-x,y,-z
-x,-y,-z
x,-y,z
loop_
_atom_site_type_symbol
_atom_site_label
_atom_site_fract_x
_atom_site_fract_y
_atom_site_fract_z
Si Si1 0.970455 0.360066 0.317360
Si Si2 0.719103 0.142694 0.242001
Si Si3 0.703894 0.853945 0.729105
Si Si4 0.811480 0.638771 0.837279
Si Si5 0.892871 0.283224 0.072621
Si Si6 0.845229 0.141911 0.459303
Si Si7 0.503452 0.151526 0.357871
O O1 0.948580 0.500000 0.381056
O O2 0.914265 0.360087 0.194986
O O3 0.931456 0.249660 0.419734
O O4 0.091125 0.337018 0.274806
O O5 0.801660 0.185706 0.120546
O O6 0.758563 0.158905 0.374482
O O7 0.605863 0.208014 0.265171
O O8 0.699250 0.000000 0.209131
O O9 0.731974 0.754818 0.833855
O O10 0.791903 0.842386 0.604888
O O11 0.595775 0.807051 0.698264
O O12 0.698068 0.000000 0.780699
O O13 0.762384 0.500000 0.817263
O O14 0.850204 0.628379 0.971880
O O15 0.000000 0.216958 0.000000
O O16 0.894946 0.000000 0.435764
O O17 0.500000 0.207725 0.500000
O O18 0.508007 0.000000 0.365868
#
# Coordination Sequence:
#
# PCOD8063293 Si02
#       7
#     4   4   4   4   4   4   4
#     4   9  18  33  54  76  97 131 179 220 254 304
#     4   9  16  28  51  81 106 130 168 217 264 305
#     4  10  20  33  52  77 105 137 172 210 258 311
#     4  10  21  36  52  71 102 142 177 212 257 307
#     4   9  18  33  53  75  99 133 178 219 254 300
#     4   9  17  30  49  77 107 132 163 211 266 312
#     4   9  15  29  54  79 102 133 173 214 255 305
#
# _framework density 19.201827000000002
#
# number of rings (size 3 to 8) (size 9 to 14) (size 15 to 20)
#    0.000    2.714    1.429    0.429    0.000    4.286 
#    0.000    6.429    0.000    8.143    0.000    0.000 
#    0.000    0.000    0.000    0.000    0.000    0.000 
#
# Total GULP energy -346883.391757 kJ/mol
# GULP energy per Si atom -12388.692563 kJ/mol
# Density = 1.915812 g / cm^3
# Si number density = 19.201827 Si / 1000 Ang^3
#
#
#
# Elastic Constant Matrix: (Units=GPa)
#
#
# Indices 1 2 3 4 5 6 
#
# 1 99.4759 44.3511 26.0065 0.0000 -4.5089 0.0000
# 2 44.3511 85.7855 17.1636 0.0000 4.2487 0.0000
# 3 26.0065 17.1636 48.9123 0.0000 -4.3237 0.0000
# 4 0.0000 0.0000 0.0000 -27.1217 0.0000 10.7902
# 5 -4.5089 4.2487 -4.3237 0.0000 26.5575 0.0000
# 6 0.0000 0.0000 0.0000 10.7902 0.0000 12.9136
#
#
#
# Elastic Compliance Matrix: (Units=1/GPa)
#
#
# Indices 1 2 3 4 5 6 
#
# 1 0.014448 -0.006573 -0.005139 0.000000 0.002668 0.000000
# 2 -0.006573 0.015731 -0.002380 0.000000 -0.004020 0.000000
# 3 -0.005139 -0.002380 0.024319 0.000000 0.003467 0.000000
# 4 0.000000 0.000000 0.000000 -0.027672 0.000000 0.023122
# 5 0.002668 -0.004020 0.003467 0.000000 0.039315 0.000000
# 6 0.000000 0.000000 0.000000 0.023122 0.000000 0.058118
#
#
# Mechanical properties :
#
#
# Convention : Reuss Voigt Hill
#
# Bulk Modulus (GPa) = 38.00616 45.46845 41.73730
# Shear Modulus (GPa) = 31.01436 12.24671 21.63054
#
# Velocity S-wave (km/s) = 4.02329 2.52819 3.35995
# Velocity P-wave (km/s) = 6.43571 5.67917 6.06924
#
# Compressibility (1/GPa) = 0.02631153
#
# Stress axis : x y z
#
# Youngs Moduli (GPa) = 69.21370 63.56956 41.11978
#
# Poissons Ratio (x) = 0.41787 0.21133
# Poissons Ratio (y) = 0.45497 0.09788
# Poissons Ratio (z) = 0.35572 0.15131
#
# Static dielectric constant tensor:
#      x y z
#    x 3.664040 0.000000 -0.157150 
#    y 0.000000 3.307800 0.000000 
#    z -0.157150 0.000000 3.444590 
# 
# 
# High freq. dielectric constant tensor:
#      x y z
#    x 1.744290 0.000000 0.002320 
#    y 0.000000 1.716370 0.000000 
#    z 0.002320 0.000000 1.736720 
# 
# From -- ./inp_files/45996.got.cif
#   From: 2010.06.25/outbox.cif.g09.slc.cpg/sg10_23_cif.got.tgz:45996.got - 2010.06.27 22:07:45.
