data_PCOD8063881
_publ_section_title
;
Structure prediction by ZEFSAII (Michael W. Deem and Ramdas Pophale) SiO2 
 PCOD8063881
Probable space group: P 2/M
;
_chemical_formula_sum "Si O2"
_cell_formula_units_Z 24
_cell_length_a 9.897494
_cell_length_b 9.115810
_cell_length_c 29.284361
_cell_angle_alpha 90.000000
_cell_angle_beta 26.821547
_cell_angle_gamma 90.000000
_cell_volume 1192.169593
_symmetry_space_group_name_H-M "P 2/M"
_symmetry_group_IT_number 10
_symmetry_cell_setting 'monoclinic'
loop_
_space_group_symop_operation_xyz
x,y,z
-x,y,-z
-x,-y,-z
x,-y,z
loop_
_atom_site_type_symbol
_atom_site_label
_atom_site_fract_x
_atom_site_fract_y
_atom_site_fract_z
Si Si1 0.336743 0.670867 0.192549
Si Si2 0.273088 0.330034 0.358911
Si Si3 0.246196 0.327863 0.854277
Si Si4 0.251763 0.173091 0.611256
Si Si5 0.604230 0.325504 0.018236
Si Si6 0.617641 0.670481 0.570872
O O1 0.254330 0.500000 0.220446
O O2 0.652673 0.700862 0.123768
O O3 0.374300 0.719865 0.128196
O O4 0.075844 0.758165 0.297774
O O5 0.233244 0.500000 0.359883
O O6 0.496212 0.255892 0.255366
O O7 0.416075 0.308369 0.365224
O O8 0.937949 0.264098 0.457416
O O9 0.224842 0.500000 0.850864
O O10 0.926531 0.259011 0.936341
O O11 0.500000 0.228376 0.500000
O O12 0.356896 0.231276 0.628563
O O13 0.220905 0.000000 0.619938
O O14 0.621616 0.500000 0.010282
O O15 0.500000 0.262826 0.000000
O O16 0.576810 0.500000 0.569762
#
# Coordination Sequence:
#
# PCOD8063881 Si02
#       6
#     4   4   4   4   4   4
#     4  10  20  34  56  83 108 143 185 223 263 316
#     4   8  15  27  48  79 111 140 171 219 272 315
#     4   9  16  28  49  78 114 143 172 216 268 320
#     4  11  24  38  52  74 108 146 181 222 273 322
#     4   9  18  30  49  83 118 142 171 220 277 320
#     4   9  17  31  52  79 107 138 181 223 265 317
#
# _framework density 20.131366
#
# number of rings (size 3 to 8) (size 9 to 14) (size 15 to 20)
#    0.000    2.667    0.000    3.000    2.333    4.667 
#    0.000    1.667    0.000    3.500    0.000    0.000 
#    0.000    0.000    0.000    0.000    0.000    0.000 
#
# Total GULP energy -297414.830858 kJ/mol
# GULP energy per Si atom -12392.284619 kJ/mol
# Density = 2.008555 g / cm^3
# Si number density = 20.131366 Si / 1000 Ang^3
#
#
#
# Elastic Constant Matrix: (Units=GPa)
#
#
# Indices 1 2 3 4 5 6 
#
# 1 113.1381 23.5561 53.0111 0.0000 -4.8090 0.0000
# 2 23.5561 30.3514 24.3937 0.0000 -2.1529 0.0000
# 3 53.0111 24.3937 105.8465 0.0000 2.6236 0.0000
# 4 0.0000 0.0000 0.0000 13.5298 0.0000 1.9751
# 5 -4.8090 -2.1529 2.6236 0.0000 35.1697 0.0000
# 6 0.0000 0.0000 0.0000 1.9751 0.0000 3.2294
#
#
#
# Elastic Compliance Matrix: (Units=1/GPa)
#
#
# Indices 1 2 3 4 5 6 
#
# 1 0.012390 -0.005488 -0.004983 0.000000 0.001730 0.000000
# 2 -0.005488 0.043226 -0.007274 0.000000 0.002438 0.000000
# 3 -0.004983 -0.007274 0.013673 0.000000 -0.002147 0.000000
# 4 0.000000 0.000000 0.000000 0.081157 0.000000 -0.049636
# 5 0.001730 0.002438 -0.002147 0.000000 0.028980 0.000000
# 6 0.000000 0.000000 0.000000 -0.049636 0.000000 0.340008
#
#
# Mechanical properties :
#
#
# Convention : Reuss Voigt Hill
#
# Bulk Modulus (GPa) = 29.58733 50.13974 39.86354
# Shear Modulus (GPa) = 8.83096 20.27745 14.55421
#
# Velocity S-wave (km/s) = 2.09671 3.17717 2.69171
# Velocity P-wave (km/s) = 4.53769 6.19835 5.43186
#
# Compressibility (1/GPa) = 0.03379826
#
# Stress axis : x y z
#
# Youngs Moduli (GPa) = 80.71101 23.13437 73.13692
#
# Poissons Ratio (x) = 0.12696 0.36446
# Poissons Ratio (y) = 0.44295 0.53198
# Poissons Ratio (z) = 0.40221 0.16827
#
# Static dielectric constant tensor:
#      x y z
#    x 3.798560 0.000000 -0.008800 
#    y 0.000000 2.910170 0.000000 
#    z -0.008800 0.000000 4.015700 
# 
# 
# High freq. dielectric constant tensor:
#      x y z
#    x 1.799960 0.000000 0.000030 
#    y 0.000000 1.702120 0.000000 
#    z 0.000030 0.000000 1.796140 
# 
# From -- ./inp_files/92205.got.cif
#   From: 2010.06.25/outbox.cif.g09.slc.cpg/sg10_47_cif.got.tgz:92205.got - 2010.06.27 22:07:45.
