data_PCOD8063401
_publ_section_title
;
Structure prediction by ZEFSAII (Michael W. Deem and Ramdas Pophale) SiO2 
 PCOD8063401
Probable space group: P 2/M
;
_chemical_formula_sum "Si O2"
_cell_formula_units_Z 32
_cell_length_a 12.679738
_cell_length_b 10.307744
_cell_length_c 23.318580
_cell_angle_alpha 90.000000
_cell_angle_beta 32.721640
_cell_angle_gamma 90.000000
_cell_volume 1647.473330
_symmetry_space_group_name_H-M "P 2/M"
_symmetry_group_IT_number 10
_symmetry_cell_setting 'monoclinic'
loop_
_space_group_symop_operation_xyz
x,y,z
-x,y,-z
-x,-y,-z
x,-y,z
loop_
_atom_site_type_symbol
_atom_site_label
_atom_site_fract_x
_atom_site_fract_y
_atom_site_fract_z
Si Si1 0.704728 0.352073 0.276024
Si Si2 0.929330 0.345428 0.822679
Si Si3 0.228689 0.858728 0.397060
Si Si4 0.086286 0.648640 0.298881
Si Si5 0.721561 0.350214 0.535894
Si Si6 0.368098 0.855964 0.005520
Si Si7 0.780560 0.346364 0.115395
Si Si8 0.557263 0.769613 0.807013
O O1 0.758299 0.500000 0.239790
O O2 0.485997 0.337783 0.401986
O O3 0.730962 0.286629 0.201098
O O4 0.855033 0.302848 0.255331
O O5 0.885292 0.500000 0.849240
O O6 0.902335 0.293126 0.770234
O O7 0.785070 0.262059 0.928509
O O8 0.314293 0.736513 0.391654
O O9 0.323187 0.860430 0.290920
O O10 0.000000 0.837271 0.500000
O O11 0.275603 0.000000 0.403670
O O12 0.031971 0.500000 0.316219
O O13 0.288029 0.662569 0.240772
O O14 0.899738 0.709531 0.417691
O O15 0.759982 0.500000 0.536953
O O16 0.272036 0.000000 0.054663
O O17 0.500000 0.827851 0.000000
O O18 0.493856 0.855480 0.889996
O O19 0.759334 0.500000 0.123163
O O20 0.630872 0.292326 0.136775
O O21 0.000000 0.301783 0.000000
#
# Coordination Sequence:
#
# PCOD8063401 Si02
#       8
#     4   4   4   4   4   4   4   4
#     4   9  18  34  58  84 117 159 194 232 287 348
#     4  10  21  40  62  87 119 153 198 245 289 344
#     4  11  23  38  58  87 120 156 195 239 295 351
#     4  10  21  34  57  94 120 147 192 247 296 340
#     4  10  20  37  59  88 122 154 193 238 293 351
#     4  11  24  41  60  85 117 155 195 239 297 354
#     4  10  20  33  54  86 120 155 194 238 293 349
#     4  12  21  37  60  85 116 156 193 244 289 355
#
# _framework density 19.423683
#
# number of rings (size 3 to 8) (size 9 to 14) (size 15 to 20)
#    0.000    1.625    3.750    1.500    0.000    3.500 
#    0.000    3.750    0.000    1.500    0.000    1.750 
#    0.000    0.000    0.000    0.000    0.000    0.000 
#
# Total GULP energy -396574.811533 kJ/mol
# GULP energy per Si atom -12392.962860 kJ/mol
# Density = 1.937947 g / cm^3
# Si number density = 19.423683 Si / 1000 Ang^3
#
#
#
# Elastic Constant Matrix: (Units=GPa)
#
#
# Indices 1 2 3 4 5 6 
#
# 1 113.5660 28.8846 57.5014 0.0000 -13.9815 0.0000
# 2 28.8846 74.7764 34.6012 0.0000 -4.7107 0.0000
# 3 57.5014 34.6012 125.3993 0.0000 -9.7140 0.0000
# 4 0.0000 0.0000 0.0000 8.0154 0.0000 1.0657
# 5 -13.9815 -4.7107 -9.7140 0.0000 35.5582 0.0000
# 6 0.0000 0.0000 0.0000 1.0657 0.0000 11.2171
#
#
#
# Elastic Compliance Matrix: (Units=1/GPa)
#
#
# Indices 1 2 3 4 5 6 
#
# 1 0.012165 -0.002328 -0.004688 0.000000 0.003194 0.000000
# 2 -0.002328 0.015804 -0.003271 0.000000 0.000285 0.000000
# 3 -0.004688 -0.003271 0.011085 0.000000 0.000752 0.000000
# 4 0.000000 0.000000 0.000000 0.126357 0.000000 -0.012005
# 5 0.003194 0.000285 0.000752 0.000000 0.029622 0.000000
# 6 0.000000 0.000000 0.000000 -0.012005 0.000000 0.090290
#
#
# Mechanical properties :
#
#
# Convention : Reuss Voigt Hill
#
# Bulk Modulus (GPa) = 54.11675 61.74625 57.93150
# Shear Modulus (GPa) = 16.02269 23.80842 19.91556
#
# Velocity S-wave (km/s) = 2.87523 3.50486 3.20554
# Velocity P-wave (km/s) = 6.24054 6.94528 6.60232
#
# Compressibility (1/GPa) = 0.01847857
#
# Stress axis : x y z
#
# Youngs Moduli (GPa) = 82.20563 63.27437 90.21143
#
# Poissons Ratio (x) = 0.14733 0.42293
# Poissons Ratio (y) = 0.19141 0.29509
# Poissons Ratio (z) = 0.38539 0.20698
#
# Static dielectric constant tensor:
#      x y z
#    x 3.637860 0.000000 0.045920 
#    y 0.000000 3.243040 0.000000 
#    z 0.045920 0.000000 3.705210 
# 
# 
# High freq. dielectric constant tensor:
#      x y z
#    x 1.754530 0.000000 -0.001330 
#    y 0.000000 1.723100 0.000000 
#    z -0.001330 0.000000 1.769970 
# 
# From -- ./inp_files/88915.got.cif
#   From: 2010.06.25/outbox.cif.g09.slc.cpg/sg10_45_cif.got.tgz:88915.got - 2010.06.27 22:07:45.
