data_PCOD8063057
_publ_section_title
;
Structure prediction by ZEFSAII (Michael W. Deem and Ramdas Pophale) SiO2 
 PCOD8063057
Probable space group: P 2/M
;
_chemical_formula_sum "Si O2"
_cell_formula_units_Z 24
_cell_length_a 15.533938
_cell_length_b 15.053853
_cell_length_c 9.960066
_cell_angle_alpha 90.000000
_cell_angle_beta 145.312629
_cell_angle_gamma 90.000000
_cell_volume 1325.496968
_symmetry_space_group_name_H-M "P 2/M"
_symmetry_group_IT_number 10
_symmetry_cell_setting 'monoclinic'
loop_
_space_group_symop_operation_xyz
x,y,z
-x,y,-z
-x,-y,-z
x,-y,z
loop_
_atom_site_type_symbol
_atom_site_label
_atom_site_fract_x
_atom_site_fract_y
_atom_site_fract_z
Si Si1 0.176827 0.901276 0.875371
Si Si2 0.168834 0.250815 0.059277
Si Si3 0.187455 0.251515 0.392000
Si Si4 0.422881 0.603146 0.760208
Si Si5 0.817361 0.098976 0.417662
Si Si6 0.623647 0.400268 0.772698
O O1 0.233692 0.874318 0.798919
O O2 0.997043 0.901531 0.651699
O O3 0.237075 0.000000 0.988683
O O4 0.237129 0.831290 0.061843
O O5 0.220890 0.233908 0.278505
O O6 0.234242 0.340960 0.083057
O O7 0.990386 0.262875 0.814164
O O8 0.270002 0.340416 0.547854
O O9 0.248585 0.168235 0.558133
O O10 0.377719 0.500000 0.683179
O O11 0.546770 0.633387 0.810654
O O12 0.500000 0.622077 0.000000
O O13 0.757009 0.000000 0.375888
O O14 0.500000 0.394580 0.500000
O O15 0.685988 0.500000 0.869524
#
# Coordination Sequence:
#
# PCOD8063057 Si02
#       6
#     4   4   4   4   4   4
#     4   8  15  29  49  74 104 138 173 209 254 308
#     4  10  20  32  53  83 108 134 172 218 261 301
#     4  10  20  33  52  82 110 133 171 221 262 296
#     4  10  22  39  56  75 103 140 177 212 258 315
#     4   8  15  29  49  73 104 140 173 207 254 309
#     4  10  20  37  56  74 102 142 179 206 251 321
#
# _framework density 18.106415999999999
#
# number of rings (size 3 to 8) (size 9 to 14) (size 15 to 20)
#    0.000    2.667    1.667    1.000    2.333    1.333 
#    0.000    5.000    0.000    5.000    0.000    0.000 
#    0.000    0.000    0.000    0.000    0.000    0.000 
#
# Total GULP energy -297528.961041 kJ/mol
# GULP energy per Si atom -12397.040043 kJ/mol
# Density = 1.806520 g / cm^3
# Si number density = 18.106416 Si / 1000 Ang^3
#
#
#
# Elastic Constant Matrix: (Units=GPa)
#
#
# Indices 1 2 3 4 5 6 
#
# 1 102.1161 66.3625 40.2597 0.0000 -28.6319 0.0000
# 2 66.3625 126.0866 48.5076 0.0000 -13.5569 0.0000
# 3 40.2597 48.5076 62.4787 0.0000 -21.4214 0.0000
# 4 0.0000 0.0000 0.0000 23.2841 0.0000 -14.5546
# 5 -28.6319 -13.5569 -21.4214 0.0000 23.6148 0.0000
# 6 0.0000 0.0000 0.0000 -14.5546 0.0000 27.8567
#
#
#
# Elastic Compliance Matrix: (Units=1/GPa)
#
#
# Indices 1 2 3 4 5 6 
#
# 1 0.021598 -0.009320 0.000671 0.000000 0.021445 0.000000
# 2 -0.009320 0.015405 -0.009865 0.000000 -0.011405 0.000000
# 3 0.000671 -0.009865 0.031306 0.000000 0.023549 0.000000
# 4 0.000000 0.000000 0.000000 0.063777 0.000000 0.033322
# 5 0.021445 -0.011405 0.023549 0.000000 0.083162 0.000000
# 6 0.000000 0.000000 0.000000 0.033322 0.000000 0.053308
#
#
# Mechanical properties :
#
#
# Convention : Reuss Voigt Hill
#
# Bulk Modulus (GPa) = 31.96779 66.77123 49.36951
# Shear Modulus (GPa) = 15.82223 23.98789 19.90506
#
# Velocity S-wave (km/s) = 2.95930 3.64377 3.31922
# Velocity P-wave (km/s) = 5.41945 7.39323 6.48191
#
# Compressibility (1/GPa) = 0.03128149
#
# Stress axis : x y z
#
# Youngs Moduli (GPa) = 46.30122 64.91194 31.94273
#
# Poissons Ratio (x) = 0.60498 -0.02145
# Poissons Ratio (y) = 0.43153 0.31513
# Poissons Ratio (z) = -0.03109 0.64038
#
# Static dielectric constant tensor:
#      x y z
#    x 3.357960 0.000000 -0.391120 
#    y 0.000000 3.613000 0.000000 
#    z -0.391120 0.000000 3.153140 
# 
# 
# High freq. dielectric constant tensor:
#      x y z
#    x 1.697650 0.000000 -0.027620 
#    y 0.000000 1.707150 0.000000 
#    z -0.027620 0.000000 1.678850 
# 
# From -- ./inp_files/29271.got.cif
#   From: 2010.06.25/outbox.cif.g09.slc.cpg/sg10_15_cif.got.tgz:29271.got - 2010.06.27 22:07:45.
