data_PCOD8063624
_publ_section_title
;
Structure prediction by ZEFSAII (Michael W. Deem and Ramdas Pophale) SiO2 
 PCOD8063624
Probable space group: P 2/M
;
_chemical_formula_sum "Si O2"
_cell_formula_units_Z 28
_cell_length_a 17.807538
_cell_length_b 8.832711
_cell_length_c 20.258281
_cell_angle_alpha 90.000000
_cell_angle_beta 28.772942
_cell_angle_gamma 90.000000
_cell_volume 1533.741786
_symmetry_space_group_name_H-M "P 2/M"
_symmetry_group_IT_number 10
_symmetry_cell_setting 'monoclinic'
loop_
_space_group_symop_operation_xyz
x,y,z
-x,y,-z
-x,-y,-z
x,-y,z
loop_
_atom_site_type_symbol
_atom_site_label
_atom_site_fract_x
_atom_site_fract_y
_atom_site_fract_z
Si Si1 0.262926 0.822905 0.861968
Si Si2 0.148545 0.675406 0.145150
Si Si3 0.665635 0.823029 0.342598
Si Si4 0.233166 0.320171 0.353640
Si Si5 0.977359 0.320191 0.148957
Si Si6 0.447169 0.676598 0.834920
Si Si7 0.916629 0.680416 0.661998
O O1 0.326252 0.782742 0.740757
O O2 0.394856 0.764367 0.810041
O O3 0.238322 0.000000 0.890569
O O4 0.094765 0.744998 0.002998
O O5 0.109820 0.500000 0.182622
O O6 0.122951 0.753571 0.236226
O O7 0.033783 0.741099 0.177166
O O8 0.326133 0.702894 0.987369
O O9 0.500000 0.769508 0.500000
O O10 0.801359 0.733217 0.275303
O O11 0.691634 0.000000 0.335257
O O12 0.245536 0.500000 0.342922
O O13 0.390689 0.253356 0.263849
O O14 0.205301 0.261589 0.299972
O O15 0.090169 0.266455 0.509273
O O16 0.988776 0.500000 0.135930
O O17 0.459261 0.500000 0.807029
O O18 0.907941 0.500000 0.670701
#
# Coordination Sequence:
#
# PCOD8063624 Si02
#       7
#     4   4   4   4   4   4   4
#     4  10  20  35  54  72  94 130 167 196 238 293
#     4   8  15  26  40  62  92 120 148 187 232 278
#     4  10  22  38  53  72  99 129 163 200 237 286
#     4   8  14  23  38  62  92 124 154 188 232 280
#     4  10  20  34  53  77 101 126 160 201 245 289
#     4   9  17  29  45  69  96 119 152 199 242 277
#     4   8  13  23  38  60  92 125 154 185 230 285
#
# _framework density 18.256005999999999
#
# number of rings (size 3 to 8) (size 9 to 14) (size 15 to 20)
#    0.000    3.000    0.000    3.000    0.000    4.857 
#    0.000    4.286    0.000    0.000    0.000   11.000 
#    0.000    0.000    0.000    0.000    0.000    0.000 
#
# Total GULP energy -347075.580789 kJ/mol
# GULP energy per Si atom -12395.556457 kJ/mol
# Density = 1.821445 g / cm^3
# Si number density = 18.256006 Si / 1000 Ang^3
#
#
#
# Elastic Constant Matrix: (Units=GPa)
#
#
# Indices 1 2 3 4 5 6 
#
# 1 111.6982 24.2815 73.9383 0.0000 -11.2043 0.0000
# 2 24.2815 30.9105 24.6860 0.0000 -4.0837 0.0000
# 3 73.9383 24.6860 114.0145 0.0000 -9.8941 0.0000
# 4 0.0000 0.0000 0.0000 17.1598 0.0000 0.6661
# 5 -11.2043 -4.0837 -9.8941 0.0000 39.6666 0.0000
# 6 0.0000 0.0000 0.0000 0.6661 0.0000 9.3895
#
#
#
# Elastic Compliance Matrix: (Units=1/GPa)
#
#
# Indices 1 2 3 4 5 6 
#
# 1 0.016495 -0.005203 -0.009416 0.000000 0.001775 0.000000
# 2 -0.005203 0.040905 -0.005361 0.000000 0.001404 0.000000
# 3 -0.009416 -0.005361 0.016108 0.000000 0.000806 0.000000
# 4 0.000000 0.000000 0.000000 0.058437 0.000000 -0.004146
# 5 0.001775 0.001404 0.000806 0.000000 0.026057 0.000000
# 6 0.000000 0.000000 0.000000 -0.004146 0.000000 0.106797
#
#
# Mechanical properties :
#
#
# Convention : Reuss Voigt Hill
#
# Bulk Modulus (GPa) = 29.80781 55.82607 42.81694
# Shear Modulus (GPa) = 15.82573 22.15767 18.99170
#
# Velocity S-wave (km/s) = 2.94747 3.48763 3.22887
# Velocity P-wave (km/s) = 5.28645 6.84573 6.11599
#
# Compressibility (1/GPa) = 0.03354825
#
# Stress axis : x y z
#
# Youngs Moduli (GPa) = 60.62475 24.44673 62.08076
#
# Poissons Ratio (x) = 0.12719 0.58458
# Poissons Ratio (y) = 0.31541 0.33280
# Poissons Ratio (z) = 0.57087 0.13105
#
# Static dielectric constant tensor:
#      x y z
#    x 3.752630 0.000000 0.041220 
#    y 0.000000 2.928770 0.000000 
#    z 0.041220 0.000000 3.483990 
# 
# 
# High freq. dielectric constant tensor:
#      x y z
#    x 1.721130 0.000000 -0.000330 
#    y 0.000000 1.661010 0.000000 
#    z -0.000330 0.000000 1.706740 
# 
# From -- ./inp_files/85624.got.cif
#   From: 2010.06.25/outbox.cif.g09.slc.cpg/sg10_43_cif.got.tgz:85624.got - 2010.06.27 22:07:45.
