data_PCOD8063487
_publ_section_title
;
Structure prediction by ZEFSAII (Michael W. Deem and Ramdas Pophale) SiO2 
 PCOD8063487
Probable space group: P 2/M
;
_chemical_formula_sum "Si O2"
_cell_formula_units_Z 32
_cell_length_a 15.597366
_cell_length_b 8.954182
_cell_length_c 25.086700
_cell_angle_alpha 90.000000
_cell_angle_beta 30.654404
_cell_angle_gamma 90.000000
_cell_volume 1786.365689
_symmetry_space_group_name_H-M "P 2/M"
_symmetry_group_IT_number 10
_symmetry_cell_setting 'monoclinic'
loop_
_space_group_symop_operation_xyz
x,y,z
-x,y,-z
-x,-y,-z
x,-y,z
loop_
_atom_site_type_symbol
_atom_site_label
_atom_site_fract_x
_atom_site_fract_y
_atom_site_fract_z
Si Si1 0.492738 0.325171 0.763929
Si Si2 0.903083 0.325422 0.200906
Si Si3 0.333160 0.826080 0.055792
Si Si4 0.728529 0.322595 0.018883
Si Si5 0.003373 0.676047 0.731854
Si Si6 0.828963 0.825842 0.566268
Si Si7 0.426157 0.676976 0.679809
Si Si8 0.234137 0.825093 0.521702
O O1 0.522024 0.500000 0.751352
O O2 0.360376 0.271933 0.879117
O O3 0.671650 0.249882 0.679673
O O4 0.420358 0.277837 0.745098
O O5 0.893424 0.500000 0.196375
O O6 0.741991 0.255064 0.257332
O O7 0.898047 0.286496 0.266186
O O8 0.077679 0.266983 0.081986
O O9 0.183086 0.742636 0.166479
O O10 0.288668 0.000000 0.074569
O O11 0.500000 0.798419 0.000000
O O12 0.363425 0.757358 0.981122
O O13 0.719805 0.500000 0.014136
O O14 0.990023 0.500000 0.729681
O O15 0.101264 0.750884 0.631562
O O16 0.829235 0.788888 0.503694
O O17 0.000000 0.760709 0.500000
O O18 0.813802 0.000000 0.585813
O O19 0.443458 0.500000 0.662808
O O20 0.583155 0.753653 0.566569
O O21 0.244725 0.000000 0.527394
#
# Coordination Sequence:
#
# PCOD8063487 Si02
#       8
#     4   4   4   4   4   4   4   4
#     4   9  18  31  50  76 102 127 160 204 246 289
#     4   8  16  31  51  73  98 130 166 203 241 289
#     4  10  21  36  53  74 100 131 167 204 243 291
#     4   9  18  33  51  75 104 131 163 202 247 293
#     4  10  20  35  54  75 100 130 165 205 248 292
#     4   9  19  35  52  69  94 130 167 202 243 293
#     4   9  17  32  52  73  99 132 168 203 243 289
#     4  10  20  34  51  73 101 130 164 206 249 295
#
# _framework density 17.913464999999999
#
# number of rings (size 3 to 8) (size 9 to 14) (size 15 to 20)
#    0.000    2.750    0.000    1.875    0.000    4.250 
#    0.000   11.875    0.000    0.000    0.000    7.000 
#    0.000    0.000    0.000    0.000    0.000    0.000 
#
# Total GULP energy -396805.607375 kJ/mol
# GULP energy per Si atom -12400.175230 kJ/mol
# Density = 1.787269 g / cm^3
# Si number density = 17.913465 Si / 1000 Ang^3
#
#
#
# Elastic Constant Matrix: (Units=GPa)
#
#
# Indices 1 2 3 4 5 6 
#
# 1 99.6333 38.2626 64.0974 0.0000 -19.5305 0.0000
# 2 38.2626 51.1321 47.3497 0.0000 -0.1796 0.0000
# 3 64.0974 47.3497 128.9850 0.0000 6.2560 0.0000
# 4 0.0000 0.0000 0.0000 13.7028 0.0000 3.0555
# 5 -19.5305 -0.1796 6.2560 0.0000 31.4373 0.0000
# 6 0.0000 0.0000 0.0000 3.0555 0.0000 21.6633
#
#
#
# Elastic Compliance Matrix: (Units=1/GPa)
#
#
# Indices 1 2 3 4 5 6 
#
# 1 0.021582 -0.008318 -0.008401 0.000000 0.015032 0.000000
# 2 -0.008318 0.033009 -0.007818 0.000000 -0.003423 0.000000
# 3 -0.008401 -0.007818 0.015199 0.000000 -0.008288 0.000000
# 4 0.000000 0.000000 0.000000 0.075347 0.000000 -0.010628
# 5 0.015032 -0.003423 -0.008288 0.000000 0.042778 0.000000
# 6 0.000000 0.000000 0.000000 -0.010628 0.000000 0.047660
#
#
# Mechanical properties :
#
#
# Convention : Reuss Voigt Hill
#
# Bulk Modulus (GPa) = 48.26823 64.35219 56.31021
# Shear Modulus (GPa) = 17.14938 22.03006 19.58972
#
# Velocity S-wave (km/s) = 3.09746 3.51066 3.31051
# Velocity P-wave (km/s) = 6.30841 7.24119 6.79084
#
# Compressibility (1/GPa) = 0.02071756
#
# Stress axis : x y z
#
# Youngs Moduli (GPa) = 46.33405 30.29446 65.79262
#
# Poissons Ratio (x) = 0.25200 0.55270
# Poissons Ratio (y) = 0.38542 0.51435
# Poissons Ratio (z) = 0.38923 0.23684
#
# Static dielectric constant tensor:
#      x y z
#    x 3.466020 0.000000 -0.087880 
#    y 0.000000 3.219520 0.000000 
#    z -0.087880 0.000000 3.467940 
# 
# 
# High freq. dielectric constant tensor:
#      x y z
#    x 1.692830 0.000000 -0.002700 
#    y 0.000000 1.682590 0.000000 
#    z -0.002700 0.000000 1.700290 
# 
# From -- ./inp_files/66595.got.cif
#   From: 2010.06.25/outbox.cif.g09.slc.cpg/sg10_34_cif.got.tgz:66595.got - 2010.06.27 22:07:45.
