data_PCOD8063027
_publ_section_title
;
Structure prediction by ZEFSAII (Michael W. Deem and Ramdas Pophale) SiO2 
 PCOD8063027
Probable space group: P 2/M
;
_chemical_formula_sum "Si O2"
_cell_formula_units_Z 28
_cell_length_a 17.132563
_cell_length_b 7.585119
_cell_length_c 15.087403
_cell_angle_alpha 90.000000
_cell_angle_beta 42.226220
_cell_angle_gamma 90.000000
_cell_volume 1317.670949
_symmetry_space_group_name_H-M "P 2/M"
_symmetry_group_IT_number 10
_symmetry_cell_setting 'monoclinic'
loop_
_space_group_symop_operation_xyz
x,y,z
-x,y,-z
-x,-y,-z
x,-y,z
loop_
_atom_site_type_symbol
_atom_site_label
_atom_site_fract_x
_atom_site_fract_y
_atom_site_fract_z
Si Si1 0.484912 0.293506 0.915235
Si Si2 0.076828 0.209021 0.178636
Si Si3 0.683589 0.702581 0.091531
Si Si4 0.269320 0.294651 0.351028
Si Si5 0.903497 0.199419 0.642829
Si Si6 0.411721 0.000000 0.704300
Si Si7 0.183058 0.703327 0.613268
Si Si8 0.332623 0.000000 0.570370
O O1 0.474232 0.500000 0.939344
O O2 0.371858 0.228902 0.955595
O O3 0.595043 0.245076 0.760793
O O4 0.500000 0.203949 0.000000
O O5 0.101464 0.288596 0.256295
O O6 0.952543 0.277178 0.249223
O O7 0.081210 0.000000 0.171768
O O8 0.177073 0.283136 0.030390
O O9 0.647260 0.500000 0.141513
O O10 0.634511 0.822988 0.210820
O O11 0.249184 0.500000 0.356174
O O12 0.218485 0.204568 0.305533
O O13 0.206504 0.228016 0.493147
O O14 0.000000 0.295873 0.500000
O O15 0.943804 0.000000 0.625633
O O16 0.362684 0.000000 0.647360
O O17 0.551573 0.000000 0.586860
O O18 0.222308 0.500000 0.591678
O O19 0.258315 0.823934 0.614869
#
# Coordination Sequence:
#
# PCOD8063027 Si02
#       8
#     4   4   4   4   4   2   4   2
#     4   9  18  34  56  86 124 168 214 260 309 361
#     4  11  21  39  63  92 135 179 221 267 317 380
#     4  11  23  43  69  95 133 177 218 266 316 383
#     4  10  20  33  53  83 122 165 216 269 315 374
#     4  10  20  32  50  82 125 174 221 264 310 366
#     4  11  26  49  72 103 126 164 214 253 333 403
#     4  11  23  40  66 100 129 168 216 261 329 391
#     4  11  26  47  75  98 133 160 194 278 333 388
#
# _framework density 21.249616
#
# number of rings (size 3 to 8) (size 9 to 14) (size 15 to 20)
#    0.000    1.571    2.857    2.143    1.000    4.857 
#    1.286    3.214    0.000    1.714    0.000    0.000 
#    0.000    0.000    0.000    0.000    0.000    0.000 
#
# Total GULP energy -347179.759378 kJ/mol
# GULP energy per Si atom -12399.277121 kJ/mol
# Density = 2.120125 g / cm^3
# Si number density = 21.249616 Si / 1000 Ang^3
#
#
#
# Elastic Constant Matrix: (Units=GPa)
#
#
# Indices 1 2 3 4 5 6 
#
# 1 108.8967 34.7201 51.0869 0.0000 -13.1415 0.0000
# 2 34.7201 91.9172 32.8928 0.0000 2.6564 0.0000
# 3 51.0869 32.8928 123.2294 0.0000 -14.3986 0.0000
# 4 0.0000 0.0000 0.0000 19.9513 0.0000 -2.1383
# 5 -13.1415 2.6564 -14.3986 0.0000 34.0125 0.0000
# 6 0.0000 0.0000 0.0000 -2.1383 0.0000 15.1770
#
#
#
# Elastic Compliance Matrix: (Units=1/GPa)
#
#
# Indices 1 2 3 4 5 6 
#
# 1 0.012512 -0.003444 -0.003862 0.000000 0.003468 0.000000
# 2 -0.003444 0.013168 -0.002486 0.000000 -0.003411 0.000000
# 3 -0.003862 -0.002486 0.010760 0.000000 0.003257 0.000000
# 4 0.000000 0.000000 0.000000 0.050891 0.000000 0.007170
# 5 0.003468 -0.003411 0.003257 0.000000 0.032386 0.000000
# 6 0.000000 0.000000 0.000000 0.007170 0.000000 0.066899
#
#
# Mechanical properties :
#
#
# Convention : Reuss Voigt Hill
#
# Bulk Modulus (GPa) = 59.32678 62.38254 60.85466
# Shear Modulus (GPa) = 23.60502 27.51773 25.56137
#
# Velocity S-wave (km/s) = 3.33655 3.60248 3.47206
# Velocity P-wave (km/s) = 6.54393 6.83554 6.69132
#
# Compressibility (1/GPa) = 0.01685579
#
# Stress axis : x y z
#
# Youngs Moduli (GPa) = 79.92591 75.93918 92.93489
#
# Poissons Ratio (x) = 0.26154 0.35895
# Poissons Ratio (y) = 0.27527 0.23101
# Poissons Ratio (z) = 0.30870 0.18877
#
# Static dielectric constant tensor:
#      x y z
#    x 3.711250 0.000000 -0.143440 
#    y 0.000000 3.662080 0.000000 
#    z -0.143440 0.000000 3.882770 
# 
# 
# High freq. dielectric constant tensor:
#      x y z
#    x 1.817170 0.000000 -0.020520 
#    y 0.000000 1.825860 0.000000 
#    z -0.020520 0.000000 1.831510 
# 
# From -- ./inp_files/68660.got.cif
#   From: 2010.06.25/outbox.cif.g09.slc.cpg/sg10_35_cif.got.tgz:68660.got - 2010.06.27 22:07:45.
