data_PCOD8063076
_publ_section_title
;
Structure prediction by ZEFSAII (Michael W. Deem and Ramdas Pophale) SiO2 
 PCOD8063076
Probable space group: P 2/M
;
_chemical_formula_sum "Si O2"
_cell_formula_units_Z 28
_cell_length_a 20.917283
_cell_length_b 9.461891
_cell_length_c 14.563334
_cell_angle_alpha 90.000000
_cell_angle_beta 150.207817
_cell_angle_gamma 90.000000
_cell_volume 1432.102759
_symmetry_space_group_name_H-M "P 2/M"
_symmetry_group_IT_number 10
_symmetry_cell_setting 'monoclinic'
loop_
_space_group_symop_operation_xyz
x,y,z
-x,y,-z
-x,-y,-z
x,-y,z
loop_
_atom_site_type_symbol
_atom_site_label
_atom_site_fract_x
_atom_site_fract_y
_atom_site_fract_z
Si Si1 0.103509 0.342568 0.197740
Si Si2 0.545038 0.159310 0.779154
Si Si3 0.729683 0.159332 0.851834
Si Si4 0.393342 0.167885 0.939823
Si Si5 0.101615 0.167648 0.551637
Si Si6 0.017987 0.166088 0.246989
Si Si7 0.370603 0.341806 0.432177
O O1 0.060504 0.500000 0.175037
O O2 0.231759 0.349246 0.301215
O O3 0.118543 0.244317 0.305814
O O4 0.000000 0.273786 0.000000
O O5 0.681578 0.159587 0.896971
O O6 0.453057 0.262636 0.610341
O O7 0.487739 0.000000 0.709216
O O8 0.563066 0.216568 0.904618
O O9 0.637492 0.259046 0.675143
O O10 0.722570 0.000000 0.802374
O O11 0.875682 0.213643 0.038105
O O12 0.248159 0.227809 0.742851
O O13 0.388563 0.000000 0.926617
O O14 0.500000 0.226820 0.000000
O O15 0.000000 0.228752 0.500000
O O16 0.046083 0.216194 0.384786
O O17 0.107111 0.000000 0.568482
O O18 0.038688 0.000000 0.263160
O O19 0.424384 0.500000 0.481252
#
# Coordination Sequence:
#
# PCOD8063076 Si02
#       7
#     4   4   4   4   4   4   4
#     4  10  21  38  54  73 107 146 180 220 274 323
#     4  10  21  36  56  79 110 144 176 220 273 319
#     4  10  20  35  53  81 114 142 172 218 273 320
#     4   9  18  32  51  77 108 141 178 220 267 321
#     4   9  17  31  52  80 112 141 174 221 273 322
#     4  10  20  32  56  86 109 138 181 223 264 318
#     4  11  23  37  55  78 106 144 186 223 264 322
#
# _framework density 19.551670000000001
#
# number of rings (size 3 to 8) (size 9 to 14) (size 15 to 20)
#    0.000    2.143    1.429    1.714    2.000    7.143 
#    0.000    0.000    0.000    1.714    0.000    0.000 
#    0.000    0.000    0.000    0.000    0.000    0.000 
#
# Total GULP energy -347116.866712 kJ/mol
# GULP energy per Si atom -12397.030954 kJ/mol
# Density = 1.950717 g / cm^3
# Si number density = 19.551670 Si / 1000 Ang^3
#
#
#
# Elastic Constant Matrix: (Units=GPa)
#
#
# Indices 1 2 3 4 5 6 
#
# 1 127.9173 28.7600 42.7357 0.0000 -18.5008 0.0000
# 2 28.7600 54.9142 34.7314 0.0000 -15.5343 0.0000
# 3 42.7357 34.7314 107.8768 0.0000 -13.9191 0.0000
# 4 0.0000 0.0000 0.0000 12.8374 0.0000 7.9598
# 5 -18.5008 -15.5343 -13.9191 0.0000 37.6947 0.0000
# 6 0.0000 0.0000 0.0000 7.9598 0.0000 6.6609
#
#
#
# Elastic Compliance Matrix: (Units=1/GPa)
#
#
# Indices 1 2 3 4 5 6 
#
# 1 0.009682 -0.002641 -0.002638 0.000000 0.002689 0.000000
# 2 -0.002641 0.025517 -0.006278 0.000000 0.006901 0.000000
# 3 -0.002638 -0.006278 0.012427 0.000000 0.000707 0.000000
# 4 0.000000 0.000000 0.000000 0.300720 0.000000 -0.359363
# 5 0.002689 0.006901 0.000707 0.000000 0.030954 0.000000
# 6 0.000000 0.000000 0.000000 -0.359363 0.000000 0.579573
#
#
# Mechanical properties :
#
#
# Convention : Reuss Voigt Hill
#
# Bulk Modulus (GPa) = 40.79946 55.90696 48.35321
# Shear Modulus (GPa) = 5.04970 23.73733 14.39352
#
# Velocity S-wave (km/s) = 1.60884 3.48815 2.71620
# Velocity P-wave (km/s) = 4.93598 6.69921 5.88402
#
# Compressibility (1/GPa) = 0.02451013
#
# Stress axis : x y z
#
# Youngs Moduli (GPa) = 103.28769 39.19019 80.46696
#
# Poissons Ratio (x) = 0.10351 0.21228
# Poissons Ratio (y) = 0.27282 0.50520
# Poissons Ratio (z) = 0.27248 0.24605
#
# Static dielectric constant tensor:
#      x y z
#    x 3.849580 0.000000 0.156210 
#    y 0.000000 3.390530 0.000000 
#    z 0.156210 0.000000 3.656320 
# 
# 
# High freq. dielectric constant tensor:
#      x y z
#    x 1.777310 0.000000 0.004220 
#    y 0.000000 1.717920 0.000000 
#    z 0.004220 0.000000 1.764710 
# 
# From -- ./inp_files/49311.got.cif
#   From: 2010.06.25/outbox.cif.g09.slc.cpg/sg10_25_cif.got.tgz:49311.got - 2010.06.27 22:07:45.
