data_PCOD8063212
_publ_section_title
;
Structure prediction by ZEFSAII (Michael W. Deem and Ramdas Pophale) SiO2 
 PCOD8063212
Probable space group: P 2/M
;
_chemical_formula_sum "Si O2"
_cell_formula_units_Z 32
_cell_length_a 13.570416
_cell_length_b 18.410094
_cell_length_c 15.446255
_cell_angle_alpha 90.000000
_cell_angle_beta 28.532809
_cell_angle_gamma 90.000000
_cell_volume 1843.287095
_symmetry_space_group_name_H-M "P 2/M"
_symmetry_group_IT_number 10
_symmetry_cell_setting 'monoclinic'
loop_
_space_group_symop_operation_xyz
x,y,z
-x,y,-z
-x,-y,-z
x,-y,z
loop_
_atom_site_type_symbol
_atom_site_label
_atom_site_fract_x
_atom_site_fract_y
_atom_site_fract_z
Si Si1 0.320456 0.697573 0.291984
Si Si2 0.886224 0.666463 0.999997
Si Si3 0.280088 0.217432 0.999992
Si Si4 0.843888 0.914668 0.999979
Si Si5 0.703226 0.914617 0.296794
Si Si6 0.933480 0.583129 0.291502
Si Si7 0.516449 0.416873 0.708547
Si Si8 0.904453 0.697563 0.707998
O O1 0.422837 0.623989 0.249541
O O2 0.263011 0.682163 0.236983
O O3 0.122212 0.720925 0.499994
O O4 0.479124 0.763904 0.176944
O O5 0.823616 0.740181 0.000076
O O6 0.039902 0.618497 0.822982
O O7 0.685944 0.618455 0.176944
O O8 0.000000 0.688695 0.000000
O O9 0.256869 0.131568 0.000000
O O10 0.166932 0.236115 0.176963
O O11 0.085291 0.892294 0.818535
O O12 0.818396 0.000000 0.999725
O O13 0.722021 0.892482 0.181690
O O14 0.500000 0.878789 0.500000
O O15 0.681290 0.000000 0.318983
O O16 0.006421 0.500000 0.234131
O O17 0.694144 0.590572 0.500027
O O18 0.078018 0.623966 0.249609
O O19 0.474733 0.500000 0.765883
#
# Coordination Sequence:
#
# PCOD8063212 Si02
#       8
#     4   4   4   4   4   4   4   4
#     4   9  18  33  52  73  96 125 160 199 249 300
#     4  10  21  33  46  64  95 133 165 192 231 283
#     4  10  20  33  51  70 100 126 162 199 243 283
#     4   9  18  31  50  74  99 127 163 201 239 287
#     4   8  15  29  48  71  99 126 153 191 239 284
#     4   9  18  32  49  71  96 121 158 206 245 283
#     4   9  18  32  49  71  96 121 158 206 245 283
#     4   9  18  33  52  73  96 125 160 199 249 300
#
# _framework density 17.360291
#
# number of rings (size 3 to 8) (size 9 to 14) (size 15 to 20)
#    0.000    2.875    0.000    1.500    1.750    3.000 
#    0.000    3.750    0.000    6.000    0.000    1.750 
#    0.000    0.000    0.000    0.000    0.000    0.000 
#
# Total GULP energy -396747.569487 kJ/mol
# GULP energy per Si atom -12398.361546 kJ/mol
# Density = 1.732078 g / cm^3
# Si number density = 17.360291 Si / 1000 Ang^3
#
#
#
# Elastic Constant Matrix: (Units=GPa)
#
#
# Indices 1 2 3 4 5 6 
#
# 1 100.8145 25.7167 37.2329 0.0000 -1.4447 0.0000
# 2 25.7167 68.0423 27.0155 0.0000 0.1269 0.0000
# 3 37.2329 27.0155 98.2658 0.0000 1.1692 0.0000
# 4 0.0000 0.0000 0.0000 18.7554 0.0000 -0.1395
# 5 -1.4447 0.1269 1.1692 0.0000 21.9412 0.0000
# 6 0.0000 0.0000 0.0000 -0.1395 0.0000 20.6908
#
#
#
# Elastic Compliance Matrix: (Units=1/GPa)
#
#
# Indices 1 2 3 4 5 6 
#
# 1 0.012107 -0.003089 -0.003750 0.000000 0.001015 0.000000
# 2 -0.003089 0.017286 -0.003581 0.000000 -0.000113 0.000000
# 3 -0.003750 -0.003581 0.012592 0.000000 -0.000897 0.000000
# 4 0.000000 0.000000 0.000000 0.053321 0.000000 0.000359
# 5 0.001015 -0.000113 -0.000897 0.000000 0.045692 0.000000
# 6 0.000000 0.000000 0.000000 0.000359 0.000000 0.048333
#
#
# Mechanical properties :
#
#
# Convention : Reuss Voigt Hill
#
# Bulk Modulus (GPa) = 47.28990 49.67253 48.48121
# Shear Modulus (GPa) = 23.01833 24.08798 23.55316
#
# Velocity S-wave (km/s) = 3.64527 3.72900 3.68737
# Velocity P-wave (km/s) = 6.70945 6.87135 6.79088
#
# Compressibility (1/GPa) = 0.02114617
#
# Stress axis : x y z
#
# Youngs Moduli (GPa) = 82.59931 57.85034 79.41248
#
# Poissons Ratio (x) = 0.17868 0.29781
# Poissons Ratio (y) = 0.25512 0.28435
# Poissons Ratio (z) = 0.30976 0.20714
#
# Static dielectric constant tensor:
#      x y z
#    x 3.074260 0.000000 0.040810 
#    y 0.000000 2.983300 0.000000 
#    z 0.040810 0.000000 3.657450 
# 
# 
# High freq. dielectric constant tensor:
#      x y z
#    x 1.653820 0.000000 0.002400 
#    y 0.000000 1.647550 0.000000 
#    z 0.002400 0.000000 1.687810 
# 
# From -- ./inp_files/65365.got.cif
#   From: 2010.06.25/outbox.cif.g09.slc.cpg/sg10_33_cif.got.tgz:65365.got - 2010.06.27 22:07:45.
