data_PCOD8063940
_publ_section_title
;
Structure prediction by ZEFSAII (Michael W. Deem and Ramdas Pophale) SiO2 
 PCOD8063940
Probable space group: P 2/M
;
_chemical_formula_sum "Si O2"
_cell_formula_units_Z 24
_cell_length_a 12.067494
_cell_length_b 8.416887
_cell_length_c 11.997346
_cell_angle_alpha 90.000000
_cell_angle_beta 90.287277
_cell_angle_gamma 90.000000
_cell_volume 1218.563915
_symmetry_space_group_name_H-M "P 2/M"
_symmetry_group_IT_number 10
_symmetry_cell_setting 'monoclinic'
loop_
_space_group_symop_operation_xyz
x,y,z
-x,y,-z
-x,-y,-z
x,-y,z
loop_
_atom_site_type_symbol
_atom_site_label
_atom_site_fract_x
_atom_site_fract_y
_atom_site_fract_z
Si Si1 0.411318 0.189312 0.411524
Si Si2 0.335084 0.686681 0.960296
Si Si3 0.964965 0.812175 0.323194
Si Si4 0.089877 0.686144 0.915753
Si Si5 0.829825 0.811823 0.532849
Si Si6 0.538368 0.186340 0.836403
O O1 0.500000 0.257372 0.500000
O O2 0.290877 0.260618 0.442225
O O3 0.445169 0.247650 0.289048
O O4 0.408921 0.000000 0.416688
O O5 0.342454 0.500000 0.936467
O O6 0.211593 0.755966 0.942815
O O7 0.413200 0.776905 0.872748
O O8 0.373974 0.721497 0.086152
O O9 0.945122 0.720736 0.209675
O O10 0.870527 0.758289 0.410658
O O11 0.083825 0.756545 0.371864
O O12 0.961295 0.000000 0.302110
O O13 0.094654 0.500000 0.936148
O O14 0.000000 0.762842 0.000000
O O15 0.825871 0.000000 0.535042
O O16 0.561583 0.000000 0.847456
#
# Coordination Sequence:
#
# PCOD8063940 Si02
#       6
#     4   4   4   4   4   4
#     4   9  18  30  49  79 113 140 164 208 266 316
#     4  10  21  38  57  74 105 147 178 215 272 321
#     4   9  18  33  57  81 104 137 175 219 262 312
#     4  10  23  39  54  76 107 143 181 220 266 318
#     4   8  16  32  51  78 111 139 168 208 269 321
#     4  10  20  34  57  85 108 135 179 223 258 311
#
# _framework density 19.695314
#
# number of rings (size 3 to 8) (size 9 to 14) (size 15 to 20)
#    0.000    2.667    0.000    3.000    4.667    1.667 
#    0.000    1.667    0.000    4.000    0.000    0.000 
#    0.000    0.000    0.000    0.000    0.000    0.000 
#
# Total GULP energy -297580.255185 kJ/mol
# GULP energy per Si atom -12399.177299 kJ/mol
# Density = 1.965049 g / cm^3
# Si number density = 19.695314 Si / 1000 Ang^3
#
#
#
# Elastic Constant Matrix: (Units=GPa)
#
#
# Indices 1 2 3 4 5 6 
#
# 1 186.5457 3.3878 95.3997 0.0000 -2.6325 0.0000
# 2 3.3878 13.1648 -1.6687 0.0000 -1.2046 0.0000
# 3 95.3997 -1.6687 165.2845 0.0000 -5.7004 0.0000
# 4 0.0000 0.0000 0.0000 2.6338 0.0000 5.9111
# 5 -2.6325 -1.2046 -5.7004 0.0000 25.0183 0.0000
# 6 0.0000 0.0000 0.0000 5.9111 0.0000 17.4163
#
#
#
# Elastic Compliance Matrix: (Units=1/GPa)
#
#
# Indices 1 2 3 4 5 6 
#
# 1 0.007693 -0.002578 -0.004478 0.000000 -0.000335 0.000000
# 2 -0.002578 0.077295 0.002406 0.000000 0.003999 0.000000
# 3 -0.004478 0.002406 0.008715 0.000000 0.001630 0.000000
# 4 0.000000 0.000000 0.000000 1.593437 0.000000 -0.540813
# 5 -0.000335 0.003999 0.001630 0.000000 0.040500 0.000000
# 6 0.000000 0.000000 0.000000 -0.540813 0.000000 0.240970
#
#
# Mechanical properties :
#
#
# Convention : Reuss Voigt Hill
#
# Bulk Modulus (GPa) = 11.84783 62.13696 36.99239
# Shear Modulus (GPa) = 2.49247 26.87209 14.68228
#
# Velocity S-wave (km/s) = 1.12617 3.69777 2.73329
# Velocity P-wave (km/s) = 2.77842 7.06038 5.36510
#
# Compressibility (1/GPa) = 0.08440363
#
# Stress axis : x y z
#
# Youngs Moduli (GPa) = 129.99582 12.93753 114.74343
#
# Poissons Ratio (x) = 0.03335 0.51378
# Poissons Ratio (y) = 0.33510 -0.27609
# Poissons Ratio (z) = 0.58207 -0.03113
#
# Static dielectric constant tensor:
#      x y z
#    x 4.106150 0.000000 -0.101650 
#    y 0.000000 3.129180 0.000000 
#    z -0.101650 0.000000 3.630040 
# 
# 
# High freq. dielectric constant tensor:
#      x y z
#    x 1.780100 0.000000 -0.001650 
#    y 0.000000 1.728290 0.000000 
#    z -0.001650 0.000000 1.774340 
# 
# From -- ./inp_files/45177.got.cif
#   From: 2010.06.25/outbox.cif.g09.slc.cpg/sg10_23_cif.got.tgz:45177.got - 2010.06.27 22:07:45.
