data_PCOD8063399
_publ_section_title
;
Structure prediction by ZEFSAII (Michael W. Deem and Ramdas Pophale) SiO2 
 PCOD8063399
Probable space group: P 2/M
;
_chemical_formula_sum "Si O2"
_cell_formula_units_Z 30
_cell_length_a 11.769790
_cell_length_b 9.024074
_cell_length_c 27.631254
_cell_angle_alpha 90.000000
_cell_angle_beta 31.579080
_cell_angle_gamma 90.000000
_cell_volume 1536.857865
_symmetry_space_group_name_H-M "P 2/M"
_symmetry_group_IT_number 10
_symmetry_cell_setting 'monoclinic'
loop_
_space_group_symop_operation_xyz
x,y,z
-x,y,-z
-x,-y,-z
x,-y,z
loop_
_atom_site_type_symbol
_atom_site_label
_atom_site_fract_x
_atom_site_fract_y
_atom_site_fract_z
Si Si1 0.748310 0.664101 0.500000
Si Si2 0.000000 0.745317 0.500000
Si Si3 0.867002 0.675508 1.000000
Si Si4 0.158396 0.176813 0.814819
Si Si5 0.582328 0.176813 0.814819
Si Si6 0.730740 0.327167 0.318535
Si Si7 0.004879 0.327167 0.681465
Si Si8 0.407134 0.164861 0.296433
O O1 0.695800 0.500000 0.500000
O O2 0.885104 0.649986 0.500000
O O3 0.514549 0.740867 0.592657
O O4 0.885176 0.740867 0.407343
O O5 0.814674 0.842336 0.592663
O O6 0.847566 0.500000 0.000000
O O7 0.632178 0.748562 0.086897
O O8 0.000000 0.716224 0.000000
O O9 0.979769 0.748561 0.913102
O O10 0.127228 0.235760 0.771657
O O11 0.394999 0.238782 0.746056
O O12 0.134524 0.000000 0.824703
O O13 0.620774 0.238782 0.746057
O O14 0.786145 0.235760 0.771657
O O15 0.566664 0.000000 0.824703
O O16 0.733286 0.500000 0.303087
O O17 0.830336 0.299791 0.334832
O O18 0.945634 0.500000 0.696913
O O19 0.485414 0.000000 0.257293
#
# Coordination Sequence:
#
# PCOD8063399 Si02
#       8
#     4   2   4   4   4   4   4   4
#     4  10  20  33  54  85 118 158 201 243 295 347
#     4  12  18  34  54  86 124 158 194 240 286 358
#     4  11  23  39  62  93 122 153 191 239 295 362
#     4  11  22  39  61  88 120 156 196 244 297 355
#     4  11  22  39  61  88 120 156 196 244 297 355
#     4  10  21  39  60  83 117 161 206 249 292 345
#     4  10  21  39  60  83 117 161 206 249 292 345
#     4  10  21  34  54  82 121 163 192 231 293 354
#
# _framework density 19.520347000000001
#
# number of rings (size 3 to 8) (size 9 to 14) (size 15 to 20)
#    0.000    1.467    4.000    2.000    0.000    2.667 
#    0.000    1.333    0.000    5.600    0.000    0.000 
#    0.000    0.000    0.000    0.000    0.000    0.000 
#
# Total GULP energy -371925.205186 kJ/mol
# GULP energy per Si atom -12397.506840 kJ/mol
# Density = 1.947592 g / cm^3
# Si number density = 19.520347 Si / 1000 Ang^3
#
#
#
# Elastic Constant Matrix: (Units=GPa)
#
#
# Indices 1 2 3 4 5 6 
#
# 1 116.9335 37.0623 65.1194 0.0000 0.5690 0.0000
# 2 37.0623 79.3533 48.1759 0.0000 0.7430 0.0000
# 3 65.1194 48.1759 169.5375 0.0000 2.9481 0.0000
# 4 0.0000 0.0000 0.0000 23.7408 0.0000 -0.0353
# 5 0.5690 0.7430 2.9481 0.0000 30.3225 0.0000
# 6 0.0000 0.0000 0.0000 -0.0353 0.0000 24.2689
#
#
#
# Elastic Compliance Matrix: (Units=1/GPa)
#
#
# Indices 1 2 3 4 5 6 
#
# 1 0.011538 -0.003261 -0.003509 0.000000 0.000205 0.000000
# 2 -0.003261 0.016151 -0.003337 0.000000 -0.000010 0.000000
# 3 -0.003509 -0.003337 0.008206 0.000000 -0.000650 0.000000
# 4 0.000000 0.000000 0.000000 0.042122 0.000000 0.000061
# 5 0.000205 -0.000010 -0.000650 0.000000 0.033038 0.000000
# 6 0.000000 0.000000 0.000000 0.000061 0.000000 0.041205
#
#
# Mechanical properties :
#
#
# Convention : Reuss Voigt Hill
#
# Bulk Modulus (GPa) = 63.76744 74.05995 68.91369
# Shear Modulus (GPa) = 28.13731 30.03090 29.08411
#
# Velocity S-wave (km/s) = 3.80074 3.92655 3.86416
# Velocity P-wave (km/s) = 7.21103 7.65371 7.43567
#
# Compressibility (1/GPa) = 0.01568198
#
# Stress axis : x y z
#
# Youngs Moduli (GPa) = 86.66676 61.91697 121.86718
#
# Poissons Ratio (x) = 0.20189 0.42762
# Poissons Ratio (y) = 0.28260 0.40664
# Poissons Ratio (z) = 0.30411 0.20660
#
# Static dielectric constant tensor:
#      x y z
#    x 3.522560 0.000000 0.004890 
#    y 0.000000 3.273260 0.000000 
#    z 0.004890 0.000000 3.595720 
# 
# 
# High freq. dielectric constant tensor:
#      x y z
#    x 1.757910 0.000000 0.000800 
#    y 0.000000 1.739020 0.000000 
#    z 0.000800 0.000000 1.769880 
# 
# From -- ./inp_files/80707.got.cif
#   From: 2010.06.25/outbox.cif.g09.slc.cpg/sg10_41_cif.got.tgz:80707.got - 2010.06.27 22:07:45.
