data_PCOD8063630
_publ_section_title
;
Structure prediction by ZEFSAII (Michael W. Deem and Ramdas Pophale) SiO2 
 PCOD8063630
Probable space group: P 2/M
;
_chemical_formula_sum "Si O2"
_cell_formula_units_Z 28
_cell_length_a 33.837597
_cell_length_b 9.598920
_cell_length_c 28.397482
_cell_angle_alpha 90.000000
_cell_angle_beta 170.414538
_cell_angle_gamma 90.000000
_cell_volume 1535.905028
_symmetry_space_group_name_H-M "P 2/M"
_symmetry_group_IT_number 10
_symmetry_cell_setting 'monoclinic'
loop_
_space_group_symop_operation_xyz
x,y,z
-x,y,-z
-x,-y,-z
x,-y,z
loop_
_atom_site_type_symbol
_atom_site_label
_atom_site_fract_x
_atom_site_fract_y
_atom_site_fract_z
Si Si1 0.629600 0.342325 0.698613
Si Si2 0.939034 0.835831 0.214644
Si Si3 0.597483 0.843554 0.415350
Si Si4 0.215466 0.342327 0.284478
Si Si5 0.991822 0.156448 0.809685
Si Si6 0.202852 0.335925 0.702851
Si Si7 0.743943 0.665083 0.341518
O O1 0.500000 0.282220 0.500000
O O2 0.715312 0.500000 0.789339
O O3 0.457991 0.335535 0.541187
O O4 0.855298 0.249652 0.975433
O O5 0.010965 0.788284 0.246739
O O6 0.096124 0.748369 0.434574
O O7 0.978051 0.000000 0.269272
O O8 0.667922 0.788277 0.903689
O O9 0.754628 0.750346 0.634496
O O10 0.721681 0.840021 0.510358
O O11 0.590658 0.000000 0.428323
O O12 0.154832 0.500000 0.228861
O O13 0.000000 0.282216 0.000000
O O14 0.097636 0.000000 0.935295
O O15 0.183725 0.500000 0.683732
O O16 0.168225 0.290477 0.607680
O O17 0.000000 0.270768 0.500000
O O18 0.470955 0.290467 0.031494
O O19 0.775410 0.500000 0.385578
#
# Coordination Sequence:
#
# PCOD8063630 Si02
#       7
#     4   4   4   4   4   4   4
#     4  10  20  34  53  77 104 132 166 215 274 327
#     4  10  21  37  53  74 110 144 174 220 270 312
#     4  10  21  37  55  74  99 137 180 218 262 318
#     4  10  20  34  53  77 104 132 166 215 274 327
#     4  10  21  37  55  74  99 137 180 218 262 318
#     4   8  15  31  54  80 112 142 172 216 260 300
#     4   9  18  32  54  82 106 138 182 216 252 310
#
# _framework density 18.230294000000001
#
# number of rings (size 3 to 8) (size 9 to 14) (size 15 to 20)
#    0.000    2.429    1.429    1.714    0.000    4.571 
#    0.000    1.429    0.000    0.857    0.000    0.000 
#    0.000    0.000    0.000    0.000    0.000    0.000 
#
# Total GULP energy -347148.301840 kJ/mol
# GULP energy per Si atom -12398.153637 kJ/mol
# Density = 1.818880 g / cm^3
# Si number density = 18.230294 Si / 1000 Ang^3
#
#
#
# Elastic Constant Matrix: (Units=GPa)
#
#
# Indices 1 2 3 4 5 6 
#
# 1 127.3588 38.2722 77.8423 0.0000 2.4984 0.0000
# 2 38.2722 55.4306 52.5472 0.0000 -13.3281 0.0000
# 3 77.8423 52.5472 137.4114 0.0000 -11.9124 0.0000
# 4 0.0000 0.0000 0.0000 99.8452 0.0000 -42.0316
# 5 2.4984 -13.3281 -11.9124 0.0000 36.8692 0.0000
# 6 0.0000 0.0000 0.0000 -42.0316 0.0000 54.8524
#
#
#
# Elastic Compliance Matrix: (Units=1/GPa)
#
#
# Indices 1 2 3 4 5 6 
#
# 1 0.012923 -0.004193 -0.006095 0.000000 -0.004361 0.000000
# 2 -0.004193 0.031491 -0.008905 0.000000 0.008791 0.000000
# 3 -0.006095 -0.008905 0.014293 0.000000 0.001812 0.000000
# 4 0.000000 0.000000 0.000000 0.014785 0.000000 0.011329
# 5 -0.004361 0.008791 0.001812 0.000000 0.031182 0.000000
# 6 0.000000 0.000000 0.000000 0.011329 0.000000 0.026912
#
#
# Mechanical properties :
#
#
# Convention : Reuss Voigt Hill
#
# Bulk Modulus (GPa) = 49.21226 73.05825 61.13526
# Shear Modulus (GPa) = 28.28931 48.41597 38.35264
#
# Velocity S-wave (km/s) = 3.94353 5.15903 4.59168
# Velocity P-wave (km/s) = 6.91293 8.69768 7.85615
#
# Compressibility (1/GPa) = 0.02032014
#
# Stress axis : x y z
#
# Youngs Moduli (GPa) = 77.38219 31.75488 69.96516
#
# Poissons Ratio (x) = 0.13315 0.42646
# Poissons Ratio (y) = 0.32446 0.62305
# Poissons Ratio (z) = 0.47167 0.28278
#
# Static dielectric constant tensor:
#      x y z
#    x 3.889310 0.000000 0.417080 
#    y 0.000000 3.198550 0.000000 
#    z 0.417080 0.000000 3.443270 
# 
# 
# High freq. dielectric constant tensor:
#      x y z
#    x 1.718040 0.000000 0.012800 
#    y 0.000000 1.685330 0.000000 
#    z 0.012800 0.000000 1.704320 
# 
# From -- ./inp_files/91450.got.cif
#   From: 2010.06.25/outbox.cif.g09.slc.cpg/sg10_46_cif.got.tgz:91450.got - 2010.06.27 22:07:45.
