data_PCOD8063735
_publ_section_title
;
Structure prediction by ZEFSAII (Michael W. Deem and Ramdas Pophale) SiO2 
 PCOD8063735
Probable space group: P 2/M
;
_chemical_formula_sum "Si O2"
_cell_formula_units_Z 28
_cell_length_a 9.123706
_cell_length_b 9.124637
_cell_length_c 29.064666
_cell_angle_alpha 90.000000
_cell_angle_beta 38.300015
_cell_angle_gamma 90.000000
_cell_volume 1499.647674
_symmetry_space_group_name_H-M "P 2/M"
_symmetry_group_IT_number 10
_symmetry_cell_setting 'monoclinic'
loop_
_space_group_symop_operation_xyz
x,y,z
-x,y,-z
-x,-y,-z
x,-y,z
loop_
_atom_site_type_symbol
_atom_site_label
_atom_site_fract_x
_atom_site_fract_y
_atom_site_fract_z
Si Si1 0.462289 0.829699 0.146434
Si Si2 0.364488 0.327399 0.721661
Si Si3 0.027209 0.327400 0.721660
Si Si4 0.604716 0.832228 0.426580
Si Si5 0.262386 0.167772 0.426579
Si Si6 0.805541 0.829699 0.146434
Si Si7 0.334586 0.174120 1.000000
O O1 0.659386 0.803520 0.136246
O O2 0.566266 0.768414 0.072941
O O3 0.232038 0.738809 0.215612
O O4 0.392649 0.000000 0.159602
O O5 0.389301 0.500000 0.719931
O O6 0.157428 0.282502 0.737029
O O7 0.614578 0.263704 0.643169
O O8 0.310097 0.261191 0.784388
O O9 0.011045 0.500000 0.719931
O O10 0.169576 0.263704 0.643169
O O11 0.500000 0.771376 0.500000
O O12 0.398727 0.816118 0.440509
O O13 0.689274 0.000000 0.410993
O O14 0.000000 0.228624 0.500000
O O15 0.255761 0.000000 0.410993
O O16 0.809342 0.000000 0.159602
O O17 0.069029 0.768414 0.072941
O O18 0.333376 0.000000 1.000000
O O19 0.500000 0.236026 0.000000
#
# Coordination Sequence:
#
# PCOD8063735 Si02
#       7
#     4   4   4   4   4   4   4
#     4  10  20  34  54  80 108 137 172 216 263 310
#     4  10  21  36  53  75 105 141 179 216 257 309
#     4  10  21  36  53  75 105 141 179 216 257 309
#     4   9  18  33  53  76 102 133 171 215 260 307
#     4   9  18  33  53  76 102 133 171 215 260 307
#     4  10  20  34  54  80 108 137 172 216 263 310
#     4   9  17  31  54  81 106 135 172 214 260 309
#
# _framework density 18.671052
#
# number of rings (size 3 to 8) (size 9 to 14) (size 15 to 20)
#    0.000    2.429    0.000    2.143    0.000    6.857 
#    0.000    3.571    0.000    4.286    0.000    0.000 
#    0.000    0.000    0.000    0.000    0.000    0.000 
#
# Total GULP energy -347289.917090 kJ/mol
# GULP energy per Si atom -12403.211325 kJ/mol
# Density = 1.862856 g / cm^3
# Si number density = 18.671052 Si / 1000 Ang^3
#
#
#
# Elastic Constant Matrix: (Units=GPa)
#
#
# Indices 1 2 3 4 5 6 
#
# 1 88.8294 40.0748 76.3055 0.0000 -3.6755 0.0000
# 2 40.0748 59.9941 57.3701 0.0000 -0.8969 0.0000
# 3 76.3055 57.3701 175.8037 0.0000 -0.8354 0.0000
# 4 0.0000 0.0000 0.0000 -8.9401 0.0000 1.6040
# 5 -3.6755 -0.8969 -0.8354 0.0000 41.5494 0.0000
# 6 0.0000 0.0000 0.0000 1.6040 0.0000 21.9860
#
#
#
# Elastic Compliance Matrix: (Units=1/GPa)
#
#
# Indices 1 2 3 4 5 6 
#
# 1 0.020039 -0.007345 -0.006294 0.000000 0.001488 0.000000
# 2 -0.007345 0.026927 -0.005600 0.000000 -0.000181 0.000000
# 3 -0.006294 -0.005600 0.010245 0.000000 -0.000472 0.000000
# 4 0.000000 0.000000 0.000000 -0.110411 0.000000 0.008055
# 5 0.001488 -0.000181 -0.000472 0.000000 0.024186 0.000000
# 6 0.000000 0.000000 0.000000 0.008055 0.000000 0.044896
#
#
# Mechanical properties :
#
#
# Convention : Reuss Voigt Hill
#
# Bulk Modulus (GPa) = 53.37962 74.68090 64.03026
# Shear Modulus (GPa) = 82.50220 20.97751 51.73986
#
# Velocity S-wave (km/s) = 6.65456 3.35555 5.26986
# Velocity P-wave (km/s) = 9.36460 7.42280 8.44967
#
# Compressibility (1/GPa) = 0.01873374
#
# Stress axis : x y z
#
# Youngs Moduli (GPa) = 49.90220 37.13755 97.60762
#
# Poissons Ratio (x) = 0.27278 0.61432
# Poissons Ratio (y) = 0.36653 0.54660
# Poissons Ratio (z) = 0.31407 0.20797
#
# Static dielectric constant tensor:
#      x y z
#    x 3.448290 0.000000 -0.008230 
#    y 0.000000 3.219860 0.000000 
#    z -0.008230 0.000000 3.607010 
# 
# 
# High freq. dielectric constant tensor:
#      x y z
#    x 1.725830 0.000000 -0.000720 
#    y 0.000000 1.701470 0.000000 
#    z -0.000720 0.000000 1.739720 
# 
# From -- ./inp_files/37274.got.cif
#   From: 2010.06.25/outbox.cif.g09.slc.cpg/sg10_19_cif.got.tgz:37274.got - 2010.06.27 22:07:45.
