data_PCOD8063743
_publ_section_title
;
Structure prediction by ZEFSAII (Michael W. Deem and Ramdas Pophale) SiO2 
 PCOD8063743
Probable space group: P 2/M
;
_chemical_formula_sum "Si O2"
_cell_formula_units_Z 24
_cell_length_a 14.348905
_cell_length_b 19.027249
_cell_length_c 7.989300
_cell_angle_alpha 90.000000
_cell_angle_beta 145.102213
_cell_angle_gamma 90.000000
_cell_volume 1247.918476
_symmetry_space_group_name_H-M "P 2/M"
_symmetry_group_IT_number 10
_symmetry_cell_setting 'monoclinic'
loop_
_space_group_symop_operation_xyz
x,y,z
-x,y,-z
-x,-y,-z
x,-y,z
loop_
_atom_site_type_symbol
_atom_site_label
_atom_site_fract_x
_atom_site_fract_y
_atom_site_fract_z
Si Si1 0.652787 0.682571 0.610419
Si Si2 0.816446 0.680715 0.173740
Si Si3 0.305282 0.079793 0.712493
Si Si4 0.317601 0.832809 0.419218
Si Si5 0.549397 0.422559 0.885108
Si Si6 0.301859 0.836101 0.022149
O O1 0.500000 0.709016 0.500000
O O2 0.705891 0.749288 0.576044
O O3 0.601550 0.614778 0.430671
O O4 0.800658 0.662500 0.952614
O O5 0.747043 0.758117 0.108892
O O6 0.000000 0.673241 0.500000
O O7 0.711650 0.623817 0.120337
O O8 0.235376 0.122712 0.448097
O O9 0.230045 0.111473 0.774400
O O10 0.244954 0.000000 0.607435
O O11 0.500000 0.084842 0.000000
O O12 0.507120 0.849572 0.695976
O O13 0.238278 0.851172 0.119082
O O14 0.578405 0.500000 0.847413
O O15 0.500000 0.432798 0.000000
#
# Coordination Sequence:
#
# PCOD8063743 Si02
#       6
#     4   4   4   4   4   4
#     4   9  16  32  53  76 100 137 183 215 262 317
#     4  10  20  34  54  81 107 138 182 223 268 317
#     4   9  18  26  42  75 104 134 171 219 280 317
#     4   9  14  27  48  71  96 133 176 222 260 313
#     4  10  21  35  56  83 107 139 179 216 265 326
#     4   9  16  29  47  69 101 135 175 219 263 318
#
# _framework density 19.232026000000001
#
# number of rings (size 3 to 8) (size 9 to 14) (size 15 to 20)
#    0.000    2.667    5.000    0.000    2.333    4.000 
#    0.000    4.167    0.000    2.500    0.000    4.667 
#    0.000    0.000    0.000    0.000    0.000    0.000 
#
# Total GULP energy -297358.867767 kJ/mol
# GULP energy per Si atom -12389.952824 kJ/mol
# Density = 1.918825 g / cm^3
# Si number density = 19.232026 Si / 1000 Ang^3
#
#
#
# Elastic Constant Matrix: (Units=GPa)
#
#
# Indices 1 2 3 4 5 6 
#
# 1 55.5976 60.1012 40.8606 0.0000 -28.4319 0.0000
# 2 60.1012 165.7718 55.7865 0.0000 -29.1854 0.0000
# 3 40.8606 55.7865 106.5580 0.0000 -19.3049 0.0000
# 4 0.0000 0.0000 0.0000 16.5631 0.0000 -14.5199
# 5 -28.4319 -29.1854 -19.3049 0.0000 24.6681 0.0000
# 6 0.0000 0.0000 0.0000 -14.5199 0.0000 21.2287
#
#
#
# Elastic Compliance Matrix: (Units=1/GPa)
#
#
# Indices 1 2 3 4 5 6 
#
# 1 0.063411 -0.010496 -0.009123 0.000000 0.053529 0.000000
# 2 -0.010496 0.010114 -0.001508 0.000000 -0.001311 0.000000
# 3 -0.009123 -0.001508 0.013335 0.000000 -0.001863 0.000000
# 4 0.000000 0.000000 0.000000 0.150787 0.000000 0.103134
# 5 0.053529 -0.001311 -0.001863 0.000000 0.099226 0.000000
# 6 0.000000 0.000000 0.000000 0.103134 0.000000 0.117647
#
#
# Mechanical properties :
#
#
# Convention : Reuss Voigt Hill
#
# Bulk Modulus (GPa) = 22.41798 71.26934 46.84366
# Shear Modulus (GPa) = 9.77245 23.90391 16.83818
#
# Velocity S-wave (km/s) = 2.25663 3.52934 2.96214
# Velocity P-wave (km/s) = 4.29787 7.33119 6.00908
#
# Compressibility (1/GPa) = 0.04460705
#
# Stress axis : x y z
#
# Youngs Moduli (GPa) = 15.77013 98.86946 74.99227
#
# Poissons Ratio (x) = 1.03769 0.68415
# Poissons Ratio (y) = 0.16552 0.11309
# Poissons Ratio (z) = 0.14387 0.14910
#
# Static dielectric constant tensor:
#      x y z
#    x 3.314020 0.000000 -0.570520 
#    y 0.000000 3.689520 0.000000 
#    z -0.570520 0.000000 3.736130 
# 
# 
# High freq. dielectric constant tensor:
#      x y z
#    x 1.709310 0.000000 -0.039660 
#    y 0.000000 1.748900 0.000000 
#    z -0.039660 0.000000 1.731740 
# 
# From -- ./inp_files/33018.got.cif
#   From: 2010.06.25/outbox.cif.g09.slc.cpg/sg10_17_cif.got.tgz:33018.got - 2010.06.27 22:07:45.
