data_PCOD8063003
_publ_section_title
;
Structure prediction by ZEFSAII (Michael W. Deem and Ramdas Pophale) SiO2 
 PCOD8063003
Probable space group: P 2/M
;
_chemical_formula_sum "Si O2"
_cell_formula_units_Z 28
_cell_length_a 13.933550
_cell_length_b 8.901723
_cell_length_c 16.281584
_cell_angle_alpha 90.000000
_cell_angle_beta 48.249961
_cell_angle_gamma 90.000000
_cell_volume 1506.622589
_symmetry_space_group_name_H-M "P 2/M"
_symmetry_group_IT_number 10
_symmetry_cell_setting 'monoclinic'
loop_
_space_group_symop_operation_xyz
x,y,z
-x,y,-z
-x,-y,-z
x,-y,z
loop_
_atom_site_type_symbol
_atom_site_label
_atom_site_fract_x
_atom_site_fract_y
_atom_site_fract_z
Si Si1 0.942569 0.826125 0.614240
Si Si2 0.500964 0.677580 0.370651
Si Si3 0.464694 0.673317 0.831863
Si Si4 0.975639 0.178502 0.256615
Si Si5 0.707392 0.322307 0.383431
Si Si6 0.667459 0.173964 0.829184
Si Si7 0.228608 0.672396 0.071599
O O1 0.789941 0.801399 0.700414
O O2 0.000000 0.746039 0.500000
O O3 0.004737 0.758445 0.661774
O O4 0.980070 0.000000 0.591365
O O5 0.510815 0.500000 0.362318
O O6 0.511213 0.742506 0.272634
O O7 0.365949 0.724199 0.490262
O O8 0.620672 0.734938 0.356886
O O9 0.509288 0.500000 0.810673
O O10 0.543666 0.767954 0.852578
O O11 0.313764 0.688019 0.940407
O O12 0.841987 0.238101 0.298134
O O13 0.094899 0.239142 0.134451
O O14 0.979329 0.000000 0.250935
O O15 0.730795 0.500000 0.367154
O O16 0.686450 0.263171 0.902440
O O17 0.649567 0.000000 0.862130
O O18 0.196116 0.500000 0.109200
#
# Coordination Sequence:
#
# PCOD8063003 Si02
#       7
#     4   4   4   4   4   4   4
#     4   8  16  30  45  66  99 133 164 197 239 297
#     4   8  17  34  55  79 104 132 170 213 255 303
#     4  10  20  34  53  76 103 135 175 217 252 296
#     4  10  20  33  53  76 103 136 168 211 261 306
#     4   9  17  34  58  78 102 135 168 208 259 312
#     4  10  20  32  50  75 105 140 171 207 256 304
#     4  10  20  35  53  73 101 139 178 213 249 298
#
# _framework density 18.584616
#
# number of rings (size 3 to 8) (size 9 to 14) (size 15 to 20)
#    0.000    2.714    0.000    3.429    2.000    2.857 
#    0.000    2.857    0.000    6.857    0.000    0.000 
#    0.000    0.000    0.000    0.000    0.000    0.000 
#
# Total GULP energy -347119.007418 kJ/mol
# GULP energy per Si atom -12397.107408 kJ/mol
# Density = 1.854232 g / cm^3
# Si number density = 18.584616 Si / 1000 Ang^3
#
#
#
# Elastic Constant Matrix: (Units=GPa)
#
#
# Indices 1 2 3 4 5 6 
#
# 1 94.0219 30.0310 36.9121 0.0000 -20.5769 0.0000
# 2 30.0310 63.9644 26.4918 0.0000 -7.6096 0.0000
# 3 36.9121 26.4918 91.9700 0.0000 -6.6347 0.0000
# 4 0.0000 0.0000 0.0000 17.8269 0.0000 -5.9596
# 5 -20.5769 -7.6096 -6.6347 0.0000 23.7618 0.0000
# 6 0.0000 0.0000 0.0000 -5.9596 0.0000 22.5539
#
#
#
# Elastic Compliance Matrix: (Units=1/GPa)
#
#
# Indices 1 2 3 4 5 6 
#
# 1 0.016308 -0.004457 -0.004435 0.000000 0.011456 0.000000
# 2 -0.004457 0.019420 -0.003710 0.000000 0.001324 0.000000
# 3 -0.004435 -0.003710 0.013633 0.000000 -0.001222 0.000000
# 4 0.000000 0.000000 0.000000 0.061530 0.000000 0.016259
# 5 0.011456 0.001324 -0.001222 0.000000 0.052088 0.000000
# 6 0.000000 0.000000 0.000000 0.016259 0.000000 0.048634
#
#
# Mechanical properties :
#
#
# Convention : Reuss Voigt Hill
#
# Bulk Modulus (GPa) = 41.39307 48.53624 44.96465
# Shear Modulus (GPa) = 20.41907 23.26328 21.84117
#
# Velocity S-wave (km/s) = 3.31827 3.54184 3.43188
# Velocity P-wave (km/s) = 6.08296 6.54975 6.32067
#
# Compressibility (1/GPa) = 0.02415864
#
# Stress axis : x y z
#
# Youngs Moduli (GPa) = 61.32102 51.49320 73.34881
#
# Poissons Ratio (x) = 0.22949 0.32529
# Poissons Ratio (y) = 0.27329 0.27210
# Poissons Ratio (z) = 0.27195 0.19102
#
# Static dielectric constant tensor:
#      x y z
#    x 3.380990 0.000000 0.076110 
#    y 0.000000 3.152470 0.000000 
#    z 0.076110 0.000000 3.746480 
# 
# 
# High freq. dielectric constant tensor:
#      x y z
#    x 1.708750 0.000000 -0.011480 
#    y 0.000000 1.697980 0.000000 
#    z -0.011480 0.000000 1.728100 
# 
# From -- ./inp_files/63659.got.cif
#   From: 2010.06.25/outbox.cif.g09.slc.cpg/sg10_32_cif.got.tgz:63659.got - 2010.06.27 22:07:45.
