data_PCOD8063454
_publ_section_title
;
Structure prediction by ZEFSAII (Michael W. Deem and Ramdas Pophale) SiO2 
 PCOD8063454
Probable space group: P 2/M
;
_chemical_formula_sum "Si O2"
_cell_formula_units_Z 32
_cell_length_a 14.982841
_cell_length_b 8.851517
_cell_length_c 23.283924
_cell_angle_alpha 90.000000
_cell_angle_beta 39.873431
_cell_angle_gamma 90.000000
_cell_volume 1979.655582
_symmetry_space_group_name_H-M "P 2/M"
_symmetry_group_IT_number 10
_symmetry_cell_setting 'monoclinic'
loop_
_space_group_symop_operation_xyz
x,y,z
-x,y,-z
-x,-y,-z
x,-y,z
loop_
_atom_site_type_symbol
_atom_site_label
_atom_site_fract_x
_atom_site_fract_y
_atom_site_fract_z
Si Si1 0.736104 0.323941 0.695802
Si Si2 0.454811 0.679079 0.110275
Si Si3 0.996665 0.821677 0.383047
Si Si4 0.717734 0.824899 0.369403
Si Si5 0.007204 0.321760 0.740118
Si Si6 0.271295 0.674875 0.432348
Si Si7 0.549407 0.175669 0.566552
Si Si8 0.710507 0.679119 0.917999
O O1 0.767869 0.500000 0.691825
O O2 0.605489 0.265546 0.798809
O O3 0.694860 0.294098 0.650706
O O4 0.873056 0.231439 0.643918
O O5 0.457380 0.500000 0.107914
O O6 0.352381 0.739795 0.111003
O O7 0.612850 0.738724 0.019030
O O8 0.997049 0.750329 0.320254
O O9 0.858528 0.775166 0.484961
O O10 0.998866 0.000000 0.375162
O O11 0.857778 0.729702 0.290905
O O12 0.605643 0.777081 0.376584
O O13 0.657156 0.790847 0.462196
O O14 0.754340 0.000000 0.345447
O O15 0.009321 0.500000 0.731042
O O16 0.870830 0.267241 0.843422
O O17 0.236939 0.500000 0.460776
O O18 0.408359 0.723609 0.399940
O O19 0.553765 0.000000 0.580960
O O20 0.705509 0.500000 0.919681
#
# Coordination Sequence:
#
# PCOD8063454 Si02
#       8
#     4   4   4   4   4   4   4   4
#     4  10  20  34  50  68  93 124 160 199 233 267
#     4   8  13  26  46  68  92 120 152 188 231 277
#     4  12  23  33  45  64  95 133 166 191 221 272
#     4   9  18  32  49  69  93 123 155 187 233 283
#     4  11  19  29  48  74  98 122 154 194 234 274
#     4  11  22  33  48  70  94 122 159 200 234 266
#     4   9  18  33  50  67  92 124 156 190 229 280
#     4   8  14  24  45  71  93 118 151 188 230 280
#
# _framework density 16.164428999999998
#
# number of rings (size 3 to 8) (size 9 to 14) (size 15 to 20)
#    0.000    2.250    2.500    3.750    0.000    3.000 
#    0.000    1.250    0.000    2.250    0.000    0.875 
#    0.000    7.000    0.000    0.000    0.000    0.000 
#
# Total GULP energy -396655.539611 kJ/mol
# GULP energy per Si atom -12395.485613 kJ/mol
# Density = 1.612764 g / cm^3
# Si number density = 16.164429 Si / 1000 Ang^3
#
#
#
# Elastic Constant Matrix: (Units=GPa)
#
#
# Indices 1 2 3 4 5 6 
#
# 1 107.7489 40.1578 67.3903 0.0000 -12.8617 0.0000
# 2 40.1578 55.7449 35.3705 0.0000 -7.0943 0.0000
# 3 67.3903 35.3705 109.6038 0.0000 -12.8283 0.0000
# 4 0.0000 0.0000 0.0000 2.0316 0.0000 -3.6994
# 5 -12.8617 -7.0943 -12.8283 0.0000 23.0733 0.0000
# 6 0.0000 0.0000 0.0000 -3.6994 0.0000 24.8510
#
#
#
# Elastic Compliance Matrix: (Units=1/GPa)
#
#
# Indices 1 2 3 4 5 6 
#
# 1 0.017238 -0.006957 -0.008000 0.000000 0.003022 0.000000
# 2 -0.006957 0.025574 -0.003753 0.000000 0.001898 0.000000
# 3 -0.008000 -0.003753 0.015613 0.000000 0.003067 0.000000
# 4 0.000000 0.000000 0.000000 0.675256 0.000000 0.100521
# 5 0.003022 0.001898 0.003067 0.000000 0.047314 0.000000
# 6 0.000000 0.000000 0.000000 0.100521 0.000000 0.055204
#
#
# Mechanical properties :
#
#
# Convention : Reuss Voigt Hill
#
# Bulk Modulus (GPa) = 47.61046 62.10386 54.85716
# Shear Modulus (GPa) = 5.67782 18.66978 12.17380
#
# Velocity S-wave (km/s) = 1.87621 3.40220 2.74729
# Velocity P-wave (km/s) = 5.84905 7.34417 6.63883
#
# Compressibility (1/GPa) = 0.02100379
#
# Stress axis : x y z
#
# Youngs Moduli (GPa) = 58.01126 39.10254 64.05059
#
# Poissons Ratio (x) = 0.27205 0.51240
# Poissons Ratio (y) = 0.40361 0.24038
# Poissons Ratio (z) = 0.46409 0.14675
#
# Static dielectric constant tensor:
#      x y z
#    x 3.055210 0.000000 -0.187830 
#    y 0.000000 2.899970 0.000000 
#    z -0.187830 0.000000 3.386220 
# 
# 
# High freq. dielectric constant tensor:
#      x y z
#    x 1.605790 0.000000 -0.014100 
#    y 0.000000 1.605020 0.000000 
#    z -0.014100 0.000000 1.612690 
# 
# From -- ./inp_files/65984.got.cif
#   From: 2010.06.25/outbox.cif.g09.slc.cpg/sg10_33_cif.got.tgz:65984.got - 2010.06.27 22:07:45.
