data_PCOD8063023
_publ_section_title
;
Structure prediction by ZEFSAII (Michael W. Deem and Ramdas Pophale) SiO2 
 PCOD8063023
Probable space group: P 2/M
;
_chemical_formula_sum "Si O2"
_cell_formula_units_Z 32
_cell_length_a 13.483172
_cell_length_b 9.650842
_cell_length_c 13.988410
_cell_angle_alpha 90.000000
_cell_angle_beta 108.491678
_cell_angle_gamma 90.000000
_cell_volume 1726.248516
_symmetry_space_group_name_H-M "P 2/M"
_symmetry_group_IT_number 10
_symmetry_cell_setting 'monoclinic'
loop_
_space_group_symop_operation_xyz
x,y,z
-x,y,-z
-x,-y,-z
x,-y,z
loop_
_atom_site_type_symbol
_atom_site_label
_atom_site_fract_x
_atom_site_fract_y
_atom_site_fract_z
Si Si1 0.179741 0.848010 0.145626
Si Si2 0.016750 0.157759 0.794649
Si Si3 0.082687 0.160952 0.604633
Si Si4 0.708185 0.657051 0.315908
Si Si5 0.481132 0.661181 0.882989
Si Si6 0.474157 0.347911 0.602626
Si Si7 0.587132 0.845944 0.770603
Si Si8 0.893797 0.344840 0.027316
O O1 0.099879 0.806078 0.205106
O O2 0.293315 0.853140 0.224998
O O3 0.147718 0.000000 0.094696
O O4 0.187623 0.737906 0.062356
O O5 0.020313 0.182897 0.683607
O O6 0.096117 0.263975 0.869822
O O7 0.048545 0.000000 0.830048
O O8 0.191377 0.244297 0.643417
O O9 0.000000 0.215412 0.500000
O O10 0.110833 0.000000 0.594946
O O11 0.748011 0.500000 0.312688
O O12 0.632189 0.698036 0.201368
O O13 0.645888 0.669203 0.398086
O O14 0.503705 0.500000 0.872064
O O15 0.569029 0.752267 0.858155
O O16 0.500000 0.697782 0.000000
O O17 0.500000 0.339995 0.500000
O O18 0.511664 0.500000 0.651872
O O19 0.535003 0.219648 0.663046
O O20 0.542530 0.000000 0.776329
O O21 0.853243 0.500000 0.035825
O O22 0.000000 0.345513 0.000000
#
# Coordination Sequence:
#
# PCOD8063023 Si02
#       8
#     4   4   4   4   4   4   4   4
#     4   9  18  32  49  72 105 140 169 203 254 313
#     4   9  18  34  52  69  98 139 175 209 256 312
#     4  10  22  38  55  76 103 140 184 224 263 309
#     4   9  19  36  57  81 108 138 174 218 267 315
#     4   9  19  37  58  79 108 147 183 215 262 325
#     4   9  19  37  58  78 103 136 171 208 259 322
#     4  10  20  32  50  80 110 134 169 217 262 308
#     4   9  17  29  47  72  98 126 167 215 257 301
#
# _framework density 18.537307999999999
#
# number of rings (size 3 to 8) (size 9 to 14) (size 15 to 20)
#    0.000    2.750    0.000    1.500    0.000    7.750 
#    0.000    3.750    0.000    0.000    0.000    0.000 
#    0.000    0.000    0.000    0.000    0.000    0.000 
#
# Total GULP energy -396430.753704 kJ/mol
# GULP energy per Si atom -12388.461053 kJ/mol
# Density = 1.849512 g / cm^3
# Si number density = 18.537308 Si / 1000 Ang^3
#
#
#
# Elastic Constant Matrix: (Units=GPa)
#
#
# Indices 1 2 3 4 5 6 
#
# 1 87.9730 53.9124 59.6342 0.0000 2.7099 0.0000
# 2 53.9124 110.5926 55.3076 0.0000 1.0091 0.0000
# 3 59.6342 55.3076 113.1809 0.0000 -9.5056 0.0000
# 4 0.0000 0.0000 0.0000 15.0161 0.0000 2.5649
# 5 2.7099 1.0091 -9.5056 0.0000 27.3467 0.0000
# 6 0.0000 0.0000 0.0000 2.5649 0.0000 27.5807
#
#
#
# Elastic Compliance Matrix: (Units=1/GPa)
#
#
# Indices 1 2 3 4 5 6 
#
# 1 0.020914 -0.005873 -0.008555 0.000000 -0.004830 0.000000
# 2 -0.005873 0.013791 -0.003748 0.000000 -0.001230 0.000000
# 3 -0.008555 -0.003748 0.015716 0.000000 0.006449 0.000000
# 4 0.000000 0.000000 0.000000 0.067670 0.000000 -0.006293
# 5 -0.004830 -0.001230 0.006449 0.000000 0.039333 0.000000
# 6 0.000000 0.000000 0.000000 -0.006293 0.000000 0.036843
#
#
# Mechanical properties :
#
#
# Convention : Reuss Voigt Hill
#
# Bulk Modulus (GPa) = 71.07823 72.16165 71.61994
# Shear Modulus (GPa) = 21.24865 23.51485 22.38175
#
# Velocity S-wave (km/s) = 3.38932 3.56549 3.47852
# Velocity P-wave (km/s) = 7.33098 7.48081 7.40628
#
# Compressibility (1/GPa) = 0.01406901
#
# Stress axis : x y z
#
# Youngs Moduli (GPa) = 47.81400 72.51262 63.62805
#
# Poissons Ratio (x) = 0.42585 0.54436
# Poissons Ratio (y) = 0.28080 0.23848
# Poissons Ratio (z) = 0.40907 0.27178
#
# Static dielectric constant tensor:
#      x y z
#    x 3.316310 0.000000 -0.111960 
#    y 0.000000 3.686260 0.000000 
#    z -0.111960 0.000000 3.378730 
# 
# 
# High freq. dielectric constant tensor:
#      x y z
#    x 1.708010 0.000000 -0.007760 
#    y 0.000000 1.727940 0.000000 
#    z -0.007760 0.000000 1.707340 
# 
# From -- ./inp_files/66639.got.cif
#   From: 2010.06.25/outbox.cif.g09.slc.cpg/sg10_34_cif.got.tgz:66639.got - 2010.06.27 22:07:45.
