data_PCOD8063142
_publ_section_title
;
Structure prediction by ZEFSAII (Michael W. Deem and Ramdas Pophale) SiO2 
 PCOD8063142
Probable space group: P 2/M
;
_chemical_formula_sum "Si O2"
_cell_formula_units_Z 32
_cell_length_a 20.658309
_cell_length_b 9.047746
_cell_length_c 21.197465
_cell_angle_alpha 90.000000
_cell_angle_beta 26.177299
_cell_angle_gamma 90.000000
_cell_volume 1747.856173
_symmetry_space_group_name_H-M "P 2/M"
_symmetry_group_IT_number 10
_symmetry_cell_setting 'monoclinic'
loop_
_space_group_symop_operation_xyz
x,y,z
-x,y,-z
-x,-y,-z
x,-y,z
loop_
_atom_site_type_symbol
_atom_site_label
_atom_site_fract_x
_atom_site_fract_y
_atom_site_fract_z
Si Si1 0.346033 0.329726 0.664077
Si Si2 0.225560 0.329100 0.902566
Si Si3 0.869040 0.330370 0.803518
Si Si4 0.707197 0.675875 0.602818
Si Si5 0.031289 0.327498 0.540645
Si Si6 0.878284 0.170799 0.350955
Si Si7 0.080906 0.827804 0.829163
Si Si8 0.384300 0.328519 0.887857
O O1 0.500000 0.270442 0.500000
O O2 0.324663 0.500000 0.662902
O O3 0.342605 0.311430 0.743108
O O4 0.209058 0.237025 0.759597
O O5 0.183981 0.500000 0.949530
O O6 0.299991 0.260399 0.900847
O O7 0.074848 0.245649 0.018629
O O8 0.916680 0.500000 0.775748
O O9 0.892928 0.296822 0.708291
O O10 0.963653 0.221935 0.763304
O O11 0.701959 0.302634 0.970973
O O12 0.713833 0.500000 0.595788
O O13 0.820827 0.737385 0.556382
O O14 0.751740 0.735117 0.495266
O O15 0.545290 0.739973 0.758217
O O16 0.055444 0.500000 0.508401
O O17 0.000000 0.251253 0.500000
O O18 0.869304 0.203493 0.285345
O O19 0.856494 0.000000 0.386348
O O20 0.063902 0.000000 0.858502
O O21 0.404591 0.500000 0.854817
#
# Coordination Sequence:
#
# PCOD8063142 Si02
#       8
#     4   4   4   4   4   4   4   4
#     4  10  23  39  56  78 101 130 170 213 257 302
#     4  10  20  36  56  76  99 130 169 214 253 297
#     4   9  16  30  52  74  98 132 168 205 248 294
#     4   9  18  31  51  75 102 136 170 208 254 296
#     4   8  14  26  46  74 106 137 169 202 242 296
#     4  10  20  33  49  74 102 130 168 208 249 299
#     4  11  23  37  54  76 103 135 168 206 257 311
#     4   9  17  30  51  78 101 125 169 215 252 295
#
# _framework density 18.308142
#
# number of rings (size 3 to 8) (size 9 to 14) (size 15 to 20)
#    0.000    2.500    1.250    1.875    1.750    3.750 
#    0.000    1.875    0.000    9.750    0.000    0.000 
#    0.000    8.000    0.000    0.000    0.000    0.000 
#
# Total GULP energy -396649.786444 kJ/mol
# GULP energy per Si atom -12395.305826 kJ/mol
# Density = 1.826647 g / cm^3
# Si number density = 18.308142 Si / 1000 Ang^3
#
#
#
# Elastic Constant Matrix: (Units=GPa)
#
#
# Indices 1 2 3 4 5 6 
#
# 1 96.5736 23.9054 62.2655 0.0000 12.1212 0.0000
# 2 23.9054 27.8469 22.5333 0.0000 5.5620 0.0000
# 3 62.2655 22.5333 158.3738 0.0000 -0.9780 0.0000
# 4 0.0000 0.0000 0.0000 9.2790 0.0000 4.5927
# 5 12.1212 5.5620 -0.9780 0.0000 23.2976 0.0000
# 6 0.0000 0.0000 0.0000 4.5927 0.0000 11.1069
#
#
#
# Elastic Compliance Matrix: (Units=1/GPa)
#
#
# Indices 1 2 3 4 5 6 
#
# 1 0.016892 -0.008709 -0.005445 0.000000 -0.006938 0.000000
# 2 -0.008709 0.047510 -0.003378 0.000000 -0.006953 0.000000
# 3 -0.005445 -0.003378 0.008960 0.000000 0.004016 0.000000
# 4 0.000000 0.000000 0.000000 0.135503 0.000000 -0.056030
# 5 -0.006938 -0.006953 0.004016 0.000000 0.048361 0.000000
# 6 0.000000 0.000000 0.000000 -0.056030 0.000000 0.113203
#
#
# Mechanical properties :
#
#
# Convention : Reuss Voigt Hill
#
# Bulk Modulus (GPa) = 26.11193 55.57805 40.84499
# Shear Modulus (GPa) = 11.95430 20.34271 16.14850
#
# Velocity S-wave (km/s) = 2.55806 3.33698 2.97314
# Velocity P-wave (km/s) = 4.79774 6.72831 5.84331
#
# Compressibility (1/GPa) = 0.03829667
#
# Stress axis : x y z
#
# Youngs Moduli (GPa) = 59.19948 21.04832 111.60312
#
# Poissons Ratio (x) = 0.18332 0.60766
# Poissons Ratio (y) = 0.51559 0.37704
# Poissons Ratio (z) = 0.32233 0.07111
#
# Static dielectric constant tensor:
#      x y z
#    x 3.509710 0.000000 0.069320 
#    y 0.000000 3.081930 0.000000 
#    z 0.069320 0.000000 3.571200 
# 
# 
# High freq. dielectric constant tensor:
#      x y z
#    x 1.698790 0.000000 0.011280 
#    y 0.000000 1.675480 0.000000 
#    z 0.011280 0.000000 1.719920 
# 
# From -- ./inp_files/86804.got.cif
#   From: 2010.06.25/outbox.cif.g09.slc.cpg/sg10_44_cif.got.tgz:86804.got - 2010.06.27 22:07:45.
