data_PCOD8063583
_publ_section_title
;
Structure prediction by ZEFSAII (Michael W. Deem and Ramdas Pophale) SiO2 
 PCOD8063583
Probable space group: P 2/M
;
_chemical_formula_sum "Si O2"
_cell_formula_units_Z 32
_cell_length_a 18.266010
_cell_length_b 10.464491
_cell_length_c 24.100454
_cell_angle_alpha 90.000000
_cell_angle_beta 21.818317
_cell_angle_gamma 90.000000
_cell_volume 1712.136064
_symmetry_space_group_name_H-M "P 2/M"
_symmetry_group_IT_number 10
_symmetry_cell_setting 'monoclinic'
loop_
_space_group_symop_operation_xyz
x,y,z
-x,y,-z
-x,-y,-z
x,-y,z
loop_
_atom_site_type_symbol
_atom_site_label
_atom_site_fract_x
_atom_site_fract_y
_atom_site_fract_z
Si Si1 0.420348 0.736034 0.391669
Si Si2 0.645344 0.856310 0.445177
Si Si3 0.409460 0.650090 0.233237
Si Si4 0.905470 0.353808 0.458212
Si Si5 0.337698 0.649799 0.156044
Si Si6 0.796772 0.638922 0.174441
Si Si7 0.623520 0.144682 0.151549
Si Si8 0.925926 0.857716 0.156912
O O1 0.352732 0.779240 0.499568
O O2 0.233028 0.664014 0.497736
O O3 0.610233 0.643995 0.264045
O O4 0.485168 0.847949 0.303524
O O5 0.500000 0.799867 0.500000
O O6 0.866389 0.851384 0.263889
O O7 0.578526 0.000000 0.506231
O O8 0.460611 0.500000 0.209474
O O9 0.204946 0.689669 0.407551
O O10 0.399574 0.677868 0.175393
O O11 0.573727 0.745679 0.141923
O O12 0.958085 0.500000 0.428949
O O13 0.120085 0.286565 0.299534
O O14 0.329938 0.500000 0.149330
O O15 0.500000 0.711755 0.000000
O O16 0.790849 0.500000 0.208777
O O17 0.784225 0.757468 0.225277
O O18 0.000000 0.653344 0.000000
O O19 0.603705 0.000000 0.141272
O O20 0.846910 0.174318 0.011840
O O21 0.879332 0.000000 0.166251
#
# Coordination Sequence:
#
# PCOD8063583 Si02
#       8
#     4   4   4   4   4   4   4   4
#     4  11  20  34  54  79 106 143 185 226 278 324
#     4  10  20  34  53  73 100 137 184 235 277 321
#     4   9  18  33  56  81 109 141 176 216 268 320
#     4   9  18  32  51  76 107 141 178 220 265 321
#     4   9  17  31  54  83 109 137 177 219 259 315
#     4  11  22  35  53  79 110 141 179 232 282 322
#     4  10  21  35  55  81 109 141 184 229 269 319
#     4  10  21  37  54  76 103 142 187 226 273 326
#
# _framework density 18.690104999999999
#
# number of rings (size 3 to 8) (size 9 to 14) (size 15 to 20)
#    0.000    2.125    2.500    1.125    0.000    4.250 
#    0.000    1.875    0.000    7.125    0.000    0.000 
#    0.000    0.000    0.000    0.000    0.000    0.000 
#
# Total GULP energy -396488.233591 kJ/mol
# GULP energy per Si atom -12390.257300 kJ/mol
# Density = 1.864757 g / cm^3
# Si number density = 18.690105 Si / 1000 Ang^3
#
#
#
# Elastic Constant Matrix: (Units=GPa)
#
#
# Indices 1 2 3 4 5 6 
#
# 1 99.8293 36.7069 42.7492 0.0000 8.0705 0.0000
# 2 36.7069 78.8711 27.7493 0.0000 -6.0720 0.0000
# 3 42.7492 27.7493 83.1927 0.0000 2.9221 0.0000
# 4 0.0000 0.0000 0.0000 11.9343 0.0000 -0.7047
# 5 8.0705 -6.0720 2.9221 0.0000 30.1773 0.0000
# 6 0.0000 0.0000 0.0000 -0.7047 0.0000 14.3332
#
#
#
# Elastic Compliance Matrix: (Units=1/GPa)
#
#
# Indices 1 2 3 4 5 6 
#
# 1 0.014714 -0.005193 -0.005673 0.000000 -0.004431 0.000000
# 2 -0.005193 0.016546 -0.003027 0.000000 0.005011 0.000000
# 3 -0.005673 -0.003027 0.015967 0.000000 -0.000638 0.000000
# 4 0.000000 0.000000 0.000000 0.084036 0.000000 0.004131
# 5 -0.004431 0.005011 -0.000638 0.000000 0.035392 0.000000
# 6 0.000000 0.000000 0.000000 0.004131 0.000000 0.069971
#
#
# Mechanical properties :
#
#
# Convention : Reuss Voigt Hill
#
# Bulk Modulus (GPa) = 51.43448 52.92266 52.17857
# Shear Modulus (GPa) = 18.45737 21.60148 20.02942
#
# Velocity S-wave (km/s) = 3.14594 3.40335 3.27717
# Velocity P-wave (km/s) = 6.38555 6.61975 6.50370
#
# Compressibility (1/GPa) = 0.01944221
#
# Stress axis : x y z
#
# Youngs Moduli (GPa) = 67.96164 60.43579 62.62742
#
# Poissons Ratio (x) = 0.31385 0.35530
# Poissons Ratio (y) = 0.35293 0.18955
# Poissons Ratio (z) = 0.38556 0.18292
#
# Static dielectric constant tensor:
#      x y z
#    x 3.281660 0.000000 0.000180 
#    y 0.000000 3.273230 0.000000 
#    z 0.000180 0.000000 3.734580 
# 
# 
# High freq. dielectric constant tensor:
#      x y z
#    x 1.708740 0.000000 0.003090 
#    y 0.000000 1.696640 0.000000 
#    z 0.003090 0.000000 1.740600 
# 
# From -- ./inp_files/90198.got.cif
#   From: 2010.06.25/outbox.cif.g09.slc.cpg/sg10_46_cif.got.tgz:90198.got - 2010.06.27 22:07:45.
