data_PCOD8063078
_publ_section_title
;
Structure prediction by ZEFSAII (Michael W. Deem and Ramdas Pophale) SiO2 
 PCOD8063078
Probable space group: P 2/M
;
_chemical_formula_sum "Si O2"
_cell_formula_units_Z 28
_cell_length_a 8.717545
_cell_length_b 17.587558
_cell_length_c 13.645458
_cell_angle_alpha 90.000000
_cell_angle_beta 137.378490
_cell_angle_gamma 90.000000
_cell_volume 1416.687933
_symmetry_space_group_name_H-M "P 2/M"
_symmetry_group_IT_number 10
_symmetry_cell_setting 'monoclinic'
loop_
_space_group_symop_operation_xyz
x,y,z
-x,y,-z
-x,-y,-z
x,-y,z
loop_
_atom_site_type_symbol
_atom_site_label
_atom_site_fract_x
_atom_site_fract_y
_atom_site_fract_z
Si Si1 0.100017 0.083892 0.155360
Si Si2 0.036095 0.679442 0.864457
Si Si3 0.542818 0.588183 0.904999
Si Si4 0.345233 0.776062 0.214562
Si Si5 0.252179 0.670765 0.610827
Si Si6 0.741600 0.412098 0.579422
Si Si7 0.716290 0.821057 0.038624
O O1 0.303694 0.145964 0.257071
O O2 0.188115 0.000000 0.227752
O O3 0.000000 0.082680 0.000000
O O4 0.891472 0.108613 0.127159
O O5 0.855374 0.716208 0.855017
O O6 0.930065 0.629062 0.730581
O O7 0.216841 0.627432 0.009425
O O8 0.164716 0.745539 0.863274
O O9 0.546957 0.500000 0.874728
O O10 0.345772 0.633023 0.754510
O O11 0.500000 0.596951 0.000000
O O12 0.587284 0.738914 0.353356
O O13 0.345497 0.798017 0.101135
O O14 0.235307 0.603114 0.524462
O O15 0.000000 0.705610 0.500000
O O16 0.500000 0.381239 0.500000
O O17 0.772849 0.500000 0.616035
O O18 0.500000 0.844636 0.000000
#
# Coordination Sequence:
#
# PCOD8063078 Si02
#       7
#     4   4   4   4   4   4   4
#     4   8  16  33  58  88 123 155 184 233 294 352
#     4  11  20  38  61  83 115 155 201 251 295 353
#     4  11  24  40  61  87 116 156 201 252 312 358
#     4  10  21  37  58  88 118 153 200 240 294 356
#     4  12  25  40  59  83 119 159 200 250 300 354
#     4  11  24  40  57  83 116 153 201 254 305 354
#     4  10  20  32  57  90 121 152 193 244 289 347
#
# _framework density 19.764409000000001
#
# number of rings (size 3 to 8) (size 9 to 14) (size 15 to 20)
#    0.000    1.571    2.857    3.429    2.000    2.571 
#    0.000    0.714    0.000    0.429    0.000    8.000 
#    0.000    0.000    0.000    0.000    0.000    0.000 
#
# Total GULP energy -347065.807229 kJ/mol
# GULP energy per Si atom -12395.207401 kJ/mol
# Density = 1.971942 g / cm^3
# Si number density = 19.764409 Si / 1000 Ang^3
#
#
#
# Elastic Constant Matrix: (Units=GPa)
#
#
# Indices 1 2 3 4 5 6 
#
# 1 118.2384 49.7531 38.9252 0.0000 23.6146 0.0000
# 2 49.7531 131.0855 50.7611 0.0000 27.9552 0.0000
# 3 38.9252 50.7611 105.4845 0.0000 17.9335 0.0000
# 4 0.0000 0.0000 0.0000 -3.1008 0.0000 1.3729
# 5 23.6146 27.9552 17.9335 0.0000 37.1181 0.0000
# 6 0.0000 0.0000 0.0000 1.3729 0.0000 19.0669
#
#
#
# Elastic Compliance Matrix: (Units=1/GPa)
#
#
# Indices 1 2 3 4 5 6 
#
# 1 0.011035 -0.002466 -0.002188 0.000000 -0.004107 0.000000
# 2 -0.002466 0.011001 -0.003532 0.000000 -0.005010 0.000000
# 3 -0.002188 -0.003532 0.012309 0.000000 -0.001895 0.000000
# 4 0.000000 0.000000 0.000000 -0.312536 0.000000 0.022504
# 5 -0.004107 -0.005010 -0.001895 0.000000 0.034243 0.000000
# 6 0.000000 0.000000 0.000000 0.022504 0.000000 0.050826
#
#
# Mechanical properties :
#
#
# Convention : Reuss Voigt Hill
#
# Bulk Modulus (GPa) = 55.63336 70.40969 63.02152
# Shear Modulus (GPa) = -29.28092 24.97477 -2.15307
#
# Velocity S-wave (km/s) = -3.85320 3.55860 -1.04486
# Velocity P-wave (km/s) = 2.90055 7.25167 5.52268
#
# Compressibility (1/GPa) = 0.01797483
#
# Stress axis : x y z
#
# Youngs Moduli (GPa) = 90.61807 90.90455 81.23981
#
# Poissons Ratio (x) = 0.22413 0.17771
# Poissons Ratio (y) = 0.22342 0.28695
# Poissons Ratio (z) = 0.19823 0.32109
#
# Static dielectric constant tensor:
#      x y z
#    x 3.678060 0.000000 0.244840 
#    y 0.000000 3.903100 0.000000 
#    z 0.244840 0.000000 3.465750 
# 
# 
# High freq. dielectric constant tensor:
#      x y z
#    x 1.774280 0.000000 0.013010 
#    y 0.000000 1.763560 0.000000 
#    z 0.013010 0.000000 1.747630 
# 
# From -- ./inp_files/62354.got.cif
#   From: 2010.06.25/outbox.cif.g09.slc.cpg/sg10_32_cif.got.tgz:62354.got - 2010.06.27 22:07:45.
