data_PCOD8063130
_publ_section_title
;
Structure prediction by ZEFSAII (Michael W. Deem and Ramdas Pophale) SiO2 
 PCOD8063130
Probable space group: P 2/M
;
_chemical_formula_sum "Si O2"
_cell_formula_units_Z 28
_cell_length_a 27.986933
_cell_length_b 9.237688
_cell_length_c 7.742101
_cell_angle_alpha 90.000000
_cell_angle_beta 134.021578
_cell_angle_gamma 90.000000
_cell_volume 1439.307256
_symmetry_space_group_name_H-M "P 2/M"
_symmetry_group_IT_number 10
_symmetry_cell_setting 'monoclinic'
loop_
_space_group_symop_operation_xyz
x,y,z
-x,y,-z
-x,-y,-z
x,-y,z
loop_
_atom_site_type_symbol
_atom_site_label
_atom_site_fract_x
_atom_site_fract_y
_atom_site_fract_z
Si Si1 0.671457 0.670926 0.135133
Si Si2 0.574070 0.328321 0.192864
Si Si3 0.067354 0.834609 0.571545
Si Si4 0.792019 0.157492 0.033481
Si Si5 0.071923 0.330216 0.243621
Si Si6 0.802252 0.837083 0.469419
Si Si7 0.333576 0.329763 0.271613
O O1 0.685079 0.500000 0.175604
O O2 0.612102 0.717767 0.113498
O O3 0.737132 0.751097 0.368910
O O4 0.652176 0.719414 0.890476
O O5 0.570336 0.500000 0.194545
O O6 0.610196 0.268759 0.457081
O O7 0.500000 0.261649 0.000000
O O8 0.133803 0.815970 0.859327
O O9 0.073376 0.709494 0.446892
O O10 0.000000 0.801768 0.500000
O O11 0.066691 0.000000 0.494368
O O12 0.803111 0.161737 0.266038
O O13 0.764877 0.000000 0.908874
O O14 0.737902 0.274371 0.839987
O O15 0.083550 0.500000 0.245343
O O16 0.131308 0.244084 0.294927
O O17 0.000000 0.278182 0.000000
O O18 0.800572 0.000000 0.541022
O O19 0.330474 0.500000 0.277094
#
# Coordination Sequence:
#
# PCOD8063130 Si02
#       7
#     4   4   4   4   4   4   4
#     4   9  17  31  52  75 101 132 168 212 257 305
#     4   9  18  32  50  76 108 135 165 211 258 304
#     4   9  18  33  51  71  99 134 173 215 260 311
#     4   8  15  29  49  70  94 126 163 207 252 295
#     4  10  20  33  49  72 103 135 170 214 263 311
#     4   9  17  31  52  73  95 129 171 211 253 305
#     4   9  17  30  50  74  97 130 171 206 252 305
#
# _framework density 19.453802
#
# number of rings (size 3 to 8) (size 9 to 14) (size 15 to 20)
#    0.000    3.000    0.000    1.714    0.000    5.429 
#    2.571    3.571    0.000    1.714    0.000    4.000 
#    0.000    0.000    0.000    0.000    0.000    0.000 
#
# Total GULP energy -346939.424526 kJ/mol
# GULP energy per Si atom -12390.693733 kJ/mol
# Density = 1.940952 g / cm^3
# Si number density = 19.453802 Si / 1000 Ang^3
#
#
#
# Elastic Constant Matrix: (Units=GPa)
#
#
# Indices 1 2 3 4 5 6 
#
# 1 119.2005 30.8943 67.0897 0.0000 32.7696 0.0000
# 2 30.8943 48.1058 40.8921 0.0000 12.2818 0.0000
# 3 67.0897 40.8921 133.7205 0.0000 32.0464 0.0000
# 4 0.0000 0.0000 0.0000 11.8995 0.0000 6.6125
# 5 32.7696 12.2818 32.0464 0.0000 35.9638 0.0000
# 6 0.0000 0.0000 0.0000 6.6125 0.0000 15.2606
#
#
#
# Elastic Compliance Matrix: (Units=1/GPa)
#
#
# Indices 1 2 3 4 5 6 
#
# 1 0.013616 -0.003430 -0.003929 0.000000 -0.007734 0.000000
# 2 -0.003430 0.029126 -0.007059 0.000000 -0.000532 0.000000
# 3 -0.003929 -0.007059 0.012934 0.000000 -0.005535 0.000000
# 4 0.000000 0.000000 0.000000 0.110690 0.000000 -0.047963
# 5 -0.007734 -0.000532 -0.005535 0.000000 0.039967 0.000000
# 6 0.000000 0.000000 0.000000 -0.047963 0.000000 0.086311
#
#
# Mechanical properties :
#
#
# Convention : Reuss Voigt Hill
#
# Bulk Modulus (GPa) = 37.25554 64.30878 50.78216
# Shear Modulus (GPa) = 15.13199 23.43482 19.28340
#
# Velocity S-wave (km/s) = 2.79201 3.47456 3.15181
# Velocity P-wave (km/s) = 5.43931 7.01610 6.27741
#
# Compressibility (1/GPa) = 0.02684164
#
# Stress axis : x y z
#
# Youngs Moduli (GPa) = 73.44492 34.33345 77.31283
#
# Poissons Ratio (x) = 0.11776 0.30375
# Poissons Ratio (y) = 0.25191 0.54572
# Poissons Ratio (z) = 0.28855 0.24234
#
# Static dielectric constant tensor:
#      x y z
#    x 3.708490 0.000000 0.298570 
#    y 0.000000 3.393460 0.000000 
#    z 0.298570 0.000000 3.821100 
# 
# 
# High freq. dielectric constant tensor:
#      x y z
#    x 1.746100 0.000000 0.020540 
#    y 0.000000 1.736200 0.000000 
#    z 0.020540 0.000000 1.751310 
# 
# From -- ./inp_files/38018.got.cif
#   From: 2010.06.25/outbox.cif.g09.slc.cpg/sg10_20_cif.got.tgz:38018.got - 2010.06.27 22:07:45.
