data_PCOD8063666
_publ_section_title
;
Structure prediction by ZEFSAII (Michael W. Deem and Ramdas Pophale) SiO2 
 PCOD8063666
Probable space group: P 2/M
;
_chemical_formula_sum "Si O2"
_cell_formula_units_Z 32
_cell_length_a 15.142731
_cell_length_b 9.010646
_cell_length_c 23.856932
_cell_angle_alpha 90.000000
_cell_angle_beta 29.775349
_cell_angle_gamma 90.000000
_cell_volume 1616.523189
_symmetry_space_group_name_H-M "P 2/M"
_symmetry_group_IT_number 10
_symmetry_cell_setting 'monoclinic'
loop_
_space_group_symop_operation_xyz
x,y,z
-x,y,-z
-x,-y,-z
x,-y,z
loop_
_atom_site_type_symbol
_atom_site_label
_atom_site_fract_x
_atom_site_fract_y
_atom_site_fract_z
Si Si1 0.576109 0.836720 0.898199
Si Si2 0.586313 0.323762 0.327990
Si Si3 0.781229 0.675898 0.419171
Si Si4 0.189252 0.174563 0.375234
Si Si5 0.882674 0.672432 0.697786
Si Si6 0.098458 0.323297 0.768344
Si Si7 0.470556 0.327338 0.765893
Si Si8 0.709245 0.674069 0.020547
O O1 0.738081 0.721723 0.823356
O O2 0.435545 0.764997 0.933349
O O3 0.632425 0.000000 0.843003
O O4 0.500000 0.866294 0.000000
O O5 0.579075 0.500000 0.335685
O O6 0.408976 0.259795 0.456454
O O7 0.757651 0.262071 0.266394
O O8 0.601768 0.272631 0.254734
O O9 0.773980 0.500000 0.417397
O O10 0.846248 0.740585 0.323402
O O11 0.921840 0.720330 0.390068
O O12 0.199923 0.227909 0.305970
O O13 0.344999 0.244202 0.325880
O O14 0.000000 0.236190 0.500000
O O15 0.203000 0.000000 0.373398
O O16 0.873671 0.500000 0.687507
O O17 0.100076 0.500000 0.766204
O O18 0.904778 0.267749 0.895031
O O19 0.518272 0.500000 0.737313
O O20 0.323622 0.295278 0.894866
O O21 0.687676 0.500000 0.019112
#
# Coordination Sequence:
#
# PCOD8063666 Si02
#       8
#     4   4   4   4   4   4   4   4
#     4  11  23  37  54  78 110 148 187 227 275 333
#     4   9  17  30  50  77 109 143 181 227 277 329
#     4   9  17  29  48  77 110 143 179 224 279 330
#     4  11  23  37  54  78 110 148 187 227 275 333
#     4  11  21  34  55  82 111 145 184 228 275 327
#     4   9  17  30  50  77 109 143 181 227 277 329
#     4  10  20  34  53  79 110 145 184 227 277 329
#     4  10  20  34  53  79 110 145 184 227 277 329
#
# _framework density 19.795572
#
# number of rings (size 3 to 8) (size 9 to 14) (size 15 to 20)
#    0.000    2.000    1.250    3.000    0.000    6.000 
#    0.000    2.500    0.000    0.750    0.000    1.750 
#    0.000   10.000    0.000    0.000    0.000    0.000 
#
# Total GULP energy -396623.166503 kJ/mol
# GULP energy per Si atom -12394.473953 kJ/mol
# Density = 1.975052 g / cm^3
# Si number density = 19.795572 Si / 1000 Ang^3
#
#
#
# Elastic Constant Matrix: (Units=GPa)
#
#
# Indices 1 2 3 4 5 6 
#
# 1 105.8447 28.2059 35.6359 0.0000 -1.5187 0.0000
# 2 28.2059 36.2018 24.5482 0.0000 -3.1329 0.0000
# 3 35.6359 24.5482 117.5941 0.0000 -5.4626 0.0000
# 4 0.0000 0.0000 0.0000 15.7549 0.0000 2.7024
# 5 -1.5187 -3.1329 -5.4626 0.0000 37.7725 0.0000
# 6 0.0000 0.0000 0.0000 2.7024 0.0000 5.4206
#
#
#
# Elastic Compliance Matrix: (Units=1/GPa)
#
#
# Indices 1 2 3 4 5 6 
#
# 1 0.012329 -0.008270 -0.002032 0.000000 -0.000484 0.000000
# 2 -0.008270 0.037835 -0.005297 0.000000 0.002039 0.000000
# 3 -0.002032 -0.005297 0.010270 0.000000 0.000964 0.000000
# 4 0.000000 0.000000 0.000000 0.069407 0.000000 -0.034602
# 5 -0.000484 0.002039 0.000964 0.000000 0.026763 0.000000
# 6 0.000000 0.000000 0.000000 -0.034602 0.000000 0.201730
#
#
# Mechanical properties :
#
#
# Convention : Reuss Voigt Hill
#
# Bulk Modulus (GPa) = 34.20528 48.49120 41.34824
# Shear Modulus (GPa) = 12.52259 23.20632 17.86446
#
# Velocity S-wave (km/s) = 2.51787 3.42760 3.00733
# Velocity P-wave (km/s) = 5.07639 6.34143 5.74384
#
# Compressibility (1/GPa) = 0.02923525
#
# Stress axis : x y z
#
# Youngs Moduli (GPa) = 81.11086 26.43087 97.36772
#
# Poissons Ratio (x) = 0.21857 0.19788
# Poissons Ratio (y) = 0.67075 0.51579
# Poissons Ratio (z) = 0.16484 0.14001
#
# Static dielectric constant tensor:
#      x y z
#    x 3.870270 0.000000 0.057910 
#    y 0.000000 3.237170 0.000000 
#    z 0.057910 0.000000 4.146160 
# 
# 
# High freq. dielectric constant tensor:
#      x y z
#    x 1.776290 0.000000 0.005150 
#    y 0.000000 1.726450 0.000000 
#    z 0.005150 0.000000 1.789470 
# 
# From -- ./inp_files/89471.got.cif
#   From: 2010.06.25/outbox.cif.g09.slc.cpg/sg10_45_cif.got.tgz:89471.got - 2010.06.27 22:07:45.
