data_PCOD8063728
_publ_section_title
;
Structure prediction by ZEFSAII (Michael W. Deem and Ramdas Pophale) SiO2 
 PCOD8063728
Probable space group: P 2/M
;
_chemical_formula_sum "Si O2"
_cell_formula_units_Z 32
_cell_length_a 14.954591
_cell_length_b 9.050236
_cell_length_c 22.660725
_cell_angle_alpha 90.000000
_cell_angle_beta 32.179707
_cell_angle_gamma 90.000000
_cell_volume 1633.391439
_symmetry_space_group_name_H-M "P 2/M"
_symmetry_group_IT_number 10
_symmetry_cell_setting 'monoclinic'
loop_
_space_group_symop_operation_xyz
x,y,z
-x,y,-z
-x,-y,-z
x,-y,z
loop_
_atom_site_type_symbol
_atom_site_label
_atom_site_fract_x
_atom_site_fract_y
_atom_site_fract_z
Si Si1 0.095963 0.674104 0.812696
Si Si2 0.010024 0.673670 0.360050
Si Si3 0.288315 0.329641 0.394291
Si Si4 0.977998 0.174037 0.769006
Si Si5 0.861250 0.164228 0.027618
Si Si6 0.355669 0.669387 0.765297
Si Si7 0.405520 0.826260 0.994445
Si Si8 0.359577 0.326723 0.225105
O O1 0.081559 0.500000 0.812029
O O2 0.261716 0.719074 0.757790
O O3 0.107474 0.753371 0.743122
O O4 0.927498 0.733309 0.938144
O O5 0.981816 0.500000 0.364570
O O6 0.877824 0.736421 0.482357
O O7 0.974357 0.761857 0.320709
O O8 0.196401 0.708582 0.277478
O O9 0.251287 0.500000 0.402131
O O10 0.444523 0.308670 0.352284
O O11 0.328460 0.258742 0.307897
O O12 0.004627 0.000000 0.753484
O O13 0.788601 0.218067 0.892112
O O14 0.697296 0.236445 0.147977
O O15 0.819224 0.000000 0.026428
O O16 0.000000 0.153521 0.000000
O O17 0.307353 0.500000 0.805706
O O18 0.480737 0.751563 0.893824
O O19 0.432043 0.000000 0.973646
O O20 0.500000 0.766159 0.000000
O O21 0.398935 0.500000 0.206057
#
# Coordination Sequence:
#
# PCOD8063728 Si02
#       8
#     4   4   4   4   4   4   4   4
#     4  10  20  34  54  79 108 144 188 231 275 327
#     4  10  20  37  59  82 111 146 185 228 274 327
#     4   9  19  36  58  84 112 144 184 230 276 322
#     4  11  23  38  57  80 111 149 187 227 278 334
#     4   9  17  30  49  74 107 144 178 219 272 325
#     4   9  18  34  54  78 109 146 187 231 273 320
#     4  10  21  38  56  78 113 150 180 222 276 332
#     4  10  20  34  58  88 114 142 180 226 275 328
#
# _framework density 19.591138999999998
#
# number of rings (size 3 to 8) (size 9 to 14) (size 15 to 20)
#    0.000    2.250    1.250    1.500    1.750    4.750 
#    0.000    1.875    0.000    5.250    0.000    0.000 
#    0.000    0.000    0.000    0.000    0.000    0.000 
#
# Total GULP energy -396799.095172 kJ/mol
# GULP energy per Si atom -12399.971724 kJ/mol
# Density = 1.954655 g / cm^3
# Si number density = 19.591139 Si / 1000 Ang^3
#
#
#
# Elastic Constant Matrix: (Units=GPa)
#
#
# Indices 1 2 3 4 5 6 
#
# 1 98.9637 28.1979 21.1273 0.0000 23.4838 0.0000
# 2 28.1979 53.6052 21.7669 0.0000 8.4502 0.0000
# 3 21.1273 21.7669 85.1234 0.0000 23.1229 0.0000
# 4 0.0000 0.0000 0.0000 13.5009 0.0000 -5.0934
# 5 23.4838 8.4502 23.1229 0.0000 29.4228 0.0000
# 6 0.0000 0.0000 0.0000 -5.0934 0.0000 12.3522
#
#
#
# Elastic Compliance Matrix: (Units=1/GPa)
#
#
# Indices 1 2 3 4 5 6 
#
# 1 0.014082 -0.006147 0.000827 0.000000 -0.010124 0.000000
# 2 -0.006147 0.023621 -0.005091 0.000000 0.002124 0.000000
# 3 0.000827 -0.005091 0.016053 0.000000 -0.011814 0.000000
# 4 0.000000 0.000000 0.000000 0.087715 0.000000 0.036169
# 5 -0.010124 0.002124 -0.011814 0.000000 0.050742 0.000000
# 6 0.000000 0.000000 0.000000 0.036169 0.000000 0.095871
#
#
# Mechanical properties :
#
#
# Convention : Reuss Voigt Hill
#
# Bulk Modulus (GPa) = 30.36466 42.20850 36.28658
# Shear Modulus (GPa) = 15.63057 22.16187 18.89622
#
# Velocity S-wave (km/s) = 2.82767 3.36701 3.10906
# Velocity P-wave (km/s) = 5.11798 6.05864 5.60807
#
# Compressibility (1/GPa) = 0.03293302
#
# Stress axis : x y z
#
# Youngs Moduli (GPa) = 71.01171 42.33478 62.29202
#
# Poissons Ratio (x) = 0.26025 -0.05151
# Poissons Ratio (y) = 0.43654 0.31715
# Poissons Ratio (z) = -0.05872 0.21554
#
# Static dielectric constant tensor:
#      x y z
#    x 3.698010 0.000000 0.037320 
#    y 0.000000 3.430900 0.000000 
#    z 0.037320 0.000000 3.498750 
# 
# 
# High freq. dielectric constant tensor:
#      x y z
#    x 1.772750 0.000000 0.000370 
#    y 0.000000 1.744120 0.000000 
#    z 0.000370 0.000000 1.749200 
# 
# From -- ./inp_files/89519.got.cif
#   From: 2010.06.25/outbox.cif.g09.slc.cpg/sg10_45_cif.got.tgz:89519.got - 2010.06.27 22:07:45.
