data_PCOD8063693
_publ_section_title
;
Structure prediction by ZEFSAII (Michael W. Deem and Ramdas Pophale) SiO2 
 PCOD8063693
Probable space group: P 2/M
;
_chemical_formula_sum "Si O2"
_cell_formula_units_Z 26
_cell_length_a 6.815748
_cell_length_b 9.882202
_cell_length_c 16.236528
_cell_angle_alpha 90.000000
_cell_angle_beta 85.431218
_cell_angle_gamma 90.000000
_cell_volume 1090.129816
_symmetry_space_group_name_H-M "P 2/M"
_symmetry_group_IT_number 10
_symmetry_cell_setting 'monoclinic'
loop_
_space_group_symop_operation_xyz
x,y,z
-x,y,-z
-x,-y,-z
x,-y,z
loop_
_atom_site_type_symbol
_atom_site_label
_atom_site_fract_x
_atom_site_fract_y
_atom_site_fract_z
Si Si1 0.391807 0.851734 0.920305
Si Si2 0.901819 0.351497 0.836953
Si Si3 0.161668 0.847560 0.299919
Si Si4 0.359477 0.652200 0.783343
Si Si5 0.211244 0.840605 0.475380
Si Si6 0.301309 0.153069 0.646463
Si Si7 0.000000 0.769977 0.000000
O O1 0.454621 0.730932 0.857539
O O2 0.157496 0.859171 0.945125
O O3 0.450432 0.000000 0.882818
O O4 0.500000 0.818664 0.000000
O O5 0.809253 0.500000 0.827193
O O6 0.785272 0.249899 0.779015
O O7 0.127552 0.352555 0.803206
O O8 0.883554 0.316675 0.934587
O O9 0.284332 0.802591 0.379614
O O10 0.932444 0.840322 0.331191
O O11 0.216269 0.000000 0.270914
O O12 0.445067 0.500000 0.773278
O O13 0.413056 0.740996 0.701479
O O14 0.352296 0.805827 0.549286
O O15 0.000000 0.769846 0.500000
O O16 0.179128 0.000000 0.476510
O O17 0.376235 0.000000 0.662500
#
# Coordination Sequence:
#
# PCOD8063693 Si02
#       7
#     4   4   4   4   4   4   2
#     4  10  21  36  54  76 100 127 163 204 242 285
#     4   9  17  28  42  61  88 123 161 200 242 288
#     4   8  13  21  34  54  81 114 155 200 243 288
#     4   9  17  28  42  63  92 124 158 197 242 289
#     4   7  10  17  30  50  77 111 151 194 239 285
#     4   8  12  20  36  55  79 116 158 197 239 286
#     4  10  20  34  54  74  98 130 164 200 244 290
#
# _framework density 23.850370999999999
#
# number of rings (size 3 to 8) (size 9 to 14) (size 15 to 20)
#    0.000    3.385    0.000    2.769    0.000    5.231 
#    0.000    0.769    0.000    4.615    0.000    0.000 
#    0.000    1.231    0.000   12.000    0.000   28.308 
#
# Total GULP energy -322119.147091 kJ/mol
# GULP energy per Si atom -12389.197965 kJ/mol
# Density = 2.379609 g / cm^3
# Si number density = 23.850371 Si / 1000 Ang^3
#
#
#
# Elastic Constant Matrix: (Units=GPa)
#
#
# Indices 1 2 3 4 5 6 
#
# 1 16.8852 9.6953 15.9388 0.0000 -1.7867 0.0000
# 2 9.6953 187.5136 122.0525 0.0000 16.8218 0.0000
# 3 15.9388 122.0525 222.3485 0.0000 29.4024 0.0000
# 4 0.0000 0.0000 0.0000 18.1575 0.0000 -2.4576
# 5 -1.7867 16.8218 29.4024 0.0000 39.2143 0.0000
# 6 0.0000 0.0000 0.0000 -2.4576 0.0000 75.5410
#
#
#
# Elastic Compliance Matrix: (Units=1/GPa)
#
#
# Indices 1 2 3 4 5 6 
#
# 1 0.065339 -0.000554 -0.005334 0.000000 0.007214 0.000000
# 2 -0.000554 0.008303 -0.004489 0.000000 -0.000221 0.000000
# 3 -0.005334 -0.004489 0.007905 0.000000 -0.004245 0.000000
# 4 0.000000 0.000000 0.000000 0.055317 0.000000 0.001800
# 5 0.007214 -0.000221 -0.004245 0.000000 0.029107 0.000000
# 6 0.000000 0.000000 0.000000 0.001800 0.000000 0.013296
#
#
# Mechanical properties :
#
#
# Convention : Reuss Voigt Hill
#
# Bulk Modulus (GPa) = 16.44870 80.23561 48.34216
# Shear Modulus (GPa) = 22.69775 45.18662 33.94219
#
# Velocity S-wave (km/s) = 3.08827 4.35741 3.77653
# Velocity P-wave (km/s) = 4.43036 7.68312 6.27130
#
# Compressibility (1/GPa) = 0.06079507
#
# Stress axis : x y z
#
# Youngs Moduli (GPa) = 15.30470 120.43465 126.50008
#
# Poissons Ratio (x) = 0.06669 0.67471
# Poissons Ratio (y) = 0.00848 0.56785
# Poissons Ratio (z) = 0.08163 0.54062
#
# Static dielectric constant tensor:
#      x y z
#    x 4.073090 0.000000 0.124730 
#    y 0.000000 4.168180 0.000000 
#    z 0.124730 0.000000 4.792060 
# 
# 
# High freq. dielectric constant tensor:
#      x y z
#    x 1.951670 0.000000 0.004640 
#    y 0.000000 1.897610 0.000000 
#    z 0.004640 0.000000 1.960520 
# 
# From -- ./inp_files/74445.got.cif
#   From: 2010.06.25/outbox.cif.g09.slc.cpg/sg10_38_cif.got.tgz:74445.got - 2010.06.27 22:07:45.
