data_PCOD8063750
_publ_section_title
;
Structure prediction by ZEFSAII (Michael W. Deem and Ramdas Pophale) SiO2 
 PCOD8063750
Probable space group: P 2/M
;
_chemical_formula_sum "Si O2"
_cell_formula_units_Z 28
_cell_length_a 9.213594
_cell_length_b 20.098682
_cell_length_c 15.274277
_cell_angle_alpha 90.000000
_cell_angle_beta 150.990656
_cell_angle_gamma 90.000000
_cell_volume 1371.691005
_symmetry_space_group_name_H-M "P 2/M"
_symmetry_group_IT_number 10
_symmetry_cell_setting 'monoclinic'
loop_
_space_group_symop_operation_xyz
x,y,z
-x,y,-z
-x,-y,-z
x,-y,z
loop_
_atom_site_type_symbol
_atom_site_label
_atom_site_fract_x
_atom_site_fract_y
_atom_site_fract_z
Si Si1 0.388974 0.694968 0.539176
Si Si2 0.202692 0.688370 0.692917
Si Si3 0.643287 0.074964 0.315292
Si Si4 0.328459 0.828915 0.819907
Si Si5 0.307685 0.427892 0.309676
Si Si6 0.390773 0.424930 0.039409
Si Si7 0.630758 0.841852 0.472318
O O1 0.500000 0.694164 0.500000
O O2 0.563915 0.633916 0.680926
O O3 0.464522 0.768636 0.615190
O O4 0.034550 0.679029 0.353187
O O5 0.378833 0.756972 0.801708
O O6 0.435039 0.627561 0.807161
O O7 0.000000 0.694390 0.500000
O O8 0.530179 0.117646 0.172890
O O9 0.518912 0.104789 0.341588
O O10 0.000000 0.077253 0.500000
O O11 0.520647 0.000000 0.242521
O O12 0.987426 0.844051 0.664510
O O13 0.500000 0.833920 0.000000
O O14 0.500000 0.431096 0.500000
O O15 0.342267 0.500000 0.279797
O O16 0.961970 0.413294 0.144586
O O17 0.473740 0.500000 0.112877
O O18 0.500000 0.410686 0.000000
O O19 0.500000 0.857732 0.500000
#
# Coordination Sequence:
#
# PCOD8063750 Si02
#       7
#     4   4   4   4   4   4   4
#     4   9  17  31  53  76 103 141 183 224 269 326
#     4  11  22  36  55  80 112 146 185 236 286 332
#     4   9  18  35  58  82 112 149 185 222 272 337
#     4  10  20  35  57  83 110 144 188 234 281 335
#     4   9  17  30  50  76 105 139 181 229 277 326
#     4  10  20  34  54  81 110 143 189 236 277 331
#     4   9  18  33  54  82 112 146 188 227 271 331
#
# _framework density 20.412761
#
# number of rings (size 3 to 8) (size 9 to 14) (size 15 to 20)
#    0.000    2.429    0.000    4.286    0.000    6.000 
#    0.000    1.429    0.000   11.143    0.000    0.000 
#    0.000    0.000    0.000    0.000    0.000    0.000 
#
# Total GULP energy -346880.195678 kJ/mol
# GULP energy per Si atom -12388.578417 kJ/mol
# Density = 2.036630 g / cm^3
# Si number density = 20.412761 Si / 1000 Ang^3
#
#
#
# Elastic Constant Matrix: (Units=GPa)
#
#
# Indices 1 2 3 4 5 6 
#
# 1 86.9714 64.2110 38.0511 0.0000 -8.5347 0.0000
# 2 64.2110 204.8963 64.6642 0.0000 -8.6440 0.0000
# 3 38.0511 64.6642 84.7912 0.0000 -14.7844 0.0000
# 4 0.0000 0.0000 0.0000 19.8554 0.0000 -3.1008
# 5 -8.5347 -8.6440 -14.7844 0.0000 31.2448 0.0000
# 6 0.0000 0.0000 0.0000 -3.1008 0.0000 12.0291
#
#
#
# Elastic Compliance Matrix: (Units=1/GPa)
#
#
# Indices 1 2 3 4 5 6 
#
# 1 0.016203 -0.003689 -0.004212 0.000000 0.001412 0.000000
# 2 -0.003689 0.007277 -0.004054 0.000000 -0.000912 0.000000
# 3 -0.004212 -0.004054 0.017852 0.000000 0.006175 0.000000
# 4 0.000000 0.000000 0.000000 0.052477 0.000000 0.013527
# 5 0.001412 -0.000912 0.006175 0.000000 0.035061 0.000000
# 6 0.000000 0.000000 0.000000 0.013527 0.000000 0.086619
#
#
# Mechanical properties :
#
#
# Convention : Reuss Voigt Hill
#
# Bulk Modulus (GPa) = 57.39305 78.94570 68.16937
# Shear Modulus (GPa) = 20.39118 26.60803 23.49961
#
# Velocity S-wave (km/s) = 3.16403 3.61432 3.39665
# Velocity P-wave (km/s) = 6.44402 7.49509 6.98934
#
# Compressibility (1/GPa) = 0.01742371
#
# Stress axis : x y z
#
# Youngs Moduli (GPa) = 61.71761 137.41252 56.01670
#
# Poissons Ratio (x) = 0.50690 0.23592
# Poissons Ratio (y) = 0.22767 0.22707
# Poissons Ratio (z) = 0.25993 0.55701
#
# Static dielectric constant tensor:
#      x y z
#    x 3.695430 0.000000 0.036140 
#    y 0.000000 5.246600 0.000000 
#    z 0.036140 0.000000 3.083350 
# 
# 
# High freq. dielectric constant tensor:
#      x y z
#    x 1.790830 0.000000 0.006500 
#    y 0.000000 1.815250 0.000000 
#    z 0.006500 0.000000 1.762110 
# 
# From -- ./inp_files/62614.got.cif
#   From: 2010.06.25/outbox.cif.g09.slc.cpg/sg10_32_cif.got.tgz:62614.got - 2010.06.27 22:07:45.
