data_PCOD8063476
_publ_section_title
;
Structure prediction by ZEFSAII (Michael W. Deem and Ramdas Pophale) SiO2 
 PCOD8063476
Probable space group: P 2/M
;
_chemical_formula_sum "Si O2"
_cell_formula_units_Z 28
_cell_length_a 18.601002
_cell_length_b 9.156289
_cell_length_c 23.617605
_cell_angle_alpha 90.000000
_cell_angle_beta 22.678492
_cell_angle_gamma 90.000000
_cell_volume 1550.898331
_symmetry_space_group_name_H-M "P 2/M"
_symmetry_group_IT_number 10
_symmetry_cell_setting 'monoclinic'
loop_
_space_group_symop_operation_xyz
x,y,z
-x,y,-z
-x,-y,-z
x,-y,z
loop_
_atom_site_type_symbol
_atom_site_label
_atom_site_fract_x
_atom_site_fract_y
_atom_site_fract_z
Si Si1 0.883355 0.830743 0.260539
Si Si2 0.851798 0.833032 0.728888
Si Si3 0.837916 0.841587 0.573216
Si Si4 0.840601 0.828078 0.161362
Si Si5 0.599614 0.329499 0.826146
Si Si6 0.527097 0.333232 0.547066
Si Si7 0.227772 0.166062 0.086709
O O1 0.904128 0.787970 0.179150
O O2 0.726631 0.744792 0.410681
O O3 0.082228 0.794613 0.143530
O O4 0.830682 0.000000 0.304657
O O5 0.685984 0.741801 0.819992
O O6 0.868185 0.812842 0.783304
O O7 0.058722 0.784864 0.558368
O O8 0.810716 0.000000 0.741158
O O9 0.699345 0.718306 0.695662
O O10 0.000000 0.865123 0.500000
O O11 0.737490 0.000000 0.636798
O O12 0.642013 0.746164 0.295934
O O13 0.805010 0.000000 0.179907
O O14 0.000000 0.776976 0.000000
O O15 0.615659 0.500000 0.822698
O O16 0.389861 0.283190 0.967811
O O17 0.500000 0.323456 0.500000
O O18 0.536093 0.500000 0.561912
O O19 0.302780 0.000000 0.025068
#
# Coordination Sequence:
#
# PCOD8063476 Si02
#       7
#     4   4   4   4   4   4   4
#     4   9  18  33  52  73  97 128 165 202 241 284
#     4   9  18  33  52  71  91 122 166 209 246 288
#     4   8  15  30  50  68  87 115 154 199 243 286
#     4   9  17  31  53  79 103 127 160 201 238 277
#     4  11  21  31  47  72  99 128 162 200 245 294
#     4   9  17  30  50  74  99 128 158 189 232 287
#     4  10  20  34  51  70  95 128 165 205 246 287
#
# _framework density 18.054051000000001
#
# number of rings (size 3 to 8) (size 9 to 14) (size 15 to 20)
#    0.000    2.714    0.000    3.000    0.000    7.429 
#    0.000    1.429    0.000    8.571    0.000    0.000 
#    0.000    0.000    0.000    0.000    0.000    0.000 
#
# Total GULP energy -346973.547418 kJ/mol
# GULP energy per Si atom -12391.912408 kJ/mol
# Density = 1.801296 g / cm^3
# Si number density = 18.054051 Si / 1000 Ang^3
#
#
#
# Elastic Constant Matrix: (Units=GPa)
#
#
# Indices 1 2 3 4 5 6 
#
# 1 56.1672 -4.2164 -21.9724 0.0000 26.8811 0.0000
# 2 -4.2164 -25.9141 -168.7708 0.0000 89.5311 0.0000
# 3 -21.9724 -168.7708 -299.2882 0.0000 182.3511 0.0000
# 4 0.0000 0.0000 0.0000 11.9216 0.0000 1.8742
# 5 26.8811 89.5311 182.3511 0.0000 -47.0365 0.0000
# 6 0.0000 0.0000 0.0000 1.8742 0.0000 14.5940
#
#
#
# Elastic Compliance Matrix: (Units=1/GPa)
#
#
# Indices 1 2 3 4 5 6 
#
# 1 0.018823 -0.003107 -0.002438 0.000000 -0.004609 0.000000
# 2 -0.003107 0.015551 -0.006176 0.000000 0.003882 0.000000
# 3 -0.002438 -0.006176 0.005647 0.000000 0.008742 0.000000
# 4 0.000000 0.000000 0.000000 0.085610 0.000000 -0.010994
# 5 -0.004609 0.003882 0.008742 0.000000 0.017385 0.000000
# 6 0.000000 0.000000 0.000000 -0.010994 0.000000 0.069933
#
#
# Mechanical properties :
#
#
# Convention : Reuss Voigt Hill
#
# Bulk Modulus (GPa) = 60.31868 -73.21712 -6.44922
# Shear Modulus (GPa) = 20.66827 -9.04255 5.81286
#
# Velocity S-wave (km/s) = 3.38716 -2.24042 1.79630
# Velocity P-wave (km/s) = 6.98425 6.88005 0.84990
#
# Compressibility (1/GPa) = 0.01657861
#
# Stress axis : x y z
#
# Youngs Moduli (GPa) = 53.12696 64.30439 177.09665
#
# Poissons Ratio (x) = 0.19977 0.43184
# Poissons Ratio (y) = 0.16504 1.09374
# Poissons Ratio (z) = 0.12955 0.39714
#
# Static dielectric constant tensor:
#      x y z
#    x 2.932700 0.000000 -0.163320 
#    y 0.000000 3.266580 0.000000 
#    z -0.163320 0.000000 2.882640 
# 
# 
# High freq. dielectric constant tensor:
#      x y z
#    x 1.667190 0.000000 0.011540 
#    y 0.000000 1.690050 0.000000 
#    z 0.011540 0.000000 1.705610 
# 
# From -- ./inp_files/93517.got.cif
#   From: 2010.06.25/outbox.cif.g09.slc.cpg/sg10_47_cif.got.tgz:93517.got - 2010.06.27 22:07:45.
