data_PCOD8063204
_publ_section_title
;
Structure prediction by ZEFSAII (Michael W. Deem and Ramdas Pophale) SiO2 
 PCOD8063204
Probable space group: P 2/M
;
_chemical_formula_sum "Si O2"
_cell_formula_units_Z 32
_cell_length_a 15.588877
_cell_length_b 21.331687
_cell_length_c 16.227828
_cell_angle_alpha 90.000000
_cell_angle_beta 18.179056
_cell_angle_gamma 90.000000
_cell_volume 1683.595756
_symmetry_space_group_name_H-M "P 2/M"
_symmetry_group_IT_number 10
_symmetry_cell_setting 'monoclinic'
loop_
_space_group_symop_operation_xyz
x,y,z
-x,y,-z
-x,-y,-z
x,-y,z
loop_
_atom_site_type_symbol
_atom_site_label
_atom_site_fract_x
_atom_site_fract_y
_atom_site_fract_z
Si Si1 0.311097 0.768439 0.973593
Si Si2 0.725747 0.817761 0.467459
Si Si3 0.191460 0.071621 0.503136
Si Si4 0.900195 0.646335 0.888020
Si Si5 0.292614 0.573907 0.255169
Si Si6 0.382621 0.426509 0.361472
Si Si7 0.401655 0.122100 0.997266
Si Si8 0.791665 0.733955 0.263279
O O1 0.494892 0.776415 0.723901
O O2 0.251969 0.694262 0.036927
O O3 0.447730 0.804731 0.926412
O O4 0.023168 0.801953 0.228668
O O5 0.694679 0.891287 0.519122
O O6 0.716273 0.799188 0.379540
O O7 0.910669 0.099416 0.723345
O O8 0.155045 0.000000 0.563210
O O9 0.416907 0.077126 0.225713
O O10 0.109958 0.602610 0.648467
O O11 0.060203 0.684053 0.812682
O O12 0.661077 0.602932 0.145973
O O13 0.276753 0.500000 0.256523
O O14 0.388323 0.589394 0.259684
O O15 0.000000 0.604449 0.500000
O O16 0.500000 0.604025 0.000000
O O17 0.376858 0.500000 0.385291
O O18 0.500000 0.115883 0.000000
O O19 0.500000 0.704945 0.500000
O O20 0.000000 0.750546 0.000000
#
# Coordination Sequence:
#
# PCOD8063204 Si02
#       8
#     4   4   4   4   4   4   4   4
#     4   9  18  34  53  74 101 141 180 220 271 306
#     4   9  18  34  54  78 107 135 173 219 264 317
#     4  10  20  33  52  77 109 153 191 218 262 320
#     4  11  21  37  58  81 109 137 178 225 267 338
#     4   9  17  31  50  72 100 134 175 217 249 283
#     4  11  22  36  57  82 111 149 182 214 266 331
#     4  10  20  33  50  75 111 148 188 237 271 300
#     4  11  21  36  61  87 105 129 173 230 283 325
#
# _framework density 19.006938000000002
#
# number of rings (size 3 to 8) (size 9 to 14) (size 15 to 20)
#    0.000    2.000    0.000    5.625    0.000    3.500 
#    0.000    1.875    0.000   11.250    0.000    0.000 
#    0.000    0.000    0.000    0.000    0.000    0.000 
#
# Total GULP energy -396549.655774 kJ/mol
# GULP energy per Si atom -12392.176743 kJ/mol
# Density = 1.896368 g / cm^3
# Si number density = 19.006938 Si / 1000 Ang^3
#
#
#
# Elastic Constant Matrix: (Units=GPa)
#
#
# Indices 1 2 3 4 5 6 
#
# 1 66.8569 41.9158 23.7296 0.0000 2.1960 0.0000
# 2 41.9158 130.1208 34.0989 0.0000 2.1417 0.0000
# 3 23.7296 34.0989 116.8001 0.0000 -2.3830 0.0000
# 4 0.0000 0.0000 0.0000 27.9834 0.0000 -1.2986
# 5 2.1960 2.1417 -2.3830 0.0000 30.7231 0.0000
# 6 0.0000 0.0000 0.0000 -1.2986 0.0000 13.2822
#
#
#
# Elastic Compliance Matrix: (Units=1/GPa)
#
#
# Indices 1 2 3 4 5 6 
#
# 1 0.019329 -0.005600 -0.002316 0.000000 -0.001171 0.000000
# 2 -0.005600 0.009963 -0.001780 0.000000 -0.000432 0.000000
# 3 -0.002316 -0.001780 0.009573 0.000000 0.001032 0.000000
# 4 0.000000 0.000000 0.000000 0.035898 0.000000 0.003510
# 5 -0.001171 -0.000432 0.001032 0.000000 0.032743 0.000000
# 6 0.000000 0.000000 0.000000 0.003510 0.000000 0.075632
#
#
# Mechanical properties :
#
#
# Convention : Reuss Voigt Hill
#
# Bulk Modulus (GPa) = 51.35361 57.02962 54.19161
# Shear Modulus (GPa) = 23.92125 28.66664 26.29394
#
# Velocity S-wave (km/s) = 3.55146 3.88779 3.72343
# Velocity P-wave (km/s) = 6.62527 7.08682 6.85993
#
# Compressibility (1/GPa) = 0.01947283
#
# Stress axis : x y z
#
# Youngs Moduli (GPa) = 51.73623 100.37513 104.46350
#
# Poissons Ratio (x) = 0.56212 0.24192
# Poissons Ratio (y) = 0.28974 0.18590
# Poissons Ratio (z) = 0.11981 0.17862
#
# Static dielectric constant tensor:
#      x y z
#    x 3.384580 0.000000 -0.062870 
#    y 0.000000 3.500770 0.000000 
#    z -0.062870 0.000000 3.799420 
# 
# 
# High freq. dielectric constant tensor:
#      x y z
#    x 1.711560 0.000000 -0.006400 
#    y 0.000000 1.722280 0.000000 
#    z -0.006400 0.000000 1.770380 
# 
# From -- ./inp_files/67927.got.cif
#   From: 2010.06.25/outbox.cif.g09.slc.cpg/sg10_34_cif.got.tgz:67927.got - 2010.06.27 22:07:45.
