data_PCOD8063541
_publ_section_title
;
Structure prediction by ZEFSAII (Michael W. Deem and Ramdas Pophale) SiO2 
 PCOD8063541
Probable space group: P 2/M
;
_chemical_formula_sum "Si O2"
_cell_formula_units_Z 32
_cell_length_a 21.039001
_cell_length_b 8.778189
_cell_length_c 16.685099
_cell_angle_alpha 90.000000
_cell_angle_beta 31.875388
_cell_angle_gamma 90.000000
_cell_volume 1627.246278
_symmetry_space_group_name_H-M "P 2/M"
_symmetry_group_IT_number 10
_symmetry_cell_setting 'monoclinic'
loop_
_space_group_symop_operation_xyz
x,y,z
-x,y,-z
-x,-y,-z
x,-y,z
loop_
_atom_site_type_symbol
_atom_site_label
_atom_site_fract_x
_atom_site_fract_y
_atom_site_fract_z
Si Si1 0.030240 0.179528 0.377162
Si Si2 0.304801 0.178566 0.507204
Si Si3 0.806483 0.672625 0.231714
Si Si4 0.524351 0.678444 0.786053
Si Si5 0.274657 0.679596 0.131161
Si Si6 0.371222 0.169659 0.178115
Si Si7 0.054463 0.670812 0.061265
Si Si8 0.087978 0.317603 0.642244
O O1 0.154938 0.259053 0.216645
O O2 0.926102 0.242077 0.429948
O O3 0.000000 0.228449 0.500000
O O4 0.042412 0.000000 0.355032
O O5 0.289961 0.225788 0.616623
O O6 0.437407 0.231092 0.335455
O O7 0.211923 0.264602 0.548736
O O8 0.287409 0.000000 0.517410
O O9 0.756782 0.500000 0.276787
O O10 0.840514 0.746502 0.107236
O O11 0.928560 0.670921 0.150537
O O12 0.534509 0.500000 0.759898
O O13 0.618713 0.725100 0.754585
O O14 0.388929 0.727001 0.954484
O O15 0.270868 0.500000 0.146887
O O16 0.279027 0.755875 0.214306
O O17 0.324746 0.000000 0.250892
O O18 0.500000 0.158494 0.000000
O O19 0.100190 0.500000 0.024558
O O20 0.025186 0.741192 0.180322
O O21 0.088697 0.500000 0.635407
#
# Coordination Sequence:
#
# PCOD8063541 Si02
#       8
#     4   4   4   4   4   4   4   4
#     4  11  25  41  55  73 102 136 172 214 260 304
#     4  11  21  31  47  76 112 141 169 206 256 308
#     4   8  13  26  46  70 101 135 168 201 246 301
#     4  10  20  34  52  74  99 131 170 211 253 302
#     4  10  21  37  56  75  95 126 173 217 253 300
#     4   9  17  30  49  72  97 124 156 201 255 302
#     4   7  12  25  48  72  96 130 169 208 247 295
#     4  10  20  36  55  75 101 136 178 216 253 300
#
# _framework density 19.665125
#
# number of rings (size 3 to 8) (size 9 to 14) (size 15 to 20)
#    0.000    2.500    0.000    4.500    1.750    4.000 
#    0.000    5.625    0.000    0.000    0.000    0.875 
#    0.000    7.000    0.000    0.000    0.000    0.000 
#
# Total GULP energy -396525.177789 kJ/mol
# GULP energy per Si atom -12391.411806 kJ/mol
# Density = 1.962037 g / cm^3
# Si number density = 19.665125 Si / 1000 Ang^3
#
#
#
# Elastic Constant Matrix: (Units=GPa)
#
#
# Indices 1 2 3 4 5 6 
#
# 1 28.4137 13.1316 13.8532 0.0000 8.0021 0.0000
# 2 13.1316 75.6928 36.7911 0.0000 10.0338 0.0000
# 3 13.8532 36.7911 100.2248 0.0000 23.9243 0.0000
# 4 0.0000 0.0000 0.0000 24.2584 0.0000 -1.9449
# 5 8.0021 10.0338 23.9243 0.0000 30.0825 0.0000
# 6 0.0000 0.0000 0.0000 -1.9449 0.0000 17.5798
#
#
#
# Elastic Compliance Matrix: (Units=1/GPa)
#
#
# Indices 1 2 3 4 5 6 
#
# 1 0.040628 -0.005105 -0.001936 0.000000 -0.007565 0.000000
# 2 -0.005105 0.016738 -0.005468 0.000000 0.000124 0.000000
# 3 -0.001936 -0.005468 0.014434 0.000000 -0.009141 0.000000
# 4 0.000000 0.000000 0.000000 0.041592 0.000000 0.004601
# 5 -0.007565 0.000124 -0.009141 0.000000 0.042482 0.000000
# 6 0.000000 0.000000 0.000000 0.004601 0.000000 0.057392
#
#
# Mechanical properties :
#
#
# Convention : Reuss Voigt Hill
#
# Bulk Modulus (GPa) = 21.37547 36.87593 29.12570
# Shear Modulus (GPa) = 19.69439 23.75450 21.72444
#
# Velocity S-wave (km/s) = 3.16806 3.47933 3.32734
# Velocity P-wave (km/s) = 4.92702 5.91047 5.44101
#
# Compressibility (1/GPa) = 0.04678260
#
# Stress axis : x y z
#
# Youngs Moduli (GPa) = 24.61373 59.74278 69.27849
#
# Poissons Ratio (x) = 0.30496 0.13413
# Poissons Ratio (y) = 0.12564 0.37885
# Poissons Ratio (z) = 0.04765 0.32670
#
# Static dielectric constant tensor:
#      x y z
#    x 3.369820 0.000000 0.477710 
#    y 0.000000 3.466780 0.000000 
#    z 0.477710 0.000000 4.072260 
# 
# 
# High freq. dielectric constant tensor:
#      x y z
#    x 1.713820 0.000000 0.025530 
#    y 0.000000 1.755730 0.000000 
#    z 0.025530 0.000000 1.780720 
# 
# From -- ./inp_files/79918.got.cif
#   From: 2010.06.25/outbox.cif.g09.slc.cpg/sg10_40_cif.got.tgz:79918.got - 2010.06.27 22:07:45.
