data_PCOD8063855
_publ_section_title
;
Structure prediction by ZEFSAII (Michael W. Deem and Ramdas Pophale) SiO2 
 PCOD8063855
Probable space group: P 2/M
;
_chemical_formula_sum "Si O2"
_cell_formula_units_Z 32
_cell_length_a 24.669359
_cell_length_b 15.071549
_cell_length_c 8.891653
_cell_angle_alpha 90.000000
_cell_angle_beta 152.169838
_cell_angle_gamma 90.000000
_cell_volume 1543.397207
_symmetry_space_group_name_H-M "P 2/M"
_symmetry_group_IT_number 10
_symmetry_cell_setting 'monoclinic'
loop_
_space_group_symop_operation_xyz
x,y,z
-x,y,-z
-x,-y,-z
x,-y,z
loop_
_atom_site_type_symbol
_atom_site_label
_atom_site_fract_x
_atom_site_fract_y
_atom_site_fract_z
Si Si1 0.187208 0.104031 0.628536
Si Si2 0.827296 0.660275 0.899262
Si Si3 0.970388 0.597874 0.770437
Si Si4 0.748742 0.095669 0.550907
Si Si5 0.620214 0.244850 0.863341
Si Si6 0.243351 0.605098 0.944772
Si Si7 0.618620 0.734579 0.213081
Si Si8 0.041888 0.845252 0.766090
O O1 0.189780 0.117412 0.456231
O O2 0.064070 0.141742 0.379488
O O3 0.204254 0.000000 0.715227
O O4 0.288907 0.165503 0.948220
O O5 0.721952 0.671476 0.523595
O O6 0.777969 0.627217 0.934697
O O7 0.910513 0.745540 0.116206
O O8 0.913804 0.587081 0.045105
O O9 0.925910 0.500000 0.703976
O O10 0.865931 0.641866 0.420265
O O11 0.000000 0.649856 0.000000
O O12 0.648553 0.166009 0.342552
O O13 0.687120 0.000000 0.396710
O O14 0.850225 0.093071 0.923701
O O15 0.500000 0.209553 0.500000
O O16 0.649199 0.336560 0.848244
O O17 0.607527 0.269097 0.007111
O O18 0.267584 0.500000 0.985499
O O19 0.500000 0.703598 0.000000
O O20 0.000000 0.875127 0.500000
#
# Coordination Sequence:
#
# PCOD8063855 Si02
#       8
#     4   4   4   4   4   4   4   4
#     4  10  21  38  59  84 117 157 196 234 285 348
#     4  11  21  36  58  82 116 153 193 238 287 345
#     4  10  20  34  55  85 117 146 181 228 283 344
#     4   9  20  37  56  80 112 152 194 235 284 345
#     4  11  23  41  63  85 116 153 196 248 295 348
#     4  11  23  40  63  89 118 155 197 242 295 352
#     4  10  22  39  59  83 111 150 194 240 295 348
#     4  11  21  32  52  84 119 150 187 235 286 338
#
# _framework density 20.733481999999999
#
# number of rings (size 3 to 8) (size 9 to 14) (size 15 to 20)
#    0.000    1.625    0.000    5.250    0.000    6.750 
#    0.000    0.625    0.000    2.625    0.000    0.000 
#    0.000    0.000    0.000    0.000    0.000    0.000 
#
# Total GULP energy -396717.517063 kJ/mol
# GULP energy per Si atom -12397.422408 kJ/mol
# Density = 2.068629 g / cm^3
# Si number density = 20.733482 Si / 1000 Ang^3
#
#
#
# Elastic Constant Matrix: (Units=GPa)
#
#
# Indices 1 2 3 4 5 6 
#
# 1 71.7140 12.5349 21.0976 0.0000 -5.2886 0.0000
# 2 12.5349 87.3712 21.5849 0.0000 5.6991 0.0000
# 3 21.0976 21.5849 107.7810 0.0000 -11.2364 0.0000
# 4 0.0000 0.0000 0.0000 15.5927 0.0000 -1.0162
# 5 -5.2886 5.6991 -11.2364 0.0000 40.5215 0.0000
# 6 0.0000 0.0000 0.0000 -1.0162 0.0000 27.3076
#
#
#
# Elastic Compliance Matrix: (Units=1/GPa)
#
#
# Indices 1 2 3 4 5 6 
#
# 1 0.015069 -0.001653 -0.002460 0.000000 0.001517 0.000000
# 2 -0.001653 0.012460 -0.002448 0.000000 -0.002647 0.000000
# 3 -0.002460 -0.002448 0.010557 0.000000 0.002951 0.000000
# 4 0.000000 0.000000 0.000000 0.064288 0.000000 0.002392
# 5 0.001517 -0.002647 0.002951 0.000000 0.026067 0.000000
# 6 0.000000 0.000000 0.000000 0.002392 0.000000 0.036709
#
#
# Mechanical properties :
#
#
# Convention : Reuss Voigt Hill
#
# Bulk Modulus (GPa) = 40.05764 41.92234 40.98999
# Shear Modulus (GPa) = 26.79615 30.79429 28.79522
#
# Velocity S-wave (km/s) = 3.59891 3.85807 3.73074
# Velocity P-wave (km/s) = 6.05242 6.33323 6.19441
#
# Compressibility (1/GPa) = 0.02496403
#
# Stress axis : x y z
#
# Youngs Moduli (GPa) = 66.36176 80.25740 94.71940
#
# Poissons Ratio (x) = 0.13266 0.23306
# Poissons Ratio (y) = 0.10970 0.23184
# Poissons Ratio (z) = 0.16328 0.19644
#
# Static dielectric constant tensor:
#      x y z
#    x 3.685560 0.000000 -0.135200 
#    y 0.000000 3.725610 0.000000 
#    z -0.135200 0.000000 3.807810 
# 
# 
# High freq. dielectric constant tensor:
#      x y z
#    x 1.811430 0.000000 -0.009560 
#    y 0.000000 1.807740 0.000000 
#    z -0.009560 0.000000 1.812710 
# 
# From -- ./inp_files/36411.got.cif
#   From: 2010.06.25/outbox.cif.g09.slc.cpg/sg10_19_cif.got.tgz:36411.got - 2010.06.27 22:07:45.
