data_PCOD8063818
_publ_section_title
;
Structure prediction by ZEFSAII (Michael W. Deem and Ramdas Pophale) SiO2 
 PCOD8063818
Probable space group: P 2/M
;
_chemical_formula_sum "Si O2"
_cell_formula_units_Z 28
_cell_length_a 9.630020
_cell_length_b 8.833213
_cell_length_c 31.280339
_cell_angle_alpha 90.000000
_cell_angle_beta 145.179500
_cell_angle_gamma 90.000000
_cell_volume 1519.354191
_symmetry_space_group_name_H-M "P 2/M"
_symmetry_group_IT_number 10
_symmetry_cell_setting 'monoclinic'
loop_
_space_group_symop_operation_xyz
x,y,z
-x,y,-z
-x,-y,-z
x,-y,z
loop_
_atom_site_type_symbol
_atom_site_label
_atom_site_fract_x
_atom_site_fract_y
_atom_site_fract_z
Si Si1 0.881110 0.320216 0.265305
Si Si2 0.228020 0.675211 0.588046
Si Si3 0.621122 0.320617 0.898679
Si Si4 0.723137 0.177627 0.311236
Si Si5 0.277159 0.179685 0.307860
Si Si6 0.957886 0.321542 0.056396
Si Si7 0.168733 0.174654 0.186477
O O1 0.909313 0.500000 0.269659
O O2 0.648190 0.259483 0.179415
O O3 0.857436 0.270361 0.308246
O O4 0.118266 0.240279 0.306635
O O5 0.277420 0.500000 0.611238
O O6 0.171080 0.765371 0.617089
O O7 0.459610 0.744352 0.622243
O O8 0.000000 0.697027 0.500000
O O9 0.622677 0.500000 0.895619
O O10 0.810628 0.257412 0.911454
O O11 0.711734 0.270565 0.969058
O O12 0.436825 0.213676 0.236843
O O13 0.775832 0.000000 0.319624
O O14 0.149198 0.227411 0.230764
O O15 0.310246 0.000000 0.318681
O O16 0.968413 0.500000 0.061935
O O17 0.965991 0.258393 0.106603
O O18 0.110893 0.000000 0.167897
#
# Coordination Sequence:
#
# PCOD8063818 Si02
#       7
#     4   4   4   4   4   4   4
#     4  11  20  34  55  80 109 143 185 229 271 316
#     4  10  21  39  63  89 112 136 173 218 259 308
#     4   8  16  28  46  74 104 136 176 226 275 315
#     4  10  20  34  55  82 112 145 179 216 263 321
#     4  10  22  38  55  78 112 147 177 216 269 327
#     4   9  15  28  49  72 100 135 180 228 271 316
#     4   9  18  32  49  73 103 137 181 224 264 316
#
# _framework density 18.428882999999999
#
# number of rings (size 3 to 8) (size 9 to 14) (size 15 to 20)
#    0.000    2.429    1.429    3.429    0.000    4.000 
#    0.000    4.286    0.000    8.571    0.000    0.000 
#    0.000    0.000    0.000    0.000    0.000    0.000 
#
# Total GULP energy -347144.138363 kJ/mol
# GULP energy per Si atom -12398.004942 kJ/mol
# Density = 1.838694 g / cm^3
# Si number density = 18.428883 Si / 1000 Ang^3
#
#
#
# Elastic Constant Matrix: (Units=GPa)
#
#
# Indices 1 2 3 4 5 6 
#
# 1 78.2401 10.9077 27.2654 0.0000 4.1122 0.0000
# 2 10.9077 46.3464 29.3642 0.0000 2.2882 0.0000
# 3 27.2654 29.3642 93.7247 0.0000 -1.3565 0.0000
# 4 0.0000 0.0000 0.0000 19.9276 0.0000 -8.8904
# 5 4.1122 2.2882 -1.3565 0.0000 18.6300 0.0000
# 6 0.0000 0.0000 0.0000 -8.8904 0.0000 27.0576
#
#
#
# Elastic Compliance Matrix: (Units=1/GPa)
#
#
# Indices 1 2 3 4 5 6 
#
# 1 0.014464 -0.000672 -0.004046 0.000000 -0.003405 0.000000
# 2 -0.000672 0.027241 -0.008394 0.000000 -0.003809 0.000000
# 3 -0.004046 -0.008394 0.014520 0.000000 0.002981 0.000000
# 4 0.000000 0.000000 0.000000 0.058801 0.000000 0.019321
# 5 -0.003405 -0.003809 0.002981 0.000000 0.055113 0.000000
# 6 0.000000 0.000000 0.000000 0.019321 0.000000 0.043306
#
#
# Mechanical properties :
#
#
# Convention : Reuss Voigt Hill
#
# Bulk Modulus (GPa) = 33.33430 39.26507 36.29969
# Shear Modulus (GPa) = 20.02628 23.17463 21.60045
#
# Velocity S-wave (km/s) = 3.30006 3.55000 3.42731
# Velocity P-wave (km/s) = 5.71383 6.17704 5.94994
#
# Compressibility (1/GPa) = 0.02999913
#
# Stress axis : x y z
#
# Youngs Moduli (GPa) = 69.13757 36.70880 68.87155
#
# Poissons Ratio (x) = 0.02468 0.27868
# Poissons Ratio (y) = 0.04648 0.57813
# Poissons Ratio (z) = 0.27975 0.30815
#
# Static dielectric constant tensor:
#      x y z
#    x 3.256330 0.000000 -0.103250 
#    y 0.000000 3.270410 0.000000 
#    z -0.103250 0.000000 3.470440 
# 
# 
# High freq. dielectric constant tensor:
#      x y z
#    x 1.696180 0.000000 -0.013310 
#    y 0.000000 1.708670 0.000000 
#    z -0.013310 0.000000 1.711790 
# 
# From -- ./inp_files/37954.got.cif
#   From: 2010.06.25/outbox.cif.g09.slc.cpg/sg10_19_cif.got.tgz:37954.got - 2010.06.27 22:07:45.
