data_PCOD8063662
_publ_section_title
;
Structure prediction by ZEFSAII (Michael W. Deem and Ramdas Pophale) SiO2 
 PCOD8063662
Probable space group: P 2/M
;
_chemical_formula_sum "Si O2"
_cell_formula_units_Z 32
_cell_length_a 24.391834
_cell_length_b 9.092778
_cell_length_c 16.368116
_cell_angle_alpha 90.000000
_cell_angle_beta 152.605232
_cell_angle_gamma 90.000000
_cell_volume 1670.358274
_symmetry_space_group_name_H-M "P 2/M"
_symmetry_group_IT_number 10
_symmetry_cell_setting 'monoclinic'
loop_
_space_group_symop_operation_xyz
x,y,z
-x,y,-z
-x,-y,-z
x,-y,z
loop_
_atom_site_type_symbol
_atom_site_label
_atom_site_fract_x
_atom_site_fract_y
_atom_site_fract_z
Si Si1 0.734284 0.167969 0.924600
Si Si2 0.128974 0.668708 0.198170
Si Si3 0.164240 0.326030 0.651557
Si Si4 0.904815 0.673922 0.264227
Si Si5 0.520917 0.166974 0.361678
Si Si6 0.679758 0.332444 0.688615
Si Si7 0.632851 0.674675 0.200582
Si Si8 0.698981 0.827284 0.456407
O O1 0.620966 0.185170 0.835207
O O2 0.703988 0.230813 0.796914
O O3 0.771664 0.000000 0.963580
O O4 0.845917 0.254189 0.107876
O O5 0.119969 0.500000 0.216162
O O6 0.210523 0.683961 0.227148
O O7 0.181985 0.763445 0.343265
O O8 0.000000 0.729300 0.000000
O O9 0.166311 0.500000 0.656929
O O10 0.162017 0.268750 0.742062
O O11 0.279245 0.267767 0.754864
O O12 0.042467 0.275144 0.446382
O O13 0.894007 0.500000 0.242229
O O14 0.561125 0.275834 0.486857
O O15 0.583753 0.208589 0.359695
O O16 0.555000 0.000000 0.431596
O O17 0.659960 0.500000 0.690140
O O18 0.640402 0.500000 0.222426
O O19 0.675284 0.749660 0.339554
O O20 0.500000 0.724272 0.000000
O O21 0.716956 0.000000 0.466374
#
# Coordination Sequence:
#
# PCOD8063662 Si02
#       8
#     4   4   4   4   4   4   4   4
#     4  11  22  34  51  77 108 140 174 213 265 319
#     4   9  19  37  59  80 106 142 181 222 268 318
#     4   8  17  36  57  78 106 138 173 220 273 316
#     4   9  18  35  58  78 101 138 181 220 261 313
#     4   9  20  37  53  71 106 147 174 209 265 320
#     4  10  20  34  53  79 105 134 177 221 259 306
#     4  10  21  36  57  84 112 142 180 227 278 325
#     4  10  21  37  55  79 110 144 182 221 269 326
#
# _framework density 19.157565999999999
#
# number of rings (size 3 to 8) (size 9 to 14) (size 15 to 20)
#    0.000    2.500    0.000    2.250    1.750    5.000 
#    0.000    7.500    0.000    0.000    0.000    0.000 
#    0.000    0.000    0.000    0.000    0.000    0.000 
#
# Total GULP energy -396788.822445 kJ/mol
# GULP energy per Si atom -12399.650701 kJ/mol
# Density = 1.911396 g / cm^3
# Si number density = 19.157566 Si / 1000 Ang^3
#
#
#
# Elastic Constant Matrix: (Units=GPa)
#
#
# Indices 1 2 3 4 5 6 
#
# 1 83.0257 27.3125 47.6466 0.0000 1.5560 0.0000
# 2 27.3125 59.6807 33.1527 0.0000 2.0297 0.0000
# 3 47.6466 33.1527 100.6010 0.0000 10.5671 0.0000
# 4 0.0000 0.0000 0.0000 -52.7157 0.0000 -4.5629
# 5 1.5560 2.0297 10.5671 0.0000 22.4171 0.0000
# 6 0.0000 0.0000 0.0000 -4.5629 0.0000 23.4533
#
#
#
# Elastic Compliance Matrix: (Units=1/GPa)
#
#
# Indices 1 2 3 4 5 6 
#
# 1 0.017470 -0.004084 -0.007196 0.000000 0.002549 0.000000
# 2 -0.004084 0.021507 -0.005238 0.000000 0.000805 0.000000
# 3 -0.007196 -0.005238 0.015752 0.000000 -0.006452 0.000000
# 4 0.000000 0.000000 0.000000 -0.018656 0.000000 -0.003630
# 5 0.002549 0.000805 -0.006452 0.000000 0.047400 0.000000
# 6 0.000000 0.000000 0.000000 -0.003630 0.000000 0.041932
#
#
# Mechanical properties :
#
#
# Convention : Reuss Voigt Hill
#
# Bulk Modulus (GPa) = 46.09736 51.05902 48.57819
# Shear Modulus (GPa) = 30.17999 7.64396 18.91197
#
# Velocity S-wave (km/s) = 3.97338 1.99968 3.14535
# Velocity P-wave (km/s) = 6.72048 5.66053 6.21315
#
# Compressibility (1/GPa) = 0.02169322
#
# Stress axis : x y z
#
# Youngs Moduli (GPa) = 57.24151 46.49603 63.48347
#
# Poissons Ratio (x) = 0.18991 0.45682
# Poissons Ratio (y) = 0.23379 0.33251
# Poissons Ratio (z) = 0.41190 0.24354
#
# Static dielectric constant tensor:
#      x y z
#    x 3.711450 0.000000 0.194160 
#    y 0.000000 3.380830 0.000000 
#    z 0.194160 0.000000 3.529650 
# 
# 
# High freq. dielectric constant tensor:
#      x y z
#    x 1.746660 0.000000 0.003850 
#    y 0.000000 1.731420 0.000000 
#    z 0.003850 0.000000 1.747190 
# 
# From -- ./inp_files/71670.got.cif
#   From: 2010.06.25/outbox.cif.g09.slc.cpg/sg10_36_cif.got.tgz:71670.got - 2010.06.27 22:07:45.
