data_PCOD8063974
_publ_section_title
;
Structure prediction by ZEFSAII (Michael W. Deem and Ramdas Pophale) SiO2 
 PCOD8063974
Probable space group: P 2/M
;
_chemical_formula_sum "Si O2"
_cell_formula_units_Z 28
_cell_length_a 26.202402
_cell_length_b 9.780864
_cell_length_c 7.126355
_cell_angle_alpha 90.000000
_cell_angle_beta 39.694374
_cell_angle_gamma 90.000000
_cell_volume 1166.480372
_symmetry_space_group_name_H-M "P 2/M"
_symmetry_group_IT_number 10
_symmetry_cell_setting 'monoclinic'
loop_
_space_group_symop_operation_xyz
x,y,z
-x,y,-z
-x,-y,-z
x,-y,z
loop_
_atom_site_type_symbol
_atom_site_label
_atom_site_fract_x
_atom_site_fract_y
_atom_site_fract_z
Si Si1 0.426542 0.347992 0.078940
Si Si2 0.157626 0.649206 0.678072
Si Si3 0.926542 0.152008 0.578940
Si Si4 0.500000 0.268264 0.500000
Si Si5 0.000000 0.768264 0.000000
Si Si6 0.657626 0.149206 0.178072
Si Si7 0.212632 0.346364 0.097521
Si Si8 0.712632 0.846364 0.597521
O O1 0.396053 0.500000 0.220524
O O2 0.452573 0.357853 0.786593
O O3 0.500000 0.302458 0.000000
O O4 0.357777 0.236213 0.308173
O O5 0.170459 0.500000 0.734988
O O6 0.194365 0.646049 0.367737
O O7 0.204122 0.763837 0.669225
O O8 0.063084 0.676713 0.936763
O O9 0.857777 0.263787 0.808173
O O10 0.000000 0.197542 0.500000
O O11 0.896053 0.000000 0.720524
O O12 0.952573 0.142147 0.286593
O O13 0.563084 0.176713 0.436763
O O14 0.670459 0.000000 0.234988
O O15 0.704122 0.263837 0.169225
O O16 0.694365 0.146049 0.867737
O O17 0.220216 0.500000 0.993160
O O18 0.720216 0.000000 0.493160
#
# Coordination Sequence:
#
# PCOD8063974 Si02
#       8
#     4   4   4   2   2   4   4   4
#     4  10  21  37  57  81 109 142 180 222 269 320
#     4   9  17  31  53  80 110 143 180 222 268 319
#     4  10  21  37  57  81 109 142 180 222 269 320
#     4  10  20  34  58  84 108 140 180 224 268 316
#     4  10  20  34  58  84 108 140 180 224 268 316
#     4   9  17  31  53  80 110 143 180 222 268 319
#     4   9  18  32  52  79 110 144 181 221 268 320
#     4   9  18  32  52  79 110 144 181 221 268 320
#
# _framework density 24.003833
#
# number of rings (size 3 to 8) (size 9 to 14) (size 15 to 20)
#    0.000    2.571    0.000    1.714    0.000    9.714 
#    0.000    1.429    0.000    0.000    0.000    0.000 
#    0.000    0.000    0.000    0.000    0.000    0.000 
#
# Total GULP energy -347122.508412 kJ/mol
# GULP energy per Si atom -12397.232443 kJ/mol
# Density = 2.394920 g / cm^3
# Si number density = 24.003833 Si / 1000 Ang^3
#
#
#
# Elastic Constant Matrix: (Units=GPa)
#
#
# Indices 1 2 3 4 5 6 
#
# 1 117.7290 79.4716 33.1868 0.0000 -48.9398 0.0000
# 2 79.4716 236.5223 48.4877 0.0000 -60.2449 0.0000
# 3 33.1868 48.4877 64.9060 0.0000 -36.1890 0.0000
# 4 0.0000 0.0000 0.0000 4.2265 0.0000 -5.1564
# 5 -48.9398 -60.2449 -36.1890 0.0000 59.9026 0.0000
# 6 0.0000 0.0000 0.0000 -5.1564 0.0000 26.1478
#
#
#
# Elastic Compliance Matrix: (Units=1/GPa)
#
#
# Indices 1 2 3 4 5 6 
#
# 1 0.013796 -0.002338 -0.000504 0.000000 0.008616 0.000000
# 2 -0.002338 0.006192 -0.001543 0.000000 0.003386 0.000000
# 3 -0.000504 -0.001543 0.023708 0.000000 0.012360 0.000000
# 4 0.000000 0.000000 0.000000 0.311563 0.000000 0.061441
# 5 0.008616 0.003386 0.012360 0.000000 0.034604 0.000000
# 6 0.000000 0.000000 0.000000 0.061441 0.000000 0.050360
#
#
# Mechanical properties :
#
#
# Convention : Reuss Voigt Hill
#
# Bulk Modulus (GPa) = 28.63081 82.38328 55.50704
# Shear Modulus (GPa) = 10.85459 35.25612 23.05536
#
# Velocity S-wave (km/s) = 2.12881 3.83661 3.10253
# Velocity P-wave (km/s) = 4.24216 7.34993 6.00073
#
# Compressibility (1/GPa) = 0.03492741
#
# Stress axis : x y z
#
# Youngs Moduli (GPa) = 72.48739 161.49961 42.17932
#
# Poissons Ratio (x) = 0.37751 0.02125
# Poissons Ratio (y) = 0.16944 0.06508
# Poissons Ratio (z) = 0.03652 0.24917
#
# Static dielectric constant tensor:
#      x y z
#    x 4.131810 0.000000 -0.222450 
#    y 0.000000 4.488160 0.000000 
#    z -0.222450 0.000000 4.072730 
# 
# 
# High freq. dielectric constant tensor:
#      x y z
#    x 1.949580 0.000000 -0.009810 
#    y 0.000000 1.950950 0.000000 
#    z -0.009810 0.000000 1.936870 
# 
# From -- ./inp_files/37136.got.cif
#   From: 2010.06.25/outbox.cif.g09.slc.cpg/sg10_19_cif.got.tgz:37136.got - 2010.06.27 22:07:45.
