data_PCOD8063520
_publ_section_title
;
Structure prediction by ZEFSAII (Michael W. Deem and Ramdas Pophale) SiO2 
 PCOD8063520
Probable space group: P 2/M
;
_chemical_formula_sum "Si O2"
_cell_formula_units_Z 32
_cell_length_a 23.518135
_cell_length_b 9.947172
_cell_length_c 10.615449
_cell_angle_alpha 90.000000
_cell_angle_beta 136.448447
_cell_angle_gamma 90.000000
_cell_volume 1711.057042
_symmetry_space_group_name_H-M "P 2/M"
_symmetry_group_IT_number 10
_symmetry_cell_setting 'monoclinic'
loop_
_space_group_symop_operation_xyz
x,y,z
-x,y,-z
-x,-y,-z
x,-y,z
loop_
_atom_site_type_symbol
_atom_site_label
_atom_site_fract_x
_atom_site_fract_y
_atom_site_fract_z
Si Si1 0.636105 0.851441 0.157292
Si Si2 0.347018 0.349017 0.167116
Si Si3 0.939953 0.840309 0.512646
Si Si4 0.646872 0.347132 0.537748
Si Si5 0.526735 0.344791 0.847608
Si Si6 0.060948 0.840427 0.205998
Si Si7 0.755820 0.843010 0.575069
Si Si8 0.763007 0.850168 0.135209
O O1 0.692367 0.807370 0.363174
O O2 0.695064 0.854329 0.132867
O O3 0.597980 0.000000 0.117420
O O4 0.562200 0.745205 0.018791
O O5 0.315433 0.500000 0.089356
O O6 0.380569 0.334199 0.361846
O O7 0.423090 0.313021 0.199007
O O8 0.268759 0.250502 0.023416
O O9 0.961719 0.786021 0.689219
O O10 0.847896 0.794506 0.329544
O O11 0.000000 0.781485 0.500000
O O12 0.946177 0.000000 0.525918
O O13 0.673422 0.500000 0.548969
O O14 0.568049 0.304357 0.327469
O O15 0.724338 0.247991 0.640116
O O16 0.535474 0.500000 0.901146
O O17 0.153374 0.795896 0.319357
O O18 0.054756 0.000000 0.197910
O O19 0.000000 0.781495 0.000000
O O20 0.754716 0.000000 0.610504
O O21 0.775971 0.000000 0.098679
#
# Coordination Sequence:
#
# PCOD8063520 Si02
#       8
#     4   4   4   4   4   4   4   4
#     4   9  17  31  50  71 100 135 167 204 254 300
#     4   9  18  33  52  72  97 131 168 208 257 305
#     4   9  16  27  47  76 106 133 166 212 260 303
#     4  10  21  35  50  72 103 135 169 213 257 301
#     4   9  18  33  53  74  96 129 173 214 254 302
#     4   9  17  31  51  75 106 141 173 208 256 313
#     4  10  20  34  52  73 102 138 171 206 252 306
#     4   9  16  29  50  74 100 129 163 204 251 301
#
# _framework density 18.701889000000001
#
# number of rings (size 3 to 8) (size 9 to 14) (size 15 to 20)
#    0.000    2.750    1.250    0.375    0.000    4.500 
#    0.000    5.000    0.000    4.500    0.000    0.000 
#    0.000    0.000    0.000    0.000    0.000    0.000 
#
# Total GULP energy -396657.012494 kJ/mol
# GULP energy per Si atom -12395.531640 kJ/mol
# Density = 1.865932 g / cm^3
# Si number density = 18.701889 Si / 1000 Ang^3
#
#
#
# Elastic Constant Matrix: (Units=GPa)
#
#
# Indices 1 2 3 4 5 6 
#
# 1 82.2913 30.4372 43.4746 0.0000 5.3080 0.0000
# 2 30.4372 54.2051 36.4235 0.0000 7.5746 0.0000
# 3 43.4746 36.4235 95.4281 0.0000 8.1422 0.0000
# 4 0.0000 0.0000 0.0000 2.9424 0.0000 0.4329
# 5 5.3080 7.5746 8.1422 0.0000 17.7382 0.0000
# 6 0.0000 0.0000 0.0000 0.4329 0.0000 19.8914
#
#
#
# Elastic Compliance Matrix: (Units=1/GPa)
#
#
# Indices 1 2 3 4 5 6 
#
# 1 0.017322 -0.005942 -0.005618 0.000000 -0.000067 0.000000
# 2 -0.005942 0.027593 -0.007255 0.000000 -0.006674 0.000000
# 3 -0.005618 -0.007255 0.016027 0.000000 -0.002578 0.000000
# 4 0.000000 0.000000 0.000000 0.340953 0.000000 -0.007421
# 5 -0.000067 -0.006674 -0.002578 0.000000 0.060429 0.000000
# 6 0.000000 0.000000 0.000000 -0.007421 0.000000 0.050434
#
#
# Mechanical properties :
#
#
# Convention : Reuss Voigt Hill
#
# Bulk Modulus (GPa) = 42.89612 50.28836 46.59224
# Shear Modulus (GPa) = 8.95801 16.22036 12.58918
#
# Velocity S-wave (km/s) = 2.19096 2.94821 2.59733
# Velocity P-wave (km/s) = 5.42098 6.20782 5.82769
#
# Compressibility (1/GPa) = 0.02331213
#
# Stress axis : x y z
#
# Youngs Moduli (GPa) = 57.72998 36.24102 62.39293
#
# Poissons Ratio (x) = 0.21536 0.35050
# Poissons Ratio (y) = 0.34306 0.45267
# Poissons Ratio (z) = 0.32430 0.26293
#
# Static dielectric constant tensor:
#      x y z
#    x 3.426910 0.000000 -0.053750 
#    y 0.000000 3.316260 0.000000 
#    z -0.053750 0.000000 3.555850 
# 
# 
# High freq. dielectric constant tensor:
#      x y z
#    x 1.724220 0.000000 -0.003390 
#    y 0.000000 1.690720 0.000000 
#    z -0.003390 0.000000 1.727280 
# 
# From -- ./inp_files/34850.got.cif
#   From: 2010.06.25/outbox.cif.g09.slc.cpg/sg10_18_cif.got.tgz:34850.got - 2010.06.27 22:07:45.
