data_PCOD8063748
_publ_section_title
;
Structure prediction by ZEFSAII (Michael W. Deem and Ramdas Pophale) SiO2 
 PCOD8063748
Probable space group: P 2/M
;
_chemical_formula_sum "Si O2"
_cell_formula_units_Z 32
_cell_length_a 19.788215
_cell_length_b 9.628906
_cell_length_c 25.371793
_cell_angle_alpha 90.000000
_cell_angle_beta 158.675092
_cell_angle_gamma 90.000000
_cell_volume 1758.027869
_symmetry_space_group_name_H-M "P 2/M"
_symmetry_group_IT_number 10
_symmetry_cell_setting 'monoclinic'
loop_
_space_group_symop_operation_xyz
x,y,z
-x,y,-z
-x,-y,-z
x,-y,z
loop_
_atom_site_type_symbol
_atom_site_label
_atom_site_fract_x
_atom_site_fract_y
_atom_site_fract_z
Si Si1 0.344293 0.659534 0.146189
Si Si2 0.049584 0.660117 0.094608
Si Si3 0.410680 0.839551 0.597320
Si Si4 0.180604 0.845530 0.596284
Si Si5 0.488884 0.659892 0.138035
Si Si6 0.038435 0.161662 0.380490
Si Si7 0.323226 0.661631 0.906614
Si Si8 0.598667 0.161528 0.625629
O O1 0.396354 0.500000 0.195722
O O2 0.467370 0.751499 0.273947
O O3 0.378813 0.700554 0.110806
O O4 0.127332 0.686224 0.997228
O O5 0.113341 0.500000 0.140878
O O6 0.213514 0.752508 0.235943
O O7 0.000000 0.709643 0.000000
O O8 0.190878 0.809941 0.445518
O O9 0.463050 0.799641 0.575601
O O10 0.454599 0.000000 0.641293
O O11 0.323983 0.747033 0.729915
O O12 0.133524 0.789449 0.503964
O O13 0.000000 0.847431 0.500000
O O14 0.266433 0.000000 0.654283
O O15 0.548644 0.500000 0.180895
O O16 0.361323 0.694516 0.995387
O O17 0.855269 0.250623 0.238894
O O18 0.980940 0.000000 0.341417
O O19 0.278702 0.500000 0.864728
O O20 0.500000 0.707254 0.000000
O O21 0.500000 0.204013 0.500000
O O22 0.651362 0.000000 0.664857
#
# Coordination Sequence:
#
# PCOD8063748 Si02
#       8
#     4   4   4   4   4   4   4   4
#     4  10  20  35  56  82 111 141 181 231 277 323
#     4  10  20  35  56  82 111 145 186 229 274 326
#     4  10  20  36  57  80 111 145 180 225 274 326
#     4  10  20  34  54  81 110 139 177 224 270 321
#     4  10  21  36  55  80 108 140 181 226 270 320
#     4  10  21  36  55  81 109 142 183 222 270 327
#     4  10  22  39  56  78 111 147 182 222 270 326
#     4  10  22  38  56  82 115 148 185 227 271 325
#
# _framework density 18.202213
#
# number of rings (size 3 to 8) (size 9 to 14) (size 15 to 20)
#    0.000    2.000    2.500    0.750    0.000    4.000 
#    0.000    0.000    0.000    0.000    0.000    0.000 
#    0.000    0.000    0.000    0.000    0.000    0.000 
#
# Total GULP energy -396889.202680 kJ/mol
# GULP energy per Si atom -12402.787584 kJ/mol
# Density = 1.816078 g / cm^3
# Si number density = 18.202213 Si / 1000 Ang^3
#
#
#
# Elastic Constant Matrix: (Units=GPa)
#
#
# Indices 1 2 3 4 5 6 
#
# 1 108.5303 30.6044 32.9437 0.0000 -1.4456 0.0000
# 2 30.6044 61.9168 55.6487 0.0000 -2.4584 0.0000
# 3 32.9437 55.6487 98.4481 0.0000 0.7170 0.0000
# 4 0.0000 0.0000 0.0000 31.6282 0.0000 -6.9788
# 5 -1.4456 -2.4584 0.7170 0.0000 28.2666 0.0000
# 6 0.0000 0.0000 0.0000 -6.9788 0.0000 13.6077
#
#
#
# Elastic Compliance Matrix: (Units=1/GPa)
#
#
# Indices 1 2 3 4 5 6 
#
# 1 0.010778 -0.004220 -0.001223 0.000000 0.000215 0.000000
# 2 -0.004220 0.034797 -0.018281 0.000000 0.003274 0.000000
# 3 -0.001223 -0.018281 0.020916 0.000000 -0.002183 0.000000
# 4 0.000000 0.000000 0.000000 0.035652 0.000000 0.018284
# 5 0.000215 0.003274 -0.002183 0.000000 0.035729 0.000000
# 6 0.000000 0.000000 0.000000 0.018284 0.000000 0.082865
#
#
# Mechanical properties :
#
#
# Convention : Reuss Voigt Hill
#
# Bulk Modulus (GPa) = 52.51068 56.36540 54.43804
# Shear Modulus (GPa) = 18.21282 24.68039 21.44660
#
# Velocity S-wave (km/s) = 3.16663 3.68625 3.43628
# Velocity P-wave (km/s) = 6.50240 7.01080 6.76138
#
# Compressibility (1/GPa) = 0.01904374
#
# Stress axis : x y z
#
# Youngs Moduli (GPa) = 92.78147 28.73834 47.80961
#
# Poissons Ratio (x) = 0.12126 0.05847
# Poissons Ratio (y) = 0.39150 0.87401
# Poissons Ratio (z) = 0.11348 0.52537
#
# Static dielectric constant tensor:
#      x y z
#    x 3.969740 0.000000 -0.183710 
#    y 0.000000 3.386460 0.000000 
#    z -0.183710 0.000000 3.382300 
# 
# 
# High freq. dielectric constant tensor:
#      x y z
#    x 1.723630 0.000000 0.005630 
#    y 0.000000 1.703420 0.000000 
#    z 0.005630 0.000000 1.696900 
# 
# From -- ./inp_files/86932.got.cif
#   From: 2010.06.25/outbox.cif.g09.slc.cpg/sg10_44_cif.got.tgz:86932.got - 2010.06.27 22:07:45.
