data_PCOD8063440
_publ_section_title
;
Structure prediction by ZEFSAII (Michael W. Deem and Ramdas Pophale) SiO2 
 PCOD8063440
Probable space group: P 2/M
;
_chemical_formula_sum "Si O2"
_cell_formula_units_Z 32
_cell_length_a 16.435108
_cell_length_b 9.117077
_cell_length_c 14.198242
_cell_angle_alpha 90.000000
_cell_angle_beta 96.497083
_cell_angle_gamma 90.000000
_cell_volume 2113.803238
_symmetry_space_group_name_H-M "P 2/M"
_symmetry_group_IT_number 10
_symmetry_cell_setting 'monoclinic'
loop_
_space_group_symop_operation_xyz
x,y,z
-x,y,-z
-x,-y,-z
x,-y,z
loop_
_atom_site_type_symbol
_atom_site_label
_atom_site_fract_x
_atom_site_fract_y
_atom_site_fract_z
Si Si1 0.078448 0.834134 0.943763
Si Si2 0.463223 0.336504 0.355310
Si Si3 0.016378 0.330279 0.215028
Si Si4 0.831765 0.668853 0.895448
Si Si5 0.934397 0.669799 0.572020
Si Si6 0.768158 0.174445 0.558149
Si Si7 0.700882 0.325576 0.732951
Si Si8 0.624202 0.666680 0.455960
O O1 0.059169 0.756375 0.842113
O O2 0.102249 0.000000 0.925212
O O3 0.155272 0.760642 0.007386
O O4 0.000000 0.818697 0.000000
O O5 0.483848 0.500000 0.325607
O O6 0.394901 0.270138 0.274173
O O7 0.416423 0.337088 0.447643
O O8 0.553827 0.262663 0.376428
O O9 0.994744 0.500000 0.202606
O O10 0.101103 0.291461 0.174466
O O11 0.024666 0.281626 0.324181
O O12 0.837927 0.500000 0.925156
O O13 0.743488 0.707741 0.838650
O O14 0.906333 0.500000 0.573850
O O15 0.857191 0.771218 0.538101
O O16 0.000000 0.696783 0.500000
O O17 0.749176 0.240832 0.657845
O O18 0.703934 0.230452 0.470057
O O19 0.765000 0.000000 0.562523
O O20 0.705195 0.500000 0.710511
O O21 0.648573 0.500000 0.429823
#
# Coordination Sequence:
#
# PCOD8063440 Si02
#       8
#     4   4   4   4   4   4   4   4
#     4   9  17  26  37  55  78 102 127 157 192 233
#     4   7  11  20  37  56  71  95 131 167 192 221
#     4   9  16  28  43  58  73  95 128 164 200 236
#     4   9  15  24  40  58  77 102 131 164 194 228
#     4  10  20  34  49  61  74  98 134 173 209 243
#     4  11  20  27  38  56  78 103 130 164 204 239
#     4   9  15  26  41  56  77 105 137 165 196 232
#     4   8  13  24  39  52  70  98 133 164 192 228
#
# _framework density 15.138590000000001
#
# number of rings (size 3 to 8) (size 9 to 14) (size 15 to 20)
#    0.000    3.000    1.250    3.000    0.000    2.750 
#    0.000    5.000    0.000    0.000    0.000    0.000 
#    0.000    0.000    0.000    1.125    0.000   25.750 
#
# Total GULP energy -396428.528359 kJ/mol
# GULP energy per Si atom -12388.391511 kJ/mol
# Density = 1.510413 g / cm^3
# Si number density = 15.138590 Si / 1000 Ang^3
#
#
#
# Elastic Constant Matrix: (Units=GPa)
#
#
# Indices 1 2 3 4 5 6 
#
# 1 107.1476 50.6782 51.8156 0.0000 40.0186 0.0000
# 2 50.6782 70.8679 30.0749 0.0000 16.4137 0.0000
# 3 51.8156 30.0749 59.4074 0.0000 24.3764 0.0000
# 4 0.0000 0.0000 0.0000 8.1126 0.0000 0.9160
# 5 40.0186 16.4137 24.3764 0.0000 28.0732 0.0000
# 6 0.0000 0.0000 0.0000 0.9160 0.0000 8.1262
#
#
#
# Elastic Compliance Matrix: (Units=1/GPa)
#
#
# Indices 1 2 3 4 5 6 
#
# 1 0.028560 -0.010552 -0.008380 0.000000 -0.027266 0.000000
# 2 -0.010552 0.022172 -0.004465 0.000000 0.005955 0.000000
# 3 -0.008380 -0.004465 0.031737 0.000000 -0.013002 0.000000
# 4 0.000000 0.000000 0.000000 0.124854 0.000000 -0.014074
# 5 -0.027266 0.005955 -0.013002 0.000000 0.082297 0.000000
# 6 0.000000 0.000000 0.000000 -0.014074 0.000000 0.124645
#
#
# Mechanical properties :
#
#
# Convention : Reuss Voigt Hill
#
# Bulk Modulus (GPa) = 28.03024 55.84004 41.93514
# Shear Modulus (GPa) = 10.57192 15.85268 13.21230
#
# Velocity S-wave (km/s) = 2.64548 3.23951 2.95745
# Velocity P-wave (km/s) = 5.28085 7.13853 6.27877
#
# Compressibility (1/GPa) = 0.03567575
#
# Stress axis : x y z
#
# Youngs Moduli (GPa) = 35.01384 45.10197 31.50863
#
# Poissons Ratio (x) = 0.47591 0.26405
# Poissons Ratio (y) = 0.36947 0.14067
# Poissons Ratio (z) = 0.29343 0.20136
#
# Static dielectric constant tensor:
#      x y z
#    x 3.203530 0.000000 0.539450 
#    y 0.000000 2.787580 0.000000 
#    z 0.539450 0.000000 2.654350 
# 
# 
# High freq. dielectric constant tensor:
#      x y z
#    x 1.572100 0.000000 0.049600 
#    y 0.000000 1.564800 0.000000 
#    z 0.049600 0.000000 1.529880 
# 
# From -- ./inp_files/66077.got.cif
#   From: 2010.06.25/outbox.cif.g09.slc.cpg/sg10_34_cif.got.tgz:66077.got - 2010.06.27 22:07:45.
