data_PCOD8063369
_publ_section_title
;
Structure prediction by ZEFSAII (Michael W. Deem and Ramdas Pophale) SiO2 
 PCOD8063369
Probable space group: P 2/M
;
_chemical_formula_sum "Si O2"
_cell_formula_units_Z 32
_cell_length_a 25.827800
_cell_length_b 9.105832
_cell_length_c 14.689921
_cell_angle_alpha 90.000000
_cell_angle_beta 149.854595
_cell_angle_gamma 90.000000
_cell_volume 1735.001746
_symmetry_space_group_name_H-M "P 2/M"
_symmetry_group_IT_number 10
_symmetry_cell_setting 'monoclinic'
loop_
_space_group_symop_operation_xyz
x,y,z
-x,y,-z
-x,-y,-z
x,-y,z
loop_
_atom_site_type_symbol
_atom_site_label
_atom_site_fract_x
_atom_site_fract_y
_atom_site_fract_z
Si Si1 0.115647 0.668824 0.665089
Si Si2 0.197819 0.675200 0.135509
Si Si3 0.661426 0.327165 0.484457
Si Si4 0.426611 0.325620 0.145220
Si Si5 0.725513 0.172005 0.214063
Si Si6 0.230155 0.829262 0.511326
Si Si7 0.727090 0.332265 0.940191
Si Si8 0.003532 0.827783 0.110785
O O1 0.118846 0.500000 0.636881
O O2 0.170701 0.767984 0.673765
O O3 0.000000 0.726854 0.500000
O O4 0.169117 0.686230 0.844022
O O5 0.188260 0.500000 0.117062
O O6 0.264943 0.729530 0.323050
O O7 0.253610 0.739572 0.129457
O O8 0.083944 0.741242 0.967798
O O9 0.670297 0.500000 0.486367
O O10 0.545236 0.280243 0.332067
O O11 0.693143 0.254889 0.438475
O O12 0.409846 0.500000 0.110445
O O13 0.369096 0.264725 0.149025
O O14 0.375563 0.251668 0.979124
O O15 0.731870 0.207198 0.330161
O O16 0.716971 0.000000 0.181805
O O17 0.112570 0.777011 0.318285
O O18 0.238123 0.000000 0.500006
O O19 0.699148 0.500000 0.879658
O O20 0.984070 0.000000 0.093981
O O21 0.000000 0.782173 0.000000
#
# Coordination Sequence:
#
# PCOD8063369 Si02
#       8
#     4   4   4   4   4   4   4   4
#     4   9  18  33  53  77 107 142 177 212 261 319
#     4  10  20  33  53  83 110 134 174 221 262 306
#     4  10  21  35  55  82 106 135 178 225 266 308
#     4   9  19  38  58  76 106 142 175 216 268 322
#     4  10  21  36  54  78 106 137 179 224 264 307
#     4  10  22  38  54  76 108 144 178 214 265 322
#     4   8  16  32  52  76 107 139 170 208 259 315
#     4  10  20  36  55  73 103 146 179 208 260 320
#
# _framework density 18.443784999999998
#
# number of rings (size 3 to 8) (size 9 to 14) (size 15 to 20)
#    0.000    2.500    1.250    1.125    1.750    3.500 
#    0.000    7.500    0.000    0.000    0.000    5.250 
#    0.000    0.000    0.000    0.000    0.000    0.000 
#
# Total GULP energy -396802.812619 kJ/mol
# GULP energy per Si atom -12400.087894 kJ/mol
# Density = 1.840181 g / cm^3
# Si number density = 18.443785 Si / 1000 Ang^3
#
#
#
# Elastic Constant Matrix: (Units=GPa)
#
#
# Indices 1 2 3 4 5 6 
#
# 1 137.9926 38.8391 56.7295 0.0000 3.9063 0.0000
# 2 38.8391 35.0012 27.0701 0.0000 1.4532 0.0000
# 3 56.7295 27.0701 82.6899 0.0000 19.4461 0.0000
# 4 0.0000 0.0000 0.0000 22.6972 0.0000 -3.9437
# 5 3.9063 1.4532 19.4461 0.0000 28.8237 0.0000
# 6 0.0000 0.0000 0.0000 -3.9437 0.0000 10.7449
#
#
#
# Elastic Compliance Matrix: (Units=1/GPa)
#
#
# Indices 1 2 3 4 5 6 
#
# 1 0.012195 -0.008903 -0.006143 0.000000 0.002941 0.000000
# 2 -0.008903 0.046270 -0.010430 0.000000 0.005910 0.000000
# 3 -0.006143 -0.010430 0.023062 0.000000 -0.014200 0.000000
# 4 0.000000 0.000000 0.000000 0.047059 0.000000 0.017272
# 5 0.002941 0.005910 -0.014200 0.000000 0.043577 0.000000
# 6 0.000000 0.000000 0.000000 0.017272 0.000000 0.099407
#
#
# Mechanical properties :
#
#
# Convention : Reuss Voigt Hill
#
# Bulk Modulus (GPa) = 32.70583 55.66234 44.18408
# Shear Modulus (GPa) = 15.02791 21.32284 18.17537
#
# Velocity S-wave (km/s) = 2.85756 3.40383 3.14259
# Velocity P-wave (km/s) = 5.35338 6.75967 6.09720
#
# Compressibility (1/GPa) = 0.03057559
#
# Stress axis : x y z
#
# Youngs Moduli (GPa) = 82.00180 21.61208 43.36168
#
# Poissons Ratio (x) = 0.19241 0.26639
# Poissons Ratio (y) = 0.73005 0.45224
# Poissons Ratio (z) = 0.50377 0.22540
#
# Static dielectric constant tensor:
#      x y z
#    x 3.532180 0.000000 0.007080 
#    y 0.000000 3.170230 0.000000 
#    z 0.007080 0.000000 3.474270 
# 
# 
# High freq. dielectric constant tensor:
#      x y z
#    x 1.723130 0.000000 0.001960 
#    y 0.000000 1.692010 0.000000 
#    z 0.001960 0.000000 1.720300 
# 
# From -- ./inp_files/66616.got.cif
#   From: 2010.06.25/outbox.cif.g09.slc.cpg/sg10_34_cif.got.tgz:66616.got - 2010.06.27 22:07:45.
