data_PCOD8063854
_publ_section_title
;
Structure prediction by ZEFSAII (Michael W. Deem and Ramdas Pophale) SiO2 
 PCOD8063854
Probable space group: P 2/M
;
_chemical_formula_sum "Si O2"
_cell_formula_units_Z 20
_cell_length_a 18.427047
_cell_length_b 9.366834
_cell_length_c 7.709665
_cell_angle_alpha 90.000000
_cell_angle_beta 50.123889
_cell_angle_gamma 90.000000
_cell_volume 1021.231683
_symmetry_space_group_name_H-M "P 2/M"
_symmetry_group_IT_number 10
_symmetry_cell_setting 'monoclinic'
loop_
_space_group_symop_operation_xyz
x,y,z
-x,y,-z
-x,-y,-z
x,-y,z
loop_
_atom_site_type_symbol
_atom_site_label
_atom_site_fract_x
_atom_site_fract_y
_atom_site_fract_z
Si Si1 0.888453 0.163682 0.175913
Si Si2 0.597116 0.663731 0.770733
Si Si3 0.207968 0.163361 0.031705
Si Si4 0.794257 0.335191 0.627837
Si Si5 0.403534 0.836273 0.567136
O O1 0.846746 0.214931 0.055996
O O2 0.848170 0.263320 0.386700
O O3 0.857686 0.000000 0.258992
O O4 0.000000 0.180311 0.000000
O O5 0.583011 0.500000 0.736938
O O6 0.681301 0.681386 0.779661
O O7 0.625813 0.750839 0.557721
O O8 0.500000 0.725113 0.000000
O O9 0.320410 0.180399 0.834146
O O10 0.181534 0.000000 0.115784
O O11 0.174306 0.260790 0.242086
O O12 0.824351 0.500000 0.589242
O O13 0.500000 0.773287 0.500000
O O14 0.418079 0.000000 0.489716
#
# Coordination Sequence:
#
# PCOD8063854 Si02
#       5
#     4   4   4   4   4
#     4  10  22  42  66  88 114 154 201 247 296 350
#     4  10  21  36  54  81 118 159 198 234 284 350
#     4  10  21  38  60  86 118 154 194 243 295 350
#     4  11  23  38  60  89 121 157 196 243 296 350
#     4  10  20  34  55  85 116 150 195 244 292 340
#
# _framework density 19.584195000000001
#
# number of rings (size 3 to 8) (size 9 to 14) (size 15 to 20)
#    0.000    1.800    2.000    1.800    0.000    4.400 
#    0.000    4.000    0.000    0.000    0.000    0.000 
#    0.000    0.000    0.000    0.000    0.000    0.000 
#
# Total GULP energy -248097.851082 kJ/mol
# GULP energy per Si atom -12404.892554 kJ/mol
# Density = 1.953962 g / cm^3
# Si number density = 19.584195 Si / 1000 Ang^3
#
#
#
# Elastic Constant Matrix: (Units=GPa)
#
#
# Indices 1 2 3 4 5 6 
#
# 1 114.4135 50.2456 53.8009 0.0000 15.6733 0.0000
# 2 50.2456 100.0223 65.2919 0.0000 26.1466 0.0000
# 3 53.8009 65.2919 96.8904 0.0000 20.5432 0.0000
# 4 0.0000 0.0000 0.0000 23.2112 0.0000 10.9485
# 5 15.6733 26.1466 20.5432 0.0000 39.6807 0.0000
# 6 0.0000 0.0000 0.0000 10.9485 0.0000 50.6016
#
#
#
# Elastic Compliance Matrix: (Units=1/GPa)
#
#
# Indices 1 2 3 4 5 6 
#
# 1 0.012345 -0.002984 -0.004749 0.000000 -0.000452 0.000000
# 2 -0.002984 0.020049 -0.010450 0.000000 -0.006622 0.000000
# 3 -0.004749 -0.010450 0.020379 0.000000 -0.001789 0.000000
# 4 0.000000 0.000000 0.000000 0.047979 0.000000 -0.010381
# 5 -0.000452 -0.006622 -0.001789 0.000000 0.030670 0.000000
# 6 0.000000 0.000000 0.000000 -0.010381 0.000000 0.022008
#
#
# Mechanical properties :
#
#
# Convention : Reuss Voigt Hill
#
# Bulk Modulus (GPa) = 60.94125 72.22257 66.58191
# Shear Modulus (GPa) = 25.60633 32.16454 28.88544
#
# Velocity S-wave (km/s) = 3.61986 4.05702 3.84466
# Velocity P-wave (km/s) = 6.97541 7.67489 7.33349
#
# Compressibility (1/GPa) = 0.01640925
#
# Stress axis : x y z
#
# Youngs Moduli (GPa) = 81.00160 49.87786 49.07055
#
# Poissons Ratio (x) = 0.14882 0.23302
# Poissons Ratio (y) = 0.24169 0.51277
# Poissons Ratio (z) = 0.38465 0.52120
#
# Static dielectric constant tensor:
#      x y z
#    x 3.701130 0.000000 -0.093890 
#    y 0.000000 3.543160 0.000000 
#    z -0.093890 0.000000 3.407420 
# 
# 
# High freq. dielectric constant tensor:
#      x y z
#    x 1.769350 0.000000 -0.002290 
#    y 0.000000 1.757170 0.000000 
#    z -0.002290 0.000000 1.759720 
# 
# From -- ./inp_files/8972.got.cif
#   From: 2010.06.25/outbox.cif.g09.slc.cpg/sg10_5_cif.got.tgz:8972.got - 2010.06.27 22:07:45.
