data_PCOD8063304
_publ_section_title
;
Structure prediction by ZEFSAII (Michael W. Deem and Ramdas Pophale) SiO2 
 PCOD8063304
Probable space group: P 2/M
;
_chemical_formula_sum "Si O2"
_cell_formula_units_Z 28
_cell_length_a 22.753146
_cell_length_b 9.003495
_cell_length_c 18.290578
_cell_angle_alpha 90.000000
_cell_angle_beta 155.699481
_cell_angle_gamma 90.000000
_cell_volume 1541.962163
_symmetry_space_group_name_H-M "P 2/M"
_symmetry_group_IT_number 10
_symmetry_cell_setting 'monoclinic'
loop_
_space_group_symop_operation_xyz
x,y,z
-x,y,-z
-x,-y,-z
x,-y,z
loop_
_atom_site_type_symbol
_atom_site_label
_atom_site_fract_x
_atom_site_fract_y
_atom_site_fract_z
Si Si1 0.767125 0.825529 0.615768
Si Si2 0.164542 0.667355 0.165281
Si Si3 0.912117 0.173227 0.061169
Si Si4 0.209695 0.331320 0.940037
Si Si5 0.854164 0.328768 0.295926
Si Si6 0.570389 0.827961 0.002332
Si Si7 0.474279 0.326819 0.751498
O O1 0.746089 0.755422 0.672298
O O2 0.650521 0.759470 0.430038
O O3 0.921681 0.784511 0.758188
O O4 0.745188 0.000000 0.598011
O O5 0.223501 0.500000 0.227752
O O6 0.183672 0.743836 0.108213
O O7 0.000000 0.671623 0.000000
O O8 0.888190 0.000000 0.022424
O O9 0.859135 0.219501 0.080689
O O10 0.184807 0.500000 0.938301
O O11 0.377642 0.297807 0.122710
O O12 0.130916 0.302758 0.773856
O O13 0.813189 0.500000 0.264879
O O14 0.733501 0.224352 0.192901
O O15 0.000000 0.282541 0.500000
O O16 0.565054 0.000000 0.973864
O O17 0.500000 0.797737 0.000000
O O18 0.484186 0.733472 0.844963
O O19 0.436883 0.500000 0.712219
#
# Coordination Sequence:
#
# PCOD8063304 Si02
#       7
#     4   4   4   4   4   4   4
#     4  10  20  34  53  79 109 137 170 213 258 307
#     4   9  17  31  52  76 103 136 173 213 257 302
#     4  10  20  33  52  78 106 137 172 211 258 309
#     4   9  19  35  53  75 104 136 172 214 257 304
#     4   9  19  36  56  78 104 136 175 216 258 306
#     4  10  21  36  54  78 107 137 171 213 261 311
#     4  10  21  37  56  77 103 138 177 214 257 307
#
# _framework density 18.158681999999999
#
# number of rings (size 3 to 8) (size 9 to 14) (size 15 to 20)
#    0.000    2.429    0.000    3.000    0.000    8.857 
#    0.000    3.571    0.000    4.286    0.000    0.000 
#    0.000    0.000    0.000    0.000    0.000    0.000 
#
# Total GULP energy -347280.832384 kJ/mol
# GULP energy per Si atom -12402.886871 kJ/mol
# Density = 1.811735 g / cm^3
# Si number density = 18.158682 Si / 1000 Ang^3
#
#
#
# Elastic Constant Matrix: (Units=GPa)
#
#
# Indices 1 2 3 4 5 6 
#
# 1 92.7370 49.9248 48.1231 0.0000 -13.2264 0.0000
# 2 49.9248 95.8886 54.5954 0.0000 -6.9385 0.0000
# 3 48.1231 54.5954 116.1395 0.0000 -12.0751 0.0000
# 4 0.0000 0.0000 0.0000 33.6572 0.0000 -3.0601
# 5 -13.2264 -6.9385 -12.0751 0.0000 13.5652 0.0000
# 6 0.0000 0.0000 0.0000 -3.0601 0.0000 34.3126
#
#
#
# Elastic Compliance Matrix: (Units=1/GPa)
#
#
# Indices 1 2 3 4 5 6 
#
# 1 0.017447 -0.006586 -0.002992 0.000000 0.010980 0.000000
# 2 -0.006586 0.016753 -0.005425 0.000000 -0.002682 0.000000
# 3 -0.002992 -0.005425 0.013013 0.000000 0.005891 0.000000
# 4 0.000000 0.000000 0.000000 0.029954 0.000000 0.002671
# 5 0.010980 -0.002682 0.005891 0.000000 0.088296 0.000000
# 6 0.000000 0.000000 0.000000 0.002671 0.000000 0.029382
#
#
# Mechanical properties :
#
#
# Convention : Reuss Voigt Hill
#
# Bulk Modulus (GPa) = 58.11647 67.78354 62.95000
# Shear Modulus (GPa) = 21.68390 26.44846 24.06618
#
# Velocity S-wave (km/s) = 3.45937 3.82058 3.64445
# Velocity P-wave (km/s) = 6.93041 7.54135 7.24232
#
# Compressibility (1/GPa) = 0.01720683
#
# Stress axis : x y z
#
# Youngs Moduli (GPa) = 57.31568 59.69240 76.84773
#
# Poissons Ratio (x) = 0.39314 0.22991
# Poissons Ratio (y) = 0.37749 0.41690
# Poissons Ratio (z) = 0.17148 0.32383
#
# Static dielectric constant tensor:
#      x y z
#    x 3.207910 0.000000 -0.129000 
#    y 0.000000 3.462350 0.000000 
#    z -0.129000 0.000000 3.372020 
# 
# 
# High freq. dielectric constant tensor:
#      x y z
#    x 1.692380 0.000000 -0.015540 
#    y 0.000000 1.716100 0.000000 
#    z -0.015540 0.000000 1.702420 
# 
# From -- ./inp_files/36771.got.cif
#   From: 2010.06.25/outbox.cif.g09.slc.cpg/sg10_19_cif.got.tgz:36771.got - 2010.06.27 22:07:45.
