data_PCOD8063087
_publ_section_title
;
Structure prediction by ZEFSAII (Michael W. Deem and Ramdas Pophale) SiO2 
 PCOD8063087
Probable space group: P 2/M
;
_chemical_formula_sum "Si O2"
_cell_formula_units_Z 32
_cell_length_a 22.840008
_cell_length_b 9.088964
_cell_length_c 14.201021
_cell_angle_alpha 90.000000
_cell_angle_beta 36.005827
_cell_angle_gamma 90.000000
_cell_volume 1733.044344
_symmetry_space_group_name_H-M "P 2/M"
_symmetry_group_IT_number 10
_symmetry_cell_setting 'monoclinic'
loop_
_space_group_symop_operation_xyz
x,y,z
-x,y,-z
-x,-y,-z
x,-y,z
loop_
_atom_site_type_symbol
_atom_site_label
_atom_site_fract_x
_atom_site_fract_y
_atom_site_fract_z
Si Si1 0.693772 0.171796 0.033049
Si Si2 0.397522 0.330074 0.015705
Si Si3 0.300259 0.668977 0.641981
Si Si4 0.376864 0.670793 0.260302
Si Si5 0.010746 0.673561 0.876977
Si Si6 0.811975 0.331576 0.027507
Si Si7 0.792684 0.174361 0.401367
Si Si8 0.493423 0.164359 0.397631
O O1 0.789197 0.238612 0.963117
O O2 0.597039 0.214312 0.219070
O O3 0.711700 0.000000 0.000131
O O4 0.679005 0.238292 0.948619
O O5 0.386966 0.500000 0.002568
O O6 0.365453 0.302380 0.164304
O O7 0.512378 0.280003 0.850927
O O8 0.285163 0.500000 0.631159
O O9 0.277960 0.690842 0.781129
O O10 0.224387 0.769471 0.682583
O O11 0.411611 0.718453 0.470979
O O12 0.359470 0.500000 0.307674
O O13 0.295202 0.769296 0.417392
O O14 0.030039 0.500000 0.845764
O O15 0.100693 0.758825 0.708116
O O16 0.913176 0.720808 0.945668
O O17 0.000000 0.721870 0.000000
O O18 0.820320 0.500000 0.985344
O O19 0.796502 0.000000 0.400664
O O20 0.500000 0.165895 0.500000
O O21 0.463958 0.000000 0.401068
#
# Coordination Sequence:
#
# PCOD8063087 Si02
#       8
#     4   4   4   4   4   4   4   4
#     4  11  22  34  52  77 112 152 184 221 275 332
#     4   9  19  37  61  86 112 143 187 232 273 325
#     4  11  21  34  52  75 104 144 190 229 266 317
#     4   9  19  38  62  86 111 144 184 232 278 324
#     4  10  20  39  60  79 106 143 190 238 279 325
#     4  10  21  36  55  76 103 142 188 231 270 317
#     4  12  24  35  54  84 115 145 178 225 284 340
#     4  10  20  33  46  70 109 147 180 217 264 322
#
# _framework density 18.464618000000002
#
# number of rings (size 3 to 8) (size 9 to 14) (size 15 to 20)
#    0.000    1.750    2.500    3.375    0.000    5.500 
#    0.000    1.250    0.000    0.750    0.000    5.250 
#    0.000    0.000    0.000    0.000    0.000    0.000 
#
# Total GULP energy -396824.757790 kJ/mol
# GULP energy per Si atom -12400.773681 kJ/mol
# Density = 1.842259 g / cm^3
# Si number density = 18.464618 Si / 1000 Ang^3
#
#
#
# Elastic Constant Matrix: (Units=GPa)
#
#
# Indices 1 2 3 4 5 6 
#
# 1 129.8463 58.6366 28.6815 0.0000 -11.9332 0.0000
# 2 58.6366 95.5945 39.1177 0.0000 -10.2407 0.0000
# 3 28.6815 39.1177 58.9222 0.0000 -9.2287 0.0000
# 4 0.0000 0.0000 0.0000 23.6352 0.0000 -1.9382
# 5 -11.9332 -10.2407 -9.2287 0.0000 25.4178 0.0000
# 6 0.0000 0.0000 0.0000 -1.9382 0.0000 26.3493
#
#
#
# Elastic Compliance Matrix: (Units=1/GPa)
#
#
# Indices 1 2 3 4 5 6 
#
# 1 0.010838 -0.006026 -0.000910 0.000000 0.002330 0.000000
# 2 -0.006026 0.017860 -0.008737 0.000000 0.001195 0.000000
# 3 -0.000910 -0.008737 0.023959 0.000000 0.004752 0.000000
# 4 0.000000 0.000000 0.000000 0.042567 0.000000 0.003131
# 5 0.002330 0.001195 0.004752 0.000000 0.042643 0.000000
# 6 0.000000 0.000000 0.000000 0.003131 0.000000 0.038182
#
#
# Mechanical properties :
#
#
# Convention : Reuss Voigt Hill
#
# Bulk Modulus (GPa) = 46.92307 59.69274 53.30790
# Shear Modulus (GPa) = 23.31029 25.60893 24.45961
#
# Velocity S-wave (km/s) = 3.55692 3.72818 3.64356
# Velocity P-wave (km/s) = 6.50665 7.13658 6.82888
#
# Compressibility (1/GPa) = 0.02131148
#
# Stress axis : x y z
#
# Youngs Moduli (GPa) = 92.27070 55.99080 41.73779
#
# Poissons Ratio (x) = 0.33738 0.03799
# Poissons Ratio (y) = 0.55599 0.36466
# Poissons Ratio (z) = 0.08398 0.48918
#
# Static dielectric constant tensor:
#      x y z
#    x 3.426150 0.000000 -0.101470 
#    y 0.000000 3.338290 0.000000 
#    z -0.101470 0.000000 3.267920 
# 
# 
# High freq. dielectric constant tensor:
#      x y z
#    x 1.715870 0.000000 -0.005180 
#    y 0.000000 1.713760 0.000000 
#    z -0.005180 0.000000 1.694430 
# 
# From -- ./inp_files/70006.got.cif
#   From: 2010.06.25/outbox.cif.g09.slc.cpg/sg10_36_cif.got.tgz:70006.got - 2010.06.27 22:07:45.
