data_PCOD8063646
_publ_section_title
;
Structure prediction by ZEFSAII (Michael W. Deem and Ramdas Pophale) SiO2 
 PCOD8063646
Probable space group: P 2/M
;
_chemical_formula_sum "Si O2"
_cell_formula_units_Z 32
_cell_length_a 12.296937
_cell_length_b 8.873043
_cell_length_c 31.020117
_cell_angle_alpha 90.000000
_cell_angle_beta 29.111411
_cell_angle_gamma 90.000000
_cell_volume 1646.660976
_symmetry_space_group_name_H-M "P 2/M"
_symmetry_group_IT_number 10
_symmetry_cell_setting 'monoclinic'
loop_
_space_group_symop_operation_xyz
x,y,z
-x,y,-z
-x,-y,-z
x,-y,z
loop_
_atom_site_type_symbol
_atom_site_label
_atom_site_fract_x
_atom_site_fract_y
_atom_site_fract_z
Si Si1 0.984485 0.330377 0.055924
Si Si2 0.645564 0.829943 0.023166
Si Si3 0.808575 0.326774 0.377318
Si Si4 0.361754 0.326405 0.755906
Si Si5 0.603774 0.678448 0.534585
Si Si6 0.018619 0.172027 0.164774
Si Si7 0.750703 0.178177 0.573934
Si Si8 0.808122 0.672795 0.814442
O O1 0.054545 0.500000 0.046077
O O2 0.735953 0.298012 0.161736
O O3 0.151669 0.205013 0.015266
O O4 0.000000 0.314730 0.000000
O O5 0.741405 0.809026 0.941866
O O6 0.560841 0.000000 0.060110
O O7 0.449098 0.714497 0.101558
O O8 0.742345 0.500000 0.404240
O O9 0.640934 0.266557 0.397724
O O10 0.771692 0.262663 0.438361
O O11 0.066216 0.302241 0.274671
O O12 0.422010 0.500000 0.727423
O O13 0.168294 0.280990 0.789492
O O14 0.585545 0.231604 0.669556
O O15 0.616512 0.500000 0.538947
O O16 0.668729 0.757925 0.556591
O O17 0.064491 0.217468 0.197453
O O18 0.933694 0.000000 0.191222
O O19 0.000000 0.234196 0.500000
O O20 0.742441 0.000000 0.573955
O O21 0.827445 0.500000 0.823171
#
# Coordination Sequence:
#
# PCOD8063646 Si02
#       8
#     4   4   4   4   4   4   4   4
#     4   9  19  38  61  83 107 137 179 233 280 324
#     4  10  21  35  50  74 109 147 183 221 269 326
#     4   8  17  33  55  83 109 138 176 229 284 329
#     4  10  20  36  60  86 107 138 186 228 273 333
#     4   9  17  36  62  81 104 139 185 231 276 334
#     4  10  20  34  53  77 110 146 181 224 272 323
#     4  11  24  40  56  80 117 152 184 232 287 329
#     4  11  20  31  50  79 113 146 182 223 273 324
#
# _framework density 19.433264999999999
#
# number of rings (size 3 to 8) (size 9 to 14) (size 15 to 20)
#    0.000    2.250    0.000    3.750    0.000    5.750 
#    2.250    3.125    0.000    0.000    0.000    0.000 
#    0.000    0.000    0.000    0.000    0.000    0.000 
#
# Total GULP energy -396628.842793 kJ/mol
# GULP energy per Si atom -12394.651337 kJ/mol
# Density = 1.938903 g / cm^3
# Si number density = 19.433265 Si / 1000 Ang^3
#
#
#
# Elastic Constant Matrix: (Units=GPa)
#
#
# Indices 1 2 3 4 5 6 
#
# 1 61.3547 20.2333 41.3665 0.0000 13.1247 0.0000
# 2 20.2333 60.4065 39.5642 0.0000 5.6982 0.0000
# 3 41.3665 39.5642 140.6301 0.0000 3.7927 0.0000
# 4 0.0000 0.0000 0.0000 24.5454 0.0000 -6.5389
# 5 13.1247 5.6982 3.7927 0.0000 26.4888 0.0000
# 6 0.0000 0.0000 0.0000 -6.5389 0.0000 22.6592
#
#
#
# Elastic Compliance Matrix: (Units=1/GPa)
#
#
# Indices 1 2 3 4 5 6 
#
# 1 0.023336 -0.003124 -0.005714 0.000000 -0.010072 0.000000
# 2 -0.003124 0.021053 -0.004943 0.000000 -0.002273 0.000000
# 3 -0.005714 -0.004943 0.010116 0.000000 0.002446 0.000000
# 4 0.000000 0.000000 0.000000 0.044134 0.000000 0.012736
# 5 -0.010072 -0.002273 0.002446 0.000000 0.042881 0.000000
# 6 0.000000 0.000000 0.000000 0.012736 0.000000 0.047807
#
#
# Mechanical properties :
#
#
# Convention : Reuss Voigt Hill
#
# Bulk Modulus (GPa) = 37.11410 51.63546 44.37478
# Shear Modulus (GPa) = 22.13676 25.48717 23.81196
#
# Velocity S-wave (km/s) = 3.37874 3.62542 3.50425
# Velocity P-wave (km/s) = 5.86182 6.64479 6.26555
#
# Compressibility (1/GPa) = 0.02694393
#
# Stress axis : x y z
#
# Youngs Moduli (GPa) = 42.85261 47.50013 98.85213
#
# Poissons Ratio (x) = 0.14839 0.56481
# Poissons Ratio (y) = 0.13387 0.48859
# Poissons Ratio (z) = 0.24485 0.23477
#
# Static dielectric constant tensor:
#      x y z
#    x 3.279780 0.000000 0.148490 
#    y 0.000000 3.478970 0.000000 
#    z 0.148490 0.000000 3.867270 
# 
# 
# High freq. dielectric constant tensor:
#      x y z
#    x 1.729870 0.000000 0.010340 
#    y 0.000000 1.748950 0.000000 
#    z 0.010340 0.000000 1.772860 
# 
# From -- ./inp_files/58257.got.cif
#   From: 2010.06.25/outbox.cif.g09.slc.cpg/sg10_30_cif.got.tgz:58257.got - 2010.06.27 22:07:45.
