data_PCOD8063965
_publ_section_title
;
Structure prediction by ZEFSAII (Michael W. Deem and Ramdas Pophale) SiO2 
 PCOD8063965
Probable space group: P 2/M
;
_chemical_formula_sum "Si O2"
_cell_formula_units_Z 28
_cell_length_a 11.817689
_cell_length_b 8.547546
_cell_length_c 15.730754
_cell_angle_alpha 90.000000
_cell_angle_beta 123.679445
_cell_angle_gamma 90.000000
_cell_volume 1322.290230
_symmetry_space_group_name_H-M "P 2/M"
_symmetry_group_IT_number 10
_symmetry_cell_setting 'monoclinic'
loop_
_space_group_symop_operation_xyz
x,y,z
-x,y,-z
-x,-y,-z
x,-y,z
loop_
_atom_site_type_symbol
_atom_site_label
_atom_site_fract_x
_atom_site_fract_y
_atom_site_fract_z
Si Si1 0.859179 0.318399 0.134648
Si Si2 0.332209 0.184409 0.275024
Si Si3 0.413656 0.684045 0.699960
Si Si4 0.408110 0.316453 0.886585
Si Si5 0.851197 0.815875 0.954447
Si Si6 0.857515 0.182704 0.481946
Si Si7 0.858925 0.315589 0.668295
O O1 0.864073 0.500000 0.114758
O O2 0.750935 0.280708 0.163361
O O3 0.007398 0.258448 0.224657
O O4 0.803613 0.231657 0.028106
O O5 0.489734 0.228168 0.327295
O O6 0.251897 0.249660 0.159129
O O7 0.274889 0.271933 0.333959
O O8 0.315833 0.000000 0.281637
O O9 0.439589 0.500000 0.704618
O O10 0.444580 0.749389 0.808261
O O11 0.258314 0.718794 0.613025
O O12 0.435872 0.500000 0.897224
O O13 0.500000 0.239697 0.000000
O O14 0.856256 0.000000 0.948457
O O15 0.000000 0.742379 0.000000
O O16 0.856790 0.221040 0.580728
O O17 0.000000 0.234172 0.500000
O O18 0.829630 0.000000 0.456725
O O19 0.863246 0.500000 0.651325
#
# Coordination Sequence:
#
# PCOD8063965 Si02
#       7
#     4   4   4   4   4   4   4
#     4  10  20  34  57  88 120 156 203 256 304 357
#     4  11  23  40  61  88 127 166 207 254 307 370
#     4  11  23  41  66  92 124 162 204 255 309 363
#     4   9  18  34  57  87 122 157 194 242 300 358
#     4  10  20  35  55  83 123 168 206 243 297 361
#     4  11  25  45  68  93 123 160 202 249 306 369
#     4  11  23  39  62  92 122 157 208 259 308 363
#
# _framework density 21.175380000000001
#
# number of rings (size 3 to 8) (size 9 to 14) (size 15 to 20)
#    0.000    1.571    1.429    3.429    0.000    6.000 
#    0.000    4.286    0.000    3.857    0.000    0.000 
#    0.000    0.000    0.000    0.000    0.000    0.000 
#
# Total GULP energy -347294.101921 kJ/mol
# GULP energy per Si atom -12403.360783 kJ/mol
# Density = 2.112718 g / cm^3
# Si number density = 21.175380 Si / 1000 Ang^3
#
#
#
# Elastic Constant Matrix: (Units=GPa)
#
#
# Indices 1 2 3 4 5 6 
#
# 1 134.0339 14.5937 43.1018 0.0000 -6.4035 0.0000
# 2 14.5937 33.6788 7.8841 0.0000 0.7594 0.0000
# 3 43.1018 7.8841 96.6423 0.0000 -10.5379 0.0000
# 4 0.0000 0.0000 0.0000 29.6882 0.0000 -2.0553
# 5 -6.4035 0.7594 -10.5379 0.0000 38.3967 0.0000
# 6 0.0000 0.0000 0.0000 -2.0553 0.0000 27.3757
#
#
#
# Elastic Compliance Matrix: (Units=1/GPa)
#
#
# Indices 1 2 3 4 5 6 
#
# 1 0.009012 -0.003049 -0.003711 0.000000 0.000545 0.000000
# 2 -0.003049 0.031366 -0.001363 0.000000 -0.001503 0.000000
# 3 -0.003711 -0.001363 0.012421 0.000000 0.002817 0.000000
# 4 0.000000 0.000000 0.000000 0.033859 0.000000 0.002542
# 5 0.000545 -0.001503 0.002817 0.000000 0.026938 0.000000
# 6 0.000000 0.000000 0.000000 0.002542 0.000000 0.036720
#
#
# Mechanical properties :
#
#
# Convention : Reuss Voigt Hill
#
# Bulk Modulus (GPa) = 27.35715 43.94602 35.65159
# Shear Modulus (GPa) = 27.97258 32.34383 30.15820
#
# Velocity S-wave (km/s) = 3.63849 3.91247 3.77797
# Velocity P-wave (km/s) = 5.53162 6.41937 5.99196
#
# Compressibility (1/GPa) = 0.03655351
#
# Stress axis : x y z
#
# Youngs Moduli (GPa) = 110.96053 31.88135 80.50885
#
# Poissons Ratio (x) = 0.09719 0.29879
# Poissons Ratio (y) = 0.33828 0.10974
# Poissons Ratio (z) = 0.41181 0.04346
#
# Static dielectric constant tensor:
#      x y z
#    x 3.928770 0.000000 0.025210 
#    y 0.000000 3.496100 0.000000 
#    z 0.025210 0.000000 3.938700 
# 
# 
# High freq. dielectric constant tensor:
#      x y z
#    x 1.844460 0.000000 -0.002440 
#    y 0.000000 1.809060 0.000000 
#    z -0.002440 0.000000 1.832040 
# 
# From -- ./inp_files/49563.got.cif
#   From: 2010.06.25/outbox.cif.g09.slc.cpg/sg10_25_cif.got.tgz:49563.got - 2010.06.27 22:07:45.
