data_PCOD8063823
_publ_section_title
;
Structure prediction by ZEFSAII (Michael W. Deem and Ramdas Pophale) SiO2 
 PCOD8063823
Probable space group: P 2/M
;
_chemical_formula_sum "Si O2"
_cell_formula_units_Z 32
_cell_length_a 11.679188
_cell_length_b 15.069833
_cell_length_c 9.258695
_cell_angle_alpha 90.000000
_cell_angle_beta 89.738816
_cell_angle_gamma 90.000000
_cell_volume 1629.544986
_symmetry_space_group_name_H-M "P 2/M"
_symmetry_group_IT_number 10
_symmetry_cell_setting 'monoclinic'
loop_
_space_group_symop_operation_xyz
x,y,z
-x,y,-z
-x,-y,-z
x,-y,z
loop_
_atom_site_type_symbol
_atom_site_label
_atom_site_fract_x
_atom_site_fract_y
_atom_site_fract_z
Si Si1 0.716544 0.595035 0.851659
Si Si2 0.526033 0.657147 0.659857
Si Si3 0.275599 0.895009 0.661234
Si Si4 0.865319 0.758206 0.841309
Si Si5 0.515784 0.901166 0.154442
Si Si6 0.696771 0.604800 0.178103
Si Si7 0.869901 0.758116 0.175498
Si Si8 0.673146 0.163190 0.661162
O O1 0.778025 0.500000 0.849533
O O2 0.611406 0.591033 0.740685
O O3 0.815057 0.661971 0.807363
O O4 0.665884 0.614292 0.010234
O O5 0.500000 0.622740 0.500000
O O6 0.404355 0.655779 0.739728
O O7 0.588772 0.752102 0.658980
O O8 0.383589 0.857977 0.751470
O O9 0.169860 0.837614 0.719703
O O10 0.301878 0.874614 0.495465
O O11 0.251184 0.000000 0.679285
O O12 0.794718 0.824944 0.740144
O O13 0.995997 0.751983 0.793197
O O14 0.848799 0.785204 0.008731
O O15 0.397794 0.906926 0.243995
O O16 0.557562 0.000000 0.118931
O O17 0.500000 0.850166 0.000000
O O18 0.711920 0.500000 0.222597
O O19 0.811651 0.662532 0.211617
#
# Coordination Sequence:
#
# PCOD8063823 Si02
#       8
#     4   4   4   4   4   4   4   4
#     4   9  19  35  54  79 111 145 183 226 274 330
#     4  11  21  32  50  78 112 147 180 222 272 325
#     4  11  23  39  60  84 113 149 187 229 281 336
#     4   9  21  37  59  81 108 147 188 233 282 330
#     4  10  20  34  55  83 111 138 174 222 275 333
#     4  10  20  34  56  84 112 145 182 224 277 332
#     4  10  20  40  59  81 112 145 188 237 279 328
#     4  11  21  36  55  80 111 148 186 228 277 330
#
# _framework density 19.637383
#
# number of rings (size 3 to 8) (size 9 to 14) (size 15 to 20)
#    0.000    1.875    0.000    4.500    0.000    6.000 
#    0.000    6.250    0.000    0.000    0.000    5.250 
#    0.000    0.000    0.000    0.000    0.000    0.000 
#
# Total GULP energy -396617.350648 kJ/mol
# GULP energy per Si atom -12394.292208 kJ/mol
# Density = 1.959269 g / cm^3
# Si number density = 19.637383 Si / 1000 Ang^3
#
#
#
# Elastic Constant Matrix: (Units=GPa)
#
#
# Indices 1 2 3 4 5 6 
#
# 1 136.4973 34.1236 63.5251 0.0000 -8.6893 0.0000
# 2 34.1236 79.9045 30.6542 0.0000 -11.8879 0.0000
# 3 63.5251 30.6542 124.9855 0.0000 -2.8887 0.0000
# 4 0.0000 0.0000 0.0000 25.0655 0.0000 -1.0711
# 5 -8.6893 -11.8879 -2.8887 0.0000 25.1649 0.0000
# 6 0.0000 0.0000 0.0000 -1.0711 0.0000 16.2253
#
#
#
# Elastic Compliance Matrix: (Units=1/GPa)
#
#
# Indices 1 2 3 4 5 6 
#
# 1 0.010137 -0.002305 -0.004543 0.000000 0.001890 0.000000
# 2 -0.002305 0.015359 -0.002453 0.000000 0.006178 0.000000
# 3 -0.004543 -0.002453 0.010877 0.000000 -0.001479 0.000000
# 4 0.000000 0.000000 0.000000 0.040008 0.000000 0.002641
# 5 0.001890 0.006178 -0.001479 0.000000 0.043139 0.000000
# 6 0.000000 0.000000 0.000000 0.002641 0.000000 0.061807
#
#
# Mechanical properties :
#
#
# Convention : Reuss Voigt Hill
#
# Bulk Modulus (GPa) = 56.26829 66.44366 61.35598
# Shear Modulus (GPa) = 24.28903 27.49677 25.89290
#
# Velocity S-wave (km/s) = 3.52074 3.74602 3.63513
# Velocity P-wave (km/s) = 6.72632 7.25389 6.99508
#
# Compressibility (1/GPa) = 0.01777200
#
# Stress axis : x y z
#
# Youngs Moduli (GPa) = 98.64747 65.10660 91.93297
#
# Poissons Ratio (x) = 0.15007 0.41768
# Poissons Ratio (y) = 0.22738 0.22549
# Poissons Ratio (z) = 0.44818 0.15969
#
# Static dielectric constant tensor:
#      x y z
#    x 3.547850 0.000000 0.126580 
#    y 0.000000 3.534250 0.000000 
#    z 0.126580 0.000000 3.712650 
# 
# 
# High freq. dielectric constant tensor:
#      x y z
#    x 1.756300 0.000000 0.001290 
#    y 0.000000 1.763430 0.000000 
#    z 0.001290 0.000000 1.770870 
# 
# From -- ./inp_files/25323.got.cif
#   From: 2010.06.25/outbox.cif.g09.slc.cpg/sg10_13_cif.got.tgz:25323.got - 2010.06.27 22:07:45.
