data_PCOD8063258
_publ_section_title
;
Structure prediction by ZEFSAII (Michael W. Deem and Ramdas Pophale) SiO2 
 PCOD8063258
Probable space group: P 2/M
;
_chemical_formula_sum "Si O2"
_cell_formula_units_Z 18
_cell_length_a 12.541463
_cell_length_b 7.653028
_cell_length_c 15.339375
_cell_angle_alpha 90.000000
_cell_angle_beta 134.114138
_cell_angle_gamma 90.000000
_cell_volume 1057.027106
_symmetry_space_group_name_H-M "P 2/M"
_symmetry_group_IT_number 10
_symmetry_cell_setting 'monoclinic'
loop_
_space_group_symop_operation_xyz
x,y,z
-x,y,-z
-x,-y,-z
x,-y,z
loop_
_atom_site_type_symbol
_atom_site_label
_atom_site_fract_x
_atom_site_fract_y
_atom_site_fract_z
Si Si1 0.797039 0.806447 0.860380
Si Si2 0.648639 0.000000 0.525298
Si Si3 0.827734 0.699635 0.066955
Si Si4 0.478622 0.000000 0.259988
Si Si5 0.849582 0.692200 0.705448
Si Si6 0.402995 0.000000 0.030315
O O1 0.818015 0.681335 0.790661
O O2 0.864126 0.000000 0.877739
O O3 0.619892 0.826691 0.777002
O O4 0.872071 0.730185 0.990516
O O5 0.500000 0.000000 0.500000
O O6 0.618309 0.000000 0.404326
O O7 0.744970 0.170379 0.598634
O O8 0.774150 0.500000 0.049244
O O9 0.699685 0.828452 0.026605
O O10 0.976075 0.737150 0.208025
O O11 0.516102 0.000000 0.177827
O O12 0.815034 0.500000 0.647186
O O13 0.500000 0.000000 0.000000
#
# Coordination Sequence:
#
# PCOD8063258 Si02
#       6
#     4   2   4   2   4   2
#     4   9  16  30  49  72 106 139 170 206 247 296
#     4  12  19  35  46  69 110 148 171 206 232 290
#     4  10  20  33  51  78 104 129 169 216 258 306
#     4   8  18  33  49  73 102 135 172 202 248 296
#     4  11  21  30  49  75 104 145 176 199 246 299
#     4  10  21  38  60  79  96 127 165 216 275 308
#
# _framework density 17.028893
#
# number of rings (size 3 to 8) (size 9 to 14) (size 15 to 20)
#    0.667    1.333    4.444    2.000    0.000    3.556 
#    0.000    1.111    0.000    2.667    0.000    3.111 
#    0.000    0.000    0.000    0.000    0.000    0.000 
#
# Total GULP energy -223036.243072 kJ/mol
# GULP energy per Si atom -12390.902393 kJ/mol
# Density = 1.699013 g / cm^3
# Si number density = 17.028893 Si / 1000 Ang^3
#
#
#
# Elastic Constant Matrix: (Units=GPa)
#
#
# Indices 1 2 3 4 5 6 
#
# 1 63.0542 30.4222 37.6596 0.0000 -10.0603 0.0000
# 2 30.4222 119.7676 60.1311 0.0000 10.5699 0.0000
# 3 37.6596 60.1311 130.7272 0.0000 5.1016 0.0000
# 4 0.0000 0.0000 0.0000 5.4074 0.0000 -2.0682
# 5 -10.0603 10.5699 5.1016 0.0000 16.6732 0.0000
# 6 0.0000 0.0000 0.0000 -2.0682 0.0000 12.5847
#
#
#
# Elastic Compliance Matrix: (Units=1/GPa)
#
#
# Indices 1 2 3 4 5 6 
#
# 1 0.024940 -0.005343 -0.005512 0.000000 0.020122 0.000000
# 2 -0.005343 0.012508 -0.003824 0.000000 -0.009983 0.000000
# 3 -0.005512 -0.003824 0.011165 0.000000 -0.004318 0.000000
# 4 0.000000 0.000000 0.000000 0.197337 0.000000 0.032431
# 5 0.020122 -0.009983 -0.004318 0.000000 0.079768 0.000000
# 6 0.000000 0.000000 0.000000 0.032431 0.000000 0.084791
#
#
# Mechanical properties :
#
#
# Convention : Reuss Voigt Hill
#
# Bulk Modulus (GPa) = 51.93948 63.33053 57.63500
# Shear Modulus (GPa) = 11.20354 19.28879 15.24617
#
# Velocity S-wave (km/s) = 2.56777 3.36923 2.99542
# Velocity P-wave (km/s) = 6.27361 7.23922 6.77365
#
# Compressibility (1/GPa) = 0.01925318
#
# Stress axis : x y z
#
# Youngs Moduli (GPa) = 40.09598 79.94907 89.56514
#
# Poissons Ratio (x) = 0.42721 0.49369
# Poissons Ratio (y) = 0.21425 0.34253
# Poissons Ratio (z) = 0.22101 0.30576
#
# Static dielectric constant tensor:
#      x y z
#    x 2.724800 0.000000 0.068350 
#    y 0.000000 3.144680 0.000000 
#    z 0.068350 0.000000 3.171900 
# 
# 
# High freq. dielectric constant tensor:
#      x y z
#    x 1.604460 0.000000 0.013350 
#    y 0.000000 1.662030 0.000000 
#    z 0.013350 0.000000 1.652350 
# 
# From -- ./inp_files/63017.got.cif
#   From: 2010.06.25/outbox.cif.g09.slc.cpg/sg10_32_cif.got.tgz:63017.got - 2010.06.27 22:07:45.
