data_PCOD8063041
_publ_section_title
;
Structure prediction by ZEFSAII (Michael W. Deem and Ramdas Pophale) SiO2 
 PCOD8063041
Probable space group: P 2/M
;
_chemical_formula_sum "Si O2"
_cell_formula_units_Z 28
_cell_length_a 17.217245
_cell_length_b 7.675436
_cell_length_c 16.155014
_cell_angle_alpha 90.000000
_cell_angle_beta 140.720390
_cell_angle_gamma 90.000000
_cell_volume 1351.605969
_symmetry_space_group_name_H-M "P 2/M"
_symmetry_group_IT_number 10
_symmetry_cell_setting 'monoclinic'
loop_
_space_group_symop_operation_xyz
x,y,z
-x,y,-z
-x,-y,-z
x,-y,z
loop_
_atom_site_type_symbol
_atom_site_label
_atom_site_fract_x
_atom_site_fract_y
_atom_site_fract_z
Si Si1 0.290417 0.702252 0.557754
Si Si2 0.076079 0.195916 0.897922
Si Si3 0.132493 0.000000 0.505808
Si Si4 0.562638 0.294044 0.809111
Si Si5 0.849696 0.000000 0.284621
Si Si6 0.245191 0.695452 0.899089
Si Si7 0.257183 0.297467 0.178465
Si Si8 0.193609 0.700486 0.302700
O O1 0.266758 0.500000 0.563528
O O2 0.423043 0.772473 0.696750
O O3 0.287732 0.722402 0.456079
O O4 0.188150 0.823108 0.514660
O O5 0.132494 0.311801 0.870927
O O6 0.930015 0.199337 0.776541
O O7 0.120923 0.000000 0.918361
O O8 0.125676 0.262590 0.027285
O O9 0.155355 0.000000 0.621704
O O10 0.988636 0.000000 0.365200
O O11 0.563528 0.500000 0.799683
O O12 0.635521 0.212589 0.790129
O O13 0.631801 0.242352 0.951021
O O14 0.779930 0.827084 0.196402
O O15 0.261143 0.500000 0.875877
O O16 0.283536 0.500000 0.207654
O O17 0.254336 0.218899 0.269321
O O18 0.158282 0.500000 0.258378
#
# Coordination Sequence:
#
# PCOD8063041 Si02
#       8
#     4   4   2   4   2   4   4   4
#     4  10  22  41  62  85 118 161 199 237 292 348
#     4  11  20  31  50  79 118 157 196 244 294 344
#     4  11  26  43  63  91 122 151 185 238 291 357
#     4   8  17  36  61  86 117 158 200 242 288 338
#     4  11  24  43  65  94 120 146 188 233 294 360
#     4  10  20  38  64  91 119 153 194 241 291 347
#     4   9  18  33  52  79 113 153 204 251 289 333
#     4  10  20  32  52  79 111 158 205 243 291 344
#
# _framework density 20.716096
#
# number of rings (size 3 to 8) (size 9 to 14) (size 15 to 20)
#    0.000    2.143    0.714    3.429    1.000    5.714 
#    1.286    5.714    0.000    3.429    0.000    0.000 
#    0.000    0.000    0.000    0.000    0.000    0.000 
#
# Total GULP energy -347153.502299 kJ/mol
# GULP energy per Si atom -12398.339368 kJ/mol
# Density = 2.066895 g / cm^3
# Si number density = 20.716096 Si / 1000 Ang^3
#
#
#
# Elastic Constant Matrix: (Units=GPa)
#
#
# Indices 1 2 3 4 5 6 
#
# 1 44.9770 22.0300 32.6340 0.0000 1.7598 0.0000
# 2 22.0300 73.5310 29.7277 0.0000 -7.0816 0.0000
# 3 32.6340 29.7277 109.0322 0.0000 -1.9100 0.0000
# 4 0.0000 0.0000 0.0000 19.8801 0.0000 -3.8870
# 5 1.7598 -7.0816 -1.9100 0.0000 27.7251 0.0000
# 6 0.0000 0.0000 0.0000 -3.8870 0.0000 16.6907
#
#
#
# Elastic Compliance Matrix: (Units=1/GPa)
#
#
# Indices 1 2 3 4 5 6 
#
# 1 0.031171 -0.006679 -0.007582 0.000000 -0.004207 0.000000
# 2 -0.006679 0.017087 -0.002579 0.000000 0.004611 0.000000
# 3 -0.007582 -0.002579 0.012156 0.000000 0.000660 0.000000
# 4 0.000000 0.000000 0.000000 0.052701 0.000000 0.012273
# 5 -0.004207 0.004611 0.000660 0.000000 0.037559 0.000000
# 6 0.000000 0.000000 0.000000 0.012273 0.000000 0.062772
#
#
# Mechanical properties :
#
#
# Convention : Reuss Voigt Hill
#
# Bulk Modulus (GPa) = 37.40574 44.03597 40.72086
# Shear Modulus (GPa) = 19.52836 22.40239 20.96538
#
# Velocity S-wave (km/s) = 3.07362 3.29203 3.18470
# Velocity P-wave (km/s) = 5.54001 5.97938 5.76389
#
# Compressibility (1/GPa) = 0.02673386
#
# Stress axis : x y z
#
# Youngs Moduli (GPa) = 32.08116 58.52273 82.26482
#
# Poissons Ratio (x) = 0.39084 0.62377
# Poissons Ratio (y) = 0.21425 0.21218
# Poissons Ratio (z) = 0.24325 0.15094
#
# Static dielectric constant tensor:
#      x y z
#    x 3.658350 0.000000 0.082610 
#    y 0.000000 3.598270 0.000000 
#    z 0.082610 0.000000 3.901470 
# 
# 
# High freq. dielectric constant tensor:
#      x y z
#    x 1.785640 0.000000 -0.000560 
#    y 0.000000 1.803910 0.000000 
#    z -0.000560 0.000000 1.813330 
# 
# From -- ./inp_files/68755.got.cif
#   From: 2010.06.25/outbox.cif.g09.slc.cpg/sg10_35_cif.got.tgz:68755.got - 2010.06.27 22:07:45.
