data_PCOD8063223
_publ_section_title
;
Structure prediction by ZEFSAII (Michael W. Deem and Ramdas Pophale) SiO2 
 PCOD8063223
Probable space group: P 2/M
;
_chemical_formula_sum "Si O2"
_cell_formula_units_Z 28
_cell_length_a 16.491908
_cell_length_b 9.222096
_cell_length_c 14.332544
_cell_angle_alpha 90.000000
_cell_angle_beta 42.190637
_cell_angle_gamma 90.000000
_cell_volume 1463.976833
_symmetry_space_group_name_H-M "P 2/M"
_symmetry_group_IT_number 10
_symmetry_cell_setting 'monoclinic'
loop_
_space_group_symop_operation_xyz
x,y,z
-x,y,-z
-x,-y,-z
x,-y,z
loop_
_atom_site_type_symbol
_atom_site_label
_atom_site_fract_x
_atom_site_fract_y
_atom_site_fract_z
Si Si1 0.863959 0.661200 0.083296
Si Si2 0.608482 0.839079 0.834256
Si Si3 0.442106 0.332822 0.452045
Si Si4 0.745013 0.167397 0.888104
Si Si5 0.456272 0.332615 0.831175
Si Si6 0.789377 0.171092 0.321832
Si Si7 0.051879 0.834035 0.155501
O O1 0.805577 0.500000 0.124546
O O2 0.788908 0.756957 0.219945
O O3 0.864371 0.738831 0.983484
O O4 0.000000 0.647844 0.000000
O O5 0.724291 0.784992 0.797456
O O6 0.577829 0.731868 0.775629
O O7 0.631569 0.000000 0.773314
O O8 0.500000 0.840547 0.000000
O O9 0.500000 0.278834 0.500000
O O10 0.402151 0.500000 0.494250
O O11 0.536269 0.310712 0.287006
O O12 0.324333 0.237708 0.527227
O O13 0.886655 0.186232 0.794859
O O14 0.704539 0.000000 0.932282
O O15 0.663447 0.255700 0.030283
O O16 0.449752 0.500000 0.864153
O O17 0.911362 0.212880 0.275222
O O18 0.774681 0.000000 0.323689
O O19 0.059827 0.000000 0.114137
#
# Coordination Sequence:
#
# PCOD8063223 Si02
#       7
#     4   4   4   4   4   4   4
#     4   9  17  29  46  68  96 132 167 199 244 298
#     4   8  15  30  51  74 101 133 164 199 251 306
#     4  10  23  40  53  69  99 137 174 213 251 294
#     4   9  18  32  52  78 107 134 160 200 254 307
#     4  10  20  33  51  75 102 133 169 211 253 294
#     4  10  20  34  52  73  98 130 171 213 251 295
#     4   9  18  32  50  75 104 130 162 209 256 296
#
# _framework density 19.125986000000001
#
# number of rings (size 3 to 8) (size 9 to 14) (size 15 to 20)
#    0.000    2.714    0.000    2.143    2.000    6.857 
#    0.000    0.000    0.000    0.857    0.000    6.000 
#    0.000    0.000    0.000    0.000    0.000    0.000 
#
# Total GULP energy -347032.396171 kJ/mol
# GULP energy per Si atom -12394.014149 kJ/mol
# Density = 1.908245 g / cm^3
# Si number density = 19.125986 Si / 1000 Ang^3
#
#
#
# Elastic Constant Matrix: (Units=GPa)
#
#
# Indices 1 2 3 4 5 6 
#
# 1 123.2881 34.0105 16.2264 0.0000 0.5989 0.0000
# 2 34.0105 83.5097 23.2379 0.0000 -1.7121 0.0000
# 3 16.2264 23.2379 39.8843 0.0000 -2.5584 0.0000
# 4 0.0000 0.0000 0.0000 25.7188 0.0000 0.8790
# 5 0.5989 -1.7121 -2.5584 0.0000 22.7710 0.0000
# 6 0.0000 0.0000 0.0000 0.8790 0.0000 22.1972
#
#
#
# Elastic Compliance Matrix: (Units=1/GPa)
#
#
# Indices 1 2 3 4 5 6 
#
# 1 0.009265 -0.003254 -0.001919 0.000000 -0.000704 0.000000
# 2 -0.003254 0.015435 -0.007644 0.000000 0.000387 0.000000
# 3 -0.001919 -0.007644 0.030493 0.000000 0.002902 0.000000
# 4 0.000000 0.000000 0.000000 0.038935 0.000000 -0.001542
# 5 -0.000704 0.000387 0.002902 0.000000 0.044289 0.000000
# 6 0.000000 0.000000 0.000000 -0.001542 0.000000 0.045112
#
#
# Mechanical properties :
#
#
# Convention : Reuss Voigt Hill
#
# Bulk Modulus (GPa) = 33.83030 43.73686 38.78358
# Shear Modulus (GPa) = 22.82955 25.68456 24.25706
#
# Velocity S-wave (km/s) = 3.45866 3.66856 3.56515
# Velocity P-wave (km/s) = 5.80313 6.39232 6.10484
#
# Compressibility (1/GPa) = 0.02955930
#
# Stress axis : x y z
#
# Youngs Moduli (GPa) = 107.93789 64.78850 32.79435
#
# Poissons Ratio (x) = 0.21080 0.06292
# Poissons Ratio (y) = 0.35120 0.25069
# Poissons Ratio (z) = 0.20709 0.49526
#
# Static dielectric constant tensor:
#      x y z
#    x 3.931470 0.000000 0.026720 
#    y 0.000000 3.582200 0.000000 
#    z 0.026720 0.000000 3.062970 
# 
# 
# High freq. dielectric constant tensor:
#      x y z
#    x 1.756090 0.000000 -0.005110 
#    y 0.000000 1.744680 0.000000 
#    z -0.005110 0.000000 1.693330 
# 
# From -- ./inp_files/68596.got.cif
#   From: 2010.06.25/outbox.cif.g09.slc.cpg/sg10_35_cif.got.tgz:68596.got - 2010.06.27 22:07:45.
