data_PCOD8063599
_publ_section_title
;
Structure prediction by ZEFSAII (Michael W. Deem and Ramdas Pophale) SiO2 
 PCOD8063599
Probable space group: P 2/M
;
_chemical_formula_sum "Si O2"
_cell_formula_units_Z 32
_cell_length_a 8.653796
_cell_length_b 23.197327
_cell_length_c 8.745841
_cell_angle_alpha 90.000000
_cell_angle_beta 115.726285
_cell_angle_gamma 90.000000
_cell_volume 1581.656416
_symmetry_space_group_name_H-M "P 2/M"
_symmetry_group_IT_number 10
_symmetry_cell_setting 'monoclinic'
loop_
_space_group_symop_operation_xyz
x,y,z
-x,y,-z
-x,-y,-z
x,-y,z
loop_
_atom_site_type_symbol
_atom_site_label
_atom_site_fract_x
_atom_site_fract_y
_atom_site_fract_z
Si Si1 0.399710 0.936123 0.276888
Si Si2 0.821204 0.064605 0.091099
Si Si3 0.170714 0.435175 0.673050
Si Si4 0.321117 0.647610 0.512750
Si Si5 0.019683 0.653360 0.824942
Si Si6 0.171687 0.741145 0.663116
Si Si7 0.310650 0.865123 0.723433
Si Si8 0.857895 0.934754 0.590731
O O1 0.513825 0.880623 0.287008
O O2 0.336907 0.931713 0.425245
O O3 0.483255 0.000000 0.280037
O O4 0.217761 0.932625 0.105593
O O5 0.677580 0.104781 0.107122
O O6 0.008216 0.088107 0.223704
O O7 0.799598 0.000000 0.143444
O O8 0.226102 0.500000 0.739772
O O9 0.316668 0.407290 0.626350
O O10 0.136314 0.400566 0.816666
O O11 0.000000 0.432984 0.500000
O O12 0.500000 0.650231 0.500000
O O13 0.294197 0.702113 0.611140
O O14 0.170949 0.646187 0.322936
O O15 0.115145 0.710283 0.798116
O O16 0.000000 0.655890 0.000000
O O17 0.284558 0.797639 0.740175
O O18 0.000000 0.757698 0.500000
O O19 0.148714 0.894503 0.562932
O O20 0.899078 0.000000 0.559031
#
# Coordination Sequence:
#
# PCOD8063599 Si02
#       8
#     4   4   4   4   4   4   4   4
#     4  10  21  36  52  74 104 130 155 200 265 325
#     4  10  20  35  53  72  99 132 160 195 256 327
#     4   8  15  30  54  84 118 154 186 216 259 319
#     4   9  18  34  56  80 109 148 187 221 264 313
#     4   9  18  36  59  79 106 145 187 227 266 311
#     4   9  20  38  54  72 103 142 181 220 266 321
#     4  12  21  33  53  75  97 124 168 219 258 302
#     4  10  20  34  53  75  97 126 164 204 251 315
#
# _framework density 20.231954000000002
#
# number of rings (size 3 to 8) (size 9 to 14) (size 15 to 20)
#    0.000    2.375    0.000    4.875    0.000    6.000 
#    0.000    8.750    0.000    0.750    0.000    0.000 
#    0.000    0.000    0.000    0.000    0.000    0.000 
#
# Total GULP energy -396431.570179 kJ/mol
# GULP energy per Si atom -12388.486568 kJ/mol
# Density = 2.018590 g / cm^3
# Si number density = 20.231954 Si / 1000 Ang^3
#
#
#
# Elastic Constant Matrix: (Units=GPa)
#
#
# Indices 1 2 3 4 5 6 
#
# 1 123.6315 43.4839 32.7159 0.0000 -27.7639 0.0000
# 2 43.4839 125.2559 40.6744 0.0000 -18.2319 0.0000
# 3 32.7159 40.6744 81.9294 0.0000 -25.5108 0.0000
# 4 0.0000 0.0000 0.0000 28.7590 0.0000 5.1756
# 5 -27.7639 -18.2319 -25.5108 0.0000 36.1981 0.0000
# 6 0.0000 0.0000 0.0000 5.1756 0.0000 23.5915
#
#
#
# Elastic Compliance Matrix: (Units=1/GPa)
#
#
# Indices 1 2 3 4 5 6 
#
# 1 0.010616 -0.002428 -0.001126 0.000000 0.006126 0.000000
# 2 -0.002428 0.010174 -0.003927 0.000000 0.000494 0.000000
# 3 -0.001126 -0.003927 0.017578 0.000000 0.009546 0.000000
# 4 0.000000 0.000000 0.000000 0.036201 0.000000 -0.007942
# 5 0.006126 0.000494 0.009546 0.000000 0.039301 0.000000
# 6 0.000000 0.000000 0.000000 -0.007942 0.000000 0.044130
#
#
# Mechanical properties :
#
#
# Convention : Reuss Voigt Hill
#
# Bulk Modulus (GPa) = 42.72809 62.72947 52.72878
# Shear Modulus (GPa) = 27.66021 31.97256 29.81638
#
# Velocity S-wave (km/s) = 3.70152 3.97961 3.84308
# Velocity P-wave (km/s) = 6.27959 7.22419 6.76839
#
# Compressibility (1/GPa) = 0.02340381
#
# Stress axis : x y z
#
# Youngs Moduli (GPa) = 94.19441 98.29082 56.89069
#
# Poissons Ratio (x) = 0.23866 0.06408
# Poissons Ratio (y) = 0.22872 0.22344
# Poissons Ratio (z) = 0.10610 0.38604
#
# Static dielectric constant tensor:
#      x y z
#    x 3.655590 0.000000 -0.088610 
#    y 0.000000 3.567390 0.000000 
#    z -0.088610 0.000000 3.688540 
# 
# 
# High freq. dielectric constant tensor:
#      x y z
#    x 1.796490 0.000000 -0.009150 
#    y 0.000000 1.760450 0.000000 
#    z -0.009150 0.000000 1.789540 
# 
# From -- ./inp_files/20567.got.cif
#   From: 2010.06.25/outbox.cif.g09.slc.cpg/sg10_11_cif.got.tgz:20567.got - 2010.06.27 22:07:45.
