data_PCOD8063381
_publ_section_title
;
Structure prediction by ZEFSAII (Michael W. Deem and Ramdas Pophale) SiO2 
 PCOD8063381
Probable space group: P 2/M
;
_chemical_formula_sum "Si O2"
_cell_formula_units_Z 32
_cell_length_a 26.610010
_cell_length_b 13.189560
_cell_length_c 9.143475
_cell_angle_alpha 90.000000
_cell_angle_beta 31.092291
_cell_angle_gamma 90.000000
_cell_volume 1657.250261
_symmetry_space_group_name_H-M "P 2/M"
_symmetry_group_IT_number 10
_symmetry_cell_setting 'monoclinic'
loop_
_space_group_symop_operation_xyz
x,y,z
-x,y,-z
-x,-y,-z
x,-y,z
loop_
_atom_site_type_symbol
_atom_site_label
_atom_site_fract_x
_atom_site_fract_y
_atom_site_fract_z
Si Si1 0.707046 0.750679 0.242655
Si Si2 0.666372 0.699101 0.798207
Si Si3 0.800400 0.246973 0.711891
Si Si4 0.982121 0.383908 0.215429
Si Si5 0.187519 0.617904 0.805096
Si Si6 0.106775 0.882905 0.748981
Si Si7 0.525697 0.382849 0.604318
Si Si8 0.283766 0.119089 0.501091
O O1 0.776632 0.665397 0.134334
O O2 0.605799 0.697243 0.456546
O O3 0.696478 0.844522 0.382243
O O4 0.759440 0.792304 0.967647
O O5 0.714001 0.697144 0.840043
O O6 0.738214 0.640871 0.510608
O O7 0.649581 0.813584 0.775501
O O8 0.565788 0.639043 0.062163
O O9 0.890672 0.322557 0.504547
O O10 0.830866 0.147681 0.546837
O O11 0.963484 0.500000 0.306295
O O12 0.000000 0.373700 0.000000
O O13 0.080191 0.338617 0.041640
O O14 0.180614 0.500000 0.844780
O O15 0.170173 0.857859 0.737638
O O16 0.087798 0.000000 0.787478
O O17 0.000000 0.828244 0.000000
O O18 0.500000 0.362006 0.500000
O O19 0.558764 0.500000 0.544269
O O20 0.309474 0.000000 0.421071
#
# Coordination Sequence:
#
# PCOD8063381 Si02
#       8
#     4   4   4   4   4   4   4   4
#     4  11  24  39  56  87 121 157 189 244 299 358
#     4  10  20  38  64  88 108 152 201 249 287 346
#     4  11  21  34  58  84 118 151 194 238 292 343
#     4  10  20  33  54  81 112 155 201 236 273 350
#     4  10  21  37  54  81 118 153 194 241 290 344
#     4   9  19  37  63  88 111 150 203 246 285 344
#     4  11  23  40  63  89 120 153 197 247 295 347
#     4   9  21  41  63  87 120 156 190 244 303 351
#
# _framework density 19.309092
#
# number of rings (size 3 to 8) (size 9 to 14) (size 15 to 20)
#    0.000    1.875    2.500    1.125    3.500    4.500 
#    0.000    5.625    0.000    3.000    0.000    0.000 
#    0.000    0.000    0.000    0.000    0.000    0.000 
#
# Total GULP energy -396623.077749 kJ/mol
# GULP energy per Si atom -12394.471180 kJ/mol
# Density = 1.926514 g / cm^3
# Si number density = 19.309092 Si / 1000 Ang^3
#
#
#
# Elastic Constant Matrix: (Units=GPa)
#
#
# Indices 1 2 3 4 5 6 
#
# 1 106.2593 21.3926 35.8607 0.0000 0.8278 0.0000
# 2 21.3926 45.2717 8.9601 0.0000 -0.3802 0.0000
# 3 35.8607 8.9601 80.0768 0.0000 3.4241 0.0000
# 4 0.0000 0.0000 0.0000 8.9580 0.0000 -11.9448
# 5 0.8278 -0.3802 3.4241 0.0000 26.4862 0.0000
# 6 0.0000 0.0000 0.0000 -11.9448 0.0000 21.3809
#
#
#
# Elastic Compliance Matrix: (Units=1/GPa)
#
#
# Indices 1 2 3 4 5 6 
#
# 1 0.011995 -0.004706 -0.004853 0.000000 0.000185 0.000000
# 2 -0.004706 0.024447 -0.000653 0.000000 0.000582 0.000000
# 3 -0.004853 -0.000653 0.014810 0.000000 -0.001772 0.000000
# 4 0.000000 0.000000 0.000000 0.437672 0.000000 0.244513
# 5 0.000185 0.000582 -0.001772 0.000000 0.037987 0.000000
# 6 0.000000 0.000000 0.000000 0.244513 0.000000 0.183373
#
#
# Mechanical properties :
#
#
# Convention : Reuss Voigt Hill
#
# Bulk Modulus (GPa) = 32.43798 40.44828 36.44313
# Shear Modulus (GPa) = 6.74779 22.39132 14.56955
#
# Velocity S-wave (km/s) = 1.87142 3.40902 2.74988
# Velocity P-wave (km/s) = 4.63739 6.04057 5.38488
#
# Compressibility (1/GPa) = 0.03082806
#
# Stress axis : x y z
#
# Youngs Moduli (GPa) = 83.37019 40.90532 67.52132
#
# Poissons Ratio (x) = 0.19250 0.32768
# Poissons Ratio (y) = 0.39233 0.04409
# Poissons Ratio (z) = 0.40459 0.02671
#
# Static dielectric constant tensor:
#      x y z
#    x 3.824050 0.000000 -0.243530 
#    y 0.000000 3.564370 0.000000 
#    z -0.243530 0.000000 3.481070 
# 
# 
# High freq. dielectric constant tensor:
#      x y z
#    x 1.757980 0.000000 -0.009900 
#    y 0.000000 1.750500 0.000000 
#    z -0.009900 0.000000 1.738200 
# 
# From -- ./inp_files/37684.got.cif
#   From: 2010.06.25/outbox.cif.g09.slc.cpg/sg10_19_cif.got.tgz:37684.got - 2010.06.27 22:07:45.
