data_PCOD8063826
_publ_section_title
;
Structure prediction by ZEFSAII (Michael W. Deem and Ramdas Pophale) SiO2 
 PCOD8063826
Probable space group: P 2/M
;
_chemical_formula_sum "Si O2"
_cell_formula_units_Z 32
_cell_length_a 32.427586
_cell_length_b 8.826172
_cell_length_c 12.973877
_cell_angle_alpha 90.000000
_cell_angle_beta 154.471268
_cell_angle_gamma 90.000000
_cell_volume 1600.285366
_symmetry_space_group_name_H-M "P 2/M"
_symmetry_group_IT_number 10
_symmetry_cell_setting 'monoclinic'
loop_
_space_group_symop_operation_xyz
x,y,z
-x,y,-z
-x,-y,-z
x,-y,z
loop_
_atom_site_type_symbol
_atom_site_label
_atom_site_fract_x
_atom_site_fract_y
_atom_site_fract_z
Si Si1 0.417345 0.827217 0.576775
Si Si2 0.778738 0.177817 0.105527
Si Si3 0.876997 0.176364 0.535890
Si Si4 0.560245 0.322044 0.041294
Si Si5 0.225062 0.679902 0.506547
Si Si6 0.204428 0.177032 0.088120
Si Si7 0.402639 0.332074 0.339508
Si Si8 0.095183 0.179838 0.037522
O O1 0.415083 0.799347 0.450755
O O2 0.444501 0.000000 0.662948
O O3 0.498688 0.716928 0.802475
O O4 0.309991 0.786849 0.372945
O O5 0.857325 0.210767 0.370644
O O6 0.811491 0.239320 0.065070
O O7 0.754639 0.000000 0.045481
O O8 0.684735 0.272352 0.928362
O O9 0.805853 0.268461 0.449143
O O10 0.861940 0.000000 0.526051
O O11 0.985198 0.226624 0.803110
O O12 0.567334 0.500000 0.070762
O O13 0.667804 0.256644 0.275159
O O14 0.500000 0.248902 0.000000
O O15 0.223043 0.500000 0.497542
O O16 0.153352 0.745116 0.260629
O O17 0.187832 0.000000 0.042543
O O18 0.130480 0.243618 0.005553
O O19 0.500000 0.344551 0.500000
O O20 0.377897 0.500000 0.328434
O O21 0.109422 0.000000 0.075942
#
# Coordination Sequence:
#
# PCOD8063826 Si02
#       8
#     4   4   4   4   4   4   4   4
#     4  10  20  34  55  83 112 143 182 228 277 328
#     4   9  19  36  56  83 116 146 185 230 280 333
#     4  10  22  38  58  85 115 149 187 232 281 335
#     4  10  22  39  57  80 112 149 188 231 281 336
#     4  11  24  39  57  81 112 149 189 235 284 334
#     4   8  16  33  57  85 114 144 181 229 278 331
#     4  10  21  35  53  77 109 148 187 223 267 328
#     4  10  20  37  61  84 110 146 189 234 284 336
#
# _framework density 19.996434000000001
#
# number of rings (size 3 to 8) (size 9 to 14) (size 15 to 20)
#    0.000    2.250    0.000    3.000    1.750    5.250 
#    0.000    5.000    0.000    0.000    0.000    5.250 
#    0.000    0.000    0.000    0.000    0.000    0.000 
#
# Total GULP energy -396614.169044 kJ/mol
# GULP energy per Si atom -12394.192783 kJ/mol
# Density = 1.995092 g / cm^3
# Si number density = 19.996434 Si / 1000 Ang^3
#
#
#
# Elastic Constant Matrix: (Units=GPa)
#
#
# Indices 1 2 3 4 5 6 
#
# 1 108.3283 29.7269 55.5182 0.0000 9.3259 0.0000
# 2 29.7269 34.6463 28.9272 0.0000 7.2968 0.0000
# 3 55.5182 28.9272 126.6501 0.0000 2.6498 0.0000
# 4 0.0000 0.0000 0.0000 14.2039 0.0000 -2.4965
# 5 9.3259 7.2968 2.6498 0.0000 31.2616 0.0000
# 6 0.0000 0.0000 0.0000 -2.4965 0.0000 23.4983
#
#
#
# Elastic Compliance Matrix: (Units=1/GPa)
#
#
# Indices 1 2 3 4 5 6 
#
# 1 0.013687 -0.007869 -0.004163 0.000000 -0.001893 0.000000
# 2 -0.007869 0.042112 -0.006023 0.000000 -0.006971 0.000000
# 3 -0.004163 -0.006023 0.011061 0.000000 0.001710 0.000000
# 4 0.000000 0.000000 0.000000 0.071743 0.000000 0.007622
# 5 -0.001893 -0.006971 0.001710 0.000000 0.034035 0.000000
# 6 0.000000 0.000000 0.000000 0.007622 0.000000 0.043366
#
#
# Mechanical properties :
#
#
# Convention : Reuss Voigt Hill
#
# Bulk Modulus (GPa) = 32.52103 55.32992 43.92547
# Shear Modulus (GPa) = 19.05748 24.15625 21.60687
#
# Velocity S-wave (km/s) = 3.09049 3.47944 3.29072
# Velocity P-wave (km/s) = 5.38828 6.62359 6.03761
#
# Compressibility (1/GPa) = 0.03074933
#
# Stress axis : x y z
#
# Youngs Moduli (GPa) = 73.06144 23.74612 90.41158
#
# Poissons Ratio (x) = 0.18686 0.37637
# Poissons Ratio (y) = 0.57493 0.54456
# Poissons Ratio (z) = 0.30415 0.14303
#
# Static dielectric constant tensor:
#      x y z
#    x 3.958310 0.000000 0.170040 
#    y 0.000000 3.627060 0.000000 
#    z 0.170040 0.000000 3.824110 
# 
# 
# High freq. dielectric constant tensor:
#      x y z
#    x 1.782250 0.000000 0.000830 
#    y 0.000000 1.759400 0.000000 
#    z 0.000830 0.000000 1.785630 
# 
# From -- ./inp_files/58370.got.cif
#   From: 2010.06.25/outbox.cif.g09.slc.cpg/sg10_30_cif.got.tgz:58370.got - 2010.06.27 22:07:45.
