data_PCOD8063917
_publ_section_title
;
Structure prediction by ZEFSAII (Michael W. Deem and Ramdas Pophale) SiO2 
 PCOD8063917
Probable space group: P 2/M
;
_chemical_formula_sum "Si O2"
_cell_formula_units_Z 32
_cell_length_a 12.341863
_cell_length_b 13.161633
_cell_length_c 18.103472
_cell_angle_alpha 90.000000
_cell_angle_beta 147.036196
_cell_angle_gamma 90.000000
_cell_volume 1600.067729
_symmetry_space_group_name_H-M "P 2/M"
_symmetry_group_IT_number 10
_symmetry_cell_setting 'monoclinic'
loop_
_space_group_symop_operation_xyz
x,y,z
-x,y,-z
-x,-y,-z
x,-y,z
loop_
_atom_site_type_symbol
_atom_site_label
_atom_site_fract_x
_atom_site_fract_y
_atom_site_fract_z
Si Si1 0.324009 0.614370 0.061540
Si Si2 0.232176 0.612926 0.739042
Si Si3 0.942016 0.690868 0.211085
Si Si4 0.229122 0.725592 0.151840
Si Si5 0.055208 0.114957 0.354283
Si Si6 0.824593 0.178286 0.351534
Si Si7 0.691338 0.384883 0.650337
Si Si8 0.436016 0.118082 0.672617
O O1 0.234790 0.500000 0.009818
O O2 0.534360 0.613922 0.141585
O O3 0.331732 0.651765 0.150396
O O4 0.186515 0.691447 0.937061
O O5 0.145461 0.500000 0.671752
O O6 0.189304 0.643002 0.798872
O O7 0.139471 0.699882 0.634060
O O8 0.022204 0.805926 0.269081
O O9 0.132429 0.619094 0.308721
O O10 0.241457 0.674345 0.238469
O O11 0.358879 0.827925 0.231882
O O12 0.000000 0.749598 0.000000
O O13 0.253446 0.147544 0.513431
O O14 0.853608 0.124582 0.288804
O O15 0.073897 0.000000 0.334395
O O16 0.617826 0.150625 0.273507
O O17 0.000000 0.130108 0.500000
O O18 0.500000 0.335923 0.500000
O O19 0.643337 0.500000 0.645832
O O20 0.480122 0.000000 0.693991
#
# Coordination Sequence:
#
# PCOD8063917 Si02
#       8
#     4   4   4   4   4   4   4   4
#     4  11  22  38  61  88 119 159 200 242 301 365
#     4  10  20  34  56  86 122 156 193 240 299 364
#     4  11  21  37  60  85 120 157 201 249 294 358
#     4  12  24  40  63  89 119 160 205 256 297 356
#     4   9  19  36  61  89 116 154 199 247 302 362
#     4   9  17  32  57  86 117 152 192 238 299 365
#     4  11  24  41  62  88 121 163 207 249 298 359
#     4  10  20  38  61  85 117 155 201 253 306 353
#
# _framework density 19.999154000000001
#
# number of rings (size 3 to 8) (size 9 to 14) (size 15 to 20)
#    0.000    1.625    2.500    3.000    0.000    3.500 
#    0.000    1.250    0.000    3.750    0.000    0.000 
#    0.000    0.000    0.000    0.000    0.000    0.000 
#
# Total GULP energy -396628.621400 kJ/mol
# GULP energy per Si atom -12394.644419 kJ/mol
# Density = 1.995364 g / cm^3
# Si number density = 19.999154 Si / 1000 Ang^3
#
#
#
# Elastic Constant Matrix: (Units=GPa)
#
#
# Indices 1 2 3 4 5 6 
#
# 1 93.7746 38.8205 37.6804 0.0000 6.7028 0.0000
# 2 38.8205 120.9164 39.7519 0.0000 -5.8416 0.0000
# 3 37.6804 39.7519 81.3699 0.0000 -2.1030 0.0000
# 4 0.0000 0.0000 0.0000 30.4541 0.0000 0.3521
# 5 6.7028 -5.8416 -2.1030 0.0000 29.1391 0.0000
# 6 0.0000 0.0000 0.0000 0.3521 0.0000 23.3519
#
#
#
# Elastic Compliance Matrix: (Units=1/GPa)
#
#
# Indices 1 2 3 4 5 6 
#
# 1 0.014361 -0.003092 -0.005251 0.000000 -0.004302 0.000000
# 2 -0.003092 0.010596 -0.003678 0.000000 0.002570 0.000000
# 3 -0.005251 -0.003678 0.016561 0.000000 0.001666 0.000000
# 4 0.000000 0.000000 0.000000 0.032842 0.000000 -0.000495
# 5 -0.004302 0.002570 0.001666 0.000000 0.035943 0.000000
# 6 0.000000 0.000000 0.000000 -0.000495 0.000000 0.042831
#
#
# Mechanical properties :
#
#
# Convention : Reuss Voigt Hill
#
# Bulk Modulus (GPa) = 57.22167 58.72963 57.97565
# Shear Modulus (GPa) = 27.32187 28.57620 27.94904
#
# Velocity S-wave (km/s) = 3.70016 3.78414 3.74239
# Velocity P-wave (km/s) = 6.85048 6.96583 6.90839
#
# Compressibility (1/GPa) = 0.01747590
#
# Stress axis : x y z
#
# Youngs Moduli (GPa) = 69.63064 94.37153 60.38232
#
# Poissons Ratio (x) = 0.29183 0.31706
# Poissons Ratio (y) = 0.21532 0.22210
# Poissons Ratio (z) = 0.36562 0.34712
#
# Static dielectric constant tensor:
#      x y z
#    x 3.735540 0.000000 0.105390 
#    y 0.000000 3.686740 0.000000 
#    z 0.105390 0.000000 3.489000 
# 
# 
# High freq. dielectric constant tensor:
#      x y z
#    x 1.786320 0.000000 0.008380 
#    y 0.000000 1.777110 0.000000 
#    z 0.008380 0.000000 1.761830 
# 
# From -- ./inp_files/77063.got.cif
#   From: 2010.06.25/outbox.cif.g09.slc.cpg/sg10_39_cif.got.tgz:77063.got - 2010.06.27 22:07:45.
