data_PCOD8063459
_publ_section_title
;
Structure prediction by ZEFSAII (Michael W. Deem and Ramdas Pophale) SiO2 
 PCOD8063459
Probable space group: P 2/M
;
_chemical_formula_sum "Si O2"
_cell_formula_units_Z 26
_cell_length_a 18.814755
_cell_length_b 9.851072
_cell_length_c 13.315158
_cell_angle_alpha 90.000000
_cell_angle_beta 145.896666
_cell_angle_gamma 90.000000
_cell_volume 1383.722521
_symmetry_space_group_name_H-M "P 2/M"
_symmetry_group_IT_number 10
_symmetry_cell_setting 'monoclinic'
loop_
_space_group_symop_operation_xyz
x,y,z
-x,y,-z
-x,-y,-z
x,-y,z
loop_
_atom_site_type_symbol
_atom_site_label
_atom_site_fract_x
_atom_site_fract_y
_atom_site_fract_z
Si Si1 0.749329 0.151190 0.611271
Si Si2 0.442595 0.650370 0.541117
Si Si3 0.082184 0.343635 0.890817
Si Si4 0.192077 0.342638 0.497844
Si Si5 0.679409 0.661102 0.948344
Si Si6 0.633145 0.340706 0.114938
Si Si7 0.000000 0.780545 0.000000
O O1 0.665642 0.235240 0.592538
O O2 0.740873 0.242521 0.501820
O O3 0.890455 0.130696 0.820420
O O4 0.695515 0.000000 0.527653
O O5 0.500000 0.636570 0.500000
O O6 0.390612 0.500000 0.511892
O O7 0.548844 0.701812 0.742633
O O8 0.113491 0.500000 0.929486
O O9 0.957854 0.311995 0.678357
O O10 0.064396 0.305845 0.986544
O O11 0.202034 0.272909 0.974942
O O12 0.218319 0.500000 0.498617
O O13 0.250581 0.308754 0.674417
O O14 0.696061 0.500000 0.971622
O O15 0.672175 0.722089 0.052783
O O16 0.612610 0.500000 0.077351
O O17 0.500000 0.278215 0.000000
#
# Coordination Sequence:
#
# PCOD8063459 Si02
#       7
#     4   4   4   4   4   4   2
#     4  11  22  35  52  74 101 133 170 211 254 302
#     4  10  20  34  53  76 103 136 171 208 254 306
#     4   9  17  29  48  76 105 132 167 212 256 299
#     4   9  18  32  51  75 100 130 169 210 252 300
#     4   9  17  29  48  76 106 133 166 210 257 303
#     4   9  16  27  46  72 102 135 169 208 255 303
#     4  10  20  34  50  70  99 138 173 204 251 310
#
# _framework density 18.789894
#
# number of rings (size 3 to 8) (size 9 to 14) (size 15 to 20)
#    0.000    2.462    0.000    2.769    0.000    6.462 
#    0.000    3.077    0.000    5.077    0.000    4.308 
#    0.000    0.000    0.000    0.000    0.000    0.000 
#
# Total GULP energy -322203.171546 kJ/mol
# GULP energy per Si atom -12392.429675 kJ/mol
# Density = 1.874713 g / cm^3
# Si number density = 18.789894 Si / 1000 Ang^3
#
#
#
# Elastic Constant Matrix: (Units=GPa)
#
#
# Indices 1 2 3 4 5 6 
#
# 1 127.3127 19.0677 49.4140 0.0000 -0.7808 0.0000
# 2 19.0677 62.7224 32.2793 0.0000 8.5145 0.0000
# 3 49.4140 32.2793 93.5601 0.0000 -13.8254 0.0000
# 4 0.0000 0.0000 0.0000 11.3823 0.0000 2.2950
# 5 -0.7808 8.5145 -13.8254 0.0000 34.6066 0.0000
# 6 0.0000 0.0000 0.0000 2.2950 0.0000 2.1026
#
#
#
# Elastic Compliance Matrix: (Units=1/GPa)
#
#
# Indices 1 2 3 4 5 6 
#
# 1 0.010010 0.000139 -0.005639 0.000000 -0.002061 0.000000
# 2 0.000139 0.021663 -0.008857 0.000000 -0.008865 0.000000
# 3 -0.005639 -0.008857 0.018094 0.000000 0.009281 0.000000
# 4 0.000000 0.000000 0.000000 0.112647 0.000000 -0.122956
# 5 -0.002061 -0.008865 0.009281 0.000000 0.034738 0.000000
# 6 0.000000 0.000000 0.000000 -0.122956 0.000000 0.609819
#
#
# Mechanical properties :
#
#
# Convention : Reuss Voigt Hill
#
# Bulk Modulus (GPa) = 47.50274 53.90192 50.70233
# Shear Modulus (GPa) = 5.93328 21.80724 13.87026
#
# Velocity S-wave (km/s) = 1.77892 3.41043 2.71989
# Velocity P-wave (km/s) = 5.43648 6.65259 6.07504
#
# Compressibility (1/GPa) = 0.02105142
#
# Stress axis : x y z
#
# Youngs Moduli (GPa) = 99.89979 46.16222 55.26691
#
# Poissons Ratio (x) = -0.00642 0.31167
# Poissons Ratio (y) = -0.01389 0.48952
# Poissons Ratio (z) = 0.56337 0.40887
#
# Static dielectric constant tensor:
#      x y z
#    x 3.680330 0.000000 0.050020 
#    y 0.000000 2.945420 0.000000 
#    z 0.050020 0.000000 3.570670 
# 
# 
# High freq. dielectric constant tensor:
#      x y z
#    x 1.735080 0.000000 0.001770 
#    y 0.000000 1.668810 0.000000 
#    z 0.001770 0.000000 1.740800 
# 
# From -- ./inp_files/70085.got.cif
#   From: 2010.06.25/outbox.cif.g09.slc.cpg/sg10_36_cif.got.tgz:70085.got - 2010.06.27 22:07:45.
