data_PCOD8063294
_publ_section_title
;
Structure prediction by ZEFSAII (Michael W. Deem and Ramdas Pophale) SiO2 
 PCOD8063294
Probable space group: P 2/M
;
_chemical_formula_sum "Si O2"
_cell_formula_units_Z 32
_cell_length_a 30.365325
_cell_length_b 9.168551
_cell_length_c 11.728778
_cell_angle_alpha 90.000000
_cell_angle_beta 150.467435
_cell_angle_gamma 90.000000
_cell_volume 1609.556495
_symmetry_space_group_name_H-M "P 2/M"
_symmetry_group_IT_number 10
_symmetry_cell_setting 'monoclinic'
loop_
_space_group_symop_operation_xyz
x,y,z
-x,y,-z
-x,-y,-z
x,-y,z
loop_
_atom_site_type_symbol
_atom_site_label
_atom_site_fract_x
_atom_site_fract_y
_atom_site_fract_z
Si Si1 0.760601 0.832160 0.122103
Si Si2 0.923785 0.665541 0.410097
Si Si3 0.798062 0.671113 0.666964
Si Si4 0.156128 0.833642 0.442462
Si Si5 0.003559 0.336475 0.838739
Si Si6 0.365642 0.167890 0.647356
Si Si7 0.417421 0.328749 0.231323
Si Si8 0.539037 0.168821 0.903802
O O1 0.833642 0.761384 0.201329
O O2 0.795175 0.817273 0.328181
O O3 0.746751 0.000000 0.055791
O O4 0.667724 0.747201 0.901976
O O5 0.900020 0.500000 0.319485
O O6 0.965216 0.669894 0.627250
O O7 0.000000 0.732458 0.500000
O O8 0.786302 0.500000 0.629433
O O9 0.783984 0.744943 0.511916
O O10 0.721197 0.734497 0.576143
O O11 0.894212 0.717002 0.933754
O O12 0.056439 0.766272 0.216542
O O13 0.148616 0.000000 0.386774
O O14 0.997462 0.500000 0.874867
O O15 0.435392 0.194174 0.702303
O O16 0.337292 0.000000 0.587786
O O17 0.404930 0.214658 0.858724
O O18 0.500000 0.295084 0.500000
O O19 0.398670 0.500000 0.177926
O O20 0.435274 0.266625 0.145757
O O21 0.557202 0.000000 0.913339
#
# Coordination Sequence:
#
# PCOD8063294 Si02
#       8
#     4   4   4   4   4   4   4   4
#     4  10  21  37  58  83 109 140 182 229 275 326
#     4   9  18  36  60  80 104 144 185 224 272 323
#     4  11  21  31  47  76 111 144 176 215 265 321
#     4  10  20  33  52  77 105 139 179 222 266 316
#     4   9  19  34  49  72 106 140 176 217 265 320
#     4   9  19  36  57  81 109 143 182 224 273 332
#     4  11  24  40  58  84 115 147 186 235 284 333
#     4   9  19  38  61  81 107 143 183 228 277 331
#
# _framework density 19.881253000000001
#
# number of rings (size 3 to 8) (size 9 to 14) (size 15 to 20)
#    0.000    2.250    0.000    3.375    0.000    9.250 
#    2.250    1.250    0.000    0.000    0.000    0.000 
#    0.000    0.000    0.000    0.000    0.000    0.000 
#
# Total GULP energy -396814.748709 kJ/mol
# GULP energy per Si atom -12400.460897 kJ/mol
# Density = 1.983600 g / cm^3
# Si number density = 19.881253 Si / 1000 Ang^3
#
#
#
# Elastic Constant Matrix: (Units=GPa)
#
#
# Indices 1 2 3 4 5 6 
#
# 1 88.7236 46.9057 31.5507 0.0000 30.5122 0.0000
# 2 46.9057 109.6450 55.1298 0.0000 26.9930 0.0000
# 3 31.5507 55.1298 85.7707 0.0000 35.3647 0.0000
# 4 0.0000 0.0000 0.0000 27.1752 0.0000 15.9225
# 5 30.5122 26.9930 35.3647 0.0000 34.4338 0.0000
# 6 0.0000 0.0000 0.0000 15.9225 0.0000 20.5439
#
#
#
# Elastic Compliance Matrix: (Units=1/GPa)
#
#
# Indices 1 2 3 4 5 6 
#
# 1 0.018332 -0.005720 0.003091 0.000000 -0.014935 0.000000
# 2 -0.005720 0.015428 -0.008526 0.000000 0.001731 0.000000
# 3 0.003091 -0.008526 0.024935 0.000000 -0.021664 0.000000
# 4 0.000000 0.000000 0.000000 0.067411 0.000000 -0.052247
# 5 -0.014935 0.001731 -0.021664 0.000000 0.063168 0.000000
# 6 0.000000 0.000000 0.000000 -0.052247 0.000000 0.089170
#
#
# Mechanical properties :
#
#
# Convention : Reuss Voigt Hill
#
# Bulk Modulus (GPa) = 27.48413 61.25688 44.37051
# Shear Modulus (GPa) = 15.98051 26.46744 21.22398
#
# Velocity S-wave (km/s) = 2.83821 3.65262 3.27086
# Velocity P-wave (km/s) = 4.95931 6.97618 6.05235
#
# Compressibility (1/GPa) = 0.03638463
#
# Stress axis : x y z
#
# Youngs Moduli (GPa) = 54.55030 64.81689 40.10481
#
# Poissons Ratio (x) = 0.37073 -0.12396
# Poissons Ratio (y) = 0.31201 0.34194
# Poissons Ratio (z) = -0.16861 0.55264
#
# Static dielectric constant tensor:
#      x y z
#    x 3.660710 0.000000 0.279690 
#    y 0.000000 3.686360 0.000000 
#    z 0.279690 0.000000 3.617970 
# 
# 
# High freq. dielectric constant tensor:
#      x y z
#    x 1.771740 0.000000 0.021210 
#    y 0.000000 1.773900 0.000000 
#    z 0.021210 0.000000 1.772080 
# 
# From -- ./inp_files/58331.got.cif
#   From: 2010.06.25/outbox.cif.g09.slc.cpg/sg10_30_cif.got.tgz:58331.got - 2010.06.27 22:07:45.
