data_PCOD8063422
_publ_section_title
;
Structure prediction by ZEFSAII (Michael W. Deem and Ramdas Pophale) SiO2 
 PCOD8063422
Probable space group: P 2/M
;
_chemical_formula_sum "Si O2"
_cell_formula_units_Z 28
_cell_length_a 19.438119
_cell_length_b 10.210550
_cell_length_c 22.536013
_cell_angle_alpha 90.000000
_cell_angle_beta 161.416695
_cell_angle_gamma 90.000000
_cell_volume 1425.409125
_symmetry_space_group_name_H-M "P 2/M"
_symmetry_group_IT_number 10
_symmetry_cell_setting 'monoclinic'
loop_
_space_group_symop_operation_xyz
x,y,z
-x,y,-z
-x,-y,-z
x,-y,z
loop_
_atom_site_type_symbol
_atom_site_label
_atom_site_fract_x
_atom_site_fract_y
_atom_site_fract_z
Si Si1 0.697768 0.353584 0.283270
Si Si2 0.215161 0.354490 0.920482
Si Si3 0.922078 0.731952 0.581296
Si Si4 0.264219 0.148035 0.783126
Si Si5 0.560713 0.846737 0.369406
Si Si6 0.131640 0.150610 0.953226
Si Si7 0.649853 0.151545 0.571889
O O1 0.715938 0.500000 0.270856
O O2 0.825545 0.353918 0.449422
O O3 0.798759 0.249041 0.320457
O O4 0.451173 0.313434 0.092030
O O5 0.219165 0.500000 0.953024
O O6 0.133335 0.244251 0.898136
O O7 0.054630 0.361414 0.733508
O O8 0.724193 0.797147 0.453664
O O9 0.086568 0.841023 0.689945
O O10 0.261419 0.000000 0.755650
O O11 0.500000 0.184946 0.000000
O O12 0.605110 0.783383 0.470600
O O13 0.595849 0.000000 0.402577
O O14 0.317039 0.809812 0.151207
O O15 0.899701 0.168912 0.795011
O O16 0.160772 0.000000 0.955310
O O17 0.500000 0.218645 0.500000
O O18 0.584741 0.000000 0.514108
#
# Coordination Sequence:
#
# PCOD8063422 Si02
#       7
#     4   4   4   4   4   4   4
#     4  11  25  43  62  86 117 154 198 247 299 354
#     4  11  23  39  60  88 118 153 197 248 294 345
#     4  12  22  39  62  86 112 155 200 248 290 354
#     4  11  25  42  61  87 118 156 198 247 301 351
#     4  10  20  33  56  89 119 152 195 241 292 343
#     4  10  20  36  59  88 120 155 192 239 292 346
#     4   9  18  33  56  89 126 157 189 233 289 349
#
# _framework density 19.643483
#
# number of rings (size 3 to 8) (size 9 to 14) (size 15 to 20)
#    0.000    1.429    4.286    1.286    0.000    5.429 
#    0.000    2.857    0.000    0.429    0.000    1.000 
#    0.000    0.000    0.000    0.000    0.000    0.000 
#
# Total GULP energy -347190.255038 kJ/mol
# GULP energy per Si atom -12399.651966 kJ/mol
# Density = 1.959877 g / cm^3
# Si number density = 19.643483 Si / 1000 Ang^3
#
#
#
# Elastic Constant Matrix: (Units=GPa)
#
#
# Indices 1 2 3 4 5 6 
#
# 1 119.0807 41.4314 52.6596 0.0000 16.4456 0.0000
# 2 41.4314 70.0680 27.5250 0.0000 4.5023 0.0000
# 3 52.6596 27.5250 133.3567 0.0000 7.8826 0.0000
# 4 0.0000 0.0000 0.0000 5.9230 0.0000 -6.7322
# 5 16.4456 4.5023 7.8826 0.0000 33.3846 0.0000
# 6 0.0000 0.0000 0.0000 -6.7322 0.0000 9.4597
#
#
#
# Elastic Compliance Matrix: (Units=1/GPa)
#
#
# Indices 1 2 3 4 5 6 
#
# 1 0.012593 -0.005772 -0.003510 0.000000 -0.004596 0.000000
# 2 -0.005772 0.018238 -0.001529 0.000000 0.000745 0.000000
# 3 -0.003510 -0.001529 0.009214 0.000000 -0.000241 0.000000
# 4 0.000000 0.000000 0.000000 0.883418 0.000000 0.628701
# 5 -0.004596 0.000745 -0.000241 0.000000 0.032174 0.000000
# 6 0.000000 0.000000 0.000000 0.628701 0.000000 0.553139
#
#
# Mechanical properties :
#
#
# Convention : Reuss Voigt Hill
#
# Bulk Modulus (GPa) = 54.27881 62.85969 58.56925
# Shear Modulus (GPa) = 3.25407 23.14609 13.20008
#
# Velocity S-wave (km/s) = 1.28847 3.43637 2.59508
# Velocity P-wave (km/s) = 5.46859 6.91481 6.23378
#
# Compressibility (1/GPa) = 0.01842340
#
# Stress axis : x y z
#
# Youngs Moduli (GPa) = 79.41138 54.83150 108.52660
#
# Poissons Ratio (x) = 0.31649 0.38088
# Poissons Ratio (y) = 0.45837 0.16594
# Poissons Ratio (z) = 0.27870 0.08384
#
# Static dielectric constant tensor:
#      x y z
#    x 3.657160 0.000000 -0.011630 
#    y 0.000000 3.247010 0.000000 
#    z -0.011630 0.000000 3.851370 
# 
# 
# High freq. dielectric constant tensor:
#      x y z
#    x 1.752100 0.000000 0.002850 
#    y 0.000000 1.734960 0.000000 
#    z 0.002850 0.000000 1.792580 
# 
# From -- ./inp_files/79559.got.cif
#   From: 2010.06.25/outbox.cif.g09.slc.cpg/sg10_40_cif.got.tgz:79559.got - 2010.06.27 22:07:45.
