data_PCOD8063519
_publ_section_title
;
Structure prediction by ZEFSAII (Michael W. Deem and Ramdas Pophale) SiO2 
 PCOD8063519
Probable space group: P 2/M
;
_chemical_formula_sum "Si O2"
_cell_formula_units_Z 28
_cell_length_a 16.731991
_cell_length_b 8.855551
_cell_length_c 11.232024
_cell_angle_alpha 90.000000
_cell_angle_beta 119.852983
_cell_angle_gamma 90.000000
_cell_volume 1443.422074
_symmetry_space_group_name_H-M "P 2/M"
_symmetry_group_IT_number 10
_symmetry_cell_setting 'monoclinic'
loop_
_space_group_symop_operation_xyz
x,y,z
-x,y,-z
-x,-y,-z
x,-y,z
loop_
_atom_site_type_symbol
_atom_site_label
_atom_site_fract_x
_atom_site_fract_y
_atom_site_fract_z
Si Si1 0.515484 0.180121 0.378052
Si Si2 0.752507 0.820032 0.190536
Si Si3 0.940557 0.826960 0.219885
Si Si4 0.291090 0.179621 0.580000
Si Si5 0.338487 0.179125 0.111919
Si Si6 0.876003 0.323777 0.681229
Si Si7 0.153641 0.827273 0.099562
O O1 0.500000 0.241728 0.500000
O O2 0.612235 0.240669 0.399423
O O3 0.434353 0.245009 0.233128
O O4 0.513573 0.000000 0.376665
O O5 0.856683 0.766041 0.239315
O O6 0.720821 0.757376 0.294632
O O7 0.751484 0.000000 0.185803
O O8 0.682718 0.757895 0.036771
O O9 0.030317 0.727623 0.314952
O O10 0.963601 0.000000 0.268220
O O11 0.914203 0.811788 0.062123
O O12 0.210386 0.238608 0.437798
O O13 0.288611 0.000000 0.577471
O O14 0.256373 0.225233 0.140058
O O15 0.343264 0.000000 0.108971
O O16 0.862592 0.500000 0.653892
O O17 0.882995 0.281746 0.825060
O O18 0.154246 0.000000 0.146449
#
# Coordination Sequence:
#
# PCOD8063519 Si02
#       7
#     4   4   4   4   4   4   4
#     4   9  16  26  46  78 109 134 161 198 246 296
#     4   8  16  31  51  76 101 128 166 210 251 293
#     4   9  18  34  55  76  99 129 166 207 252 303
#     4  10  20  34  52  73 100 135 173 208 245 294
#     4   8  14  27  50  80 108 128 157 206 254 295
#     4  12  24  34  47  71 103 136 170 211 255 294
#     4   9  17  32  55  78 101 131 164 201 250 306
#
# _framework density 19.398344000000002
#
# number of rings (size 3 to 8) (size 9 to 14) (size 15 to 20)
#    0.000    2.714    0.000    4.286    0.000    5.714 
#    0.000    6.429    0.000    4.714    0.000    1.000 
#    0.000    0.000    0.000    0.000    0.000    0.000 
#
# Total GULP energy -347146.332209 kJ/mol
# GULP energy per Si atom -12398.083293 kJ/mol
# Density = 1.935419 g / cm^3
# Si number density = 19.398344 Si / 1000 Ang^3
#
#
#
# Elastic Constant Matrix: (Units=GPa)
#
#
# Indices 1 2 3 4 5 6 
#
# 1 148.1471 18.5765 65.6636 0.0000 5.6440 0.0000
# 2 18.5765 17.6686 15.6437 0.0000 -1.0018 0.0000
# 3 65.6636 15.6437 67.7270 0.0000 9.4514 0.0000
# 4 0.0000 0.0000 0.0000 3.1839 0.0000 -0.2399
# 5 5.6440 -1.0018 9.4514 0.0000 40.6905 0.0000
# 6 0.0000 0.0000 0.0000 -0.2399 0.0000 0.0222
#
#
#
# Elastic Compliance Matrix: (Units=1/GPa)
#
#
# Indices 1 2 3 4 5 6 
#
# 1 0.011982 -0.002713 -0.011109 0.000000 0.000852 0.000000
# 2 -0.002713 0.073091 -0.015043 0.000000 0.005670 0.000000
# 3 -0.011109 -0.015043 0.029813 0.000000 -0.005754 0.000000
# 4 0.000000 0.000000 0.000000 1.692910 0.000000 18.302203
# 5 0.000852 0.005670 -0.005754 0.000000 0.025934 0.000000
# 6 0.000000 0.000000 0.000000 18.302203 0.000000242.938231
#
#
# Mechanical properties :
#
#
# Convention : Reuss Voigt Hill
#
# Bulk Modulus (GPa) = 17.49625 48.14560 32.82092
# Shear Modulus (GPa) = 0.02042 17.68992 8.85517
#
# Velocity S-wave (km/s) = 0.10271 3.02309 2.13888
# Velocity P-wave (km/s) = 3.00884 6.08759 4.80166
#
# Compressibility (1/GPa) = 0.05715511
#
# Stress axis : x y z
#
# Youngs Moduli (GPa) = 83.46166 13.68160 33.54235
#
# Poissons Ratio (x) = 0.03712 0.37261
# Poissons Ratio (y) = 0.22647 0.50458
# Poissons Ratio (z) = 0.92714 0.20581
#
# Static dielectric constant tensor:
#      x y z
#    x 3.793380 0.000000 0.028130 
#    y 0.000000 2.906030 0.000000 
#    z 0.028130 0.000000 3.777880 
# 
# 
# High freq. dielectric constant tensor:
#      x y z
#    x 1.765720 0.000000 0.005160 
#    y 0.000000 1.687380 0.000000 
#    z 0.005160 0.000000 1.761190 
# 
# From -- ./inp_files/49405.got.cif
#   From: 2010.06.25/outbox.cif.g09.slc.cpg/sg10_25_cif.got.tgz:49405.got - 2010.06.27 22:07:45.
