data_PCOD8063679
_publ_section_title
;
Structure prediction by ZEFSAII (Michael W. Deem and Ramdas Pophale) SiO2 
 PCOD8063679
Probable space group: P 2/M
;
_chemical_formula_sum "Si O2"
_cell_formula_units_Z 32
_cell_length_a 8.696904
_cell_length_b 18.823074
_cell_length_c 12.805380
_cell_angle_alpha 90.000000
_cell_angle_beta 52.002749
_cell_angle_gamma 90.000000
_cell_volume 1651.947038
_symmetry_space_group_name_H-M "P 2/M"
_symmetry_group_IT_number 10
_symmetry_cell_setting 'monoclinic'
loop_
_space_group_symop_operation_xyz
x,y,z
-x,y,-z
-x,-y,-z
x,-y,z
loop_
_atom_site_type_symbol
_atom_site_label
_atom_site_fract_x
_atom_site_fract_y
_atom_site_fract_z
Si Si1 0.303065 0.325090 0.145165
Si Si2 0.486459 0.327194 0.626352
Si Si3 0.573198 0.207586 0.754648
Si Si4 0.175839 0.165275 0.868836
Si Si5 0.946421 0.682873 0.136401
Si Si6 0.215948 0.079140 0.437543
Si Si7 0.217662 0.416128 0.379696
Si Si8 0.283466 0.076809 0.628285
O O1 0.323110 0.247322 0.191752
O O2 0.282288 0.384257 0.242340
O O3 0.115585 0.332797 0.149217
O O4 0.500000 0.341753 0.000000
O O5 0.500000 0.307208 0.500000
O O6 0.559692 0.258522 0.659495
O O7 0.262839 0.349797 0.743895
O O8 0.630187 0.392135 0.594273
O O9 0.348164 0.187532 0.877536
O O10 0.685450 0.134925 0.682118
O O11 0.069410 0.232557 0.862792
O O12 0.276400 0.122372 0.734886
O O13 0.000000 0.122260 0.000000
O O14 0.000000 0.650834 0.000000
O O15 0.190054 0.112673 0.564862
O O16 0.000000 0.063205 0.500000
O O17 0.322765 0.000000 0.391934
O O18 0.224890 0.500000 0.367460
O O19 0.000000 0.389582 0.500000
O O20 0.500000 0.066193 0.500000
O O21 0.186601 0.000000 0.692573
#
# Coordination Sequence:
#
# PCOD8063679 Si02
#       8
#     4   4   4   4   4   4   4   4
#     4  11  22  40  64  88 118 155 198 240 293 355
#     4  10  21  35  58  89 119 155 198 242 289 340
#     4  10  22  35  57  85 116 150 195 245 296 346
#     4  10  20  34  53  80 113 145 185 239 294 346
#     4  10  21  37  57  83 118 148 186 243 293 341
#     4  10  22  37  54  79 113 152 198 248 299 354
#     4  10  22  41  62  90 127 161 197 236 283 344
#     4  10  20  35  55  76 104 148 193 240 292 348
#
# _framework density 19.371081
#
# number of rings (size 3 to 8) (size 9 to 14) (size 15 to 20)
#    0.000    1.875    1.250    3.750    5.250    2.750 
#    0.000    0.625    0.000    1.875    0.000    0.000 
#    0.000    0.000    0.000    0.000    0.000    0.000 
#
# Total GULP energy -396482.837976 kJ/mol
# GULP energy per Si atom -12390.088687 kJ/mol
# Density = 1.932699 g / cm^3
# Si number density = 19.371081 Si / 1000 Ang^3
#
#
#
# Elastic Constant Matrix: (Units=GPa)
#
#
# Indices 1 2 3 4 5 6 
#
# 1 128.7082 26.3131 45.5502 0.0000 -1.8657 0.0000
# 2 26.3131 68.3207 37.2418 0.0000 -8.6087 0.0000
# 3 45.5502 37.2418 122.2659 0.0000 -9.2764 0.0000
# 4 0.0000 0.0000 0.0000 12.2780 0.0000 0.1566
# 5 -1.8657 -8.6087 -9.2764 0.0000 34.9148 0.0000
# 6 0.0000 0.0000 0.0000 0.1566 0.0000 21.7912
#
#
#
# Elastic Compliance Matrix: (Units=1/GPa)
#
#
# Indices 1 2 3 4 5 6 
#
# 1 0.009193 -0.002086 -0.002849 0.000000 -0.000780 0.000000
# 2 -0.002086 0.018331 -0.004564 0.000000 0.003196 0.000000
# 3 -0.002849 -0.004564 0.010750 0.000000 0.001579 0.000000
# 4 0.000000 0.000000 0.000000 0.081454 0.000000 -0.000585
# 5 -0.000780 0.003196 0.001579 0.000000 0.029807 0.000000
# 6 0.000000 0.000000 0.000000 -0.000585 0.000000 0.045894
#
#
# Mechanical properties :
#
#
# Convention : Reuss Voigt Hill
#
# Bulk Modulus (GPa) = 51.87630 59.72277 55.79954
# Shear Modulus (GPa) = 22.63967 27.80945 25.22456
#
# Velocity S-wave (km/s) = 3.42239 3.79306 3.61248
# Velocity P-wave (km/s) = 6.51578 7.07679 6.80207
#
# Compressibility (1/GPa) = 0.01927662
#
# Stress axis : x y z
#
# Youngs Moduli (GPa) = 108.78093 54.55324 93.02294
#
# Poissons Ratio (x) = 0.11380 0.26498
# Poissons Ratio (y) = 0.22692 0.42454
# Poissons Ratio (z) = 0.30987 0.24897
#
# Static dielectric constant tensor:
#      x y z
#    x 3.653260 0.000000 -0.160220 
#    y 0.000000 3.344640 0.000000 
#    z -0.160220 0.000000 3.729270 
# 
# 
# High freq. dielectric constant tensor:
#      x y z
#    x 1.771300 0.000000 -0.004580 
#    y 0.000000 1.730320 0.000000 
#    z -0.004580 0.000000 1.752790 
# 
# From -- ./inp_files/43601.got.cif
#   From: 2010.06.25/outbox.cif.g09.slc.cpg/sg10_22_cif.got.tgz:43601.got - 2010.06.27 22:07:45.
