data_PCOD8063174
_publ_section_title
;
Structure prediction by ZEFSAII (Michael W. Deem and Ramdas Pophale) SiO2 
 PCOD8063174
Probable space group: P 2/M
;
_chemical_formula_sum "Si O2"
_cell_formula_units_Z 30
_cell_length_a 13.631797
_cell_length_b 13.829198
_cell_length_c 11.930867
_cell_angle_alpha 90.000000
_cell_angle_beta 128.470502
_cell_angle_gamma 90.000000
_cell_volume 1760.938698
_symmetry_space_group_name_H-M "P 2/M"
_symmetry_group_IT_number 10
_symmetry_cell_setting 'monoclinic'
loop_
_space_group_symop_operation_xyz
x,y,z
-x,y,-z
-x,-y,-z
x,-y,z
loop_
_atom_site_type_symbol
_atom_site_label
_atom_site_fract_x
_atom_site_fract_y
_atom_site_fract_z
Si Si1 0.647633 0.112812 0.932128
Si Si2 0.685443 0.389205 0.258812
Si Si3 0.186091 0.610695 0.426197
Si Si4 0.388497 0.112406 0.346878
Si Si5 0.840400 0.762352 0.776856
Si Si6 0.097248 0.608346 0.753863
Si Si7 0.119750 0.768111 0.943003
Si Si8 0.500000 0.246654 0.000000
O O1 0.587325 0.134483 0.767333
O O2 0.580154 0.177732 0.976760
O O3 0.636208 0.000000 0.956493
O O4 0.794629 0.140619 0.030394
O O5 0.636603 0.500000 0.210817
O O6 0.709814 0.363402 0.406302
O O7 0.821047 0.377509 0.298774
O O8 0.586134 0.315050 0.137365
O O9 0.200026 0.500000 0.399205
O O10 0.209559 0.673332 0.332138
O O11 0.047389 0.630881 0.377437
O O12 0.500000 0.158677 0.500000
O O13 0.257804 0.151408 0.301274
O O14 0.380447 0.000000 0.363222
O O15 0.975002 0.801017 0.828971
O O16 0.850946 0.728007 0.912472
O O17 0.111275 0.500000 0.811371
O O18 0.152058 0.678459 0.887039
#
# Coordination Sequence:
#
# PCOD8063174 Si02
#       8
#     4   4   4   4   4   4   4   2
#     4  10  21  36  53  74 100 131 169 212 254 302
#     4  10  20  33  50  73 101 133 171 211 248 292
#     4   9  18  31  50  76 104 134 166 204 247 296
#     4   9  19  35  54  76 100 128 167 209 251 301
#     4   9  18  30  54  76 104 133 168 201 251 297
#     4   9  16  30  51  74 100 132 170 206 246 294
#     4   9  17  33  49  79 103 131 166 209 249 295
#     4  12  22  34  54  74 100 136 170 208 256 304
#
# _framework density 17.036368
#
# number of rings (size 3 to 8) (size 9 to 14) (size 15 to 20)
#    0.000    2.533    1.333    0.800    1.867    2.667 
#    0.000    5.333    0.000    0.400    0.000    1.867 
#    0.000    0.000    0.000    0.000    0.000    0.000 
#
# Total GULP energy -371878.747323 kJ/mol
# GULP energy per Si atom -12395.958244 kJ/mol
# Density = 1.699759 g / cm^3
# Si number density = 17.036368 Si / 1000 Ang^3
#
#
#
# Elastic Constant Matrix: (Units=GPa)
#
#
# Indices 1 2 3 4 5 6 
#
# 1 77.4802 47.4624 43.0335 0.0000 -4.5068 0.0000
# 2 47.4624 85.2432 59.0839 0.0000 -2.3104 0.0000
# 3 43.0335 59.0839 112.2207 0.0000 -0.2595 0.0000
# 4 0.0000 0.0000 0.0000 26.7595 0.0000 -0.7050
# 5 -4.5068 -2.3104 -0.2595 0.0000 16.7225 0.0000
# 6 0.0000 0.0000 0.0000 -0.7050 0.0000 27.6863
#
#
#
# Elastic Compliance Matrix: (Units=1/GPa)
#
#
# Indices 1 2 3 4 5 6 
#
# 1 0.020445 -0.009200 -0.002987 0.000000 0.004193 0.000000
# 2 -0.009200 0.022709 -0.008427 0.000000 0.000527 0.000000
# 3 -0.002987 -0.008427 0.014489 0.000000 -0.001744 0.000000
# 4 0.000000 0.000000 0.000000 0.037395 0.000000 0.000952
# 5 0.004193 0.000527 -0.001744 0.000000 0.060976 0.000000
# 6 0.000000 0.000000 0.000000 0.000952 0.000000 0.036143
#
#
# Mechanical properties :
#
#
# Convention : Reuss Voigt Hill
#
# Bulk Modulus (GPa) = 60.91702 63.78930 62.35316
# Shear Modulus (GPa) = 20.93324 22.59127 21.76225
#
# Velocity S-wave (km/s) = 3.50914 3.64546 3.57795
# Velocity P-wave (km/s) = 7.22865 7.43260 7.33133
#
# Compressibility (1/GPa) = 0.01641577
#
# Stress axis : x y z
#
# Youngs Moduli (GPa) = 48.91253 44.03621 69.01739
#
# Poissons Ratio (x) = 0.40511 0.20614
# Poissons Ratio (y) = 0.44997 0.58161
# Poissons Ratio (z) = 0.14609 0.37109
#
# Static dielectric constant tensor:
#      x y z
#    x 3.148070 0.000000 0.011360 
#    y 0.000000 3.095860 0.000000 
#    z 0.011360 0.000000 3.343970 
# 
# 
# High freq. dielectric constant tensor:
#      x y z
#    x 1.652570 0.000000 -0.001050 
#    y 0.000000 1.647200 0.000000 
#    z -0.001050 0.000000 1.661390 
# 
# From -- ./inp_files/46736.got.cif
#   From: 2010.06.25/outbox.cif.g09.slc.cpg/sg10_24_cif.got.tgz:46736.got - 2010.06.27 22:07:45.
