data_PCOD8063424
_publ_section_title
;
Structure prediction by ZEFSAII (Michael W. Deem and Ramdas Pophale) SiO2 
 PCOD8063424
Probable space group: P 2/M
;
_chemical_formula_sum "Si O2"
_cell_formula_units_Z 32
_cell_length_a 11.430077
_cell_length_b 14.980423
_cell_length_c 9.375659
_cell_angle_alpha 90.000000
_cell_angle_beta 79.478881
_cell_angle_gamma 90.000000
_cell_volume 1578.379601
_symmetry_space_group_name_H-M "P 2/M"
_symmetry_group_IT_number 10
_symmetry_cell_setting 'monoclinic'
loop_
_space_group_symop_operation_xyz
x,y,z
-x,y,-z
-x,-y,-z
x,-y,z
loop_
_atom_site_type_symbol
_atom_site_label
_atom_site_fract_x
_atom_site_fract_y
_atom_site_fract_z
Si Si1 0.712806 0.101454 0.770213
Si Si2 0.756655 0.397172 0.120922
Si Si3 0.104150 0.774144 0.863204
Si Si4 0.981184 0.103194 0.671189
Si Si5 0.306871 0.097095 0.908370
Si Si6 0.618504 0.599016 0.882589
Si Si7 0.526781 0.347411 0.337361
Si Si8 0.501026 0.851460 0.345209
O O1 0.848523 0.134107 0.741055
O O2 0.634676 0.158638 0.677877
O O3 0.708954 0.000000 0.716728
O O4 0.653305 0.113311 0.938227
O O5 0.803973 0.500000 0.107823
O O6 0.858567 0.330693 0.161053
O O7 0.638808 0.398526 0.245346
O O8 0.722235 0.363753 0.966049
O O9 0.221423 0.823493 0.887235
O O10 0.066731 0.823811 0.725755
O O11 0.000000 0.785020 0.000000
O O12 0.000000 0.111158 0.500000
O O13 0.006059 0.000000 0.715685
O O14 0.423347 0.091918 0.784014
O O15 0.242395 0.000000 0.911786
O O16 0.655731 0.500000 0.829163
O O17 0.590701 0.649730 0.740137
O O18 0.500000 0.599301 0.000000
O O19 0.500000 0.388898 0.500000
O O20 0.562809 0.244605 0.347966
O O21 0.500000 0.899071 0.500000
#
# Coordination Sequence:
#
# PCOD8063424 Si02
#       8
#     4   4   4   4   4   4   4   4
#     4  10  22  39  58  86 122 164 207 250 304 365
#     4  10  22  40  61  90 122 159 207 258 317 374
#     4  12  24  41  66  91 118 161 212 266 313 364
#     4  10  23  41  64  93 128 168 210 259 307 363
#     4  11  23  39  61  89 122 160 204 254 306 371
#     4   8  16  31  53  81 114 152 193 241 300 365
#     4  10  20  33  56  90 126 161 205 248 304 376
#     4  11  24  37  56  91 130 166 204 245 304 379
#
# _framework density 20.273958
#
# number of rings (size 3 to 8) (size 9 to 14) (size 15 to 20)
#    0.000    1.750    2.500    2.250    3.500    4.750 
#    0.000    0.000    0.000    0.375    0.000    0.000 
#    0.000    0.000    0.000    0.000    0.000    0.000 
#
# Total GULP energy -396556.047677 kJ/mol
# GULP energy per Si atom -12392.376490 kJ/mol
# Density = 2.022781 g / cm^3
# Si number density = 20.273958 Si / 1000 Ang^3
#
#
#
# Elastic Constant Matrix: (Units=GPa)
#
#
# Indices 1 2 3 4 5 6 
#
# 1 73.5299 35.4577 38.9544 0.0000 12.1179 0.0000
# 2 35.4577 90.8352 33.4963 0.0000 15.8053 0.0000
# 3 38.9544 33.4963 139.6628 0.0000 7.5333 0.0000
# 4 0.0000 0.0000 0.0000 25.3330 0.0000 3.7482
# 5 12.1179 15.8053 7.5333 0.0000 25.7957 0.0000
# 6 0.0000 0.0000 0.0000 3.7482 0.0000 36.9025
#
#
#
# Elastic Compliance Matrix: (Units=1/GPa)
#
#
# Indices 1 2 3 4 5 6 
#
# 1 0.018845 -0.005168 -0.003769 0.000000 -0.004585 0.000000
# 2 -0.005168 0.014736 -0.001764 0.000000 -0.006086 0.000000
# 3 -0.003769 -0.001764 0.008616 0.000000 0.000335 0.000000
# 4 0.000000 0.000000 0.000000 0.040076 0.000000 -0.004071
# 5 -0.004585 -0.006086 0.000335 0.000000 0.044551 0.000000
# 6 0.000000 0.000000 0.000000 -0.004071 0.000000 0.027512
#
#
# Mechanical properties :
#
#
# Convention : Reuss Voigt Hill
#
# Bulk Modulus (GPa) = 48.09276 57.76054 52.92665
# Shear Modulus (GPa) = 27.37158 30.68089 29.02623
#
# Velocity S-wave (km/s) = 3.67834 3.89436 3.78789
# Velocity P-wave (km/s) = 6.46631 6.98378 6.73002
#
# Compressibility (1/GPa) = 0.02079315
#
# Stress axis : x y z
#
# Youngs Moduli (GPa) = 53.06546 67.86118 116.05646
#
# Poissons Ratio (x) = 0.35073 0.43744
# Poissons Ratio (y) = 0.27426 0.20477
# Poissons Ratio (z) = 0.20002 0.11974
#
# Static dielectric constant tensor:
#      x y z
#    x 3.573020 0.000000 0.052360 
#    y 0.000000 3.610640 0.000000 
#    z 0.052360 0.000000 3.836290 
# 
# 
# High freq. dielectric constant tensor:
#      x y z
#    x 1.766450 0.000000 0.006660 
#    y 0.000000 1.787250 0.000000 
#    z 0.006660 0.000000 1.793220 
# 
# From -- ./inp_files/25312.got.cif
#   From: 2010.06.25/outbox.cif.g09.slc.cpg/sg10_13_cif.got.tgz:25312.got - 2010.06.27 22:07:45.
