data_PCOD8063271
_publ_section_title
;
Structure prediction by ZEFSAII (Michael W. Deem and Ramdas Pophale) SiO2 
 PCOD8063271
Probable space group: P 2/M
;
_chemical_formula_sum "Si O2"
_cell_formula_units_Z 20
_cell_length_a 16.469556
_cell_length_b 7.758701
_cell_length_c 28.072634
_cell_angle_alpha 90.000000
_cell_angle_beta 163.190424
_cell_angle_gamma 90.000000
_cell_volume 1037.385165
_symmetry_space_group_name_H-M "P 2/M"
_symmetry_group_IT_number 10
_symmetry_cell_setting 'monoclinic'
loop_
_space_group_symop_operation_xyz
x,y,z
-x,y,-z
-x,-y,-z
x,-y,z
loop_
_atom_site_type_symbol
_atom_site_label
_atom_site_fract_x
_atom_site_fract_y
_atom_site_fract_z
Si Si1 0.791040 0.500000 0.454541
Si Si2 0.791999 0.198333 0.524456
Si Si3 0.417058 0.297200 0.399949
Si Si4 0.580256 0.500000 0.231868
Si Si5 0.382430 0.192653 0.887102
Si Si6 0.785466 0.689940 0.038715
O O1 0.688529 0.328298 0.425085
O O2 0.610905 0.500000 0.305262
O O3 0.121430 0.500000 0.627888
O O4 0.607481 0.201228 0.468465
O O5 0.097912 0.278922 0.708580
O O6 0.802100 0.000000 0.511090
O O7 0.500000 0.237108 0.500000
O O8 0.461525 0.500000 0.419086
O O9 0.099800 0.239440 0.208442
O O10 0.395493 0.668585 0.112013
O O11 0.295592 0.000000 0.853300
O O12 0.500000 0.290510 0.000000
O O13 0.620390 0.183575 0.980660
O O14 0.803914 0.500000 0.073780
#
# Coordination Sequence:
#
# PCOD8063271 Si02
#       6
#     2   4   4   2   4   4
#     4  11  20  41  62  83 115 141 189 251 288 329
#     4  11  22  37  58  86 114 151 192 228 283 338
#     4  10  20  34  55  85 120 154 186 224 274 339
#     4   9  20  37  62  83 105 149 187 239 304 325
#     4  10  20  33  51  80 116 146 182 232 277 331
#     4   9  18  35  53  81 106 145 191 221 279 335
#
# _framework density 19.279242
#
# number of rings (size 3 to 8) (size 9 to 14) (size 15 to 20)
#    0.600    1.400    3.000    1.200    0.000    1.600 
#    0.000    5.000    0.000    1.200    0.000    0.000 
#    0.000    0.000    0.000    0.000    0.000    0.000 
#
# Total GULP energy -247829.196493 kJ/mol
# GULP energy per Si atom -12391.459825 kJ/mol
# Density = 1.923536 g / cm^3
# Si number density = 19.279242 Si / 1000 Ang^3
#
#
#
# Elastic Constant Matrix: (Units=GPa)
#
#
# Indices 1 2 3 4 5 6 
#
# 1 117.0609 37.4066 53.3719 0.0000 -9.4779 0.0000
# 2 37.4066 64.2948 25.1538 0.0000 -9.9646 0.0000
# 3 53.3719 25.1538 113.5728 0.0000 -5.6471 0.0000
# 4 0.0000 0.0000 0.0000 3.1368 0.0000 8.3592
# 5 -9.4779 -9.9646 -5.6471 0.0000 41.9336 0.0000
# 6 0.0000 0.0000 0.0000 8.3592 0.0000 -4.4907
#
#
#
# Elastic Compliance Matrix: (Units=1/GPa)
#
#
# Indices 1 2 3 4 5 6 
#
# 1 0.012406 -0.005267 -0.004617 0.000000 0.000931 0.000000
# 2 -0.005267 0.019811 -0.001749 0.000000 0.003281 0.000000
# 3 -0.004617 -0.001749 0.011366 0.000000 0.000071 0.000000
# 4 0.000000 0.000000 0.000000 0.053485 0.000000 0.099559
# 5 0.000931 0.003281 0.000071 0.000000 0.024847 0.000000
# 6 0.000000 0.000000 0.000000 0.099559 0.000000 -0.037359
#
#
# Mechanical properties :
#
#
# Convention : Reuss Voigt Hill
#
# Bulk Modulus (GPa) = 49.22425 58.53259 53.87842
# Shear Modulus (GPa) = 43.63208 20.04901 31.84055
#
# Velocity S-wave (km/s) = 4.76243 3.22829 4.06833
# Velocity P-wave (km/s) = 7.47186 6.65749 7.07640
#
# Compressibility (1/GPa) = 0.02031519
#
# Stress axis : x y z
#
# Youngs Moduli (GPa) = 80.60461 50.47758 87.98406
#
# Poissons Ratio (x) = 0.26588 0.40625
# Poissons Ratio (y) = 0.42457 0.15390
# Poissons Ratio (z) = 0.37217 0.08829
#
# Static dielectric constant tensor:
#      x y z
#    x 3.282870 0.000000 0.004420 
#    y 0.000000 3.221940 0.000000 
#    z 0.004420 0.000000 3.677190 
# 
# 
# High freq. dielectric constant tensor:
#      x y z
#    x 1.736110 0.000000 0.009810 
#    y 0.000000 1.730470 0.000000 
#    z 0.009810 0.000000 1.752240 
# 
# From -- ./inp_files/74465.got.cif
#   From: 2010.06.25/outbox.cif.g09.slc.cpg/sg10_38_cif.got.tgz:74465.got - 2010.06.27 22:07:45.
