data_PCOD8063473
_publ_section_title
;
Structure prediction by ZEFSAII (Michael W. Deem and Ramdas Pophale) SiO2 
 PCOD8063473
Probable space group: P 2/M
;
_chemical_formula_sum "Si O2"
_cell_formula_units_Z 32
_cell_length_a 18.411632
_cell_length_b 9.372594
_cell_length_c 18.500727
_cell_angle_alpha 90.000000
_cell_angle_beta 34.977491
_cell_angle_gamma 90.000000
_cell_volume 1830.157310
_symmetry_space_group_name_H-M "P 2/M"
_symmetry_group_IT_number 10
_symmetry_cell_setting 'monoclinic'
loop_
_space_group_symop_operation_xyz
x,y,z
-x,y,-z
-x,-y,-z
x,-y,z
loop_
_atom_site_type_symbol
_atom_site_label
_atom_site_fract_x
_atom_site_fract_y
_atom_site_fract_z
Si Si1 0.025678 0.839889 0.560869
Si Si2 0.410132 0.668755 0.637087
Si Si3 0.318896 0.160345 0.331780
Si Si4 0.502451 0.666712 0.718015
Si Si5 0.357713 0.160900 0.140245
Si Si6 0.861349 0.329637 0.088958
Si Si7 0.767523 0.668271 0.013492
Si Si8 0.169201 0.330096 0.195920
O O1 0.170314 0.836069 0.464625
O O2 0.000000 0.789645 0.500000
O O3 0.961517 0.727074 0.666142
O O4 0.970495 0.000000 0.616092
O O5 0.500000 0.734186 0.500000
O O6 0.405461 0.500000 0.632405
O O7 0.480238 0.713150 0.653550
O O8 0.260911 0.721504 0.762006
O O9 0.377515 0.252871 0.347838
O O10 0.350384 0.224200 0.227119
O O11 0.372795 0.000000 0.293289
O O12 0.530235 0.500000 0.700662
O O13 0.379805 0.711971 0.864423
O O14 0.284244 0.264168 0.146686
O O15 0.299177 0.000000 0.187008
O O16 0.500000 0.156977 0.000000
O O17 0.863201 0.500000 0.088857
O O18 0.840985 0.270715 0.023800
O O19 0.000000 0.269846 0.000000
O O20 0.778280 0.500000 0.009143
O O21 0.825447 0.724538 0.891350
O O22 0.176620 0.500000 0.195225
#
# Coordination Sequence:
#
# PCOD8063473 Si02
#       8
#     4   4   4   4   4   4   4   4
#     4  10  20  38  55  64  90 133 168 201 244 292
#     4   8  14  26  44  69  99 128 160 197 238 285
#     4  10  20  34  51  70  93 124 163 204 240 283
#     4   9  17  31  51  72 101 132 155 192 247 295
#     4  10  20  34  52  72  94 125 167 206 238 287
#     4   8  13  24  43  64  92 133 166 187 229 292
#     4   8  16  30  45  68 103 132 152 190 247 291
#     4  11  21  32  49  73 101 126 158 204 248 293
#
# _framework density 17.484833999999999
#
# number of rings (size 3 to 8) (size 9 to 14) (size 15 to 20)
#    0.000    2.750    1.250    2.625    0.000    1.500 
#    2.250    0.625    0.000    0.375    0.000    0.000 
#    0.000    4.500    0.000    0.000    0.000    0.000 
#
# Total GULP energy -396558.804210 kJ/mol
# GULP energy per Si atom -12392.462632 kJ/mol
# Density = 1.744504 g / cm^3
# Si number density = 17.484834 Si / 1000 Ang^3
#
#
#
# Elastic Constant Matrix: (Units=GPa)
#
#
# Indices 1 2 3 4 5 6 
#
# 1 119.2738 33.2395 67.5566 0.0000 -0.7769 0.0000
# 2 33.2395 37.6438 28.8737 0.0000 4.7010 0.0000
# 3 67.5566 28.8737 124.3474 0.0000 10.4588 0.0000
# 4 0.0000 0.0000 0.0000 23.3163 0.0000 -2.8136
# 5 -0.7769 4.7010 10.4588 0.0000 31.9013 0.0000
# 6 0.0000 0.0000 0.0000 -2.8136 0.0000 3.7192
#
#
#
# Elastic Compliance Matrix: (Units=1/GPa)
#
#
# Indices 1 2 3 4 5 6 
#
# 1 0.014151 -0.008289 -0.006062 0.000000 0.003554 0.000000
# 2 -0.008289 0.037352 -0.003794 0.000000 -0.004462 0.000000
# 3 -0.006062 -0.003794 0.012527 0.000000 -0.003696 0.000000
# 4 0.000000 0.000000 0.000000 0.047197 0.000000 0.035705
# 5 0.003554 -0.004462 -0.003696 0.000000 0.033302 0.000000
# 6 0.000000 0.000000 0.000000 0.035705 0.000000 0.295885
#
#
# Mechanical properties :
#
#
# Convention : Reuss Voigt Hill
#
# Bulk Modulus (GPa) = 36.05095 60.06719 48.05907
# Shear Modulus (GPa) = 10.28909 21.89372 16.09140
#
# Velocity S-wave (km/s) = 2.42845 3.54242 3.03695
# Velocity P-wave (km/s) = 5.34100 7.15263 6.31215
#
# Compressibility (1/GPa) = 0.02773852
#
# Stress axis : x y z
#
# Youngs Moduli (GPa) = 70.66711 26.77250 79.82515
#
# Poissons Ratio (x) = 0.22192 0.48391
# Poissons Ratio (y) = 0.58577 0.30289
# Poissons Ratio (z) = 0.42839 0.10159
#
# Static dielectric constant tensor:
#      x y z
#    x 3.599170 0.000000 0.397570 
#    y 0.000000 2.890100 0.000000 
#    z 0.397570 0.000000 3.925940 
# 
# 
# High freq. dielectric constant tensor:
#      x y z
#    x 1.675330 0.000000 -0.000780 
#    y 0.000000 1.631250 0.000000 
#    z -0.000780 0.000000 1.685400 
# 
# From -- ./inp_files/86124.got.cif
#   From: 2010.06.25/outbox.cif.g09.slc.cpg/sg10_44_cif.got.tgz:86124.got - 2010.06.27 22:07:45.
