data_PCOD8063497
_publ_section_title
;
Structure prediction by ZEFSAII (Michael W. Deem and Ramdas Pophale) SiO2 
 PCOD8063497
Probable space group: P 2/M
;
_chemical_formula_sum "Si O2"
_cell_formula_units_Z 22
_cell_length_a 11.097507
_cell_length_b 14.256911
_cell_length_c 11.504646
_cell_angle_alpha 90.000000
_cell_angle_beta 140.346570
_cell_angle_gamma 90.000000
_cell_volume 1161.559919
_symmetry_space_group_name_H-M "P 2/M"
_symmetry_group_IT_number 10
_symmetry_cell_setting 'monoclinic'
loop_
_space_group_symop_operation_xyz
x,y,z
-x,y,-z
-x,-y,-z
x,-y,z
loop_
_atom_site_type_symbol
_atom_site_label
_atom_site_fract_x
_atom_site_fract_y
_atom_site_fract_z
Si Si1 0.697090 0.262645 0.193766
Si Si2 0.806526 0.895595 0.426662
Si Si3 0.252618 0.607251 0.563894
Si Si4 0.000000 0.284817 0.000000
Si Si5 0.036370 0.761135 0.279795
Si Si6 0.613773 0.393299 0.693629
O O1 0.663086 0.168188 0.245161
O O2 0.788892 0.342851 0.343558
O O3 0.831707 0.241369 0.186180
O O4 0.500000 0.299660 0.000000
O O5 0.840607 0.846800 0.576782
O O6 0.000000 0.899285 0.500000
O O7 0.722769 0.000000 0.382782
O O8 0.181993 0.500000 0.516126
O O9 0.137744 0.660872 0.377070
O O10 0.476667 0.612709 0.703793
O O11 0.014650 0.220884 0.126143
O O12 0.189774 0.345089 0.129401
O O13 0.500000 0.347276 0.500000
O O14 0.662351 0.500000 0.696352
#
# Coordination Sequence:
#
# PCOD8063497 Si02
#       6
#     4   4   4   2   4   4
#     4  10  20  34  52  81 109 134 179 225 267 327
#     4   8  16  34  57  77 102 134 170 221 273 318
#     4  10  20  36  54  74 107 144 181 227 270 310
#     4  12  21  34  55  78 108 148 180 224 270 312
#     4  10  21  34  53  80 105 141 184 217 268 323
#     4  10  20  34  51  75 105 143 189 226 258 308
#
# _framework density 18.940047
#
# number of rings (size 3 to 8) (size 9 to 14) (size 15 to 20)
#    0.000    2.182    1.818    3.000    0.000    2.909 
#    0.000    0.455    0.000    0.000    0.000   11.455 
#    0.000    0.000    0.000    0.000    0.000    0.000 
#
# Total GULP energy -272747.641612 kJ/mol
# GULP energy per Si atom -12397.620073 kJ/mol
# Density = 1.889694 g / cm^3
# Si number density = 18.940047 Si / 1000 Ang^3
#
#
#
# Elastic Constant Matrix: (Units=GPa)
#
#
# Indices 1 2 3 4 5 6 
#
# 1 71.2860 20.4884 30.5376 0.0000 -21.6712 0.0000
# 2 20.4884 117.5502 31.0804 0.0000 -16.0216 0.0000
# 3 30.5376 31.0804 95.3907 0.0000 -15.3057 0.0000
# 4 0.0000 0.0000 0.0000 14.4516 0.0000 -0.2162
# 5 -21.6712 -16.0216 -15.3057 0.0000 40.0482 0.0000
# 6 0.0000 0.0000 0.0000 -0.2162 0.0000 15.9814
#
#
#
# Elastic Compliance Matrix: (Units=1/GPa)
#
#
# Indices 1 2 3 4 5 6 
#
# 1 0.018613 -0.001003 -0.004347 0.000000 0.008010 0.000000
# 2 -0.001003 0.009652 -0.002441 0.000000 0.002386 0.000000
# 3 -0.004347 -0.002441 0.012929 0.000000 0.001612 0.000000
# 4 0.000000 0.000000 0.000000 0.069211 0.000000 0.000936
# 5 0.008010 0.002386 0.001612 0.000000 0.030875 0.000000
# 6 0.000000 0.000000 0.000000 0.000936 0.000000 0.062585
#
#
# Mechanical properties :
#
#
# Convention : Reuss Voigt Hill
#
# Bulk Modulus (GPa) = 39.04322 49.82664 44.43493
# Shear Modulus (GPa) = 21.93131 27.57095 24.75113
#
# Velocity S-wave (km/s) = 3.40653 3.81950 3.61891
# Velocity P-wave (km/s) = 6.01095 6.76876 6.40108
#
# Compressibility (1/GPa) = 0.02561264
#
# Stress axis : x y z
#
# Youngs Moduli (GPa) = 53.72491 103.60083 77.34690
#
# Poissons Ratio (x) = 0.10394 0.33620
# Poissons Ratio (y) = 0.05390 0.18880
# Poissons Ratio (z) = 0.23352 0.25289
#
# Static dielectric constant tensor:
#      x y z
#    x 3.406840 0.000000 -0.090990 
#    y 0.000000 3.489840 0.000000 
#    z -0.090990 0.000000 3.399600 
# 
# 
# High freq. dielectric constant tensor:
#      x y z
#    x 1.729380 0.000000 -0.004330 
#    y 0.000000 1.709510 0.000000 
#    z -0.004330 0.000000 1.732810 
# 
# From -- ./inp_files/47491.got.cif
#   From: 2010.06.25/outbox.cif.g09.slc.cpg/sg10_24_cif.got.tgz:47491.got - 2010.06.27 22:07:45.
