data_PCOD8063769
_publ_section_title
;
Structure prediction by ZEFSAII (Michael W. Deem and Ramdas Pophale) SiO2 
 PCOD8063769
Probable space group: P 2/M
;
_chemical_formula_sum "Si O2"
_cell_formula_units_Z 28
_cell_length_a 15.120411
_cell_length_b 9.058072
_cell_length_c 18.092801
_cell_angle_alpha 90.000000
_cell_angle_beta 144.206947
_cell_angle_gamma 90.000000
_cell_volume 1449.294333
_symmetry_space_group_name_H-M "P 2/M"
_symmetry_group_IT_number 10
_symmetry_cell_setting 'monoclinic'
loop_
_space_group_symop_operation_xyz
x,y,z
-x,y,-z
-x,-y,-z
x,-y,z
loop_
_atom_site_type_symbol
_atom_site_label
_atom_site_fract_x
_atom_site_fract_y
_atom_site_fract_z
Si Si1 0.669719 0.674040 0.137636
Si Si2 0.768634 0.673081 0.831331
Si Si3 0.826313 0.174062 0.381253
Si Si4 0.465295 0.674861 0.559054
Si Si5 0.223541 0.166322 0.488565
Si Si6 0.091709 0.831660 0.794359
Si Si7 0.028781 0.673940 0.900521
O O1 0.687281 0.500000 0.158390
O O2 0.723101 0.747636 0.250128
O O3 0.771604 0.730244 0.139405
O O4 0.500000 0.718752 0.000000
O O5 0.769809 0.500000 0.819668
O O6 0.600812 0.734572 0.703209
O O7 0.885517 0.733540 0.849619
O O8 0.820624 0.709845 0.949620
O O9 0.747971 0.211825 0.406971
O O10 0.000000 0.231715 0.500000
O O11 0.825408 0.000000 0.363982
O O12 0.500000 0.733692 0.500000
O O13 0.452065 0.500000 0.548886
O O14 0.309703 0.732960 0.487753
O O15 0.043763 0.179591 0.355985
O O16 0.278477 0.000000 0.511541
O O17 0.031421 0.772059 0.830468
O O18 0.147295 0.000000 0.840243
O O19 0.018306 0.500000 0.874442
#
# Coordination Sequence:
#
# PCOD8063769 Si02
#       7
#     4   4   4   4   4   4   4
#     4  11  25  42  61  89 121 151 191 245 297 349
#     4   8  16  32  53  78 111 149 185 231 290 340
#     4  10  20  41  66  87 118 157 195 241 295 357
#     4  10  20  34  54  82 115 149 190 237 283 337
#     4  10  22  38  58  84 113 150 192 236 290 346
#     4  11  22  38  58  82 113 148 189 237 291 351
#     4   9  17  33  57  80 107 147 191 233 282 343
#
# _framework density 19.319747
#
# number of rings (size 3 to 8) (size 9 to 14) (size 15 to 20)
#    0.000    2.143    1.429    2.571    0.000    5.714 
#    0.000    7.143    0.000    0.000    0.000    0.000 
#    0.000    0.000    0.000    0.000    0.000    0.000 
#
# Total GULP energy -347153.002387 kJ/mol
# GULP energy per Si atom -12398.321514 kJ/mol
# Density = 1.927577 g / cm^3
# Si number density = 19.319747 Si / 1000 Ang^3
#
#
#
# Elastic Constant Matrix: (Units=GPa)
#
#
# Indices 1 2 3 4 5 6 
#
# 1 92.2665 34.9060 34.4445 0.0000 -3.7450 0.0000
# 2 34.9060 53.4451 41.7049 0.0000 -3.4501 0.0000
# 3 34.4445 41.7049 101.5470 0.0000 -2.4097 0.0000
# 4 0.0000 0.0000 0.0000 26.5847 0.0000 -3.3455
# 5 -3.7450 -3.4501 -2.4097 0.0000 33.3762 0.0000
# 6 0.0000 0.0000 0.0000 -3.3455 0.0000 27.5803
#
#
#
# Elastic Compliance Matrix: (Units=1/GPa)
#
#
# Indices 1 2 3 4 5 6 
#
# 1 0.014567 -0.008282 -0.001524 0.000000 0.000668 0.000000
# 2 -0.008282 0.032382 -0.010451 0.000000 0.001664 0.000000
# 3 -0.001524 -0.010451 0.014652 0.000000 -0.000193 0.000000
# 4 0.000000 0.000000 0.000000 0.038199 0.000000 0.004634
# 5 0.000668 0.001664 -0.000193 0.000000 0.030194 0.000000
# 6 0.000000 0.000000 0.000000 0.004634 0.000000 0.036820
#
#
# Mechanical properties :
#
#
# Convention : Reuss Voigt Hill
#
# Bulk Modulus (GPa) = 47.41885 52.15216 49.78551
# Shear Modulus (GPa) = 23.32561 26.58847 24.95704
#
# Velocity S-wave (km/s) = 3.47846 3.71379 3.59805
# Velocity P-wave (km/s) = 6.38204 6.74110 6.56402
#
# Compressibility (1/GPa) = 0.02108866
#
# Stress axis : x y z
#
# Youngs Moduli (GPa) = 68.64644 30.88132 68.25001
#
# Poissons Ratio (x) = 0.25575 0.10402
# Poissons Ratio (y) = 0.56852 0.71325
# Poissons Ratio (z) = 0.10462 0.32273
#
# Static dielectric constant tensor:
#      x y z
#    x 3.478620 0.000000 0.064880 
#    y 0.000000 3.266350 0.000000 
#    z 0.064880 0.000000 3.950550 
# 
# 
# High freq. dielectric constant tensor:
#      x y z
#    x 1.755290 0.000000 -0.007080 
#    y 0.000000 1.729140 0.000000 
#    z -0.007080 0.000000 1.761260 
# 
# From -- ./inp_files/77701.got.cif
#   From: 2010.06.25/outbox.cif.g09.slc.cpg/sg10_39_cif.got.tgz:77701.got - 2010.06.27 22:07:45.
