data_PCOD8063901
_publ_section_title
;
Structure prediction by ZEFSAII (Michael W. Deem and Ramdas Pophale) SiO2 
 PCOD8063901
Probable space group: P 2/M
;
_chemical_formula_sum "Si O2"
_cell_formula_units_Z 20
_cell_length_a 8.420386
_cell_length_b 24.208959
_cell_length_c 9.678019
_cell_angle_alpha 90.000000
_cell_angle_beta 148.612766
_cell_angle_gamma 90.000000
_cell_volume 1027.499862
_symmetry_space_group_name_H-M "P 2/M"
_symmetry_group_IT_number 10
_symmetry_cell_setting 'monoclinic'
loop_
_space_group_symop_operation_xyz
x,y,z
-x,y,-z
-x,-y,-z
x,-y,z
loop_
_atom_site_type_symbol
_atom_site_label
_atom_site_fract_x
_atom_site_fract_y
_atom_site_fract_z
Si Si1 0.643021 0.321932 0.255896
Si Si2 0.355901 0.441828 0.744499
Si Si3 0.728824 0.886702 0.899058
Si Si4 0.078988 0.935706 0.402326
Si Si5 0.659590 0.236872 0.765496
O O1 0.551938 0.382659 0.253551
O O2 0.533745 0.277753 0.284723
O O3 0.000000 0.315588 0.500000
O O4 0.500000 0.311839 0.000000
O O5 0.450339 0.500000 0.735435
O O6 0.000000 0.441569 0.500000
O O7 0.500000 0.443713 0.000000
O O8 0.423463 0.917709 0.624849
O O9 0.674358 0.821418 0.854123
O O10 0.000000 0.905852 0.000000
O O11 0.830834 0.902587 0.128836
O O12 0.000000 0.920980 0.500000
O O13 0.040126 0.000000 0.340990
O O14 0.500000 0.229143 0.500000
O O15 0.000000 0.260902 0.000000
#
# Coordination Sequence:
#
# PCOD8063901 Si02
#       5
#     4   4   4   4   4
#     4  10  20  34  56  85 109 140 191 233 267 323
#     4   8  14  26  46  74 107 138 173 224 274 313
#     4  11  23  40  60  83 110 147 189 221 262 326
#     4  11  24  41  61  87 116 142 173 222 280 325
#     4  11  23  40  57  78 114 150 180 224 281 326
#
# _framework density 19.464722999999999
#
# number of rings (size 3 to 8) (size 9 to 14) (size 15 to 20)
#    0.000    1.800    0.000    5.400    0.000    6.400 
#    0.000    0.000    0.000    1.200    0.000    0.000 
#    0.000    0.000    0.000    0.000    0.000    0.000 
#
# Total GULP energy -247851.453661 kJ/mol
# GULP energy per Si atom -12392.572683 kJ/mol
# Density = 1.942042 g / cm^3
# Si number density = 19.464723 Si / 1000 Ang^3
#
#
#
# Elastic Constant Matrix: (Units=GPa)
#
#
# Indices 1 2 3 4 5 6 
#
# 1 65.1362 67.5955 21.4753 0.0000 2.0386 0.0000
# 2 67.5955 147.6397 51.9145 0.0000 -16.0324 0.0000
# 3 21.4753 51.9145 135.3498 0.0000 4.0605 0.0000
# 4 0.0000 0.0000 0.0000 32.4967 0.0000 -4.6575
# 5 2.0386 -16.0324 4.0605 0.0000 27.9464 0.0000
# 6 0.0000 0.0000 0.0000 -4.6575 0.0000 23.2013
#
#
#
# Elastic Compliance Matrix: (Units=1/GPa)
#
#
# Indices 1 2 3 4 5 6 
#
# 1 0.032745 -0.016916 0.001663 0.000000 -0.012335 0.000000
# 2 -0.016916 0.017315 -0.004311 0.000000 0.011794 0.000000
# 3 0.001663 -0.004311 0.008895 0.000000 -0.003887 0.000000
# 4 0.000000 0.000000 0.000000 0.031684 0.000000 0.006360
# 5 -0.012335 0.011794 -0.003887 0.000000 0.044013 0.000000
# 6 0.000000 0.000000 0.000000 0.006360 0.000000 0.044378
#
#
# Mechanical properties :
#
#
# Convention : Reuss Voigt Hill
#
# Bulk Modulus (GPa) = 50.43936 70.01070 60.22503
# Shear Modulus (GPa) = 22.24524 30.53822 26.39173
#
# Velocity S-wave (km/s) = 3.38427 3.96523 3.68622
# Velocity P-wave (km/s) = 6.42188 7.55051 7.00895
#
# Compressibility (1/GPa) = 0.01982578
#
# Stress axis : x y z
#
# Youngs Moduli (GPa) = 30.53870 57.75398 112.42843
#
# Poissons Ratio (x) = 0.97699 -0.18696
# Poissons Ratio (y) = 0.51660 0.48468
# Poissons Ratio (z) = -0.05078 0.24898
#
# Static dielectric constant tensor:
#      x y z
#    x 3.290190 0.000000 0.118040 
#    y 0.000000 4.179220 0.000000 
#    z 0.118040 0.000000 3.821180 
# 
# 
# High freq. dielectric constant tensor:
#      x y z
#    x 1.717910 0.000000 0.010890 
#    y 0.000000 1.778610 0.000000 
#    z 0.010890 0.000000 1.788270 
# 
# From -- ./inp_files/20797.got.cif
#   From: 2010.06.25/outbox.cif.g09.slc.cpg/sg10_11_cif.got.tgz:20797.got - 2010.06.27 22:07:45.
