data_PCOD8063703
_publ_section_title
;
Structure prediction by ZEFSAII (Michael W. Deem and Ramdas Pophale) SiO2 
 PCOD8063703
Probable space group: P 2/M
;
_chemical_formula_sum "Si O2"
_cell_formula_units_Z 20
_cell_length_a 9.173581
_cell_length_b 8.870231
_cell_length_c 26.510940
_cell_angle_alpha 90.000000
_cell_angle_beta 29.633915
_cell_angle_gamma 90.000000
_cell_volume 1066.662460
_symmetry_space_group_name_H-M "P 2/M"
_symmetry_group_IT_number 10
_symmetry_cell_setting 'monoclinic'
loop_
_space_group_symop_operation_xyz
x,y,z
-x,y,-z
-x,-y,-z
x,-y,z
loop_
_atom_site_type_symbol
_atom_site_label
_atom_site_fract_x
_atom_site_fract_y
_atom_site_fract_z
Si Si1 0.654831 0.326128 0.096780
Si Si2 0.387142 0.319688 0.281583
Si Si3 0.172881 0.664428 0.499848
Si Si4 0.279604 0.319665 0.720389
Si Si5 0.651029 0.822631 0.903145
O O1 0.571088 0.500000 0.111675
O O2 0.492821 0.263023 0.195433
O O3 0.559621 0.224411 0.078918
O O4 0.000000 0.307209 0.000000
O O5 0.374383 0.500000 0.287458
O O6 0.619247 0.264437 0.254365
O O7 0.055483 0.253119 0.392748
O O8 0.246225 0.500000 0.500517
O O9 0.485902 0.743983 0.392395
O O10 0.000000 0.643772 0.500000
O O11 0.270715 0.500000 0.720838
O O12 0.964551 0.254861 0.801568
O O13 0.696700 0.000000 0.889811
O O14 0.500000 0.765704 0.000000
#
# Coordination Sequence:
#
# PCOD8063703 Si02
#       5
#     4   4   4   4   4
#     4  10  20  34  54  78 100 125 162 207 249 290
#     4   8  14  27  50  80 107 127 156 202 249 289
#     4   7  11  22  45  77 105 127 155 194 241 288
#     4   9  16  30  55  80 100 127 164 204 241 282
#     4  11  24  38  50  68  98 134 167 201 246 298
#
# _framework density 18.750074999999999
#
# number of rings (size 3 to 8) (size 9 to 14) (size 15 to 20)
#    0.000    3.000    0.000    4.200    0.000    3.600 
#    0.000    2.000    0.000   12.600    0.000    0.000 
#    0.000    0.000    0.000    0.000    0.000    0.000 
#
# Total GULP energy -247780.722903 kJ/mol
# GULP energy per Si atom -12389.036145 kJ/mol
# Density = 1.870740 g / cm^3
# Si number density = 18.750075 Si / 1000 Ang^3
#
#
#
# Elastic Constant Matrix: (Units=GPa)
#
#
# Indices 1 2 3 4 5 6 
#
# 1 78.2796 14.4524 47.7161 0.0000 9.0627 0.0000
# 2 14.4524 21.3307 23.4108 0.0000 -0.2870 0.0000
# 3 47.7161 23.4108 158.0990 0.0000 10.2810 0.0000
# 4 0.0000 0.0000 0.0000 0.2398 0.0000 9.4647
# 5 9.0627 -0.2870 10.2810 0.0000 33.8990 0.0000
# 6 0.0000 0.0000 0.0000 9.4647 0.0000 9.3368
#
#
#
# Elastic Compliance Matrix: (Units=1/GPa)
#
#
# Indices 1 2 3 4 5 6 
#
# 1 0.016817 -0.007300 -0.003773 0.000000 -0.003414 0.000000
# 2 -0.007300 0.059457 -0.006897 0.000000 0.004547 0.000000
# 3 -0.003773 -0.006897 0.008593 0.000000 -0.001656 0.000000
# 4 0.000000 0.000000 0.000000 -0.106899 0.000000 0.108364
# 5 -0.003414 0.004547 -0.001656 0.000000 0.030953 0.000000
# 6 0.000000 0.000000 0.000000 0.108364 0.000000 -0.002746
#
#
# Mechanical properties :
#
#
# Convention : Reuss Voigt Hill
#
# Bulk Modulus (GPa) = 20.43791 47.65199 34.04495
# Shear Modulus (GPa) = 85.58360 20.17046 52.87703
#
# Velocity S-wave (km/s) = 6.76339 3.28343 5.31622
# Velocity P-wave (km/s) = 8.48028 6.31221 7.47526
#
# Compressibility (1/GPa) = 0.04892869
#
# Stress axis : x y z
#
# Youngs Moduli (GPa) = 59.46240 16.81889 116.37733
#
# Poissons Ratio (x) = 0.12277 0.43906
# Poissons Ratio (y) = 0.43406 0.80262
# Poissons Ratio (z) = 0.22434 0.11600
#
# Static dielectric constant tensor:
#      x y z
#    x 3.223580 0.000000 0.177000 
#    y 0.000000 2.915000 0.000000 
#    z 0.177000 0.000000 4.134410 
# 
# 
# High freq. dielectric constant tensor:
#      x y z
#    x 1.704940 0.000000 0.002980 
#    y 0.000000 1.669030 0.000000 
#    z 0.002980 0.000000 1.759570 
# 
# From -- ./inp_files/26780.got.cif
#   From: 2010.06.25/outbox.cif.g09.slc.cpg/sg10_14_cif.got.tgz:26780.got - 2010.06.27 22:07:45.
