data_PCOD8063211
_publ_section_title
;
Structure prediction by ZEFSAII (Michael W. Deem and Ramdas Pophale) SiO2 
 PCOD8063211
Probable space group: P 2/M
;
_chemical_formula_sum "Si O2"
_cell_formula_units_Z 32
_cell_length_a 5.159138
_cell_length_b 24.206994
_cell_length_c 13.440625
_cell_angle_alpha 90.000000
_cell_angle_beta 97.271519
_cell_angle_gamma 90.000000
_cell_volume 1665.062459
_symmetry_space_group_name_H-M "P 2/M"
_symmetry_group_IT_number 10
_symmetry_cell_setting 'monoclinic'
loop_
_space_group_symop_operation_xyz
x,y,z
-x,y,-z
-x,-y,-z
x,-y,z
loop_
_atom_site_type_symbol
_atom_site_label
_atom_site_fract_x
_atom_site_fract_y
_atom_site_fract_z
Si Si1 0.528404 0.343379 0.224962
Si Si2 0.530376 0.872780 0.118913
Si Si3 0.035615 0.633460 0.612680
Si Si4 0.524330 0.224880 0.733239
Si Si5 0.964368 0.242087 0.612092
Si Si6 0.967076 0.061381 0.881334
Si Si7 0.854203 0.438156 0.779272
Si Si8 0.224936 0.389393 0.936256
O O1 0.665123 0.356368 0.338216
O O2 0.381827 0.284814 0.221574
O O3 0.349435 0.394970 0.183455
O O4 0.735122 0.340166 0.143224
O O5 0.476495 0.816571 0.174761
O O6 0.322285 0.916158 0.152631
O O7 0.815938 0.898035 0.155603
O O8 0.500000 0.861082 0.000000
O O9 0.889475 0.692715 0.614135
O O10 0.000000 0.610940 0.500000
O O11 0.913475 0.585431 0.673169
O O12 0.231749 0.228485 0.679770
O O13 0.728762 0.208669 0.655178
O O14 0.000000 0.222659 0.500000
O O15 0.994675 0.000000 0.835985
O O16 0.000000 0.057712 0.000000
O O17 0.739797 0.500000 0.763580
O O18 0.104889 0.440427 0.865542
O O19 0.500000 0.406852 0.000000
O O20 0.000000 0.368232 0.000000
#
# Coordination Sequence:
#
# PCOD8063211 Si02
#       8
#     4   4   4   4   4   4   4   4
#     4  10  22  39  59  84 114 146 187 229 296 345
#     4  10  20  33  50  85 118 158 197 227 275 329
#     4   9  20  38  58  82 111 143 181 227 291 365
#     4  11  21  36  57  82 121 150 183 238 286 338
#     4  10  20  36  60  83 107 146 191 234 291 345
#     4   9  17  32  53  77 116 160 198 234 270 317
#     4  11  23  40  60  84 111 140 187 240 287 353
#     4  11  23  43  62  83 105 141 188 230 278 337
#
# _framework density 19.218499000000001
#
# number of rings (size 3 to 8) (size 9 to 14) (size 15 to 20)
#    0.000    1.875    2.500    1.500    0.000    5.250 
#    0.000    1.250    0.000    0.000    0.000    0.000 
#    0.000   35.000    0.000    0.000    0.000    0.000 
#
# Total GULP energy -396501.361376 kJ/mol
# GULP energy per Si atom -12390.667543 kJ/mol
# Density = 1.917476 g / cm^3
# Si number density = 19.218499 Si / 1000 Ang^3
#
#
#
# Elastic Constant Matrix: (Units=GPa)
#
#
# Indices 1 2 3 4 5 6 
#
# 1 108.6341 40.2055 45.4298 0.0000 -16.6137 0.0000
# 2 40.2055 100.5905 46.3136 0.0000 -12.7861 0.0000
# 3 45.4298 46.3136 115.9602 0.0000 -8.6504 0.0000
# 4 0.0000 0.0000 0.0000 14.7876 0.0000 -6.3089
# 5 -16.6137 -12.7861 -8.6504 0.0000 30.1671 0.0000
# 6 0.0000 0.0000 0.0000 -6.3089 0.0000 23.1252
#
#
#
# Elastic Compliance Matrix: (Units=1/GPa)
#
#
# Indices 1 2 3 4 5 6 
#
# 1 0.012365 -0.002794 -0.003381 0.000000 0.004656 0.000000
# 2 -0.002794 0.013266 -0.003985 0.000000 0.002942 0.000000
# 3 -0.003381 -0.003985 0.011521 0.000000 -0.000247 0.000000
# 4 0.000000 0.000000 0.000000 0.076532 0.000000 0.020879
# 5 0.004656 0.002942 -0.000247 0.000000 0.036889 0.000000
# 6 0.000000 0.000000 0.000000 0.020879 0.000000 0.048939
#
#
# Mechanical properties :
#
#
# Convention : Reuss Voigt Hill
#
# Bulk Modulus (GPa) = 59.40372 65.45363 62.42868
# Shear Modulus (GPa) = 22.17852 26.49837 24.33844
#
# Velocity S-wave (km/s) = 3.40077 3.71724 3.56252
# Velocity P-wave (km/s) = 6.81154 7.24951 7.03393
#
# Compressibility (1/GPa) = 0.01683396
#
# Stress axis : x y z
#
# Youngs Moduli (GPa) = 80.87189 75.37837 86.79604
#
# Poissons Ratio (x) = 0.21058 0.29348
# Poissons Ratio (y) = 0.22593 0.34584
# Poissons Ratio (z) = 0.27344 0.30035
#
# Static dielectric constant tensor:
#      x y z
#    x 3.792070 0.000000 -0.071640 
#    y 0.000000 3.306420 0.000000 
#    z -0.071640 0.000000 3.517110 
# 
# 
# High freq. dielectric constant tensor:
#      x y z
#    x 1.761330 0.000000 -0.007850 
#    y 0.000000 1.710490 0.000000 
#    z -0.007850 0.000000 1.739230 
# 
# From -- ./inp_files/39964.got.cif
#   From: 2010.06.25/outbox.cif.g09.slc.cpg/sg10_20_cif.got.tgz:39964.got - 2010.06.27 22:07:45.
