data_PCOD8063133
_publ_section_title
;
Structure prediction by ZEFSAII (Michael W. Deem and Ramdas Pophale) SiO2 
 PCOD8063133
Probable space group: P 2/M
;
_chemical_formula_sum "Si O2"
_cell_formula_units_Z 28
_cell_length_a 9.297919
_cell_length_b 13.180338
_cell_length_c 15.877894
_cell_angle_alpha 90.000000
_cell_angle_beta 130.887490
_cell_angle_gamma 90.000000
_cell_volume 1471.041538
_symmetry_space_group_name_H-M "P 2/M"
_symmetry_group_IT_number 10
_symmetry_cell_setting 'monoclinic'
loop_
_space_group_symop_operation_xyz
x,y,z
-x,y,-z
-x,-y,-z
x,-y,z
loop_
_atom_site_type_symbol
_atom_site_label
_atom_site_fract_x
_atom_site_fract_y
_atom_site_fract_z
Si Si1 0.595594 0.383361 0.451378
Si Si2 0.167129 0.755980 0.849640
Si Si3 0.034296 0.382716 0.653115
Si Si4 0.621795 0.388820 0.961832
Si Si5 0.605880 0.703126 0.281403
Si Si6 0.549584 0.116733 0.155699
Si Si7 0.900593 0.113263 0.041882
O O1 0.500000 0.339143 0.500000
O O2 0.533664 0.500000 0.416951
O O3 0.520099 0.322299 0.340497
O O4 0.821323 0.371557 0.539947
O O5 0.053363 0.682469 0.745158
O O6 0.341721 0.815519 0.872552
O O7 0.220049 0.693384 0.955179
O O8 0.031428 0.838546 0.842783
O O9 0.085862 0.500000 0.691669
O O10 0.176131 0.337183 0.637296
O O11 0.708237 0.500000 0.975401
O O12 0.501103 0.354869 0.834979
O O13 0.500000 0.394910 0.000000
O O14 0.590375 0.824952 0.260075
O O15 0.328005 0.117072 0.050255
O O16 0.625237 0.000000 0.188423
O O17 0.979551 0.000000 0.074938
O O18 0.000000 0.168030 0.000000
#
# Coordination Sequence:
#
# PCOD8063133 Si02
#       7
#     4   4   4   4   4   4   4
#     4  10  22  39  57  78 106 142 185 226 263 311
#     4  11  19  33  53  80 111 142 174 217 271 319
#     4  10  20  34  55  81 107 139 179 221 261 316
#     4  11  18  28  49  82 115 141 168 210 264 326
#     4  11  20  34  58  80 107 142 180 222 272 314
#     4  10  20  34  54  81 108 136 180 224 268 317
#     4  10  20  33  49  72 106 145 184 220 258 315
#
# _framework density 19.034132
#
# number of rings (size 3 to 8) (size 9 to 14) (size 15 to 20)
#    0.000    1.571    4.286    3.000    0.000    3.429 
#    0.000    0.000    0.000    9.000    0.000    0.000 
#    0.000    0.000    0.000    0.000    0.000    0.000 
#
# Total GULP energy -346899.739304 kJ/mol
# GULP energy per Si atom -12389.276404 kJ/mol
# Density = 1.899081 g / cm^3
# Si number density = 19.034132 Si / 1000 Ang^3
#
#
#
# Elastic Constant Matrix: (Units=GPa)
#
#
# Indices 1 2 3 4 5 6 
#
# 1 59.2020 26.6209 30.2347 0.0000 -34.7658 0.0000
# 2 26.6209 124.5057 39.0656 0.0000 -17.5080 0.0000
# 3 30.2347 39.0656 72.2396 0.0000 -27.9063 0.0000
# 4 0.0000 0.0000 0.0000 14.6647 0.0000 -7.9725
# 5 -34.7658 -17.5080 -27.9063 0.0000 31.5068 0.0000
# 6 0.0000 0.0000 0.0000 -7.9725 0.0000 23.8395
#
#
#
# Elastic Compliance Matrix: (Units=1/GPa)
#
#
# Indices 1 2 3 4 5 6 
#
# 1 0.049318 -0.003625 0.002376 0.000000 0.054510 0.000000
# 2 -0.003625 0.009966 -0.004983 0.000000 -0.002876 0.000000
# 3 0.002376 -0.004983 0.023541 0.000000 0.020704 0.000000
# 4 0.000000 0.000000 0.000000 0.083344 0.000000 0.027872
# 5 0.054510 -0.002876 0.020704 0.000000 0.108628 0.000000
# 6 0.000000 0.000000 0.000000 0.027872 0.000000 0.051268
#
#
# Mechanical properties :
#
#
# Convention : Reuss Voigt Hill
#
# Bulk Modulus (GPa) = 14.21231 49.75443 31.98337
# Shear Modulus (GPa) = 13.81283 24.67062 19.24172
#
# Velocity S-wave (km/s) = 2.69678 3.60408 3.18292
# Velocity P-wave (km/s) = 4.14485 6.59663 5.50887
#
# Compressibility (1/GPa) = 0.07036156
#
# Stress axis : x y z
#
# Youngs Moduli (GPa) = 20.27638 100.34119 42.47927
#
# Poissons Ratio (x) = 0.36377 -0.10095
# Poissons Ratio (y) = 0.07351 0.21168
# Poissons Ratio (z) = -0.04819 0.50001
#
# Static dielectric constant tensor:
#      x y z
#    x 3.436420 0.000000 -0.226670 
#    y 0.000000 4.107860 0.000000 
#    z -0.226670 0.000000 3.353430 
# 
# 
# High freq. dielectric constant tensor:
#      x y z
#    x 1.726030 0.000000 -0.020300 
#    y 0.000000 1.747310 0.000000 
#    z -0.020300 0.000000 1.715750 
# 
# From -- ./inp_files/61906.got.cif
#   From: 2010.06.25/outbox.cif.g09.slc.cpg/sg10_31_cif.got.tgz:61906.got - 2010.06.27 22:07:45.
