data_PCOD8063505
_publ_section_title
;
Structure prediction by ZEFSAII (Michael W. Deem and Ramdas Pophale) SiO2 
 PCOD8063505
Probable space group: P 2/M
;
_chemical_formula_sum "Si O2"
_cell_formula_units_Z 28
_cell_length_a 10.468677
_cell_length_b 12.791499
_cell_length_c 23.797832
_cell_angle_alpha 90.000000
_cell_angle_beta 27.988305
_cell_angle_gamma 90.000000
_cell_volume 1495.523239
_symmetry_space_group_name_H-M "P 2/M"
_symmetry_group_IT_number 10
_symmetry_cell_setting 'monoclinic'
loop_
_space_group_symop_operation_xyz
x,y,z
-x,y,-z
-x,-y,-z
x,-y,z
loop_
_atom_site_type_symbol
_atom_site_label
_atom_site_fract_x
_atom_site_fract_y
_atom_site_fract_z
Si Si1 0.129045 0.268372 0.795385
Si Si2 0.228227 0.886981 0.136583
Si Si3 0.558089 0.114433 0.661064
Si Si4 0.257151 0.377792 0.633426
Si Si5 0.758063 0.729366 0.772672
Si Si6 0.029892 0.884828 0.397649
Si Si7 0.183050 0.375972 0.982772
O O1 0.348358 0.209307 0.748580
O O2 0.273885 0.337503 0.691085
O O3 0.966548 0.177781 0.827668
O O4 0.946113 0.337829 0.908170
O O5 0.316230 0.821948 0.156498
O O6 0.092492 0.000000 0.205090
O O7 0.500000 0.913739 0.000000
O O8 0.721627 0.125214 0.539171
O O9 0.762839 0.123532 0.632260
O O10 0.413210 0.000000 0.718940
O O11 0.500000 0.329910 0.500000
O O12 0.296079 0.500000 0.621543
O O13 0.961642 0.353307 0.722074
O O14 0.483419 0.672747 0.858765
O O15 0.917646 0.784921 0.660761
O O16 0.064897 0.000000 0.354920
O O17 0.212095 0.500000 0.974812
O O18 0.000000 0.343147 0.000000
#
# Coordination Sequence:
#
# PCOD8063505 Si02
#       7
#     4   4   4   4   4   4   4
#     4  11  20  36  57  78 106 146 177 218 265 324
#     4  10  20  34  51  77 108 137 168 209 255 308
#     4   9  18  33  54  81 111 141 175 216 262 317
#     4  10  22  37  56  82 107 135 179 230 274 319
#     4  11  20  36  57  78 106 146 177 218 265 324
#     4   9  18  33  54  81 111 141 175 216 262 317
#     4  11  24  39  55  78 106 141 188 232 267 311
#
# _framework density 18.722545
#
# number of rings (size 3 to 8) (size 9 to 14) (size 15 to 20)
#    0.000    1.857    1.429    4.286    0.000    0.000 
#    0.000    2.143    0.000   10.286    0.000   12.000 
#    0.000    0.000    0.000    0.000    0.000    0.000 
#
# Total GULP energy -347027.966964 kJ/mol
# GULP energy per Si atom -12393.855963 kJ/mol
# Density = 1.867993 g / cm^3
# Si number density = 18.722545 Si / 1000 Ang^3
#
#
#
# Elastic Constant Matrix: (Units=GPa)
#
#
# Indices 1 2 3 4 5 6 
#
# 1 52.1359 19.3322 0.2339 0.0000 -1.9108 0.0000
# 2 19.3322 88.7764 10.6303 0.0000 -2.2011 0.0000
# 3 0.2339 10.6303 40.5195 0.0000 0.5846 0.0000
# 4 0.0000 0.0000 0.0000 27.5432 0.0000 -3.8196
# 5 -1.9108 -2.2011 0.5846 0.0000 28.2402 0.0000
# 6 0.0000 0.0000 0.0000 -3.8196 0.0000 12.1359
#
#
#
# Elastic Compliance Matrix: (Units=1/GPa)
#
#
# Indices 1 2 3 4 5 6 
#
# 1 0.020943 -0.004665 0.001088 0.000000 0.001031 0.000000
# 2 -0.004665 0.012696 -0.003314 0.000000 0.000742 0.000000
# 3 0.001088 -0.003314 0.025553 0.000000 -0.000714 0.000000
# 4 0.000000 0.000000 0.000000 0.037964 0.000000 0.011949
# 5 0.001031 0.000742 -0.000714 0.000000 0.035553 0.000000
# 6 0.000000 0.000000 0.000000 0.011949 0.000000 0.086161
#
#
# Mechanical properties :
#
#
# Convention : Reuss Voigt Hill
#
# Bulk Modulus (GPa) = 22.02222 26.86939 24.44581
# Shear Modulus (GPa) = 20.17845 23.66622 21.92233
#
# Velocity S-wave (km/s) = 3.28649 3.55920 3.42556
# Velocity P-wave (km/s) = 5.11755 5.59223 5.36015
#
# Compressibility (1/GPa) = 0.04540868
#
# Stress axis : x y z
#
# Youngs Moduli (GPa) = 47.74752 78.76804 39.13430
#
# Poissons Ratio (x) = 0.36749 -0.04259
# Poissons Ratio (y) = 0.22276 0.12971
# Poissons Ratio (z) = -0.05196 0.26107
#
# Static dielectric constant tensor:
#      x y z
#    x 3.433680 0.000000 0.201350 
#    y 0.000000 3.557670 0.000000 
#    z 0.201350 0.000000 3.541490 
# 
# 
# High freq. dielectric constant tensor:
#      x y z
#    x 1.723960 0.000000 0.001050 
#    y 0.000000 1.738350 0.000000 
#    z 0.001050 0.000000 1.724990 
# 
# From -- ./inp_files/82898.got.cif
#   From: 2010.06.25/outbox.cif.g09.slc.cpg/sg10_42_cif.got.tgz:82898.got - 2010.06.27 22:07:45.
