data_PCOD8063115
_publ_section_title
;
Structure prediction by ZEFSAII (Michael W. Deem and Ramdas Pophale) SiO2 
 PCOD8063115
Probable space group: P 2/M
;
_chemical_formula_sum "Si O2"
_cell_formula_units_Z 32
_cell_length_a 21.478253
_cell_length_b 8.518268
_cell_length_c 23.670744
_cell_angle_alpha 90.000000
_cell_angle_beta 156.239673
_cell_angle_gamma 90.000000
_cell_volume 1744.905843
_symmetry_space_group_name_H-M "P 2/M"
_symmetry_group_IT_number 10
_symmetry_cell_setting 'monoclinic'
loop_
_space_group_symop_operation_xyz
x,y,z
-x,y,-z
-x,-y,-z
x,-y,z
loop_
_atom_site_type_symbol
_atom_site_label
_atom_site_fract_x
_atom_site_fract_y
_atom_site_fract_z
Si Si1 0.908474 0.316872 0.036607
Si Si2 0.525074 0.671076 0.086982
Si Si3 0.349362 0.818023 0.249401
Si Si4 0.855722 0.311914 0.344252
Si Si5 0.328618 0.683406 0.467275
Si Si6 0.806362 0.688592 0.177245
Si Si7 0.999382 0.685136 0.764948
Si Si8 0.781294 0.816920 0.738673
O O1 0.948990 0.500000 0.065799
O O2 0.741117 0.280970 0.872690
O O3 0.911145 0.261409 0.104109
O O4 0.036583 0.221146 0.107546
O O5 0.535413 0.500000 0.124682
O O6 0.692749 0.755156 0.235323
O O7 0.500000 0.648876 0.000000
O O8 0.368727 0.756384 0.979984
O O9 0.529348 0.782367 0.390751
O O10 0.295249 0.763859 0.266354
O O11 0.315397 0.000000 0.211329
O O12 0.851198 0.500000 0.342957
O O13 0.871354 0.255671 0.292120
O O14 0.000000 0.244899 0.500000
O O15 0.362158 0.500000 0.502580
O O16 0.301379 0.717841 0.378745
O O17 0.179123 0.738665 0.379079
O O18 0.798416 0.500000 0.169410
O O19 0.918433 0.759094 0.221926
O O20 0.006222 0.500000 0.765028
O O21 0.753400 0.000000 0.703879
#
# Coordination Sequence:
#
# PCOD8063115 Si02
#       8
#     4   4   4   4   4   4   4   4
#     4  10  20  33  49  69  93 120 155 197 235 277
#     4   7  10  16  27  44  66  97 138 177 210 247
#     4  11  22  34  49  70  94 119 150 191 241 290
#     4   8  12  17  27  48  76 103 138 183 220 252
#     4  10  20  33  49  69  94 122 155 193 231 279
#     4   8  12  21  36  49  70 107 147 184 217 255
#     4   8  16  30  44  59  81 116 158 191 223 268
#     4  10  20  34  51  71  94 120 152 188 231 287
#
# _framework density 18.339098
#
# number of rings (size 3 to 8) (size 9 to 14) (size 15 to 20)
#    0.000    3.000    0.000    4.500    0.000    5.000 
#    0.000    1.250    0.000    6.000    0.000    0.000 
#    0.000    0.000    0.000    0.000    0.000  282.500 
#
# Total GULP energy -396537.380628 kJ/mol
# GULP energy per Si atom -12391.793145 kJ/mol
# Density = 1.829736 g / cm^3
# Si number density = 18.339098 Si / 1000 Ang^3
#
#
#
# Elastic Constant Matrix: (Units=GPa)
#
#
# Indices 1 2 3 4 5 6 
#
# 1 122.2209 14.5603 69.0397 0.0000 21.3121 0.0000
# 2 14.5603 20.0556 6.1242 0.0000 0.7616 0.0000
# 3 69.0397 6.1242 152.9290 0.0000 13.1365 0.0000
# 4 0.0000 0.0000 0.0000 19.1654 0.0000 0.6410
# 5 21.3121 0.7616 13.1365 0.0000 18.4447 0.0000
# 6 0.0000 0.0000 0.0000 0.6410 0.0000 -0.1312
#
#
#
# Elastic Compliance Matrix: (Units=1/GPa)
#
#
# Indices 1 2 3 4 5 6 
#
# 1 0.014162 -0.008284 -0.004991 0.000000 -0.012467 0.000000
# 2 -0.008284 0.055333 0.000957 0.000000 0.006606 0.000000
# 3 -0.004991 0.000957 0.008800 0.000000 -0.000540 0.000000
# 4 0.000000 0.000000 0.000000 0.044848 0.000000 0.219124
# 5 -0.012467 0.006606 -0.000540 0.000000 0.068733 0.000000
# 6 0.000000 0.000000 0.000000 0.219124 0.000000 -6.551148
#
#
# Mechanical properties :
#
#
# Convention : Reuss Voigt Hill
#
# Bulk Modulus (GPa) = 18.63652 52.73932 35.68792
# Shear Modulus (GPa) = -0.79155 21.19454 10.20150
#
# Velocity S-wave (km/s) = -0.65769 3.40325 2.36110
# Velocity P-wave (km/s) = 3.09960 6.65305 5.18992
#
# Compressibility (1/GPa) = 0.05365807
#
# Stress axis : x y z
#
# Youngs Moduli (GPa) = 70.61242 18.07256 113.63445
#
# Poissons Ratio (x) = 0.14971 0.56711
# Poissons Ratio (y) = 0.58496 -0.10869
# Poissons Ratio (z) = 0.35241 -0.01729
#
# Static dielectric constant tensor:
#      x y z
#    x 3.506170 0.000000 0.261390 
#    y 0.000000 2.876230 0.000000 
#    z 0.261390 0.000000 3.646650 
# 
# 
# High freq. dielectric constant tensor:
#      x y z
#    x 1.690490 0.000000 0.014000 
#    y 0.000000 1.663850 0.000000 
#    z 0.014000 0.000000 1.720030 
# 
# From -- ./inp_files/93874.got.cif
#   From: 2010.06.25/outbox.cif.g09.slc.cpg/sg10_47_cif.got.tgz:93874.got - 2010.06.27 22:07:45.
