data_PCOD8063448
_publ_section_title
;
Structure prediction by ZEFSAII (Michael W. Deem and Ramdas Pophale) SiO2 
 PCOD8063448
Probable space group: P 2/M
;
_chemical_formula_sum "Si O2"
_cell_formula_units_Z 32
_cell_length_a 22.214846
_cell_length_b 8.846056
_cell_length_c 28.385773
_cell_angle_alpha 90.000000
_cell_angle_beta 18.490248
_cell_angle_gamma 90.000000
_cell_volume 1769.086952
_symmetry_space_group_name_H-M "P 2/M"
_symmetry_group_IT_number 10
_symmetry_cell_setting 'monoclinic'
loop_
_space_group_symop_operation_xyz
x,y,z
-x,y,-z
-x,-y,-z
x,-y,z
loop_
_atom_site_type_symbol
_atom_site_label
_atom_site_fract_x
_atom_site_fract_y
_atom_site_fract_z
Si Si1 0.194271 0.821203 0.222508
Si Si2 0.537845 0.677414 0.294314
Si Si3 0.781506 0.179829 0.294447
Si Si4 0.511126 0.680321 0.421417
Si Si5 0.460415 0.179242 0.208555
Si Si6 0.787122 0.177224 0.035924
Si Si7 0.517269 0.821170 0.913354
Si Si8 0.207674 0.677877 0.470048
O O1 0.297544 0.772274 0.194424
O O2 0.998616 0.734359 0.362863
O O3 0.158086 0.000000 0.248064
O O4 0.325423 0.766798 0.081632
O O5 0.564362 0.500000 0.272668
O O6 0.523052 0.733975 0.358730
O O7 0.722902 0.749051 0.132724
O O8 0.348589 0.728874 0.407290
O O9 0.681985 0.251307 0.414001
O O10 0.691700 0.250237 0.314044
O O11 0.753083 0.000000 0.315382
O O12 0.000655 0.228153 0.133974
O O13 0.509733 0.500000 0.428040
O O14 0.650353 0.230981 0.095003
O O15 0.471901 0.246773 0.147230
O O16 0.275007 0.247497 0.371183
O O17 0.438759 0.000000 0.223994
O O18 0.774420 0.000000 0.052469
O O19 0.510091 0.000000 0.916422
O O20 0.206051 0.500000 0.464446
#
# Coordination Sequence:
#
# PCOD8063448 Si02
#       8
#     4   4   4   4   4   4   4   4
#     4   9  17  32  52  74  97 127 163 201 243 289
#     4   9  20  36  52  70  97 130 166 203 240 282
#     4  10  20  34  51  76 105 129 155 199 250 290
#     4  10  20  35  53  73  96 130 170 201 232 286
#     4   9  17  33  53  72  95 128 165 201 238 286
#     4   9  19  33  51  74  99 126 161 200 244 292
#     4   8  16  31  52  74  97 124 163 206 240 281
#     4  10  20  34  49  71 101 130 160 201 245 288
#
# _framework density 18.088426999999999
#
# number of rings (size 3 to 8) (size 9 to 14) (size 15 to 20)
#    0.000    2.750    0.000    2.625    0.000    4.500 
#    0.000    8.750    0.000    0.000    0.000    0.000 
#    0.000    0.000    0.000    0.000    0.000    0.000 
#
# Total GULP energy -396790.679727 kJ/mol
# GULP energy per Si atom -12399.708741 kJ/mol
# Density = 1.804726 g / cm^3
# Si number density = 18.088427 Si / 1000 Ang^3
#
#
#
# Elastic Constant Matrix: (Units=GPa)
#
#
# Indices 1 2 3 4 5 6 
#
# 1 97.1441 22.0788 24.4636 0.0000 25.1675 0.0000
# 2 22.0788 38.6032 22.3875 0.0000 2.8818 0.0000
# 3 24.4636 22.3875 78.9735 0.0000 -2.0435 0.0000
# 4 0.0000 0.0000 0.0000 15.5319 0.0000 0.2809
# 5 25.1675 2.8818 -2.0435 0.0000 26.3923 0.0000
# 6 0.0000 0.0000 0.0000 0.2809 0.0000 21.1843
#
#
#
# Elastic Compliance Matrix: (Units=1/GPa)
#
#
# Indices 1 2 3 4 5 6 
#
# 1 0.016681 -0.006165 -0.003821 0.000000 -0.015529 0.000000
# 2 -0.006165 0.033723 -0.007609 0.000000 0.001607 0.000000
# 3 -0.003821 -0.007609 0.016151 0.000000 0.005725 0.000000
# 4 0.000000 0.000000 0.000000 0.064399 0.000000 -0.000854
# 5 -0.015529 0.001607 0.005725 0.000000 0.052966 0.000000
# 6 0.000000 0.000000 0.000000 -0.000854 0.000000 0.047216
#
#
# Mechanical properties :
#
#
# Convention : Reuss Voigt Hill
#
# Bulk Modulus (GPa) = 31.88235 39.17561 35.52898
# Shear Modulus (GPa) = 18.06480 22.34109 20.20294
#
# Velocity S-wave (km/s) = 3.16364 3.51822 3.34563
# Velocity P-wave (km/s) = 5.56857 6.18131 5.88292
#
# Compressibility (1/GPa) = 0.03136532
#
# Stress axis : x y z
#
# Youngs Moduli (GPa) = 59.94949 29.65334 61.91476
#
# Poissons Ratio (x) = 0.18281 0.23660
# Poissons Ratio (y) = 0.36958 0.47108
# Poissons Ratio (z) = 0.22909 0.22562
#
# Static dielectric constant tensor:
#      x y z
#    x 3.628540 0.000000 0.088530 
#    y 0.000000 3.157560 0.000000 
#    z 0.088530 0.000000 3.425260 
# 
# 
# High freq. dielectric constant tensor:
#      x y z
#    x 1.701970 0.000000 0.003950 
#    y 0.000000 1.687400 0.000000 
#    z 0.003950 0.000000 1.705810 
# 
# From -- ./inp_files/93638.got.cif
#   From: 2010.06.25/outbox.cif.g09.slc.cpg/sg10_47_cif.got.tgz:93638.got - 2010.06.27 22:07:45.
