data_PCOD8063813
_publ_section_title
;
Structure prediction by ZEFSAII (Michael W. Deem and Ramdas Pophale) SiO2 
 PCOD8063813
Probable space group: P 2/M
;
_chemical_formula_sum "Si O2"
_cell_formula_units_Z 32
_cell_length_a 33.401201
_cell_length_b 9.186653
_cell_length_c 11.964544
_cell_angle_alpha 90.000000
_cell_angle_beta 27.184839
_cell_angle_gamma 90.000000
_cell_volume 1677.262814
_symmetry_space_group_name_H-M "P 2/M"
_symmetry_group_IT_number 10
_symmetry_cell_setting 'monoclinic'
loop_
_space_group_symop_operation_xyz
x,y,z
-x,y,-z
-x,-y,-z
x,-y,z
loop_
_atom_site_type_symbol
_atom_site_label
_atom_site_fract_x
_atom_site_fract_y
_atom_site_fract_z
Si Si1 0.748866 0.327017 0.526692
Si Si2 0.092425 0.669856 0.714913
Si Si3 0.390412 0.332065 0.545045
Si Si4 0.586966 0.667286 0.073827
Si Si5 0.245768 0.670943 0.735128
Si Si6 0.846525 0.167038 0.644537
Si Si7 0.900379 0.329806 0.729823
Si Si8 0.355079 0.167007 0.859974
O O1 0.752548 0.500000 0.510491
O O2 0.831514 0.270093 0.392606
O O3 0.754017 0.258598 0.389218
O O4 0.658772 0.273655 0.807835
O O5 0.105352 0.500000 0.657226
O O6 0.093217 0.753842 0.595933
O O7 0.000000 0.702914 0.000000
O O8 0.366680 0.500000 0.629369
O O9 0.491273 0.316093 0.255734
O O10 0.328057 0.268707 0.602270
O O11 0.373753 0.241987 0.696971
O O12 0.607183 0.500000 0.054599
O O13 0.587726 0.758061 0.186020
O O14 0.257715 0.500000 0.692568
O O15 0.153995 0.708228 0.023345
O O16 0.857796 0.241061 0.735815
O O17 0.875483 0.000000 0.581830
O O18 0.746326 0.183173 0.855402
O O19 0.894314 0.500000 0.715654
O O20 0.000000 0.280014 0.500000
O O21 0.383815 0.000000 0.779574
#
# Coordination Sequence:
#
# PCOD8063813 Si02
#       8
#     4   4   4   4   4   4   4   4
#     4   9  18  33  53  80 112 141 176 227 278 327
#     4  10  21  36  60  87 111 142 184 232 278 328
#     4  10  20  34  55  82 110 143 182 227 282 335
#     4  10  20  34  55  82 110 143 182 227 282 335
#     4   9  18  33  53  80 112 141 176 227 278 327
#     4  11  23  38  58  83 116 152 185 225 278 334
#     4  10  21  36  60  87 111 142 184 232 278 328
#     4  11  22  36  55  80 112 148 186 227 273 325
#
# _framework density 19.078703000000001
#
# number of rings (size 3 to 8) (size 9 to 14) (size 15 to 20)
#    0.000    2.000    2.500    1.125    1.750    4.000 
#    0.000    2.500    0.000    2.250    0.000    1.750 
#    0.000    0.000    0.000    0.000    0.000    0.000 
#
# Total GULP energy -396875.200113 kJ/mol
# GULP energy per Si atom -12402.350004 kJ/mol
# Density = 1.903528 g / cm^3
# Si number density = 19.078703 Si / 1000 Ang^3
#
#
#
# Elastic Constant Matrix: (Units=GPa)
#
#
# Indices 1 2 3 4 5 6 
#
# 1 101.0385 23.5230 43.6109 0.0000 13.3955 0.0000
# 2 23.5230 52.7291 26.4647 0.0000 6.7124 0.0000
# 3 43.6109 26.4647 111.5202 0.0000 2.0549 0.0000
# 4 0.0000 0.0000 0.0000 13.1585 0.0000 -8.0919
# 5 13.3955 6.7124 2.0549 0.0000 36.7141 0.0000
# 6 0.0000 0.0000 0.0000 -8.0919 0.0000 -0.0004
#
#
#
# Elastic Compliance Matrix: (Units=1/GPa)
#
#
# Indices 1 2 3 4 5 6 
#
# 1 0.012991 -0.003159 -0.004258 0.000000 -0.003924 0.000000
# 2 -0.003159 0.022798 -0.004124 0.000000 -0.002785 0.000000
# 3 -0.004258 -0.004124 0.011580 0.000000 0.001659 0.000000
# 4 0.000000 0.000000 0.000000 0.000006 0.000000 -0.123569
# 5 -0.003924 -0.002785 0.001659 0.000000 0.029086 0.000000
# 6 0.000000 0.000000 0.000000 -0.123569 0.000000 -0.200939
#
#
# Mechanical properties :
#
#
# Convention : Reuss Voigt Hill
#
# Bulk Modulus (GPa) = 41.17251 50.27610 45.72431
# Shear Modulus (GPa) = -53.58989 21.42038 -16.08475
#
# Velocity S-wave (km/s) = -5.30564 3.35436 -2.90672
# Velocity P-wave (km/s) = 3.98822 6.43518 3.57111
#
# Compressibility (1/GPa) = 0.02428805
#
# Stress axis : x y z
#
# Youngs Moduli (GPa) = 76.97754 43.86323 86.35404
#
# Poissons Ratio (x) = 0.13855 0.36772
# Poissons Ratio (y) = 0.24314 0.35610
# Poissons Ratio (z) = 0.32779 0.18088
#
# Static dielectric constant tensor:
#      x y z
#    x 3.622670 0.000000 -0.061960 
#    y 0.000000 3.193080 0.000000 
#    z -0.061960 0.000000 3.663250 
# 
# 
# High freq. dielectric constant tensor:
#      x y z
#    x 1.743810 0.000000 -0.003140 
#    y 0.000000 1.705580 0.000000 
#    z -0.003140 0.000000 1.755550 
# 
# From -- ./inp_files/58156.got.cif
#   From: 2010.06.25/outbox.cif.g09.slc.cpg/sg10_30_cif.got.tgz:58156.got - 2010.06.27 22:07:45.
