data_PCOD8063253
_publ_section_title
;
Structure prediction by ZEFSAII (Michael W. Deem and Ramdas Pophale) SiO2 
 PCOD8063253
Probable space group: P 2/M
;
_chemical_formula_sum "Si O2"
_cell_formula_units_Z 28
_cell_length_a 16.065045
_cell_length_b 9.182906
_cell_length_c 11.314910
_cell_angle_alpha 90.000000
_cell_angle_beta 118.352449
_cell_angle_gamma 90.000000
_cell_volume 1468.984056
_symmetry_space_group_name_H-M "P 2/M"
_symmetry_group_IT_number 10
_symmetry_cell_setting 'monoclinic'
loop_
_space_group_symop_operation_xyz
x,y,z
-x,y,-z
-x,-y,-z
x,-y,z
loop_
_atom_site_type_symbol
_atom_site_label
_atom_site_fract_x
_atom_site_fract_y
_atom_site_fract_z
Si Si1 0.772259 0.829157 0.840503
Si Si2 0.657935 0.667304 0.093952
Si Si3 0.390550 0.670188 0.674215
Si Si4 0.424316 0.829549 0.173311
Si Si5 0.021688 0.671807 0.385876
Si Si6 0.784959 0.329503 0.604509
Si Si7 0.855574 0.668986 0.109496
O O1 0.665145 0.791332 0.805425
O O2 0.792939 0.762072 0.728075
O O3 0.790380 0.000000 0.848811
O O4 0.845062 0.759757 0.982461
O O5 0.628924 0.500000 0.054534
O O6 0.644675 0.715601 0.219718
O O7 0.766877 0.694237 0.135827
O O8 0.589037 0.762600 0.965968
O O9 0.413271 0.500000 0.682619
O O10 0.484517 0.758625 0.703214
O O11 0.310294 0.714616 0.527255
O O12 0.439939 0.000000 0.170313
O O13 0.007173 0.500000 0.383795
O O14 0.127464 0.713666 0.419861
O O15 0.000000 0.740865 0.500000
O O16 0.947269 0.731195 0.239091
O O17 0.787049 0.500000 0.637148
O O18 0.866249 0.500000 0.082082
#
# Coordination Sequence:
#
# PCOD8063253 Si02
#       7
#     4   4   4   4   4   4   4
#     4  10  22  39  54  72 103 140 178 218 259 302
#     4   9  17  31  52  79 108 135 167 209 259 312
#     4  10  20  33  51  77 107 137 169 212 264 310
#     4  10  21  35  52  74 101 137 178 217 257 305
#     4   9  17  32  57  87 112 133 164 209 258 307
#     4  10  21  36  55  79 106 136 173 214 255 306
#     4   9  17  32  57  82 105 137 173 210 253 304
#
# _framework density 19.060791999999999
#
# number of rings (size 3 to 8) (size 9 to 14) (size 15 to 20)
#    0.000    2.429    0.000    2.143    0.000    9.143 
#    0.000    6.429    0.000    3.429    0.000    0.000 
#    0.000    0.000    0.000    0.000    0.000    0.000 
#
# Total GULP energy -347294.664953 kJ/mol
# GULP energy per Si atom -12403.380891 kJ/mol
# Density = 1.901741 g / cm^3
# Si number density = 19.060792 Si / 1000 Ang^3
#
#
#
# Elastic Constant Matrix: (Units=GPa)
#
#
# Indices 1 2 3 4 5 6 
#
# 1 67.1666 40.5768 64.9306 0.0000 0.6106 0.0000
# 2 40.5768 58.9481 53.9661 0.0000 -0.2970 0.0000
# 3 64.9306 53.9661 150.0072 0.0000 4.9359 0.0000
# 4 0.0000 0.0000 0.0000 -0.7375 0.0000 1.5637
# 5 0.6106 -0.2970 4.9359 0.0000 39.7796 0.0000
# 6 0.0000 0.0000 0.0000 1.5637 0.0000 21.4286
#
#
#
# Elastic Compliance Matrix: (Units=1/GPa)
#
#
# Indices 1 2 3 4 5 6 
#
# 1 0.031693 -0.013777 -0.008778 0.000000 0.000500 0.000000
# 2 -0.013777 0.031353 -0.005353 0.000000 0.001110 0.000000
# 3 -0.008778 -0.005353 0.012439 0.000000 -0.001449 0.000000
# 4 0.000000 0.000000 0.000000 -1.174208 0.000000 0.085687
# 5 0.000500 0.001110 -0.001449 0.000000 0.025319 0.000000
# 6 0.000000 0.000000 0.000000 0.085687 0.000000 0.040414
#
#
# Mechanical properties :
#
#
# Convention : Reuss Voigt Hill
#
# Bulk Modulus (GPa) = 50.83962 66.11877 58.47920
# Shear Modulus (GPa) = -5.15136 19.87068 7.35966
#
# Velocity S-wave (km/s) = -1.64574 3.23226 1.96711
# Velocity P-wave (km/s) = 4.80822 6.97809 5.99219
#
# Compressibility (1/GPa) = 0.01966970
#
# Stress axis : x y z
#
# Youngs Moduli (GPa) = 31.55295 31.89458 80.38926
#
# Poissons Ratio (x) = 0.43940 0.70569
# Poissons Ratio (y) = 0.43469 0.43031
# Poissons Ratio (z) = 0.27698 0.17073
#
# Static dielectric constant tensor:
#      x y z
#    x 3.504460 0.000000 0.092250 
#    y 0.000000 3.257540 0.000000 
#    z 0.092250 0.000000 3.577310 
# 
# 
# High freq. dielectric constant tensor:
#      x y z
#    x 1.744290 0.000000 0.005280 
#    y 0.000000 1.715630 0.000000 
#    z 0.005280 0.000000 1.747930 
# 
# From -- ./inp_files/49374.got.cif
#   From: 2010.06.25/outbox.cif.g09.slc.cpg/sg10_25_cif.got.tgz:49374.got - 2010.06.27 22:07:45.
