data_PCOD8063058
_publ_section_title
;
Structure prediction by ZEFSAII (Michael W. Deem and Ramdas Pophale) SiO2 
 PCOD8063058
Probable space group: P 2/M
;
_chemical_formula_sum "Si O2"
_cell_formula_units_Z 32
_cell_length_a 21.777960
_cell_length_b 13.687196
_cell_length_c 9.536977
_cell_angle_alpha 90.000000
_cell_angle_beta 37.865004
_cell_angle_gamma 90.000000
_cell_volume 1744.903873
_symmetry_space_group_name_H-M "P 2/M"
_symmetry_group_IT_number 10
_symmetry_cell_setting 'monoclinic'
loop_
_space_group_symop_operation_xyz
x,y,z
-x,y,-z
-x,-y,-z
x,-y,z
loop_
_atom_site_type_symbol
_atom_site_label
_atom_site_fract_x
_atom_site_fract_y
_atom_site_fract_z
Si Si1 0.252535 0.112481 0.559903
Si Si2 0.867240 0.784128 0.448695
Si Si3 0.411205 0.272130 0.263297
Si Si4 0.210360 0.607521 0.897746
Si Si5 0.443739 0.609625 0.466312
Si Si6 0.925677 0.112736 0.906349
Si Si7 0.218591 0.614227 0.562406
Si Si8 0.889455 0.237961 0.722979
O O1 0.210789 0.141817 0.482471
O O2 0.351020 0.174970 0.418101
O O3 0.283641 0.000000 0.506110
O O4 0.166871 0.137163 0.826739
O O5 0.854955 0.675184 0.406423
O O6 0.838306 0.782462 0.665414
O O7 0.980241 0.820740 0.218323
O O8 0.466615 0.318866 0.296632
O O9 0.333528 0.350149 0.335429
O O10 0.500000 0.242314 0.000000
O O11 0.166329 0.500000 0.008458
O O12 0.327651 0.607142 0.709058
O O13 0.185003 0.636111 0.782857
O O14 0.167430 0.682073 0.085593
O O15 0.500000 0.652214 0.500000
O O16 0.482220 0.500000 0.361245
O O17 0.893956 0.137226 0.803832
O O18 0.957565 0.000000 0.859622
O O19 0.211556 0.500000 0.537131
O O20 0.000000 0.280192 0.500000
#
# Coordination Sequence:
#
# PCOD8063058 Si02
#       8
#     4   4   4   4   4   4   4   4
#     4  10  21  37  57  77 100 136 178 216 258 312
#     4  10  20  32  53  83 109 132 168 218 264 302
#     4  10  20  34  54  78 105 135 167 213 265 307
#     4   9  18  35  54  70 100 142 174 206 248 302
#     4   9  18  32  53  78 100 129 170 211 252 302
#     4  10  20  36  57  76  99 136 177 216 258 309
#     4   9  19  36  56  78 106 142 180 212 249 303
#     4  10  21  33  49  75 106 136 166 210 261 305
#
# _framework density 18.339119
#
# number of rings (size 3 to 8) (size 9 to 14) (size 15 to 20)
#    0.000    2.375    0.000    4.125    0.000    8.750 
#    0.000    3.125    0.000   16.125    0.000    0.000 
#    0.000    0.000    0.000    0.000    0.000    0.000 
#
# Total GULP energy -396740.170117 kJ/mol
# GULP energy per Si atom -12398.130316 kJ/mol
# Density = 1.829738 g / cm^3
# Si number density = 18.339119 Si / 1000 Ang^3
#
#
#
# Elastic Constant Matrix: (Units=GPa)
#
#
# Indices 1 2 3 4 5 6 
#
# 1 117.2281 49.2136 33.1143 0.0000 19.3374 0.0000
# 2 49.2136 124.0819 47.0239 0.0000 0.9109 0.0000
# 3 33.1143 47.0239 88.2465 0.0000 7.7741 0.0000
# 4 0.0000 0.0000 0.0000 8.1469 0.0000 0.7726
# 5 19.3374 0.9109 7.7741 0.0000 17.3551 0.0000
# 6 0.0000 0.0000 0.0000 0.7726 0.0000 26.7568
#
#
#
# Elastic Compliance Matrix: (Units=1/GPa)
#
#
# Indices 1 2 3 4 5 6 
#
# 1 0.013097 -0.004625 -0.001234 0.000000 -0.013797 0.000000
# 2 -0.004625 0.011796 -0.005153 0.000000 0.006843 0.000000
# 3 -0.001234 -0.005153 0.014987 0.000000 -0.005068 0.000000
# 4 0.000000 0.000000 0.000000 0.123083 0.000000 -0.003554
# 5 -0.013797 0.006843 -0.005068 0.000000 0.074904 0.000000
# 6 0.000000 0.000000 0.000000 -0.003554 0.000000 0.037476
#
#
# Mechanical properties :
#
#
# Convention : Reuss Voigt Hill
#
# Bulk Modulus (GPa) = 56.00694 65.36222 60.68458
# Shear Modulus (GPa) = 16.48420 23.79874 20.14147
#
# Velocity S-wave (km/s) = 3.00134 3.60627 3.31762
# Velocity P-wave (km/s) = 6.52814 7.28413 6.91647
#
# Compressibility (1/GPa) = 0.01785493
#
# Stress axis : x y z
#
# Youngs Moduli (GPa) = 76.35497 84.77172 66.72245
#
# Poissons Ratio (x) = 0.39210 0.08236
# Poissons Ratio (y) = 0.35317 0.34383
# Poissons Ratio (z) = 0.09425 0.43684
#
# Static dielectric constant tensor:
#      x y z
#    x 3.462220 0.000000 0.127630 
#    y 0.000000 3.447120 0.000000 
#    z 0.127630 0.000000 3.270150 
# 
# 
# High freq. dielectric constant tensor:
#      x y z
#    x 1.706770 0.000000 0.008580 
#    y 0.000000 1.712910 0.000000 
#    z 0.008580 0.000000 1.699000 
# 
# From -- ./inp_files/35093.got.cif
#   From: 2010.06.25/outbox.cif.g09.slc.cpg/sg10_18_cif.got.tgz:35093.got - 2010.06.27 22:07:45.
