data_PCOD8063594
_publ_section_title
;
Structure prediction by ZEFSAII (Michael W. Deem and Ramdas Pophale) SiO2 
 PCOD8063594
Probable space group: P 2/M
;
_chemical_formula_sum "Si O2"
_cell_formula_units_Z 32
_cell_length_a 10.144788
_cell_length_b 21.604936
_cell_length_c 17.570025
_cell_angle_alpha 90.000000
_cell_angle_beta 25.723061
_cell_angle_gamma 90.000000
_cell_volume 1671.397728
_symmetry_space_group_name_H-M "P 2/M"
_symmetry_group_IT_number 10
_symmetry_cell_setting 'monoclinic'
loop_
_space_group_symop_operation_xyz
x,y,z
-x,y,-z
-x,-y,-z
x,-y,z
loop_
_atom_site_type_symbol
_atom_site_label
_atom_site_fract_x
_atom_site_fract_y
_atom_site_fract_z
Si Si1 0.142453 0.427063 0.344021
Si Si2 0.102942 0.891793 0.772864
Si Si3 0.724800 0.930823 0.098349
Si Si4 0.751497 0.071645 0.469235
Si Si5 0.334193 0.640999 0.006338
Si Si6 0.790663 0.849964 0.670724
Si Si7 0.831616 0.572607 0.348512
Si Si8 0.677246 0.219561 0.986368
O O1 0.215314 0.500000 0.304805
O O2 0.000000 0.408044 0.500000
O O3 0.918530 0.408737 0.390367
O O4 0.456888 0.389630 0.168090
O O5 0.166845 0.926362 0.661733
O O6 0.417499 0.897725 0.657974
O O7 0.823787 0.927846 0.958145
O O8 0.989260 0.820447 0.822115
O O9 0.402119 0.899030 0.279226
O O10 0.687705 0.000000 0.148113
O O11 0.000000 0.896611 0.000000
O O12 0.011337 0.112321 0.372445
O O13 0.754930 0.000000 0.494539
O O14 0.036341 0.600608 0.174892
O O15 0.500000 0.641923 0.000000
O O16 0.235842 0.710645 0.035948
O O17 0.561149 0.801862 0.826287
O O18 0.000000 0.814561 0.500000
O O19 0.500000 0.597437 0.500000
O O20 0.858170 0.500000 0.325648
O O21 0.500000 0.214525 0.000000
#
# Coordination Sequence:
#
# PCOD8063594 Si02
#       8
#     4   4   4   4   4   4   4   4
#     4   9  17  31  54  85 117 149 186 231 279 321
#     4  10  20  35  53  75 103 135 167 215 266 322
#     4  10  20  34  53  75 103 132 164 207 266 331
#     4  11  21  35  56  80 103 129 172 221 274 333
#     4   9  18  33  56  78 105 148 192 223 258 319
#     4  11  23  36  54  77 104 135 171 219 269 322
#     4   9  17  32  54  84 117 146 183 231 276 320
#     4  10  20  39  54  74 105 141 183 219 262 316
#
# _framework density 19.145651999999998
#
# number of rings (size 3 to 8) (size 9 to 14) (size 15 to 20)
#    0.000    2.125    1.250    3.000    0.000    4.000 
#    2.250    2.500    0.000   10.500    0.000    0.000 
#    0.000    0.000    0.000    0.000    0.000    0.000 
#
# Total GULP energy -396606.330339 kJ/mol
# GULP energy per Si atom -12393.947823 kJ/mol
# Density = 1.910208 g / cm^3
# Si number density = 19.145652 Si / 1000 Ang^3
#
#
#
# Elastic Constant Matrix: (Units=GPa)
#
#
# Indices 1 2 3 4 5 6 
#
# 1 54.0874 17.8928 26.8618 0.0000 -7.4221 0.0000
# 2 17.8928 62.9229 33.6372 0.0000 -0.3543 0.0000
# 3 26.8618 33.6372 116.1381 0.0000 5.8675 0.0000
# 4 0.0000 0.0000 0.0000 20.0526 0.0000 -3.7601
# 5 -7.4221 -0.3543 5.8675 0.0000 36.4504 0.0000
# 6 0.0000 0.0000 0.0000 -3.7601 0.0000 13.7010
#
#
#
# Elastic Compliance Matrix: (Units=1/GPa)
#
#
# Indices 1 2 3 4 5 6 
#
# 1 0.022727 -0.004118 -0.004331 0.000000 0.005285 0.000000
# 2 -0.004118 0.019591 -0.004728 0.000000 0.000113 0.000000
# 3 -0.004331 -0.004728 0.011119 0.000000 -0.002718 0.000000
# 4 0.000000 0.000000 0.000000 0.052574 0.000000 0.014429
# 5 0.005285 0.000113 -0.002718 0.000000 0.028949 0.000000
# 6 0.000000 0.000000 0.000000 0.014429 0.000000 0.076947
#
#
# Mechanical properties :
#
#
# Convention : Reuss Voigt Hill
#
# Bulk Modulus (GPa) = 36.92149 43.32581 40.12365
# Shear Modulus (GPa) = 20.21932 24.35789 22.28860
#
# Velocity S-wave (km/s) = 3.25326 3.57072 3.41568
# Velocity P-wave (km/s) = 5.78256 6.29911 6.04635
#
# Compressibility (1/GPa) = 0.02708450
#
# Stress axis : x y z
#
# Youngs Moduli (GPa) = 44.00077 51.04318 89.93852
#
# Poissons Ratio (x) = 0.21018 0.38952
# Poissons Ratio (y) = 0.18118 0.42519
# Poissons Ratio (z) = 0.19057 0.24131
#
# Static dielectric constant tensor:
#      x y z
#    x 3.584380 0.000000 -0.055130 
#    y 0.000000 3.408770 0.000000 
#    z -0.055130 0.000000 3.787030 
# 
# 
# High freq. dielectric constant tensor:
#      x y z
#    x 1.737600 0.000000 0.009320 
#    y 0.000000 1.721170 0.000000 
#    z 0.009320 0.000000 1.761660 
# 
# From -- ./inp_files/84242.got.cif
#   From: 2010.06.25/outbox.cif.g09.slc.cpg/sg10_43_cif.got.tgz:84242.got - 2010.06.27 22:07:45.
