data_PCOD8063676
_publ_section_title
;
Structure prediction by ZEFSAII (Michael W. Deem and Ramdas Pophale) SiO2 
 PCOD8063676
Probable space group: P 2/M
;
_chemical_formula_sum "Si O2"
_cell_formula_units_Z 26
_cell_length_a 9.166310
_cell_length_b 9.604279
_cell_length_c 19.181060
_cell_angle_alpha 90.000000
_cell_angle_beta 129.436038
_cell_angle_gamma 90.000000
_cell_volume 1304.178905
_symmetry_space_group_name_H-M "P 2/M"
_symmetry_group_IT_number 10
_symmetry_cell_setting 'monoclinic'
loop_
_space_group_symop_operation_xyz
x,y,z
-x,y,-z
-x,-y,-z
x,-y,z
loop_
_atom_site_type_symbol
_atom_site_label
_atom_site_fract_x
_atom_site_fract_y
_atom_site_fract_z
Si Si1 0.478286 0.345074 0.341189
Si Si2 0.127168 0.163487 0.214610
Si Si3 0.200995 0.335100 0.934710
Si Si4 0.223686 0.661400 0.678358
Si Si5 0.500000 0.253562 0.500000
Si Si6 0.554238 0.336035 0.122010
Si Si7 0.091341 0.154392 0.363090
O O1 0.411477 0.500000 0.297552
O O2 0.334353 0.229502 0.269335
O O3 0.682055 0.312657 0.368326
O O4 0.496606 0.348224 0.430128
O O5 0.055204 0.191187 0.271308
O O6 0.989564 0.244021 0.119246
O O7 0.137018 0.000000 0.199738
O O8 0.152658 0.500000 0.920044
O O9 0.308496 0.285903 0.897665
O O10 0.336404 0.291810 0.040843
O O11 0.177327 0.500000 0.677206
O O12 0.370445 0.720407 0.781206
O O13 0.024894 0.740865 0.623154
O O14 0.314054 0.158492 0.447082
O O15 0.557542 0.500000 0.122328
O O16 0.018662 0.000000 0.357646
#
# Coordination Sequence:
#
# PCOD8063676 Si02
#       7
#     4   4   4   4   2   4   4
#     4  10  22  38  58  80 106 141 181 223 272 321
#     4  10  20  34  53  80 111 146 185 222 263 315
#     4   9  15  28  53  80 107 143 183 221 262 309
#     4  10  20  36  57  83 111 140 176 224 272 317
#     4  10  22  40  58  82 108 136 180 224 262 320
#     4   8  15  28  50  81 111 139 176 222 266 311
#     4  10  21  37  58  81 109 143 178 217 268 324
#
# _framework density 19.935915000000001
#
# number of rings (size 3 to 8) (size 9 to 14) (size 15 to 20)
#    0.000    2.462    1.538    1.846    0.000    4.923 
#    0.000    5.385    0.000    4.615    0.000    0.000 
#    0.000    0.000    0.000    0.000    0.000    0.000 
#
# Total GULP energy -322277.448199 kJ/mol
# GULP energy per Si atom -12395.286469 kJ/mol
# Density = 1.989054 g / cm^3
# Si number density = 19.935915 Si / 1000 Ang^3
#
#
#
# Elastic Constant Matrix: (Units=GPa)
#
#
# Indices 1 2 3 4 5 6 
#
# 1 101.9593 50.0326 37.6611 0.0000 11.8084 0.0000
# 2 50.0326 97.9582 29.4489 0.0000 19.2576 0.0000
# 3 37.6611 29.4489 93.5835 0.0000 21.2299 0.0000
# 4 0.0000 0.0000 0.0000 18.7591 0.0000 3.6292
# 5 11.8084 19.2576 21.2299 0.0000 27.4733 0.0000
# 6 0.0000 0.0000 0.0000 3.6292 0.0000 21.5109
#
#
#
# Elastic Compliance Matrix: (Units=1/GPa)
#
#
# Indices 1 2 3 4 5 6 
#
# 1 0.014256 -0.006345 -0.004073 0.000000 0.001468 0.000000
# 2 -0.006345 0.015063 -0.000497 0.000000 -0.007447 0.000000
# 3 -0.004073 -0.000497 0.014557 0.000000 -0.009150 0.000000
# 4 0.000000 0.000000 0.000000 0.055106 0.000000 -0.009297
# 5 0.001468 -0.007447 -0.009150 0.000000 0.048058 0.000000
# 6 0.000000 0.000000 0.000000 -0.009297 0.000000 0.048057
#
#
# Mechanical properties :
#
#
# Convention : Reuss Voigt Hill
#
# Bulk Modulus (GPa) = 45.36320 58.64290 52.00305
# Shear Modulus (GPa) = 22.29386 25.30589 23.79987
#
# Velocity S-wave (km/s) = 3.34769 3.56668 3.45892
# Velocity P-wave (km/s) = 6.14383 6.81477 6.48798
#
# Compressibility (1/GPa) = 0.02204430
#
# Stress axis : x y z
#
# Youngs Moduli (GPa) = 70.14490 66.38874 68.69558
#
# Poissons Ratio (x) = 0.42127 0.27983
# Poissons Ratio (y) = 0.44510 0.03414
# Poissons Ratio (z) = 0.28573 0.03299
#
# Static dielectric constant tensor:
#      x y z
#    x 3.444610 0.000000 -0.057130 
#    y 0.000000 3.313940 0.000000 
#    z -0.057130 0.000000 3.955960 
# 
# 
# High freq. dielectric constant tensor:
#      x y z
#    x 1.759660 0.000000 0.011010 
#    y 0.000000 1.754040 0.000000 
#    z 0.011010 0.000000 1.777210 
# 
# From -- ./inp_files/34175.got.cif
#   From: 2010.06.25/outbox.cif.g09.slc.cpg/sg10_18_cif.got.tgz:34175.got - 2010.06.27 22:07:45.
