data_PCOD8063269
_publ_section_title
;
Structure prediction by ZEFSAII (Michael W. Deem and Ramdas Pophale) SiO2 
 PCOD8063269
Probable space group: P 2/M
;
_chemical_formula_sum "Si O2"
_cell_formula_units_Z 32
_cell_length_a 12.388712
_cell_length_b 8.987622
_cell_length_c 28.649735
_cell_angle_alpha 90.000000
_cell_angle_beta 30.258480
_cell_angle_gamma 90.000000
_cell_volume 1607.450078
_symmetry_space_group_name_H-M "P 2/M"
_symmetry_group_IT_number 10
_symmetry_cell_setting 'monoclinic'
loop_
_space_group_symop_operation_xyz
x,y,z
-x,y,-z
-x,-y,-z
x,-y,z
loop_
_atom_site_type_symbol
_atom_site_label
_atom_site_fract_x
_atom_site_fract_y
_atom_site_fract_z
Si Si1 0.617502 0.664202 0.714414
Si Si2 0.245790 0.675128 0.788035
Si Si3 0.330313 0.828135 0.503511
Si Si4 0.962023 0.176751 0.714050
Si Si5 0.244872 0.324535 0.679629
Si Si6 0.516718 0.668971 0.854537
Si Si7 0.918265 0.176506 0.979208
Si Si8 0.012359 0.171289 0.545916
O O1 0.703914 0.500000 0.671158
O O2 0.474729 0.720778 0.724486
O O3 0.479809 0.667263 0.812784
O O4 0.821227 0.766328 0.648546
O O5 0.201040 0.500000 0.812100
O O6 0.251124 0.719045 0.731711
O O7 0.070676 0.769162 0.880896
O O8 0.544157 0.730942 0.427295
O O9 0.145303 0.777333 0.608293
O O10 0.239726 0.801602 0.485233
O O11 0.392310 0.000000 0.489054
O O12 0.735737 0.250179 0.786801
O O13 0.039048 0.241652 0.734987
O O14 0.932761 0.000000 0.727146
O O15 0.224624 0.500000 0.679909
O O16 0.521021 0.500000 0.872553
O O17 0.311678 0.757213 0.949796
O O18 0.902758 0.000000 0.984040
O O19 0.000000 0.229988 0.000000
O O20 0.000000 0.250572 0.500000
O O21 0.960894 0.000000 0.559877
#
# Coordination Sequence:
#
# PCOD8063269 Si02
#       8
#     4   4   4   4   4   4   4   4
#     4  10  20  34  56  84 116 154 192 236 294 351
#     4  10  22  41  61  87 123 160 197 245 302 357
#     4  10  21  37  57  84 118 159 203 247 299 352
#     4  11  23  41  63  86 121 161 203 252 298 350
#     4  11  24  40  61  88 119 157 206 254 297 351
#     4  11  22  38  63  91 120 154 195 242 294 353
#     4  11  23  38  62  95 125 156 196 241 293 358
#     4  10  20  33  51  79 117 158 197 239 291 352
#
# _framework density 19.907308
#
# number of rings (size 3 to 8) (size 9 to 14) (size 15 to 20)
#    0.000    1.500    2.500    2.625    0.000    5.750 
#    0.000    0.625    0.000    3.750    0.000    0.000 
#    0.000    0.000    0.000    0.000    0.000    0.000 
#
# Total GULP energy -396755.934516 kJ/mol
# GULP energy per Si atom -12398.622954 kJ/mol
# Density = 1.986200 g / cm^3
# Si number density = 19.907308 Si / 1000 Ang^3
#
#
#
# Elastic Constant Matrix: (Units=GPa)
#
#
# Indices 1 2 3 4 5 6 
#
# 1 103.7860 43.3257 33.4739 0.0000 -18.7850 0.0000
# 2 43.3257 79.0653 44.1372 0.0000 -15.2512 0.0000
# 3 33.4739 44.1372 91.5829 0.0000 -19.0405 0.0000
# 4 0.0000 0.0000 0.0000 37.8428 0.0000 -3.9038
# 5 -18.7850 -15.2512 -19.0405 0.0000 26.3492 0.0000
# 6 0.0000 0.0000 0.0000 -3.9038 0.0000 30.8984
#
#
#
# Elastic Compliance Matrix: (Units=1/GPa)
#
#
# Indices 1 2 3 4 5 6 
#
# 1 0.013323 -0.005691 -0.000985 0.000000 0.005492 0.000000
# 2 -0.005691 0.020242 -0.007158 0.000000 0.002486 0.000000
# 3 -0.000985 -0.007158 0.016147 0.000000 0.006823 0.000000
# 4 0.000000 0.000000 0.000000 0.026774 0.000000 0.003383
# 5 0.005492 0.002486 0.006823 0.000000 0.048237 0.000000
# 6 0.000000 0.000000 0.000000 0.003383 0.000000 0.032792
#
#
# Mechanical properties :
#
#
# Convention : Reuss Voigt Hill
#
# Bulk Modulus (GPa) = 45.36513 57.36754 51.36634
# Shear Modulus (GPa) = 25.96978 29.25123 27.61051
#
# Velocity S-wave (km/s) = 3.61575 3.83740 3.72822
# Velocity P-wave (km/s) = 6.34580 6.96520 6.66270
#
# Compressibility (1/GPa) = 0.02204336
#
# Stress axis : x y z
#
# Youngs Moduli (GPa) = 75.05932 49.40205 61.92939
#
# Poissons Ratio (x) = 0.28117 0.06099
# Poissons Ratio (y) = 0.42719 0.44331
# Poissons Ratio (z) = 0.07392 0.35364
#
# Static dielectric constant tensor:
#      x y z
#    x 3.847030 0.000000 0.020320 
#    y 0.000000 3.574760 0.000000 
#    z 0.020320 0.000000 3.497300 
# 
# 
# High freq. dielectric constant tensor:
#      x y z
#    x 1.783460 0.000000 -0.008790 
#    y 0.000000 1.776240 0.000000 
#    z -0.008790 0.000000 1.767060 
# 
# From -- ./inp_files/49899.got.cif
#   From: 2010.06.25/outbox.cif.g09.slc.cpg/sg10_25_cif.got.tgz:49899.got - 2010.06.27 22:07:45.
