data_PCOD8063557
_publ_section_title
;
Structure prediction by ZEFSAII (Michael W. Deem and Ramdas Pophale) SiO2 
 PCOD8063557
Probable space group: P 2/M
;
_chemical_formula_sum "Si O2"
_cell_formula_units_Z 32
_cell_length_a 5.370548
_cell_length_b 9.341751
_cell_length_c 29.250644
_cell_angle_alpha 90.000000
_cell_angle_beta 102.249843
_cell_angle_gamma 90.000000
_cell_volume 1434.101410
_symmetry_space_group_name_H-M "P 2/M"
_symmetry_group_IT_number 10
_symmetry_cell_setting 'monoclinic'
loop_
_space_group_symop_operation_xyz
x,y,z
-x,y,-z
-x,-y,-z
x,-y,z
loop_
_atom_site_type_symbol
_atom_site_label
_atom_site_fract_x
_atom_site_fract_y
_atom_site_fract_z
Si Si1 0.831861 0.656044 0.147064
Si Si2 0.595339 0.830849 0.369393
Si Si3 0.968084 0.829939 0.683465
Si Si4 0.485787 0.156181 0.196376
Si Si5 0.872125 0.843168 0.898782
Si Si6 0.279288 0.170761 0.525320
Si Si7 0.284593 0.666517 0.027838
Si Si8 0.188654 0.342843 0.242236
O O1 0.711671 0.500000 0.130247
O O2 0.659196 0.751372 0.171363
O O3 0.889070 0.735641 0.100871
O O4 0.080884 0.629673 0.187505
O O5 0.312270 0.780040 0.344606
O O6 0.659890 0.768698 0.421895
O O7 0.813876 0.777555 0.342940
O O8 0.603229 0.000000 0.371960
O O9 0.008452 0.742470 0.732377
O O10 0.979054 0.000000 0.692371
O O11 0.236074 0.130000 0.156030
O O12 0.430871 0.237878 0.242420
O O13 0.603906 0.000000 0.213695
O O14 0.673672 0.762860 0.925032
O O15 0.952190 0.000000 0.921798
O O16 0.500000 0.228315 0.500000
O O17 0.000000 0.228211 0.500000
O O18 0.279019 0.000000 0.524813
O O19 0.307828 0.500000 0.041378
O O20 0.500000 0.711902 0.000000
O O21 0.000000 0.705098 0.000000
O O22 0.263480 0.500000 0.265571
#
# Coordination Sequence:
#
# PCOD8063557 Si02
#       8
#     4   4   4   4   4   4   4   4
#     4  10  21  37  59  84 113 149 190 240 291 342
#     4   9  18  31  47  73 108 145 187 228 283 348
#     4  10  20  34  52  75 108 150 186 230 283 341
#     4  10  21  37  59  86 115 147 188 237 291 347
#     4  10  22  39  59  87 118 151 192 241 293 347
#     4   9  15  24  42  68 101 140 177 223 281 341
#     4  10  23  42  63  90 122 160 201 241 291 353
#     4  10  22  38  54  79 109 146 194 240 285 338
#
# _framework density 22.313625999999999
#
# number of rings (size 3 to 8) (size 9 to 14) (size 15 to 20)
#    0.000    2.250    0.000    2.250    3.500    6.500 
#    0.000    0.000    0.000    0.000    0.000    0.000 
#    0.000   10.000    0.000    0.000    0.000    0.000 
#
# Total GULP energy -396514.612935 kJ/mol
# GULP energy per Si atom -12391.081654 kJ/mol
# Density = 2.226284 g / cm^3
# Si number density = 22.313626 Si / 1000 Ang^3
#
#
#
# Elastic Constant Matrix: (Units=GPa)
#
#
# Indices 1 2 3 4 5 6 
#
# 1 117.9649 28.2419 34.0022 0.0000 -37.4840 0.0000
# 2 28.2419 143.3848 28.6192 0.0000 -39.5200 0.0000
# 3 34.0022 28.6192 98.1372 0.0000 -33.9891 0.0000
# 4 0.0000 0.0000 0.0000 33.3825 0.0000 -7.9811
# 5 -37.4840 -39.5200 -33.9891 0.0000 51.9580 0.0000
# 6 0.0000 0.0000 0.0000 -7.9811 0.0000 19.4298
#
#
#
# Elastic Compliance Matrix: (Units=1/GPa)
#
#
# Indices 1 2 3 4 5 6 
#
# 1 0.011144 0.000060 -0.001394 0.000000 0.007173 0.000000
# 2 0.000060 0.008832 -0.000329 0.000000 0.006546 0.000000
# 3 -0.001394 -0.000329 0.013361 0.000000 0.007484 0.000000
# 4 0.000000 0.000000 0.000000 0.033218 0.000000 0.013645
# 5 0.007173 0.006546 0.007484 0.000000 0.034296 0.000000
# 6 0.000000 0.000000 0.000000 0.013645 0.000000 0.057072
#
#
# Mechanical properties :
#
#
# Convention : Reuss Voigt Hill
#
# Bulk Modulus (GPa) = 33.32148 60.13483 46.72815
# Shear Modulus (GPa) = 29.19651 38.86232 34.02942
#
# Velocity S-wave (km/s) = 3.62119 4.17782 3.90943
# Velocity P-wave (km/s) = 5.69646 7.09088 6.43157
#
# Compressibility (1/GPa) = 0.03001067
#
# Stress axis : x y z
#
# Youngs Moduli (GPa) = 89.73510 113.22031 74.84509
#
# Poissons Ratio (x) = -0.00685 0.10435
# Poissons Ratio (y) = -0.00543 0.02466
# Poissons Ratio (z) = 0.12511 0.03730
#
# Static dielectric constant tensor:
#      x y z
#    x 4.099580 0.000000 0.079480 
#    y 0.000000 4.321720 0.000000 
#    z 0.079480 0.000000 4.372570 
# 
# 
# High freq. dielectric constant tensor:
#      x y z
#    x 1.878350 0.000000 -0.014420 
#    y 0.000000 1.851820 0.000000 
#    z -0.014420 0.000000 1.871910 
# 
# From -- ./inp_files/94339.got.cif
#   From: 2010.06.25/outbox.cif.g09.slc.cpg/sg10_48_cif.got.tgz:94339.got - 2010.06.27 22:07:45.
