data_PCOD8063657
_publ_section_title
;
Structure prediction by ZEFSAII (Michael W. Deem and Ramdas Pophale) SiO2 
 PCOD8063657
Probable space group: P 2/M
;
_chemical_formula_sum "Si O2"
_cell_formula_units_Z 32
_cell_length_a 10.903210
_cell_length_b 17.454838
_cell_length_c 17.443670
_cell_angle_alpha 90.000000
_cell_angle_beta 30.735869
_cell_angle_gamma 90.000000
_cell_volume 1696.672002
_symmetry_space_group_name_H-M "P 2/M"
_symmetry_group_IT_number 10
_symmetry_cell_setting 'monoclinic'
loop_
_space_group_symop_operation_xyz
x,y,z
-x,y,-z
-x,-y,-z
x,-y,z
loop_
_atom_site_type_symbol
_atom_site_label
_atom_site_fract_x
_atom_site_fract_y
_atom_site_fract_z
Si Si1 0.137559 0.206210 0.300272
Si Si2 0.689075 0.690339 0.339529
Si Si3 0.927303 0.803593 0.834994
Si Si4 0.053992 0.412509 0.059871
Si Si5 0.441282 0.289541 0.871414
Si Si6 0.067216 0.915379 0.045541
Si Si7 0.391284 0.086186 0.273139
Si Si8 0.401550 0.779416 0.370314
O O1 0.163984 0.172070 0.199977
O O2 0.308440 0.282010 0.216204
O O3 0.212549 0.137536 0.317361
O O4 0.875580 0.237128 0.462110
O O5 0.500000 0.653150 0.500000
O O6 0.565067 0.754319 0.353004
O O7 0.884918 0.736391 0.283098
O O8 0.817849 0.621298 0.226729
O O9 0.723827 0.775932 0.003292
O O10 0.045736 0.873259 0.819414
O O11 0.086550 0.500000 0.067567
O O12 0.302652 0.370529 0.950604
O O13 0.000000 0.403372 0.000000
O O14 0.501881 0.271728 0.751315
O O15 0.352399 0.920089 0.905104
O O16 0.951176 0.000000 0.106313
O O17 0.000000 0.874527 0.000000
O O18 0.424928 0.129912 0.337056
O O19 0.286469 0.000000 0.341999
#
# Coordination Sequence:
#
# PCOD8063657 Si02
#       8
#     4   4   4   4   4   4   4   4
#     4  11  22  35  54  85 119 152 191 240 291 341
#     4  11  22  38  60  89 116 151 187 239 294 343
#     4  11  21  34  58  83 113 144 194 249 286 335
#     4  10  21  38  65  95 119 147 187 238 284 339
#     4  10  20  35  60  83 114 149 189 232 280 337
#     4  10  20  34  53  78 108 147 195 248 300 343
#     4  10  21  36  56  79 112 155 199 245 294 346
#     4  11  20  37  57  84 114 152 199 239 286 338
#
# _framework density 18.860451999999999
#
# number of rings (size 3 to 8) (size 9 to 14) (size 15 to 20)
#    0.000    1.500    5.000    2.625    0.000    1.750 
#    0.000    1.250    0.000    9.000    0.000    0.000 
#    0.000    0.000    0.000    0.000    0.000    0.000 
#
# Total GULP energy -396536.473690 kJ/mol
# GULP energy per Si atom -12391.764803 kJ/mol
# Density = 1.881752 g / cm^3
# Si number density = 18.860452 Si / 1000 Ang^3
#
#
#
# Elastic Constant Matrix: (Units=GPa)
#
#
# Indices 1 2 3 4 5 6 
#
# 1 77.6090 40.6070 27.4898 0.0000 9.5677 0.0000
# 2 40.6070 123.0056 43.5334 0.0000 1.1503 0.0000
# 3 27.4898 43.5334 107.8244 0.0000 4.7516 0.0000
# 4 0.0000 0.0000 0.0000 15.6223 0.0000 -3.2255
# 5 9.5677 1.1503 4.7516 0.0000 31.8027 0.0000
# 6 0.0000 0.0000 0.0000 -3.2255 0.0000 21.5584
#
#
#
# Elastic Compliance Matrix: (Units=1/GPa)
#
#
# Indices 1 2 3 4 5 6 
#
# 1 0.016662 -0.004696 -0.002153 0.000000 -0.004521 0.000000
# 2 -0.004696 0.010810 -0.003234 0.000000 0.001505 0.000000
# 3 -0.002153 -0.003234 0.011169 0.000000 -0.000904 0.000000
# 4 0.000000 0.000000 0.000000 0.066052 0.000000 0.009882
# 5 -0.004521 0.001505 -0.000904 0.000000 0.032885 0.000000
# 6 0.000000 0.000000 0.000000 0.009882 0.000000 0.047864
#
#
# Mechanical properties :
#
#
# Convention : Reuss Voigt Hill
#
# Bulk Modulus (GPa) = 54.12469 59.07770 56.60120
# Shear Modulus (GPa) = 23.61098 26.91727 25.26412
#
# Velocity S-wave (km/s) = 3.54203 3.78190 3.66393
# Velocity P-wave (km/s) = 6.74446 7.10366 6.92639
#
# Compressibility (1/GPa) = 0.01847586
#
# Stress axis : x y z
#
# Youngs Moduli (GPa) = 60.01579 92.50294 89.53720
#
# Poissons Ratio (x) = 0.43444 0.19274
# Poissons Ratio (y) = 0.28186 0.28953
# Poissons Ratio (z) = 0.12919 0.29912
#
# Static dielectric constant tensor:
#      x y z
#    x 3.473550 0.000000 -0.072260 
#    y 0.000000 3.344010 0.000000 
#    z -0.072260 0.000000 3.571580 
# 
# 
# High freq. dielectric constant tensor:
#      x y z
#    x 1.733670 0.000000 -0.003690 
#    y 0.000000 1.700520 0.000000 
#    z -0.003690 0.000000 1.739940 
# 
# From -- ./inp_files/77126.got.cif
#   From: 2010.06.25/outbox.cif.g09.slc.cpg/sg10_39_cif.got.tgz:77126.got - 2010.06.27 22:07:45.
