data_PCOD8063157
_publ_section_title
;
Structure prediction by ZEFSAII (Michael W. Deem and Ramdas Pophale) SiO2 
 PCOD8063157
Probable space group: P 2/M
;
_chemical_formula_sum "Si O2"
_cell_formula_units_Z 32
_cell_length_a 15.448650
_cell_length_b 9.080703
_cell_length_c 21.286204
_cell_angle_alpha 90.000000
_cell_angle_beta 34.732057
_cell_angle_gamma 90.000000
_cell_volume 1701.314086
_symmetry_space_group_name_H-M "P 2/M"
_symmetry_group_IT_number 10
_symmetry_cell_setting 'monoclinic'
loop_
_space_group_symop_operation_xyz
x,y,z
-x,y,-z
-x,-y,-z
x,-y,z
loop_
_atom_site_type_symbol
_atom_site_label
_atom_site_fract_x
_atom_site_fract_y
_atom_site_fract_z
Si Si1 0.099207 0.833279 0.590983
Si Si2 0.509563 0.665490 0.926770
Si Si3 0.406734 0.325585 0.858721
Si Si4 0.842348 0.666630 0.672786
Si Si5 0.829288 0.325819 0.102895
Si Si6 0.704521 0.832970 0.645797
Si Si7 0.298433 0.326443 0.566083
Si Si8 0.368620 0.326777 0.664041
O O1 0.235599 0.828207 0.460241
O O2 0.157923 0.758600 0.619502
O O3 0.955636 0.744012 0.652615
O O4 0.048414 0.000000 0.635230
O O5 0.450794 0.500000 0.973167
O O6 0.404132 0.732016 0.933140
O O7 0.680459 0.670296 0.802069
O O8 0.500000 0.750435 0.000000
O O9 0.439568 0.500000 0.838174
O O10 0.251049 0.285981 0.915597
O O11 0.544581 0.249925 0.739839
O O12 0.895799 0.500000 0.627506
O O13 0.830574 0.753277 0.614062
O O14 0.839198 0.500000 0.105997
O O15 0.730431 0.257836 0.219604
O O16 0.000000 0.258809 0.000000
O O17 0.683568 0.000000 0.682505
O O18 0.280493 0.500000 0.565282
O O19 0.289316 0.288586 0.645347
O O20 0.457742 0.268318 0.441311
O O21 0.377648 0.500000 0.667978
#
# Coordination Sequence:
#
# PCOD8063157 Si02
#       8
#     4   4   4   4   4   4   4   4
#     4  11  22  33  46  71 105 134 163 201 249 299
#     4   8  15  30  49  72 100 126 160 204 244 287
#     4   9  17  30  51  76  98 129 170 208 249 298
#     4  10  20  33  51  75 100 130 166 203 247 296
#     4   9  16  27  45  75 106 128 160 212 265 303
#     4  10  20  33  50  71  99 134 166 203 248 292
#     4   9  17  31  51  72  95 129 169 207 251 302
#     4   8  15  29  48  70  98 127 162 212 258 298
#
# _framework density 18.808992
#
# number of rings (size 3 to 8) (size 9 to 14) (size 15 to 20)
#    0.000    2.750    0.000    3.750    0.000    4.500 
#    2.250    1.250    0.000   10.500    0.000    0.000 
#    0.000    0.000    0.000    0.000    0.000    0.000 
#
# Total GULP energy -396619.208517 kJ/mol
# GULP energy per Si atom -12394.350266 kJ/mol
# Density = 1.876618 g / cm^3
# Si number density = 18.808992 Si / 1000 Ang^3
#
#
#
# Elastic Constant Matrix: (Units=GPa)
#
#
# Indices 1 2 3 4 5 6 
#
# 1 157.4950 41.8952 46.6333 0.0000 -5.5375 0.0000
# 2 41.8952 67.4728 7.6367 0.0000 -5.0091 0.0000
# 3 46.6333 7.6367 61.3114 0.0000 9.7147 0.0000
# 4 0.0000 0.0000 0.0000 10.9100 0.0000 2.6592
# 5 -5.5375 -5.0091 9.7147 0.0000 31.2098 0.0000
# 6 0.0000 0.0000 0.0000 2.6592 0.0000 8.0596
#
#
#
# Elastic Compliance Matrix: (Units=1/GPa)
#
#
# Indices 1 2 3 4 5 6 
#
# 1 0.010069 -0.005153 -0.007541 0.000000 0.003307 0.000000
# 2 -0.005153 0.017971 0.001440 0.000000 0.001522 0.000000
# 3 -0.007541 0.001440 0.023185 0.000000 -0.008324 0.000000
# 4 0.000000 0.000000 0.000000 0.099676 0.000000 -0.032888
# 5 0.003307 0.001522 -0.008324 0.000000 0.035463 0.000000
# 6 0.000000 0.000000 0.000000 -0.032888 0.000000 0.134927
#
#
# Mechanical properties :
#
#
# Convention : Reuss Voigt Hill
#
# Bulk Modulus (GPa) = 34.82238 53.17884 44.00061
# Shear Modulus (GPa) = 14.14945 22.71014 18.42979
#
# Velocity S-wave (km/s) = 2.74573 3.47855 3.13363
# Velocity P-wave (km/s) = 5.34845 6.66845 6.04459
#
# Compressibility (1/GPa) = 0.02871717
#
# Stress axis : x y z
#
# Youngs Moduli (GPa) = 99.31249 55.64673 43.13109
#
# Poissons Ratio (x) = 0.28676 0.32524
# Poissons Ratio (y) = 0.51178 -0.06211
# Poissons Ratio (z) = 0.74889 -0.08014
#
# Static dielectric constant tensor:
#      x y z
#    x 3.672410 0.000000 0.110510 
#    y 0.000000 3.174780 0.000000 
#    z 0.110510 0.000000 3.464130 
# 
# 
# High freq. dielectric constant tensor:
#      x y z
#    x 1.746770 0.000000 0.004910 
#    y 0.000000 1.688300 0.000000 
#    z 0.004910 0.000000 1.712640 
# 
# From -- ./inp_files/84705.got.cif
#   From: 2010.06.25/outbox.cif.g09.slc.cpg/sg10_43_cif.got.tgz:84705.got - 2010.06.27 22:07:45.
