data_PCOD8063335
_publ_section_title
;
Structure prediction by ZEFSAII (Michael W. Deem and Ramdas Pophale) SiO2 
 PCOD8063335
Probable space group: P 2/M
;
_chemical_formula_sum "Si O2"
_cell_formula_units_Z 32
_cell_length_a 9.639240
_cell_length_b 8.740319
_cell_length_c 23.372515
_cell_angle_alpha 90.000000
_cell_angle_beta 57.367585
_cell_angle_gamma 90.000000
_cell_volume 1658.302151
_symmetry_space_group_name_H-M "P 2/M"
_symmetry_group_IT_number 10
_symmetry_cell_setting 'monoclinic'
loop_
_space_group_symop_operation_xyz
x,y,z
-x,y,-z
-x,-y,-z
x,-y,z
loop_
_atom_site_type_symbol
_atom_site_label
_atom_site_fract_x
_atom_site_fract_y
_atom_site_fract_z
Si Si1 0.747968 0.818074 0.915255
Si Si2 0.931316 0.319386 0.320827
Si Si3 0.097977 0.182152 0.794564
Si Si4 0.414824 0.818258 0.934518
Si Si5 0.274540 0.680665 0.298699
Si Si6 0.825244 0.319020 0.555926
Si Si7 0.616220 0.818662 0.185023
Si Si8 0.322236 0.318604 0.527668
O O1 0.601409 0.759649 0.906027
O O2 0.923330 0.751110 0.855937
O O3 0.755973 0.000000 0.912714
O O4 0.709492 0.759773 0.988407
O O5 0.910916 0.500000 0.318758
O O6 0.870459 0.241047 0.276272
O O7 0.816361 0.255752 0.397914
O O8 0.120523 0.276020 0.292351
O O9 0.242800 0.245753 0.803884
O O10 0.097312 0.000000 0.794444
O O11 0.351404 0.758827 0.887030
O O12 0.419001 0.000000 0.934650
O O13 0.304893 0.500000 0.292604
O O14 0.239054 0.746801 0.369916
O O15 0.436378 0.763788 0.241788
O O16 0.844293 0.500000 0.558820
O O17 0.705367 0.270760 0.531632
O O18 0.000000 0.246943 0.500000
O O19 0.618764 0.000000 0.186213
O O20 0.500000 0.246254 0.500000
O O21 0.322669 0.500000 0.533922
#
# Coordination Sequence:
#
# PCOD8063335 Si02
#       8
#     4   4   4   4   4   4   4   4
#     4   8  14  27  49  74  97 126 165 206 245 288
#     4  10  20  34  52  76 102 130 168 209 249 298
#     4  10  21  34  49  73 106 139 167 199 247 300
#     4   8  14  27  49  74  97 125 166 208 243 285
#     4  10  20  33  53  77 100 130 168 210 252 295
#     4   9  15  28  48  71  97 122 158 209 253 290
#     4  10  21  34  49  74 106 137 167 202 246 297
#     4   9  17  28  46  73  99 124 159 204 252 297
#
# _framework density 19.296845000000001
#
# number of rings (size 3 to 8) (size 9 to 14) (size 15 to 20)
#    0.000    2.750    1.250    1.500    1.750    2.500 
#    0.000    2.500    0.000    2.250    0.000    5.250 
#    0.000    0.000    0.000    0.000    0.000    0.000 
#
# Total GULP energy -396613.528311 kJ/mol
# GULP energy per Si atom -12394.172760 kJ/mol
# Density = 1.925293 g / cm^3
# Si number density = 19.296845 Si / 1000 Ang^3
#
#
#
# Elastic Constant Matrix: (Units=GPa)
#
#
# Indices 1 2 3 4 5 6 
#
# 1 128.5527 12.3402 51.0161 0.0000 15.4741 0.0000
# 2 12.3402 6.4553 10.2973 0.0000 3.0146 0.0000
# 3 51.0161 10.2973 110.1600 0.0000 18.9740 0.0000
# 4 0.0000 0.0000 0.0000 23.7040 0.0000 0.2031
# 5 15.4741 3.0146 18.9740 0.0000 40.6584 0.0000
# 6 0.0000 0.0000 0.0000 0.2031 0.0000 18.8282
#
#
#
# Elastic Compliance Matrix: (Units=1/GPa)
#
#
# Indices 1 2 3 4 5 6 
#
# 1 0.010658 -0.014369 -0.003347 0.000000 -0.001429 0.000000
# 2 -0.014369 0.202805 -0.011586 0.000000 -0.004162 0.000000
# 3 -0.003347 -0.011586 0.012335 0.000000 -0.003623 0.000000
# 4 0.000000 0.000000 0.000000 0.042191 0.000000 -0.000455
# 5 -0.001429 -0.004162 -0.003623 0.000000 0.027139 0.000000
# 6 0.000000 0.000000 0.000000 -0.000455 0.000000 0.053117
#
#
# Mechanical properties :
#
#
# Convention : Reuss Voigt Hill
#
# Bulk Modulus (GPa) = 5.98105 43.60835 24.79470
# Shear Modulus (GPa) = 10.80893 28.07241 19.44067
#
# Velocity S-wave (km/s) = 2.36930 3.81828 3.17748
# Velocity P-wave (km/s) = 3.25438 6.48743 5.13214
#
# Compressibility (1/GPa) = 0.16719476
#
# Stress axis : x y z
#
# Youngs Moduli (GPa) = 93.82256 4.93083 81.07198
#
# Poissons Ratio (x) = 0.07085 0.27132
# Poissons Ratio (y) = 1.34814 0.93932
# Poissons Ratio (z) = 0.31399 0.05713
#
# Static dielectric constant tensor:
#      x y z
#    x 3.834390 0.000000 0.082180 
#    y 0.000000 2.867550 0.000000 
#    z 0.082180 0.000000 3.844480 
# 
# 
# High freq. dielectric constant tensor:
#      x y z
#    x 1.761150 0.000000 0.005350 
#    y 0.000000 1.682630 0.000000 
#    z 0.005350 0.000000 1.766430 
# 
# From -- ./inp_files/82484.got.cif
#   From: 2010.06.25/outbox.cif.g09.slc.cpg/sg10_42_cif.got.tgz:82484.got - 2010.06.27 22:07:45.
