data_PCOD8063871
_publ_section_title
;
Structure prediction by ZEFSAII (Michael W. Deem and Ramdas Pophale) SiO2 
 PCOD8063871
Probable space group: P 2/M
;
_chemical_formula_sum "Si O2"
_cell_formula_units_Z 28
_cell_length_a 15.534028
_cell_length_b 21.255307
_cell_length_c 9.022209
_cell_angle_alpha 90.000000
_cell_angle_beta 150.058728
_cell_angle_gamma 90.000000
_cell_volume 1486.833770
_symmetry_space_group_name_H-M "P 2/M"
_symmetry_group_IT_number 10
_symmetry_cell_setting 'monoclinic'
loop_
_space_group_symop_operation_xyz
x,y,z
-x,y,-z
-x,-y,-z
x,-y,z
loop_
_atom_site_type_symbol
_atom_site_label
_atom_site_fract_x
_atom_site_fract_y
_atom_site_fract_z
Si Si1 0.580937 0.500000 0.887761
Si Si2 0.488817 0.368030 0.316311
Si Si3 0.469749 0.926670 0.287261
Si Si4 0.311672 0.069454 0.645969
Si Si5 0.183092 0.848685 0.696332
Si Si6 0.674637 0.715182 0.172773
Si Si7 0.839797 0.367308 0.665419
Si Si8 0.774277 0.500000 0.464841
O O1 0.589385 0.438473 0.797139
O O2 0.408496 0.500000 0.726928
O O3 0.742710 0.500000 0.241244
O O4 0.500000 0.341611 0.500000
O O5 0.677732 0.367855 0.530868
O O6 0.364115 0.325657 0.030438
O O7 0.500000 0.907547 0.500000
O O8 0.649996 0.912824 0.468535
O O9 0.417754 0.000000 0.190279
O O10 0.316538 0.883508 0.001364
O O11 0.182458 0.117881 0.533194
O O12 0.229127 0.000000 0.536215
O O13 0.500000 0.071168 0.000000
O O14 0.232764 0.776926 0.747170
O O15 0.000000 0.853880 0.500000
O O16 0.805575 0.677745 0.474469
O O17 0.500000 0.732465 0.000000
O O18 0.880958 0.437712 0.668044
O O19 0.000000 0.341757 0.000000
#
# Coordination Sequence:
#
# PCOD8063871 Si02
#       8
#     2   4   4   4   4   4   4   2
#     4   9  15  30  55  82 105 134 179 221 264 334
#     4  10  20  34  56  80 105 140 179 225 274 331
#     4   9  18  35  60  87 113 143 181 224 268 322
#     4   8  15  31  55  80 107 141 177 212 257 319
#     4  11  22  35  54  80 110 146 184 229 274 319
#     4  10  21  38  55  73 104 149 194 224 268 333
#     4  10  20  35  57  81 106 139 179 228 281 334
#     4   9  15  30  57  82 105 136 177 221 274 338
#
# _framework density 18.831962999999998
#
# number of rings (size 3 to 8) (size 9 to 14) (size 15 to 20)
#    0.000    2.429    1.429    3.000    0.000    2.857 
#    0.000    3.571    0.000    3.429    0.000    0.000 
#    0.000    0.000    0.000    0.000    0.000    0.000 
#
# Total GULP energy -347120.525376 kJ/mol
# GULP energy per Si atom -12397.161621 kJ/mol
# Density = 1.878910 g / cm^3
# Si number density = 18.831963 Si / 1000 Ang^3
#
#
#
# Elastic Constant Matrix: (Units=GPa)
#
#
# Indices 1 2 3 4 5 6 
#
# 1 128.0412 69.9710 54.5155 0.0000 -18.7520 0.0000
# 2 69.9710 131.3398 58.0208 0.0000 1.2695 0.0000
# 3 54.5155 58.0208 98.6740 0.0000 -18.4300 0.0000
# 4 0.0000 0.0000 0.0000 10.6847 0.0000 -0.3710
# 5 -18.7520 1.2695 -18.4300 0.0000 32.5326 0.0000
# 6 0.0000 0.0000 0.0000 -0.3710 0.0000 15.2602
#
#
#
# Elastic Compliance Matrix: (Units=1/GPa)
#
#
# Indices 1 2 3 4 5 6 
#
# 1 0.013032 -0.005864 -0.002579 0.000000 0.006280 0.000000
# 2 -0.005864 0.013487 -0.006061 0.000000 -0.007340 0.000000
# 3 -0.002579 -0.006061 0.016652 0.000000 0.008183 0.000000
# 4 0.000000 0.000000 0.000000 0.093671 0.000000 0.002277
# 5 0.006280 -0.007340 0.008183 0.000000 0.039281 0.000000
# 6 0.000000 0.000000 0.000000 0.002277 0.000000 0.065585
#
#
# Mechanical properties :
#
#
# Convention : Reuss Voigt Hill
#
# Bulk Modulus (GPa) = 70.61353 80.34108 75.47730
# Shear Modulus (GPa) = 18.15295 23.39868 20.77581
#
# Velocity S-wave (km/s) = 3.10811 3.52873 3.32508
# Velocity P-wave (km/s) = 7.10342 7.70437 7.40999
#
# Compressibility (1/GPa) = 0.01416159
#
# Stress axis : x y z
#
# Youngs Moduli (GPa) = 76.73134 74.14710 60.05392
#
# Poissons Ratio (x) = 0.43483 0.15487
# Poissons Ratio (y) = 0.44999 0.36400
# Poissons Ratio (z) = 0.19788 0.44942
#
# Static dielectric constant tensor:
#      x y z
#    x 3.677220 0.000000 -0.258740 
#    y 0.000000 3.524450 0.000000 
#    z -0.258740 0.000000 3.197380 
# 
# 
# High freq. dielectric constant tensor:
#      x y z
#    x 1.730870 0.000000 -0.018600 
#    y 0.000000 1.733800 0.000000 
#    z -0.018600 0.000000 1.703350 
# 
# From -- ./inp_files/30526.got.cif
#   From: 2010.06.25/outbox.cif.g09.slc.cpg/sg10_16_cif.got.tgz:30526.got - 2010.06.27 22:07:45.
