data_PCOD8063596
_publ_section_title
;
Structure prediction by ZEFSAII (Michael W. Deem and Ramdas Pophale) SiO2 
 PCOD8063596
Probable space group: P 2/M
;
_chemical_formula_sum "Si O2"
_cell_formula_units_Z 32
_cell_length_a 21.386274
_cell_length_b 9.048204
_cell_length_c 23.317053
_cell_angle_alpha 90.000000
_cell_angle_beta 156.115512
_cell_angle_gamma 90.000000
_cell_volume 1826.890704
_symmetry_space_group_name_H-M "P 2/M"
_symmetry_group_IT_number 10
_symmetry_cell_setting 'monoclinic'
loop_
_space_group_symop_operation_xyz
x,y,z
-x,y,-z
-x,-y,-z
x,-y,z
loop_
_atom_site_type_symbol
_atom_site_label
_atom_site_fract_x
_atom_site_fract_y
_atom_site_fract_z
Si Si1 0.848832 0.161037 0.911280
Si Si2 0.326197 0.670437 0.955273
Si Si3 0.952489 0.826174 0.222472
Si Si4 0.668672 0.177311 0.656442
Si Si5 0.779518 0.170978 0.242805
Si Si6 0.044045 0.823299 0.174501
Si Si7 0.887511 0.168642 0.528270
Si Si8 0.322496 0.669823 0.729583
O O1 0.720552 0.240861 0.763076
O O2 0.782282 0.000000 0.872186
O O3 0.000000 0.140011 0.000000
O O4 0.904095 0.241752 0.016625
O O5 0.281669 0.500000 0.910265
O O6 0.494971 0.691346 0.123384
O O7 0.208273 0.745417 0.900323
O O8 0.323670 0.744823 0.890593
O O9 0.020588 0.767353 0.219533
O O10 0.077394 0.789175 0.376331
O O11 0.917000 0.000000 0.191882
O O12 0.500000 0.240955 0.500000
O O13 0.789397 0.231647 0.708959
O O14 0.667797 0.000000 0.658367
O O15 0.746739 0.232877 0.277755
O O16 0.959500 0.193808 0.380952
O O17 0.733145 0.000000 0.201374
O O18 0.037935 0.000000 0.166066
O O19 0.753077 0.275528 0.393143
O O20 0.830877 0.000000 0.475870
O O21 0.279413 0.500000 0.704753
#
# Coordination Sequence:
#
# PCOD8063596 Si02
#       8
#     4   4   4   4   4   4   4   4
#     4   7  10  17  30  50  77 109 142 174 211 256
#     4  10  21  35  49  68  94 121 154 196 234 274
#     4   9  18  33  50  67  89 122 162 198 234 276
#     4   8  12  18  31  55  88 120 146 178 223 269
#     4  10  20  34  53  75  96 120 151 187 232 285
#     4   8  13  23  39  57  82 117 153 186 221 269
#     4   9  19  33  47  66  93 122 153 190 231 278
#     4  11  22  33  48  71  95 120 152 191 236 282
#
# _framework density 17.516099000000001
#
# number of rings (size 3 to 8) (size 9 to 14) (size 15 to 20)
#    0.000    3.000    0.000    4.125    0.000    7.500 
#    0.000    1.250    0.000    4.500    0.000    0.000 
#    0.000    5.000    0.000    0.000    0.000    3.125 
#
# Total GULP energy -396573.653140 kJ/mol
# GULP energy per Si atom -12392.926661 kJ/mol
# Density = 1.747623 g / cm^3
# Si number density = 17.516099 Si / 1000 Ang^3
#
#
#
# Elastic Constant Matrix: (Units=GPa)
#
#
# Indices 1 2 3 4 5 6 
#
# 1 113.6226 28.8378 65.0316 0.0000 -21.4452 0.0000
# 2 28.8378 58.3839 42.9054 0.0000 -3.1939 0.0000
# 3 65.0316 42.9054 142.4230 0.0000 -14.1415 0.0000
# 4 0.0000 0.0000 0.0000 21.6458 0.0000 2.2715
# 5 -21.4452 -3.1939 -14.1415 0.0000 17.5989 0.0000
# 6 0.0000 0.0000 0.0000 2.2715 0.0000 4.9316
#
#
#
# Elastic Compliance Matrix: (Units=1/GPa)
#
#
# Indices 1 2 3 4 5 6 
#
# 1 0.014760 -0.003328 -0.004359 0.000000 0.013879 0.000000
# 2 -0.003328 0.022782 -0.005798 0.000000 -0.004580 0.000000
# 3 -0.004359 -0.005798 0.011005 0.000000 0.002479 0.000000
# 4 0.000000 0.000000 0.000000 0.048545 0.000000 -0.022359
# 5 0.013879 -0.004580 0.002479 0.000000 0.074895 0.000000
# 6 0.000000 0.000000 0.000000 -0.022359 0.000000 0.213072
#
#
# Mechanical properties :
#
#
# Convention : Reuss Voigt Hill
#
# Bulk Modulus (GPa) = 46.34682 65.33103 55.83892
# Shear Modulus (GPa) = 11.92688 20.67893 16.30290
#
# Velocity S-wave (km/s) = 2.61226 3.43967 3.05411
# Velocity P-wave (km/s) = 5.96787 7.29066 6.66218
#
# Compressibility (1/GPa) = 0.02157645
#
# Stress axis : x y z
#
# Youngs Moduli (GPa) = 67.75005 43.89346 90.87106
#
# Poissons Ratio (x) = 0.14607 0.39610
# Poissons Ratio (y) = 0.22547 0.52691
# Poissons Ratio (z) = 0.29532 0.25452
#
# Static dielectric constant tensor:
#      x y z
#    x 3.226270 0.000000 -0.233730 
#    y 0.000000 2.927840 0.000000 
#    z -0.233730 0.000000 3.507770 
# 
# 
# High freq. dielectric constant tensor:
#      x y z
#    x 1.657900 0.000000 -0.015240 
#    y 0.000000 1.637280 0.000000 
#    z -0.015240 0.000000 1.685340 
# 
# From -- ./inp_files/90664.got.cif
#   From: 2010.06.25/outbox.cif.g09.slc.cpg/sg10_46_cif.got.tgz:90664.got - 2010.06.27 22:07:45.
