data_PCOD8063659
_publ_section_title
;
Structure prediction by ZEFSAII (Michael W. Deem and Ramdas Pophale) SiO2 
 PCOD8063659
Probable space group: P 2/M
;
_chemical_formula_sum "Si O2"
_cell_formula_units_Z 32
_cell_length_a 16.122547
_cell_length_b 9.118066
_cell_length_c 25.023003
_cell_angle_alpha 90.000000
_cell_angle_beta 27.162583
_cell_angle_gamma 90.000000
_cell_volume 1679.317301
_symmetry_space_group_name_H-M "P 2/M"
_symmetry_group_IT_number 10
_symmetry_cell_setting 'monoclinic'
loop_
_space_group_symop_operation_xyz
x,y,z
-x,y,-z
-x,-y,-z
x,-y,z
loop_
_atom_site_type_symbol
_atom_site_label
_atom_site_fract_x
_atom_site_fract_y
_atom_site_fract_z
Si Si1 0.980766 0.673009 0.824760
Si Si2 0.590510 0.167680 0.893575
Si Si3 0.603333 0.326577 0.090030
Si Si4 0.298325 0.839021 0.694155
Si Si5 0.812220 0.838568 0.128495
Si Si6 0.029729 0.832014 0.277625
Si Si7 0.339716 0.173414 0.454637
Si Si8 0.509332 0.328762 0.728557
O O1 0.999448 0.500000 0.812113
O O2 0.182877 0.734566 0.721526
O O3 0.924434 0.731878 0.799136
O O4 0.816183 0.720023 0.959603
O O5 0.523724 0.263913 0.883012
O O6 0.807865 0.183317 0.772944
O O7 0.530924 0.000000 0.917653
O O8 0.500000 0.225591 0.000000
O O9 0.591372 0.500000 0.094642
O O10 0.515379 0.270618 0.196416
O O11 0.170222 0.856595 0.818561
O O12 0.494945 0.775184 0.600721
O O13 0.325231 0.000000 0.651454
O O14 0.679516 0.706488 0.191326
O O15 0.758843 0.000000 0.134722
O O16 0.000000 0.779779 0.000000
O O17 0.846827 0.777899 0.411273
O O18 0.009849 0.000000 0.269624
O O19 0.342741 0.244955 0.393264
O O20 0.358364 0.000000 0.435170
O O21 0.553724 0.500000 0.701539
#
# Coordination Sequence:
#
# PCOD8063659 Si02
#       8
#     4   4   4   4   4   4   4   4
#     4  11  22  34  52  81 113 145 183 222 269 325
#     4  10  20  36  60  88 109 133 177 227 276 326
#     4  10  22  37  54  81 116 148 176 215 274 333
#     4   9  18  32  50  74 105 143 184 223 265 313
#     4   9  17  30  49  74 104 142 187 228 271 322
#     4  10  21  39  60  81 108 140 178 228 279 327
#     4   9  20  39  59  78 106 147 188 223 269 325
#     4  10  20  34  53  78 109 145 184 225 268 317
#
# _framework density 19.055361000000001
#
# number of rings (size 3 to 8) (size 9 to 14) (size 15 to 20)
#    0.000    2.250    1.250    2.250    0.000    5.500 
#    0.000    3.125    0.000    3.750    0.000    0.000 
#    0.000    0.000    0.000    0.000    0.000    0.000 
#
# Total GULP energy -396518.644418 kJ/mol
# GULP energy per Si atom -12391.207638 kJ/mol
# Density = 1.901199 g / cm^3
# Si number density = 19.055361 Si / 1000 Ang^3
#
#
#
# Elastic Constant Matrix: (Units=GPa)
#
#
# Indices 1 2 3 4 5 6 
#
# 1 82.7485 31.3320 29.0051 0.0000 3.4965 0.0000
# 2 31.3320 42.9048 25.5305 0.0000 4.3590 0.0000
# 3 29.0051 25.5305 100.1358 0.0000 -3.4771 0.0000
# 4 0.0000 0.0000 0.0000 20.6209 0.0000 4.7689
# 5 3.4965 4.3590 -3.4771 0.0000 26.2664 0.0000
# 6 0.0000 0.0000 0.0000 4.7689 0.0000 31.4731
#
#
#
# Elastic Compliance Matrix: (Units=1/GPa)
#
#
# Indices 1 2 3 4 5 6 
#
# 1 0.017076 -0.011129 -0.002134 0.000000 -0.000709 0.000000
# 2 -0.011129 0.035547 -0.006021 0.000000 -0.005215 0.000000
# 3 -0.002134 -0.006021 0.012240 0.000000 0.002903 0.000000
# 4 0.000000 0.000000 0.000000 0.050255 0.000000 -0.007615
# 5 -0.000709 -0.005215 0.002903 0.000000 0.039415 0.000000
# 6 0.000000 0.000000 0.000000 -0.007615 0.000000 0.032927
#
#
# Mechanical properties :
#
#
# Convention : Reuss Voigt Hill
#
# Bulk Modulus (GPa) = 38.02611 44.16937 41.09774
# Shear Modulus (GPa) = 21.29535 25.00018 23.14777
#
# Velocity S-wave (km/s) = 3.34661 3.62605 3.48913
# Velocity P-wave (km/s) = 5.91033 6.38442 6.15194
#
# Compressibility (1/GPa) = 0.02629772
#
# Stress axis : x y z
#
# Youngs Moduli (GPa) = 58.56026 28.13197 81.69775
#
# Poissons Ratio (x) = 0.31308 0.17430
# Poissons Ratio (y) = 0.65171 0.49186
# Poissons Ratio (z) = 0.12494 0.16937
#
# Static dielectric constant tensor:
#      x y z
#    x 3.374380 0.000000 0.129440 
#    y 0.000000 3.390540 0.000000 
#    z 0.129440 0.000000 3.968750 
# 
# 
# High freq. dielectric constant tensor:
#      x y z
#    x 1.725910 0.000000 0.005630 
#    y 0.000000 1.729510 0.000000 
#    z 0.005630 0.000000 1.744400 
# 
# From -- ./inp_files/89580.got.cif
#   From: 2010.06.25/outbox.cif.g09.slc.cpg/sg10_45_cif.got.tgz:89580.got - 2010.06.27 22:07:45.
