data_PCOD8063367
_publ_section_title
;
Structure prediction by ZEFSAII (Michael W. Deem and Ramdas Pophale) SiO2 
 PCOD8063367
Probable space group: P 2/M
;
_chemical_formula_sum "Si O2"
_cell_formula_units_Z 28
_cell_length_a 28.927886
_cell_length_b 8.773572
_cell_length_c 8.966370
_cell_angle_alpha 90.000000
_cell_angle_beta 38.395976
_cell_angle_gamma 90.000000
_cell_volume 1413.403784
_symmetry_space_group_name_H-M "P 2/M"
_symmetry_group_IT_number 10
_symmetry_cell_setting 'monoclinic'
loop_
_space_group_symop_operation_xyz
x,y,z
-x,y,-z
-x,-y,-z
x,-y,z
loop_
_atom_site_type_symbol
_atom_site_label
_atom_site_fract_x
_atom_site_fract_y
_atom_site_fract_z
Si Si1 0.653475 0.675346 0.463150
Si Si2 0.344771 0.180226 0.224403
Si Si3 0.071557 0.823637 0.219389
Si Si4 0.800646 0.323047 0.916675
Si Si5 0.075645 0.323522 0.894555
Si Si6 0.505800 0.831904 0.808578
Si Si7 0.204793 0.820988 0.387898
O O1 0.646342 0.500000 0.520424
O O2 0.674324 0.756762 0.564294
O O3 0.575612 0.728541 0.585764
O O4 0.717013 0.709438 0.182078
O O5 0.282478 0.231770 0.264915
O O6 0.347070 0.000000 0.237425
O O7 0.425798 0.236488 0.957760
O O8 0.144914 0.779902 0.124055
O O9 0.000000 0.791111 0.500000
O O10 0.076560 0.000000 0.159028
O O11 0.063769 0.717286 0.096062
O O12 0.822356 0.500000 0.879331
O O13 0.807884 0.276297 0.727372
O O14 0.098861 0.500000 0.821053
O O15 0.139552 0.216112 0.667968
O O16 0.000000 0.288098 0.000000
O O17 0.519040 0.000000 0.706663
O O18 0.500000 0.842310 0.000000
O O19 0.204430 0.000000 0.351598
#
# Coordination Sequence:
#
# PCOD8063367 Si02
#       7
#     4   4   4   4   4   4   4
#     4  10  20  33  53  82 111 143 185 230 277 332
#     4   9  19  35  55  81 110 142 183 231 282 334
#     4  11  24  41  63  90 117 147 188 235 277 324
#     4  11  24  40  57  81 116 153 189 231 283 340
#     4  11  24  41  62  88 119 153 186 225 278 337
#     4   8  15  30  52  77 107 142 181 227 278 332
#     4  11  23  39  60  84 112 148 192 238 281 330
#
# _framework density 19.810333
#
# number of rings (size 3 to 8) (size 9 to 14) (size 15 to 20)
#    0.000    1.857    0.000    4.714    0.000   12.857 
#    0.000    0.714    0.000    4.286    0.000    0.000 
#    0.000    0.000    0.000    0.000    0.000    0.000 
#
# Total GULP energy -347253.600348 kJ/mol
# GULP energy per Si atom -12401.914298 kJ/mol
# Density = 1.976524 g / cm^3
# Si number density = 19.810333 Si / 1000 Ang^3
#
#
#
# Elastic Constant Matrix: (Units=GPa)
#
#
# Indices 1 2 3 4 5 6 
#
# 1 112.9573 24.1874 43.5402 0.0000 -12.8052 0.0000
# 2 24.1874 41.2407 31.6410 0.0000 -9.5186 0.0000
# 3 43.5402 31.6410 95.5191 0.0000 -13.5010 0.0000
# 4 0.0000 0.0000 0.0000 35.5247 0.0000 -1.8125
# 5 -12.8052 -9.5186 -13.5010 0.0000 34.4122 0.0000
# 6 0.0000 0.0000 0.0000 -1.8125 0.0000 24.5402
#
#
#
# Elastic Compliance Matrix: (Units=1/GPa)
#
#
# Indices 1 2 3 4 5 6 
#
# 1 0.011210 -0.003265 -0.003776 0.000000 0.001787 0.000000
# 2 -0.003265 0.034311 -0.009219 0.000000 0.004659 0.000000
# 3 -0.003776 -0.009219 0.015547 0.000000 0.002145 0.000000
# 4 0.000000 0.000000 0.000000 0.028256 0.000000 0.002087
# 5 0.001787 0.004659 0.002145 0.000000 0.031854 0.000000
# 6 0.000000 0.000000 0.000000 0.002087 0.000000 0.040904
#
#
# Mechanical properties :
#
#
# Convention : Reuss Voigt Hill
#
# Bulk Modulus (GPa) = 35.02789 49.82826 42.42807
# Shear Modulus (GPa) = 24.49564 28.91864 26.70714
#
# Velocity S-wave (km/s) = 3.52022 3.82485 3.67569
# Velocity P-wave (km/s) = 5.85172 6.68679 6.28314
#
# Compressibility (1/GPa) = 0.02854868
#
# Stress axis : x y z
#
# Youngs Moduli (GPa) = 89.20597 29.14500 64.32109
#
# Poissons Ratio (x) = 0.09517 0.24285
# Poissons Ratio (y) = 0.29130 0.59296
# Poissons Ratio (z) = 0.33680 0.26868
#
# Static dielectric constant tensor:
#      x y z
#    x 3.812070 0.000000 -0.345970 
#    y 0.000000 3.606410 0.000000 
#    z -0.345970 0.000000 3.810270 
# 
# 
# High freq. dielectric constant tensor:
#      x y z
#    x 1.771240 0.000000 -0.019040 
#    y 0.000000 1.775440 0.000000 
#    z -0.019040 0.000000 1.777420 
# 
# From -- ./inp_files/37029.got.cif
#   From: 2010.06.25/outbox.cif.g09.slc.cpg/sg10_19_cif.got.tgz:37029.got - 2010.06.27 22:07:45.
