data_PCOD8063148
_publ_section_title
;
Structure prediction by ZEFSAII (Michael W. Deem and Ramdas Pophale) SiO2 
 PCOD8063148
Probable space group: P 2/M
;
_chemical_formula_sum "Si O2"
_cell_formula_units_Z 28
_cell_length_a 13.817131
_cell_length_b 9.244580
_cell_length_c 16.307837
_cell_angle_alpha 90.000000
_cell_angle_beta 130.785133
_cell_angle_gamma 90.000000
_cell_volume 1577.217949
_symmetry_space_group_name_H-M "P 2/M"
_symmetry_group_IT_number 10
_symmetry_cell_setting 'monoclinic'
loop_
_space_group_symop_operation_xyz
x,y,z
-x,y,-z
-x,-y,-z
x,-y,z
loop_
_atom_site_type_symbol
_atom_site_label
_atom_site_fract_x
_atom_site_fract_y
_atom_site_fract_z
Si Si1 0.058963 0.328402 0.341751
Si Si2 0.183499 0.668700 0.695542
Si Si3 0.471403 0.169395 0.237074
Si Si4 0.713312 0.330593 0.423475
Si Si5 0.419846 0.832252 0.878942
Si Si6 0.009192 0.329014 0.133913
Si Si7 0.207227 0.328872 0.106176
O O1 0.054351 0.500000 0.333970
O O2 0.199549 0.281920 0.451164
O O3 0.029569 0.260585 0.235725
O O4 0.954170 0.275107 0.349882
O O5 0.198817 0.500000 0.720273
O O6 0.203344 0.706176 0.611208
O O7 0.288135 0.746950 0.808789
O O8 0.582821 0.239669 0.354327
O O9 0.500260 0.201830 0.158356
O O10 0.337928 0.242230 0.184491
O O11 0.465047 0.000000 0.253077
O O12 0.678459 0.500000 0.406965
O O13 0.386807 0.000000 0.868299
O O14 0.500000 0.775464 0.000000
O O15 0.006979 0.500000 0.138381
O O16 0.126765 0.282694 0.141563
O O17 0.874019 0.279914 0.019194
O O18 0.235151 0.500000 0.119965
#
# Coordination Sequence:
#
# PCOD8063148 Si02
#       7
#     4   4   4   4   4   4   4
#     4   9  16  28  49  74  99 124 156 198 240 279
#     4   9  17  28  46  73  98 122 155 195 236 274
#     4  10  20  33  50  69  94 129 162 194 237 281
#     4   9  17  31  49  71  98 128 160 193 232 282
#     4   9  19  33  45  63  96 131 160 190 227 279
#     4   8  16  30  49  75  99 121 153 197 241 284
#     4   9  17  32  53  73  96 123 156 196 240 286
#
# _framework density 17.752777999999999
#
# number of rings (size 3 to 8) (size 9 to 14) (size 15 to 20)
#    0.000    3.000    0.000    1.714    2.000    2.571 
#    0.000    2.857    0.000   10.286    0.000    0.000 
#    0.000    0.000    0.000    0.000    0.000    0.000 
#
# Total GULP energy -347105.152290 kJ/mol
# GULP energy per Si atom -12396.612582 kJ/mol
# Density = 1.771237 g / cm^3
# Si number density = 17.752778 Si / 1000 Ang^3
#
#
#
# Elastic Constant Matrix: (Units=GPa)
#
#
# Indices 1 2 3 4 5 6 
#
# 1 85.1326 31.1783 66.8389 0.0000 19.9780 0.0000
# 2 31.1783 40.4583 37.7837 0.0000 12.0456 0.0000
# 3 66.8389 37.7837 145.3548 0.0000 12.3526 0.0000
# 4 0.0000 0.0000 0.0000 6.3011 0.0000 -8.1022
# 5 19.9780 12.0456 12.3526 0.0000 30.9199 0.0000
# 6 0.0000 0.0000 0.0000 -8.1022 0.0000 7.8808
#
#
#
# Elastic Compliance Matrix: (Units=1/GPa)
#
#
# Indices 1 2 3 4 5 6 
#
# 1 0.022582 -0.007716 -0.007654 0.000000 -0.008527 0.000000
# 2 -0.007716 0.038321 -0.005764 0.000000 -0.007641 0.000000
# 3 -0.007654 -0.005764 0.011683 0.000000 0.002523 0.000000
# 4 0.000000 0.000000 0.000000 -0.492942 0.000000 -0.506787
# 5 -0.008527 -0.007641 0.002523 0.000000 0.039820 0.000000
# 6 0.000000 0.000000 0.000000 -0.506787 0.000000 -0.394130
#
#
# Mechanical properties :
#
#
# Convention : Reuss Voigt Hill
#
# Bulk Modulus (GPa) = 32.98268 60.28305 46.63287
# Shear Modulus (GPa) = -6.92240 18.03001 5.55381
#
# Velocity S-wave (km/s) = -1.97682 3.19033 1.77065
# Velocity P-wave (km/s) = 3.66181 6.89939 5.52315
#
# Compressibility (1/GPa) = 0.03031894
#
# Stress axis : x y z
#
# Youngs Moduli (GPa) = 44.28214 26.09568 85.59486
#
# Poissons Ratio (x) = 0.20136 0.65512
# Poissons Ratio (y) = 0.34168 0.49334
# Poissons Ratio (z) = 0.33893 0.15041
#
# Static dielectric constant tensor:
#      x y z
#    x 3.331710 0.000000 -0.114210 
#    y 0.000000 2.956080 0.000000 
#    z -0.114210 0.000000 3.612960 
# 
# 
# High freq. dielectric constant tensor:
#      x y z
#    x 1.676930 0.000000 0.005790 
#    y 0.000000 1.650930 0.000000 
#    z 0.005790 0.000000 1.696750 
# 
# From -- ./inp_files/46049.got.cif
#   From: 2010.06.25/outbox.cif.g09.slc.cpg/sg10_24_cif.got.tgz:46049.got - 2010.06.27 22:07:45.
