data_PCOD8063194
_publ_section_title
;
Structure prediction by ZEFSAII (Michael W. Deem and Ramdas Pophale) SiO2 
 PCOD8063194
Probable space group: P 2/M
;
_chemical_formula_sum "Si O2"
_cell_formula_units_Z 20
_cell_length_a 17.745430
_cell_length_b 10.216212
_cell_length_c 8.473868
_cell_angle_alpha 90.000000
_cell_angle_beta 134.945355
_cell_angle_gamma 90.000000
_cell_volume 1087.318877
_symmetry_space_group_name_H-M "P 2/M"
_symmetry_group_IT_number 10
_symmetry_cell_setting 'monoclinic'
loop_
_space_group_symop_operation_xyz
x,y,z
-x,y,-z
-x,-y,-z
x,-y,z
loop_
_atom_site_type_symbol
_atom_site_label
_atom_site_fract_x
_atom_site_fract_y
_atom_site_fract_z
Si Si1 0.740269 0.146355 0.612184
Si Si2 0.809948 0.355857 0.131027
Si Si3 0.618610 0.650095 0.627050
Si Si4 0.853450 0.146898 0.462895
Si Si5 0.055793 0.755369 0.928342
O O1 0.654501 0.253705 0.539818
O O2 0.765893 0.176093 0.467420
O O3 0.692914 0.000000 0.561484
O O4 0.848418 0.151127 0.874212
O O5 0.816149 0.500000 0.217965
O O6 0.837361 0.247631 0.298774
O O7 0.895474 0.354673 0.114361
O O8 0.692270 0.329377 0.889371
O O9 0.500000 0.688388 0.500000
O O10 0.625988 0.500000 0.577401
O O11 0.971554 0.157791 0.708388
O O12 0.839842 0.000000 0.376490
O O13 0.000000 0.689196 0.000000
#
# Coordination Sequence:
#
# PCOD8063194 Si02
#       5
#     4   4   4   4   4
#     4   9  18  33  53  77 101 129 170 209 240 285
#     4  10  21  34  50  75 102 129 166 209 250 294
#     4   9  19  37  57  74  95 127 167 209 254 301
#     4  10  20  33  50  74 106 139 165 196 243 296
#     4   9  18  32  51  74 102 136 170 202 239 288
#
# _framework density 18.393868999999999
#
# number of rings (size 3 to 8) (size 9 to 14) (size 15 to 20)
#    0.000    2.600    0.000    1.200    0.000   10.400 
#    0.000    5.000    0.000    6.000    0.000    0.000 
#    0.000    0.000    0.000    0.000    0.000    0.000 
#
# Total GULP energy -247932.951379 kJ/mol
# GULP energy per Si atom -12396.647569 kJ/mol
# Density = 1.835200 g / cm^3
# Si number density = 18.393869 Si / 1000 Ang^3
#
#
#
# Elastic Constant Matrix: (Units=GPa)
#
#
# Indices 1 2 3 4 5 6 
#
# 1 128.4293 79.1256 60.9330 0.0000 5.5370 0.0000
# 2 79.1256 124.1880 51.3464 0.0000 -9.6217 0.0000
# 3 60.9330 51.3464 66.5784 0.0000 -6.4436 0.0000
# 4 0.0000 0.0000 0.0000 15.5623 0.0000 -2.9634
# 5 5.5370 -9.6217 -6.4436 0.0000 27.9821 0.0000
# 6 0.0000 0.0000 0.0000 -2.9634 0.0000 29.0070
#
#
#
# Elastic Compliance Matrix: (Units=1/GPa)
#
#
# Indices 1 2 3 4 5 6 
#
# 1 0.018510 -0.007527 -0.012008 0.000000 -0.009016 0.000000
# 2 -0.007527 0.014995 -0.004124 0.000000 0.005696 0.000000
# 3 -0.012008 -0.004124 0.029950 0.000000 0.007855 0.000000
# 4 0.000000 0.000000 0.000000 0.065533 0.000000 0.006695
# 5 -0.009016 0.005696 0.007855 0.000000 0.041289 0.000000
# 6 0.000000 0.000000 0.000000 0.006695 0.000000 0.035158
#
#
# Mechanical properties :
#
#
# Convention : Reuss Voigt Hill
#
# Bulk Modulus (GPa) = 61.97036 78.00064 69.98550
# Shear Modulus (GPa) = 19.37011 23.02965 21.19988
#
# Velocity S-wave (km/s) = 3.24863 3.54224 3.39861
# Velocity P-wave (km/s) = 6.91631 7.69596 7.31653
#
# Compressibility (1/GPa) = 0.01613675
#
# Stress axis : x y z
#
# Youngs Moduli (GPa) = 54.02611 66.69090 33.38913
#
# Poissons Ratio (x) = 0.50199 0.40092
# Poissons Ratio (y) = 0.40666 0.13769
# Poissons Ratio (z) = 0.64872 0.27503
#
# Static dielectric constant tensor:
#      x y z
#    x 3.474840 0.000000 -0.017750 
#    y 0.000000 3.300310 0.000000 
#    z -0.017750 0.000000 3.260410 
# 
# 
# High freq. dielectric constant tensor:
#      x y z
#    x 1.711350 0.000000 -0.003320 
#    y 0.000000 1.711430 0.000000 
#    z -0.003320 0.000000 1.695250 
# 
# From -- ./inp_files/22992.got.cif
#   From: 2010.06.25/outbox.cif.g09.slc.cpg/sg10_12_cif.got.tgz:22992.got - 2010.06.27 22:07:45.
