data_PCOD8063895
_publ_section_title
;
Structure prediction by ZEFSAII (Michael W. Deem and Ramdas Pophale) SiO2 
 PCOD8063895
Probable space group: P 2/M
;
_chemical_formula_sum "Si O2"
_cell_formula_units_Z 28
_cell_length_a 27.699560
_cell_length_b 9.207547
_cell_length_c 7.974675
_cell_angle_alpha 90.000000
_cell_angle_beta 44.453328
_cell_angle_gamma 90.000000
_cell_volume 1424.397878
_symmetry_space_group_name_H-M "P 2/M"
_symmetry_group_IT_number 10
_symmetry_cell_setting 'monoclinic'
loop_
_space_group_symop_operation_xyz
x,y,z
-x,y,-z
-x,-y,-z
x,-y,z
loop_
_atom_site_type_symbol
_atom_site_label
_atom_site_fract_x
_atom_site_fract_y
_atom_site_fract_z
Si Si1 0.422804 0.172841 0.699223
Si Si2 0.337039 0.168233 0.226015
Si Si3 0.786649 0.662675 0.589780
Si Si4 0.074972 0.829271 0.246437
Si Si5 0.069631 0.332544 0.919168
Si Si6 0.796106 0.667852 0.948332
Si Si7 0.331450 0.830673 0.613452
O O1 0.500000 0.236924 0.500000
O O2 0.382826 0.225893 0.631191
O O3 0.425353 0.000000 0.697288
O O4 0.387469 0.234353 0.957723
O O5 0.260660 0.233334 0.403340
O O6 0.365527 0.195326 0.344567
O O7 0.328818 0.000000 0.209083
O O8 0.769037 0.500000 0.576062
O O9 0.867343 0.694056 0.363562
O O10 0.768876 0.685573 0.827762
O O11 0.130778 0.747302 0.220944
O O12 0.000000 0.787807 0.500000
O O13 0.089121 0.000000 0.219224
O O14 0.082176 0.774427 0.040583
O O15 0.065439 0.500000 0.990090
O O16 0.000000 0.285336 0.000000
O O17 0.805067 0.500000 0.978374
O O18 0.739857 0.742426 0.206998
O O19 0.314303 0.000000 0.682768
#
# Coordination Sequence:
#
# PCOD8063895 Si02
#       7
#     4   4   4   4   4   4   4
#     4   9  18  34  56  84 119 154 189 235 288 342
#     4  10  20  34  56  84 113 150 190 234 287 339
#     4  10  21  36  56  82 110 145 188 236 286 340
#     4  11  24  39  55  80 113 148 188 236 291 345
#     4  10  21  38  58  80 109 146 191 239 287 342
#     4  11  22  37  59  83 110 149 192 235 287 343
#     4  10  20  35  57  86 117 149 191 237 286 345
#
# _framework density 19.657427999999999
#
# number of rings (size 3 to 8) (size 9 to 14) (size 15 to 20)
#    0.000    1.857    1.429    2.571    0.000    7.143 
#    0.000    2.857    0.000    1.714    0.000    2.000 
#    0.000    0.000    0.000    0.000    0.000    0.000 
#
# Total GULP energy -347232.938271 kJ/mol
# GULP energy per Si atom -12401.176367 kJ/mol
# Density = 1.961269 g / cm^3
# Si number density = 19.657428 Si / 1000 Ang^3
#
#
#
# Elastic Constant Matrix: (Units=GPa)
#
#
# Indices 1 2 3 4 5 6 
#
# 1 107.3762 37.1389 60.2597 0.0000 -2.8039 0.0000
# 2 37.1389 59.1889 36.1231 0.0000 -2.9687 0.0000
# 3 60.2597 36.1231 120.9035 0.0000 -0.2421 0.0000
# 4 0.0000 0.0000 0.0000 17.4652 0.0000 4.6576
# 5 -2.8039 -2.9687 -0.2421 0.0000 36.8815 0.0000
# 6 0.0000 0.0000 0.0000 4.6576 0.0000 17.2079
#
#
#
# Elastic Compliance Matrix: (Units=1/GPa)
#
#
# Indices 1 2 3 4 5 6 
#
# 1 0.014345 -0.005636 -0.005465 0.000000 0.000601 0.000000
# 2 -0.005636 0.022974 -0.004053 0.000000 0.001394 0.000000
# 3 -0.005465 -0.004053 0.012204 0.000000 -0.000662 0.000000
# 4 0.000000 0.000000 0.000000 0.061711 0.000000 -0.016703
# 5 0.000601 0.001394 -0.000662 0.000000 0.027267 0.000000
# 6 0.000000 0.000000 0.000000 -0.016703 0.000000 0.062634
#
#
# Mechanical properties :
#
#
# Convention : Reuss Voigt Hill
#
# Bulk Modulus (GPa) = 52.03515 61.61244 56.82380
# Shear Modulus (GPa) = 21.02191 24.57405 22.79798
#
# Velocity S-wave (km/s) = 3.27374 3.53953 3.40923
# Velocity P-wave (km/s) = 6.38892 6.93653 6.66835
#
# Compressibility (1/GPa) = 0.01921778
#
# Stress axis : x y z
#
# Youngs Moduli (GPa) = 69.71225 43.52671 81.93938
#
# Poissons Ratio (x) = 0.24530 0.44776
# Poissons Ratio (y) = 0.39287 0.33206
# Poissons Ratio (z) = 0.38095 0.17639
#
# Static dielectric constant tensor:
#      x y z
#    x 3.636150 0.000000 0.042300 
#    y 0.000000 3.384150 0.000000 
#    z 0.042300 0.000000 3.766530 
# 
# 
# High freq. dielectric constant tensor:
#      x y z
#    x 1.769430 0.000000 0.007260 
#    y 0.000000 1.744810 0.000000 
#    z 0.007260 0.000000 1.772450 
# 
# From -- ./inp_files/31580.got.cif
#   From: 2010.06.25/outbox.cif.g09.slc.cpg/sg10_16_cif.got.tgz:31580.got - 2010.06.27 22:07:45.
