data_PCOD8063551
_publ_section_title
;
Structure prediction by ZEFSAII (Michael W. Deem and Ramdas Pophale) SiO2 
 PCOD8063551
Probable space group: P 2/M
;
_chemical_formula_sum "Si O2"
_cell_formula_units_Z 32
_cell_length_a 17.335878
_cell_length_b 8.926081
_cell_length_c 27.924611
_cell_angle_alpha 90.000000
_cell_angle_beta 23.505663
_cell_angle_gamma 90.000000
_cell_volume 1723.424198
_symmetry_space_group_name_H-M "P 2/M"
_symmetry_group_IT_number 10
_symmetry_cell_setting 'monoclinic'
loop_
_space_group_symop_operation_xyz
x,y,z
-x,y,-z
-x,-y,-z
x,-y,z
loop_
_atom_site_type_symbol
_atom_site_label
_atom_site_fract_x
_atom_site_fract_y
_atom_site_fract_z
Si Si1 0.612782 0.822223 0.837527
Si Si2 0.805959 0.825431 0.467983
Si Si3 0.802020 0.332223 0.083965
Si Si4 0.995407 0.823876 0.890475
Si Si5 0.625898 0.826173 0.268536
Si Si6 0.208820 0.324072 0.075337
Si Si7 0.958958 0.823766 0.575295
Si Si8 0.135857 0.324257 0.226407
O O1 0.405281 0.752284 0.945563
O O2 0.752370 0.772044 0.714312
O O3 0.698936 0.760603 0.838097
O O4 0.596607 0.000000 0.850741
O O5 0.579728 0.790342 0.590227
O O6 0.872518 0.777478 0.483482
O O7 0.921811 0.729614 0.362956
O O8 0.853517 0.000000 0.432397
O O9 0.741516 0.500000 0.103341
O O10 0.638610 0.262858 0.211334
O O11 0.828072 0.231465 0.022000
O O12 0.000000 0.332293 0.000000
O O13 0.207656 0.778239 0.788911
O O14 0.974512 0.000000 0.895390
O O15 0.966902 0.741470 0.856135
O O16 0.646592 0.000000 0.243546
O O17 0.224797 0.500000 0.058348
O O18 0.166131 0.282095 0.154157
O O19 0.000000 0.747812 0.500000
O O20 0.956405 0.000000 0.570079
O O21 0.157503 0.500000 0.223422
#
# Coordination Sequence:
#
# PCOD8063551 Si02
#       8
#     4   4   4   4   4   4   4   4
#     4  10  20  34  56  82 104 134 174 211 254 312
#     4   9  18  33  54  77 102 136 177 219 260 307
#     4   9  17  30  49  73 103 138 172 209 255 306
#     4  10  20  34  52  75 104 137 176 222 266 310
#     4   9  18  33  53  77 104 138 180 220 260 309
#     4  11  23  37  53  75 104 136 171 217 272 321
#     4   8  15  29  49  76 108 135 161 198 245 298
#     4  10  21  37  55  75 102 136 172 214 265 319
#
# _framework density 18.567686999999999
#
# number of rings (size 3 to 8) (size 9 to 14) (size 15 to 20)
#    0.000    2.500    0.000    3.000    0.000    7.000 
#    0.000    3.125    0.000   13.125    0.000    0.000 
#    0.000    0.000    0.000    0.000    0.000    0.000 
#
# Total GULP energy -396809.541028 kJ/mol
# GULP energy per Si atom -12400.298157 kJ/mol
# Density = 1.852543 g / cm^3
# Si number density = 18.567687 Si / 1000 Ang^3
#
#
#
# Elastic Constant Matrix: (Units=GPa)
#
#
# Indices 1 2 3 4 5 6 
#
# 1 103.9741 39.9803 58.8594 0.0000 10.7687 0.0000
# 2 39.9803 65.3259 31.4865 0.0000 5.8679 0.0000
# 3 58.8594 31.4865 96.8952 0.0000 0.0220 0.0000
# 4 0.0000 0.0000 0.0000 24.4454 0.0000 2.8646
# 5 10.7687 5.8679 0.0220 0.0000 27.3615 0.0000
# 6 0.0000 0.0000 0.0000 2.8646 0.0000 28.6162
#
#
#
# Elastic Compliance Matrix: (Units=1/GPa)
#
#
# Indices 1 2 3 4 5 6 
#
# 1 0.017361 -0.005982 -0.008601 0.000000 -0.005543 0.000000
# 2 -0.005982 0.020635 -0.003071 0.000000 -0.002069 0.000000
# 3 -0.008601 -0.003071 0.016542 0.000000 0.004030 0.000000
# 4 0.000000 0.000000 0.000000 0.041393 0.000000 -0.004144
# 5 -0.005543 -0.002069 0.004030 0.000000 0.039170 0.000000
# 6 0.000000 0.000000 0.000000 -0.004144 0.000000 0.035360
#
#
# Mechanical properties :
#
#
# Convention : Reuss Voigt Hill
#
# Bulk Modulus (GPa) = 52.00158 58.53860 55.27009
# Shear Modulus (GPa) = 23.56505 25.14255 24.35380
#
# Velocity S-wave (km/s) = 3.56637 3.68381 3.62556
# Velocity P-wave (km/s) = 6.71014 7.04908 6.88169
#
# Compressibility (1/GPa) = 0.01923019
#
# Stress axis : x y z
#
# Youngs Moduli (GPa) = 57.60070 48.46164 60.45131
#
# Poissons Ratio (x) = 0.28988 0.51994
# Poissons Ratio (y) = 0.34455 0.18567
# Poissons Ratio (z) = 0.49542 0.14884
#
# Static dielectric constant tensor:
#      x y z
#    x 3.427100 0.000000 0.072080 
#    y 0.000000 3.370080 0.000000 
#    z 0.072080 0.000000 3.456800 
# 
# 
# High freq. dielectric constant tensor:
#      x y z
#    x 1.712850 0.000000 0.003170 
#    y 0.000000 1.715760 0.000000 
#    z 0.003170 0.000000 1.716400 
# 
# From -- ./inp_files/89505.got.cif
#   From: 2010.06.25/outbox.cif.g09.slc.cpg/sg10_45_cif.got.tgz:89505.got - 2010.06.27 22:07:45.
