data_PCOD8063542
_publ_section_title
;
Structure prediction by ZEFSAII (Michael W. Deem and Ramdas Pophale) SiO2 
 PCOD8063542
Probable space group: P 2/M
;
_chemical_formula_sum "Si O2"
_cell_formula_units_Z 28
_cell_length_a 14.856590
_cell_length_b 8.816021
_cell_length_c 18.917769
_cell_angle_alpha 90.000000
_cell_angle_beta 142.741946
_cell_angle_gamma 90.000000
_cell_volume 1500.058871
_symmetry_space_group_name_H-M "P 2/M"
_symmetry_group_IT_number 10
_symmetry_cell_setting 'monoclinic'
loop_
_space_group_symop_operation_xyz
x,y,z
-x,y,-z
-x,-y,-z
x,-y,z
loop_
_atom_site_type_symbol
_atom_site_label
_atom_site_fract_x
_atom_site_fract_y
_atom_site_fract_z
Si Si1 0.302730 0.829326 0.431365
Si Si2 0.617528 0.322315 0.380828
Si Si3 0.322726 0.178350 0.163999
Si Si4 0.216902 0.676085 0.241276
Si Si5 0.037541 0.829495 0.736240
Si Si6 0.880361 0.324576 0.076067
Si Si7 0.052797 0.322031 0.456380
O O1 0.393088 0.727485 0.543703
O O2 0.319602 0.760802 0.363419
O O3 0.132085 0.826866 0.346306
O O4 0.366720 0.000000 0.471975
O O5 0.586510 0.500000 0.356574
O O6 0.492227 0.232448 0.259195
O O7 0.774960 0.277010 0.445176
O O8 0.249593 0.261402 0.184654
O O9 0.315398 0.000000 0.171367
O O10 0.233907 0.222627 0.038576
O O11 0.257039 0.500000 0.269627
O O12 0.044025 0.704727 0.148044
O O13 0.130873 0.727626 0.849356
O O14 0.050462 0.760428 0.665876
O O15 0.101129 0.000000 0.775655
O O16 0.835206 0.500000 0.042266
O O17 0.030320 0.500000 0.431660
O O18 0.000000 0.266848 0.500000
#
# Coordination Sequence:
#
# PCOD8063542 Si02
#       7
#     4   4   4   4   4   4   4
#     4   9  17  31  50  73 102 133 168 211 256 300
#     4  10  20  35  53  74 103 136 169 205 252 308
#     4  12  24  35  49  71 102 138 175 215 257 299
#     4  10  20  34  52  74  99 132 177 220 256 296
#     4   9  17  30  51  79 107 134 165 204 251 299
#     4  10  20  35  54  74 100 136 177 216 252 295
#     4   9  18  34  58  85 108 131 162 202 249 304
#
# _framework density 18.665935000000001
#
# number of rings (size 3 to 8) (size 9 to 14) (size 15 to 20)
#    0.000    2.143    0.000    3.857    0.000    8.286 
#    0.000    2.857    0.000    0.857    0.000    6.000 
#    0.000    0.000    0.000    0.000    0.000    0.000 
#
# Total GULP energy -347281.239100 kJ/mol
# GULP energy per Si atom -12402.901396 kJ/mol
# Density = 1.862345 g / cm^3
# Si number density = 18.665935 Si / 1000 Ang^3
#
#
#
# Elastic Constant Matrix: (Units=GPa)
#
#
# Indices 1 2 3 4 5 6 
#
# 1 76.8848 23.4555 49.7093 0.0000 -21.8593 0.0000
# 2 23.4555 69.3248 31.6383 0.0000 -0.1392 0.0000
# 3 49.7093 31.6383 67.7311 0.0000 -16.8838 0.0000
# 4 0.0000 0.0000 0.0000 35.6799 0.0000 -4.9334
# 5 -21.8593 -0.1392 -16.8838 0.0000 23.9289 0.0000
# 6 0.0000 0.0000 0.0000 -4.9334 0.0000 19.4825
#
#
#
# Elastic Compliance Matrix: (Units=1/GPa)
#
#
# Indices 1 2 3 4 5 6 
#
# 1 0.028127 -0.002160 -0.016056 0.000000 0.014353 0.000000
# 2 -0.002160 0.019583 -0.009738 0.000000 -0.008731 0.000000
# 3 -0.016056 -0.009738 0.033280 0.000000 0.008758 0.000000
# 4 0.000000 0.000000 0.000000 0.029044 0.000000 0.007355
# 5 0.014353 -0.008731 0.008758 0.000000 0.061031 0.000000
# 6 0.000000 0.000000 0.000000 0.007355 0.000000 0.053190
#
#
# Mechanical properties :
#
#
# Convention : Reuss Voigt Hill
#
# Bulk Modulus (GPa) = 39.87126 47.06077 43.46602
# Shear Modulus (GPa) = 17.32953 23.09409 20.21181
#
# Velocity S-wave (km/s) = 3.05028 3.52125 3.29419
# Velocity P-wave (km/s) = 5.81484 6.46522 6.14864
#
# Compressibility (1/GPa) = 0.02508072
#
# Stress axis : x y z
#
# Youngs Moduli (GPa) = 35.55262 51.06591 30.04772
#
# Poissons Ratio (x) = 0.11031 0.48246
# Poissons Ratio (y) = 0.07680 0.29261
# Poissons Ratio (z) = 0.57085 0.49730
#
# Static dielectric constant tensor:
#      x y z
#    x 3.222780 0.000000 -0.129890 
#    y 0.000000 3.548050 0.000000 
#    z -0.129890 0.000000 3.523100 
# 
# 
# High freq. dielectric constant tensor:
#      x y z
#    x 1.691870 0.000000 -0.014200 
#    y 0.000000 1.738040 0.000000 
#    z -0.014200 0.000000 1.725590 
# 
# From -- ./inp_files/54665.got.cif
#   From: 2010.06.25/outbox.cif.g09.slc.cpg/sg10_28_cif.got.tgz:54665.got - 2010.06.27 22:07:45.
