data_PCOD8063838
_publ_section_title
;
Structure prediction by ZEFSAII (Michael W. Deem and Ramdas Pophale) SiO2 
 PCOD8063838
Probable space group: P 2/M
;
_chemical_formula_sum "Si O2"
_cell_formula_units_Z 22
_cell_length_a 9.258876
_cell_length_b 12.859334
_cell_length_c 10.388043
_cell_angle_alpha 90.000000
_cell_angle_beta 65.075103
_cell_angle_gamma 90.000000
_cell_volume 1121.634078
_symmetry_space_group_name_H-M "P 2/M"
_symmetry_group_IT_number 10
_symmetry_cell_setting 'monoclinic'
loop_
_space_group_symop_operation_xyz
x,y,z
-x,y,-z
-x,-y,-z
x,-y,z
loop_
_atom_site_type_symbol
_atom_site_label
_atom_site_fract_x
_atom_site_fract_y
_atom_site_fract_z
Si Si1 0.223366 0.882352 0.782259
Si Si2 0.581898 0.620131 0.841297
Si Si3 0.121068 0.197444 0.559057
Si Si4 0.000000 0.730532 0.000000
Si Si5 0.948084 0.379495 0.754169
Si Si6 0.530178 0.241629 0.628889
O O1 0.124892 0.873038 0.685539
O O2 0.407782 0.853684 0.691394
O O3 0.211844 0.000000 0.837340
O O4 0.150333 0.804879 0.915300
O O5 0.538308 0.500000 0.846771
O O6 0.769992 0.640015 0.771259
O O7 0.500221 0.673196 0.749194
O O8 0.500000 0.667063 0.000000
O O9 0.292071 0.197963 0.426891
O O10 0.000000 0.149104 0.500000
O O11 0.067489 0.314416 0.618884
O O12 0.041173 0.655884 0.102568
O O13 0.996862 0.500000 0.724977
O O14 0.500000 0.293671 0.500000
#
# Coordination Sequence:
#
# PCOD8063838 Si02
#       6
#     4   4   4   2   4   4
#     4  10  22  39  61  84 112 153 194 245 304 346
#     4  10  20  34  55  83 117 156 195 237 289 348
#     4  10  20  36  57  85 115 152 194 241 285 341
#     4  10  20  38  62  86 118 150 194 240 288 358
#     4  10  20  34  58  87 119 157 191 229 287 352
#     4  10  21  37  58  83 118 155 193 245 290 345
#
# _framework density 19.614241
#
# number of rings (size 3 to 8) (size 9 to 14) (size 15 to 20)
#    0.000    2.000    1.818    1.636    0.000    5.091 
#    0.000    9.091    0.000    1.636    0.000    0.000 
#    0.000    0.000    0.000    0.000    0.000    0.000 
#
# Total GULP energy -272834.944684 kJ/mol
# GULP energy per Si atom -12401.588395 kJ/mol
# Density = 1.956960 g / cm^3
# Si number density = 19.614241 Si / 1000 Ang^3
#
#
#
# Elastic Constant Matrix: (Units=GPa)
#
#
# Indices 1 2 3 4 5 6 
#
# 1 105.0533 26.2683 27.4329 0.0000 -0.8221 0.0000
# 2 26.2683 77.9031 9.6058 0.0000 -1.7582 0.0000
# 3 27.4329 9.6058 65.6222 0.0000 -3.6770 0.0000
# 4 0.0000 0.0000 0.0000 14.2234 0.0000 -1.3118
# 5 -0.8221 -1.7582 -3.6770 0.0000 37.7469 0.0000
# 6 0.0000 0.0000 0.0000 -1.3118 0.0000 20.3056
#
#
#
# Elastic Compliance Matrix: (Units=1/GPa)
#
#
# Indices 1 2 3 4 5 6 
#
# 1 0.011483 -0.003346 -0.004329 0.000000 -0.000327 0.000000
# 2 -0.003346 0.014054 -0.000629 0.000000 0.000520 0.000000
# 3 -0.004329 -0.000629 0.017228 0.000000 0.001555 0.000000
# 4 0.000000 0.000000 0.000000 0.070728 0.000000 0.004569
# 5 -0.000327 0.000520 0.001555 0.000000 0.026661 0.000000
# 6 0.000000 0.000000 0.000000 0.004569 0.000000 0.049543
#
#
# Mechanical properties :
#
#
# Convention : Reuss Voigt Hill
#
# Bulk Modulus (GPa) = 38.23127 41.68804 39.95966
# Shear Modulus (GPa) = 23.25318 26.80661 25.02990
#
# Velocity S-wave (km/s) = 3.44688 3.70089 3.57614
# Velocity P-wave (km/s) = 5.94771 6.28985 6.12117
#
# Compressibility (1/GPa) = 0.02615660
#
# Stress axis : x y z
#
# Youngs Moduli (GPa) = 87.08148 71.15427 58.04579
#
# Poissons Ratio (x) = 0.23806 0.25129
# Poissons Ratio (y) = 0.29135 0.03653
# Poissons Ratio (z) = 0.37699 0.04479
#
# Static dielectric constant tensor:
#      x y z
#    x 3.656550 0.000000 0.000710 
#    y 0.000000 3.259850 0.000000 
#    z 0.000710 0.000000 3.731140 
# 
# 
# High freq. dielectric constant tensor:
#      x y z
#    x 1.769850 0.000000 -0.002130 
#    y 0.000000 1.738780 0.000000 
#    z -0.002130 0.000000 1.775940 
# 
# From -- ./inp_files/41948.got.cif
#   From: 2010.06.25/outbox.cif.g09.slc.cpg/sg10_21_cif.got.tgz:41948.got - 2010.06.27 22:07:45.
