data_PCOD8063384
_publ_section_title
;
Structure prediction by ZEFSAII (Michael W. Deem and Ramdas Pophale) SiO2 
 PCOD8063384
Probable space group: P 2/M
;
_chemical_formula_sum "Si O2"
_cell_formula_units_Z 28
_cell_length_a 25.934010
_cell_length_b 8.462530
_cell_length_c 9.390479
_cell_angle_alpha 90.000000
_cell_angle_beta 43.506740
_cell_angle_gamma 90.000000
_cell_volume 1418.808149
_symmetry_space_group_name_H-M "P 2/M"
_symmetry_group_IT_number 10
_symmetry_cell_setting 'monoclinic'
loop_
_space_group_symop_operation_xyz
x,y,z
-x,y,-z
-x,-y,-z
x,-y,z
loop_
_atom_site_type_symbol
_atom_site_label
_atom_site_fract_x
_atom_site_fract_y
_atom_site_fract_z
Si Si1 0.996711 0.174782 0.337846
Si Si2 0.289926 0.315326 0.274692
Si Si3 0.156269 0.317385 0.339039
Si Si4 0.297594 0.184763 0.567824
Si Si5 0.425311 0.685135 0.496375
Si Si6 0.412062 0.186062 0.824536
Si Si7 0.158114 0.813521 0.026372
O O1 0.077119 0.252057 0.132253
O O2 0.000000 0.160639 0.500000
O O3 0.926402 0.281406 0.431866
O O4 0.985733 0.000000 0.293066
O O5 0.289001 0.500000 0.314195
O O6 0.216807 0.263295 0.333389
O O7 0.289122 0.212762 0.418338
O O8 0.364024 0.275036 0.038739
O O9 0.163448 0.500000 0.289590
O O10 0.174053 0.227118 0.158035
O O11 0.369183 0.280325 0.480262
O O12 0.308738 0.000000 0.577326
O O13 0.224061 0.253014 0.794902
O O14 0.443089 0.500000 0.470800
O O15 0.501421 0.779999 0.314961
O O16 0.388947 0.745551 0.716651
O O17 0.396416 0.000000 0.859990
O O18 0.153412 0.000000 0.023980
#
# Coordination Sequence:
#
# PCOD8063384 Si02
#       7
#     4   4   4   4   4   4   4
#     4   8  15  30  52  78 107 139 178 226 276 323
#     4  11  24  40  55  79 115 151 186 227 281 335
#     4  10  20  33  54  82 110 142 182 226 274 330
#     4  11  23  39  58  82 111 147 191 232 273 327
#     4  11  22  39  62  88 117 147 179 223 280 331
#     4  11  22  39  63  89 113 143 187 231 269 320
#     4   9  19  35  56  81 109 141 181 229 277 325
#
# _framework density 19.734874000000001
#
# number of rings (size 3 to 8) (size 9 to 14) (size 15 to 20)
#    0.000    1.857    0.000    6.429    0.000    8.857 
#    0.000    3.571    0.000    4.286    0.000    0.000 
#    0.000    0.000    0.000    0.000    0.000    0.000 
#
# Total GULP energy -347226.192448 kJ/mol
# GULP energy per Si atom -12400.935445 kJ/mol
# Density = 1.968996 g / cm^3
# Si number density = 19.734874 Si / 1000 Ang^3
#
#
#
# Elastic Constant Matrix: (Units=GPa)
#
#
# Indices 1 2 3 4 5 6 
#
# 1 99.7127 10.2437 66.9130 0.0000 -3.6230 0.0000
# 2 10.2437 42.3499 4.7715 0.0000 -3.7018 0.0000
# 3 66.9130 4.7715 75.9365 0.0000 -7.8451 0.0000
# 4 0.0000 0.0000 0.0000 22.9663 0.0000 -1.3548
# 5 -3.6230 -3.7018 -7.8451 0.0000 20.9610 0.0000
# 6 0.0000 0.0000 0.0000 -1.3548 0.0000 32.2850
#
#
#
# Elastic Compliance Matrix: (Units=1/GPa)
#
#
# Indices 1 2 3 4 5 6 
#
# 1 0.025525 -0.004033 -0.022736 0.000000 -0.004810 0.000000
# 2 -0.004033 0.024711 0.002476 0.000000 0.004593 0.000000
# 3 -0.022736 0.002476 0.034001 0.000000 0.009233 0.000000
# 4 0.000000 0.000000 0.000000 0.043650 0.000000 0.001832
# 5 -0.004810 0.004593 0.009233 0.000000 0.051143 0.000000
# 6 0.000000 0.000000 0.000000 0.001832 0.000000 0.031051
#
#
# Mechanical properties :
#
#
# Convention : Reuss Voigt Hill
#
# Bulk Modulus (GPa) = 28.04942 42.42838 35.23890
# Shear Modulus (GPa) = 18.48078 24.31387 21.39733
#
# Velocity S-wave (km/s) = 3.06347 3.51383 3.29635
# Velocity P-wave (km/s) = 5.17273 6.16511 5.69059
#
# Compressibility (1/GPa) = 0.03565136
#
# Stress axis : x y z
#
# Youngs Moduli (GPa) = 39.17685 40.46797 29.41076
#
# Poissons Ratio (x) = 0.16320 0.66867
# Poissons Ratio (y) = 0.15800 -0.07281
# Poissons Ratio (z) = 0.89071 -0.10018
#
# Static dielectric constant tensor:
#      x y z
#    x 3.607560 0.000000 -0.357310 
#    y 0.000000 3.536290 0.000000 
#    z -0.357310 0.000000 3.818810 
# 
# 
# High freq. dielectric constant tensor:
#      x y z
#    x 1.765150 0.000000 -0.022850 
#    y 0.000000 1.769960 0.000000 
#    z -0.022850 0.000000 1.765980 
# 
# From -- ./inp_files/37054.got.cif
#   From: 2010.06.25/outbox.cif.g09.slc.cpg/sg10_19_cif.got.tgz:37054.got - 2010.06.27 22:07:45.
