data_PCOD8063628
_publ_section_title
;
Structure prediction by ZEFSAII (Michael W. Deem and Ramdas Pophale) SiO2 
 PCOD8063628
Probable space group: P 2/M
;
_chemical_formula_sum "Si O2"
_cell_formula_units_Z 20
_cell_length_a 10.098255
_cell_length_b 16.438452
_cell_length_c 10.177546
_cell_angle_alpha 90.000000
_cell_angle_beta 41.939422
_cell_angle_gamma 90.000000
_cell_volume 1129.147596
_symmetry_space_group_name_H-M "P 2/M"
_symmetry_group_IT_number 10
_symmetry_cell_setting 'monoclinic'
loop_
_space_group_symop_operation_xyz
x,y,z
-x,y,-z
-x,-y,-z
x,-y,z
loop_
_atom_site_type_symbol
_atom_site_label
_atom_site_fract_x
_atom_site_fract_y
_atom_site_fract_z
Si Si1 0.110852 0.000000 0.723243
Si Si2 0.372855 0.310296 0.462873
Si Si3 0.017093 0.593033 0.836383
Si Si4 0.425891 0.592861 0.916604
Si Si5 0.696786 0.000000 0.132900
Si Si6 0.597459 0.127244 0.570039
O O1 0.193123 0.079821 0.588114
O O2 0.195679 0.000000 0.806951
O O3 0.870962 0.000000 0.895156
O O4 0.500000 0.314872 0.500000
O O5 0.158444 0.346692 0.652511
O O6 0.476740 0.361709 0.275348
O O7 0.357018 0.218742 0.418101
O O8 0.097339 0.500000 0.773002
O O9 0.000000 0.621882 0.000000
O O10 0.809422 0.600581 0.916366
O O11 0.495880 0.500000 0.853824
O O12 0.500000 0.630214 0.000000
O O13 0.558436 0.919591 0.219371
O O14 0.500000 0.127862 0.500000
#
# Coordination Sequence:
#
# PCOD8063628 Si02
#       6
#     2   4   4   4   2   4
#     4   8  13  25  40  61  91 135 166 200 248 304
#     4  11  20  32  52  78 107 138 171 224 267 301
#     4  10  20  34  53  77 102 135 179 217 259 314
#     4  10  22  38  54  75 105 141 180 218 261 314
#     4   8  13  25  42  59  95 136 161 199 253 306
#     4   8  16  26  39  67  99 127 170 206 249 308
#
# _framework density 17.712475999999999
#
# number of rings (size 3 to 8) (size 9 to 14) (size 15 to 20)
#    0.000    2.600    2.000    1.800    0.000    3.200 
#    3.600    3.000    0.000    0.000    0.000    2.800 
#    0.000    8.000    0.000    0.000    0.000    0.000 
#
# Total GULP energy -247926.914159 kJ/mol
# GULP energy per Si atom -12396.345708 kJ/mol
# Density = 1.767216 g / cm^3
# Si number density = 17.712476 Si / 1000 Ang^3
#
#
#
# Elastic Constant Matrix: (Units=GPa)
#
#
# Indices 1 2 3 4 5 6 
#
# 1 57.6762 31.8086 28.5990 0.0000 -1.9639 0.0000
# 2 31.8086 120.8711 72.3672 0.0000 -14.9494 0.0000
# 3 28.5990 72.3672 114.7723 0.0000 -27.4679 0.0000
# 4 0.0000 0.0000 0.0000 -89.9769 0.0000 -38.7722
# 5 -1.9639 -14.9494 -27.4679 0.0000 27.0509 0.0000
# 6 0.0000 0.0000 0.0000 -38.7722 0.0000 5.3707
#
#
#
# Elastic Compliance Matrix: (Units=1/GPa)
#
#
# Indices 1 2 3 4 5 6 
#
# 1 0.021250 -0.003745 -0.004042 0.000000 -0.004631 0.000000
# 2 -0.003745 0.013999 -0.008068 0.000000 -0.000728 0.000000
# 3 -0.004042 -0.008068 0.018058 0.000000 0.013585 0.000000
# 4 0.000000 0.000000 0.000000 -0.002704 0.000000 -0.019518
# 5 -0.004631 -0.000728 0.013585 0.000000 0.050023 0.000000
# 6 0.000000 0.000000 0.000000 -0.019518 0.000000 0.045294
#
#
# Mechanical properties :
#
#
# Convention : Reuss Voigt Hill
#
# Bulk Modulus (GPa) = 46.30138 62.09658 54.19898
# Shear Modulus (GPa) = 27.05191 -0.80807 13.12192
#
# Velocity S-wave (km/s) = 3.91228 -0.67617 2.72477
# Velocity P-wave (km/s) = 6.82680 5.87576 6.36906
#
# Compressibility (1/GPa) = 0.02159763
#
# Stress axis : x y z
#
# Youngs Moduli (GPa) = 47.05846 71.43318 55.37626
#
# Poissons Ratio (x) = 0.26751 0.22385
# Poissons Ratio (y) = 0.17623 0.44677
# Poissons Ratio (z) = 0.19022 0.57631
#
# Static dielectric constant tensor:
#      x y z
#    x 2.972280 0.000000 -0.233370 
#    y 0.000000 3.566110 0.000000 
#    z -0.233370 0.000000 3.305610 
# 
# 
# High freq. dielectric constant tensor:
#      x y z
#    x 1.648230 0.000000 -0.022980 
#    y 0.000000 1.685870 0.000000 
#    z -0.022980 0.000000 1.682750 
# 
# From -- ./inp_files/19403.got.cif
#   From: 2010.06.25/outbox.cif.g09.slc.cpg/sg10_10_cif.got.tgz:19403.got - 2010.06.27 22:07:45.
