data_PCOD8063811
_publ_section_title
;
Structure prediction by ZEFSAII (Michael W. Deem and Ramdas Pophale) SiO2 
 PCOD8063811
Probable space group: P 2/M
;
_chemical_formula_sum "Si O2"
_cell_formula_units_Z 32
_cell_length_a 12.196595
_cell_length_b 9.109374
_cell_length_c 21.936262
_cell_angle_alpha 90.000000
_cell_angle_beta 43.604412
_cell_angle_gamma 90.000000
_cell_volume 1680.871202
_symmetry_space_group_name_H-M "P 2/M"
_symmetry_group_IT_number 10
_symmetry_cell_setting 'monoclinic'
loop_
_space_group_symop_operation_xyz
x,y,z
-x,y,-z
-x,-y,-z
x,-y,z
loop_
_atom_site_type_symbol
_atom_site_label
_atom_site_fract_x
_atom_site_fract_y
_atom_site_fract_z
Si Si1 0.120910 0.329922 0.154189
Si Si2 0.364947 0.330590 0.948267
Si Si3 0.312639 0.174043 0.178733
Si Si4 0.171034 0.325314 0.911586
Si Si5 0.519430 0.326259 0.561948
Si Si6 0.798825 0.173889 0.519051
Si Si7 0.156220 0.173524 0.364320
Si Si8 0.216686 0.325704 0.758136
O O1 0.125026 0.500000 0.172232
O O2 0.182301 0.231090 0.184262
O O3 0.943151 0.274771 0.211529
O O4 0.224576 0.304258 0.052343
O O5 0.416982 0.500000 0.926034
O O6 0.515684 0.236304 0.907957
O O7 0.303787 0.276411 0.906924
O O8 0.264106 0.232256 0.265513
O O9 0.318113 0.000000 0.173239
O O10 0.158369 0.500000 0.915259
O O11 0.220234 0.262489 0.825646
O O12 0.000000 0.260239 0.000000
O O13 0.500000 0.277919 0.500000
O O14 0.534316 0.500000 0.562245
O O15 0.678119 0.254915 0.523615
O O16 0.368316 0.265185 0.660428
O O17 0.768755 0.224038 0.601388
O O18 0.975029 0.228429 0.429546
O O19 0.778452 0.000000 0.519669
O O20 0.149146 0.000000 0.366706
O O21 0.219052 0.500000 0.759896
#
# Coordination Sequence:
#
# PCOD8063811 Si02
#       8
#     4   4   4   4   4   4   4   4
#     4  10  20  36  56  77 105 143 184 218 254 310
#     4  10  20  34  55  82 108 136 179 225 259 306
#     4  11  23  36  53  78 109 141 176 220 273 319
#     4   9  15  29  54  81 103 132 178 223 258 301
#     4  10  22  36  52  82 119 143 164 210 274 327
#     4   9  18  38  62  77  99 138 183 222 261 313
#     4   8  18  37  58  78 101 136 179 225 269 311
#     4   9  18  33  53  77 108 143 172 210 267 318
#
# _framework density 19.037748000000001
#
# number of rings (size 3 to 8) (size 9 to 14) (size 15 to 20)
#    0.000    2.500    1.250    1.500    3.500    2.250 
#    0.000    3.125    0.000    1.125    0.000    0.000 
#    0.000    0.000    0.000    0.000    0.000    0.000 
#
# Total GULP energy -396789.326023 kJ/mol
# GULP energy per Si atom -12399.666438 kJ/mol
# Density = 1.899442 g / cm^3
# Si number density = 19.037748 Si / 1000 Ang^3
#
#
#
# Elastic Constant Matrix: (Units=GPa)
#
#
# Indices 1 2 3 4 5 6 
#
# 1 130.0760 30.9771 40.0722 0.0000 7.1705 0.0000
# 2 30.9771 33.8923 23.2254 0.0000 3.6520 0.0000
# 3 40.0722 23.2254 93.3759 0.0000 6.4219 0.0000
# 4 0.0000 0.0000 0.0000 16.1266 0.0000 0.9579
# 5 7.1705 3.6520 6.4219 0.0000 30.9937 0.0000
# 6 0.0000 0.0000 0.0000 0.9579 0.0000 19.6910
#
#
#
# Elastic Compliance Matrix: (Units=1/GPa)
#
#
# Indices 1 2 3 4 5 6 
#
# 1 0.010319 -0.007640 -0.002461 0.000000 -0.000977 0.000000
# 2 -0.007640 0.041400 -0.006903 0.000000 -0.001680 0.000000
# 3 -0.002461 -0.006903 0.013581 0.000000 -0.001431 0.000000
# 4 0.000000 0.000000 0.000000 0.062189 0.000000 -0.003025
# 5 -0.000977 -0.001680 -0.001431 0.000000 0.032985 0.000000
# 6 0.000000 0.000000 0.000000 -0.003025 0.000000 0.050932
#
#
# Mechanical properties :
#
#
# Convention : Reuss Voigt Hill
#
# Bulk Modulus (GPa) = 31.95725 49.54372 40.75048
# Shear Modulus (GPa) = 19.54311 24.23355 21.88833
#
# Velocity S-wave (km/s) = 3.20745 3.57167 3.39445
# Velocity P-wave (km/s) = 5.52627 6.56426 6.06751
#
# Compressibility (1/GPa) = 0.03129180
#
# Stress axis : x y z
#
# Youngs Moduli (GPa) = 96.90624 24.15485 73.63236
#
# Poissons Ratio (x) = 0.18454 0.18121
# Poissons Ratio (y) = 0.74035 0.50829
# Poissons Ratio (z) = 0.23849 0.16674
#
# Static dielectric constant tensor:
#      x y z
#    x 3.576500 0.000000 0.150130 
#    y 0.000000 2.998010 0.000000 
#    z 0.150130 0.000000 3.873650 
# 
# 
# High freq. dielectric constant tensor:
#      x y z
#    x 1.753530 0.000000 0.003630 
#    y 0.000000 1.691810 0.000000 
#    z 0.003630 0.000000 1.750720 
# 
# From -- ./inp_files/83588.got.cif
#   From: 2010.06.25/outbox.cif.g09.slc.cpg/sg10_42_cif.got.tgz:83588.got - 2010.06.27 22:07:45.
