data_PCOD8063586
_publ_section_title
;
Structure prediction by ZEFSAII (Michael W. Deem and Ramdas Pophale) SiO2 
 PCOD8063586
Probable space group: P 2/M
;
_chemical_formula_sum "Si O2"
_cell_formula_units_Z 32
_cell_length_a 18.729621
_cell_length_b 8.803094
_cell_length_c 12.592022
_cell_angle_alpha 90.000000
_cell_angle_beta 61.304343
_cell_angle_gamma 90.000000
_cell_volume 1821.167083
_symmetry_space_group_name_H-M "P 2/M"
_symmetry_group_IT_number 10
_symmetry_cell_setting 'monoclinic'
loop_
_space_group_symop_operation_xyz
x,y,z
-x,y,-z
-x,-y,-z
x,-y,z
loop_
_atom_site_type_symbol
_atom_site_label
_atom_site_fract_x
_atom_site_fract_y
_atom_site_fract_z
Si Si1 0.681809 0.180460 0.480727
Si Si2 0.156538 0.321842 0.247182
Si Si3 0.491216 0.176881 0.309507
Si Si4 0.445971 0.324307 0.938130
Si Si5 0.334061 0.822903 0.738215
Si Si6 0.006347 0.166480 0.620371
Si Si7 0.282192 0.819969 0.002179
Si Si8 0.182181 0.819271 0.455946
O O1 0.590580 0.230672 0.574249
O O2 0.700587 0.244908 0.348225
O O3 0.745431 0.245395 0.521635
O O4 0.688709 0.000000 0.474497
O O5 0.167040 0.500000 0.247536
O O6 0.206387 0.259087 0.112082
O O7 0.189044 0.251556 0.333963
O O8 0.062146 0.282346 0.290000
O O9 0.498734 0.279324 0.200520
O O10 0.568891 0.207485 0.329148
O O11 0.487347 0.000000 0.279359
O O12 0.420550 0.500000 0.950126
O O13 0.500000 0.286400 0.000000
O O14 0.364818 0.223305 0.004092
O O15 0.316948 0.000000 0.752096
O O16 0.289539 0.756576 0.875158
O O17 0.098028 0.227175 0.576235
O O18 0.000000 0.147564 0.500000
O O19 0.992664 0.000000 0.683070
O O20 0.270767 0.000000 0.014448
O O21 0.186357 0.000000 0.438216
#
# Coordination Sequence:
#
# PCOD8063586 Si02
#       8
#     4   4   4   4   4   4   4   4
#     4   9  16  28  50  77 100 124 160 206 250 288
#     4  11  21  32  50  74 101 130 162 199 242 296
#     4   9  17  29  48  73  96 128 168 203 239 286
#     4  10  21  34  46  65  99 135 163 201 246 284
#     4   8  15  29  49  73  98 124 162 210 247 279
#     4   8  15  30  49  70  99 129 160 198 241 289
#     4  10  20  34  53  73  94 126 168 205 241 287
#     4   9  18  31  49  76 104 130 159 198 246 294
#
# _framework density 17.571148999999998
#
# number of rings (size 3 to 8) (size 9 to 14) (size 15 to 20)
#    0.000    2.750    0.000    3.750    1.750    4.750 
#    0.000    0.000    0.000   11.250    0.000    5.250 
#    0.000    0.000    0.000    0.000    0.000    0.000 
#
# Total GULP energy -396592.981890 kJ/mol
# GULP energy per Si atom -12393.530684 kJ/mol
# Density = 1.753116 g / cm^3
# Si number density = 17.571149 Si / 1000 Ang^3
#
#
#
# Elastic Constant Matrix: (Units=GPa)
#
#
# Indices 1 2 3 4 5 6 
#
# 1 83.5328 19.0722 55.8028 0.0000 -12.7453 0.0000
# 2 19.0722 41.0765 23.8157 0.0000 -7.8729 0.0000
# 3 55.8028 23.8157 100.5647 0.0000 -20.4800 0.0000
# 4 0.0000 0.0000 0.0000 2.0802 0.0000 -3.6940
# 5 -12.7453 -7.8729 -20.4800 0.0000 19.3734 0.0000
# 6 0.0000 0.0000 0.0000 -3.6940 0.0000 11.7137
#
#
#
# Elastic Compliance Matrix: (Units=1/GPa)
#
#
# Indices 1 2 3 4 5 6 
#
# 1 0.019399 -0.003109 -0.009795 0.000000 0.001144 0.000000
# 2 -0.003109 0.029205 -0.004066 0.000000 0.005524 0.000000
# 3 -0.009795 -0.004066 0.018724 0.000000 0.011697 0.000000
# 4 0.000000 0.000000 0.000000 1.092533 0.000000 0.344537
# 5 0.001144 0.005524 0.011697 0.000000 0.066980 0.000000
# 6 0.000000 0.000000 0.000000 0.344537 0.000000 0.194022
#
#
# Mechanical properties :
#
#
# Convention : Reuss Voigt Hill
#
# Bulk Modulus (GPa) = 29.95109 46.95062 38.45085
# Shear Modulus (GPa) = 3.41080 15.06568 9.23824
#
# Velocity S-wave (km/s) = 1.39476 2.93133 2.29544
# Velocity P-wave (km/s) = 4.43581 6.18347 5.38106
#
# Compressibility (1/GPa) = 0.03338777
#
# Stress axis : x y z
#
# Youngs Moduli (GPa) = 51.54809 34.24118 53.40632
#
# Poissons Ratio (x) = 0.10645 0.52314
# Poissons Ratio (y) = 0.16025 0.21716
# Poissons Ratio (z) = 0.50493 0.13923
#
# Static dielectric constant tensor:
#      x y z
#    x 3.572910 0.000000 -0.061050 
#    y 0.000000 3.011190 0.000000 
#    z -0.061050 0.000000 3.514500 
# 
# 
# High freq. dielectric constant tensor:
#      x y z
#    x 1.669410 0.000000 -0.007730 
#    y 0.000000 1.652960 0.000000 
#    z -0.007730 0.000000 1.673750 
# 
# From -- ./inp_files/54765.got.cif
#   From: 2010.06.25/outbox.cif.g09.slc.cpg/sg10_28_cif.got.tgz:54765.got - 2010.06.27 22:07:45.
