data_PCOD8063568
_publ_section_title
;
Structure prediction by ZEFSAII (Michael W. Deem and Ramdas Pophale) SiO2 
 PCOD8063568
Probable space group: P 2/M
;
_chemical_formula_sum "Si O2"
_cell_formula_units_Z 28
_cell_length_a 13.657554
_cell_length_b 10.447111
_cell_length_c 10.485400
_cell_angle_alpha 90.000000
_cell_angle_beta 97.307918
_cell_angle_gamma 90.000000
_cell_volume 1483.924832
_symmetry_space_group_name_H-M "P 2/M"
_symmetry_group_IT_number 10
_symmetry_cell_setting 'monoclinic'
loop_
_space_group_symop_operation_xyz
x,y,z
-x,y,-z
-x,-y,-z
x,-y,z
loop_
_atom_site_type_symbol
_atom_site_label
_atom_site_fract_x
_atom_site_fract_y
_atom_site_fract_z
Si Si1 0.643626 0.645054 0.301892
Si Si2 0.290516 0.650919 0.956042
Si Si3 0.583801 0.859044 0.910931
Si Si4 0.735372 0.651878 0.570065
Si Si5 0.939013 0.350242 0.106984
Si Si6 0.957632 0.347609 0.625309
Si Si7 0.543096 0.770014 0.639623
O O1 0.672467 0.500000 0.283116
O O2 0.662899 0.707334 0.167449
O O3 0.718220 0.699089 0.421481
O O4 0.531560 0.655825 0.333206
O O5 0.313554 0.500000 0.987817
O O6 0.174946 0.678012 0.933282
O O7 0.337002 0.742738 0.071727
O O8 0.541259 0.866983 0.758861
O O9 0.629430 0.000000 0.947680
O O10 0.500000 0.827554 0.000000
O O11 0.721212 0.500000 0.578817
O O12 0.844416 0.695947 0.629082
O O13 0.654015 0.718088 0.645344
O O14 0.961093 0.500000 0.115836
O O15 0.977322 0.291782 0.247378
O O16 0.000000 0.288477 0.000000
O O17 0.962895 0.500000 0.619769
O O18 0.000000 0.290472 0.500000
O O19 0.500000 0.831805 0.500000
#
# Coordination Sequence:
#
# PCOD8063568 Si02
#       7
#     4   4   4   4   4   4   4
#     4   9  16  29  47  76 113 145 174 217 267 321
#     4  10  20  34  57  82 110 145 184 221 267 323
#     4  11  24  41  58  80 111 144 181 223 270 328
#     4   9  17  27  47  77 113 146 176 220 276 320
#     4   9  18  30  45  73 109 139 172 221 270 310
#     4   9  16  27  43  67 102 145 182 212 258 321
#     4  10  20  34  52  77 105 136 180 222 270 322
#
# _framework density 18.868880000000001
#
# number of rings (size 3 to 8) (size 9 to 14) (size 15 to 20)
#    0.000    2.429    1.429    1.286    2.000    6.857 
#    0.000    0.000    0.000    0.429    0.000    0.000 
#    0.000    2.286    0.000    0.000    0.000    0.000 
#
# Total GULP energy -346927.376757 kJ/mol
# GULP energy per Si atom -12390.263456 kJ/mol
# Density = 1.882593 g / cm^3
# Si number density = 18.868880 Si / 1000 Ang^3
#
#
#
# Elastic Constant Matrix: (Units=GPa)
#
#
# Indices 1 2 3 4 5 6 
#
# 1 112.4493 30.4111 54.9325 0.0000 0.8236 0.0000
# 2 30.4111 51.3645 30.6394 0.0000 9.8907 0.0000
# 3 54.9325 30.6394 139.8349 0.0000 -3.2593 0.0000
# 4 0.0000 0.0000 0.0000 4.5694 0.0000 0.5175
# 5 0.8236 9.8907 -3.2593 0.0000 31.6783 0.0000
# 6 0.0000 0.0000 0.0000 0.5175 0.0000 5.2816
#
#
#
# Elastic Compliance Matrix: (Units=1/GPa)
#
#
# Indices 1 2 3 4 5 6 
#
# 1 0.012029 -0.005172 -0.003570 0.000000 0.000935 0.000000
# 2 -0.005172 0.026559 -0.003987 0.000000 -0.008568 0.000000
# 3 -0.003570 -0.003987 0.009481 0.000000 0.002313 0.000000
# 4 0.000000 0.000000 0.000000 0.221305 0.000000 -0.021686
# 5 0.000935 -0.008568 0.002313 0.000000 0.034456 0.000000
# 6 0.000000 0.000000 0.000000 -0.021686 0.000000 0.191462
#
#
# Mechanical properties :
#
#
# Convention : Reuss Voigt Hill
#
# Bulk Modulus (GPa) = 44.22818 59.51274 51.87046
# Shear Modulus (GPa) = 9.46453 20.81691 15.14072
#
# Velocity S-wave (km/s) = 2.24206 3.32511 2.83577
# Velocity P-wave (km/s) = 5.49482 6.80812 6.18642
#
# Compressibility (1/GPa) = 0.02261002
#
# Stress axis : x y z
#
# Youngs Moduli (GPa) = 83.13252 37.65156 105.46910
#
# Poissons Ratio (x) = 0.19474 0.37656
# Poissons Ratio (y) = 0.42998 0.42054
# Poissons Ratio (z) = 0.29681 0.15013
#
# Static dielectric constant tensor:
#      x y z
#    x 3.436230 0.000000 -0.044940 
#    y 0.000000 2.812060 0.000000 
#    z -0.044940 0.000000 3.836450 
# 
# 
# High freq. dielectric constant tensor:
#      x y z
#    x 1.736340 0.000000 -0.004770 
#    y 0.000000 1.654150 0.000000 
#    z -0.004770 0.000000 1.755950 
# 
# From -- ./inp_files/46138.got.cif
#   From: 2010.06.25/outbox.cif.g09.slc.cpg/sg10_24_cif.got.tgz:46138.got - 2010.06.27 22:07:45.
