data_PCOD8064667
_publ_section_title
;
Structure prediction by ZEFSAII (Michael W. Deem and Ramdas Pophale) SiO2 
 PCOD8064667
Probable space group: P 2/M
;
_chemical_formula_sum "Si O2"
_cell_formula_units_Z 32
_cell_length_a 9.346438
_cell_length_b 13.933621
_cell_length_c 14.727514
_cell_angle_alpha 90.000000
_cell_angle_beta 54.886759
_cell_angle_gamma 90.000000
_cell_volume 1568.923603
_symmetry_space_group_name_H-M "P 2/M"
_symmetry_group_IT_number 10
_symmetry_cell_setting 'monoclinic'
loop_
_space_group_symop_operation_xyz
x,y,z
-x,y,-z
-x,-y,-z
x,-y,z
loop_
_atom_site_type_symbol
_atom_site_label
_atom_site_fract_x
_atom_site_fract_y
_atom_site_fract_z
Si Si1 0.276291 0.890688 0.271154
Si Si2 0.013395 0.393716 0.225460
Si Si3 0.152903 0.229317 0.805823
Si Si4 0.161108 0.108900 0.111069
Si Si5 0.192433 0.274514 0.427032
Si Si6 0.611471 0.223404 0.106551
Si Si7 0.358326 0.388019 0.214188
Si Si8 0.304767 0.693340 0.579026
O O1 0.176148 0.878039 0.213002
O O2 0.175701 0.826533 0.381017
O O3 0.474762 0.854861 0.191925
O O4 0.276414 0.000000 0.304395
O O5 0.029384 0.500000 0.178523
O O6 0.187296 0.366625 0.216994
O O7 0.986494 0.317866 0.153700
O O8 0.842237 0.389582 0.354302
O O9 0.246116 0.239579 0.867372
O O10 0.289271 0.233211 0.670941
O O11 0.038320 0.132339 0.845044
O O12 0.203489 0.000000 0.065786
O O13 0.299224 0.181093 0.015503
O O14 0.320467 0.350309 0.329921
O O15 0.265668 0.251468 0.499915
O O16 0.000000 0.321120 0.500000
O O17 0.519996 0.325579 0.115825
O O18 0.410359 0.500000 0.196313
O O19 0.500000 0.649718 0.500000
#
# Coordination Sequence:
#
# PCOD8064667 Si02
#       8
#     4   4   4   4   4   4   4   4
#     4  10  22  38  59  90 122 154 200 257 308 364
#     4   9  20  38  60  85 122 165 203 249 299 354
#     4  10  22  40  58  89 128 160 199 256 310 359
#     4  11  23  42  68  93 118 156 206 256 313 371
#     4  11  19  35  59  86 121 164 202 250 298 356
#     4  11  22  38  64  90 122 160 202 262 310 364
#     4  10  21  38  59  90 125 162 208 253 304 363
#     4  10  20  36  57  87 123 164 203 244 298 356
#
# _framework density 20.396149000000001
#
# number of rings (size 3 to 8) (size 9 to 14) (size 15 to 20)
#    0.750    1.000    1.250    4.875    0.000    4.250 
#    0.000    1.250    0.000   12.000    0.000    0.000 
#    0.000    0.000    0.000    0.000    0.000    0.000 
#
# Total GULP energy -396678.088052 kJ/mol
# GULP energy per Si atom -12396.190252 kJ/mol
# Density = 2.034973 g / cm^3
# Si number density = 20.396149 Si / 1000 Ang^3
#
#
#
# Elastic Constant Matrix: (Units=GPa)
#
#
# Indices 1 2 3 4 5 6 
#
# 1 95.5818 44.1792 10.3797 0.0000 3.8574 0.0000
# 2 44.1792 128.3773 30.7019 0.0000 1.0706 0.0000
# 3 10.3797 30.7019 38.1666 0.0000 0.3596 0.0000
# 4 0.0000 0.0000 0.0000 19.5309 0.0000 -2.9880
# 5 3.8574 1.0706 0.3596 0.0000 30.7700 0.0000
# 6 0.0000 0.0000 0.0000 -2.9880 0.0000 22.2208
#
#
#
# Elastic Compliance Matrix: (Units=1/GPa)
#
#
# Indices 1 2 3 4 5 6 
#
# 1 0.012503 -0.004310 0.000080 0.000000 -0.001418 0.000000
# 2 -0.004310 0.011133 -0.007785 0.000000 0.000244 0.000000
# 3 0.000080 -0.007785 0.032443 0.000000 -0.000118 0.000000
# 4 0.000000 0.000000 0.000000 0.052276 0.000000 0.007030
# 5 -0.001418 0.000244 -0.000118 0.000000 0.032670 0.000000
# 6 0.000000 0.000000 0.000000 0.007030 0.000000 0.045948
#
#
# Mechanical properties :
#
#
# Convention : Reuss Voigt Hill
#
# Bulk Modulus (GPa) = 31.20326 48.07193 39.63759
# Shear Modulus (GPa) = 22.55438 26.29532 24.42485
#
# Velocity S-wave (km/s) = 3.32899 3.59448 3.46428
# Velocity P-wave (km/s) = 5.48708 6.39119 5.95631
#
# Compressibility (1/GPa) = 0.03204794
#
# Stress axis : x y z
#
# Youngs Moduli (GPa) = 79.98118 89.82565 30.82328
#
# Poissons Ratio (x) = 0.38715 -0.00247
# Poissons Ratio (y) = 0.34472 0.23997
# Poissons Ratio (z) = -0.00641 0.69934
#
# Static dielectric constant tensor:
#      x y z
#    x 3.691380 0.000000 -0.079480 
#    y 0.000000 3.589530 0.000000 
#    z -0.079480 0.000000 3.628460 
# 
# 
# High freq. dielectric constant tensor:
#      x y z
#    x 1.804280 0.000000 -0.003170 
#    y 0.000000 1.780120 0.000000 
#    z -0.003170 0.000000 1.790360 
# 
# From -- ./inp_files/61833.got.cif
#   From: 2010.06.25/outbox.cif.g09.slc.cpg/sg10_31_cif.got.tgz:61833.got - 2010.06.27 22:07:45.
