data_PCOD8064338
_publ_section_title
;
Structure prediction by ZEFSAII (Michael W. Deem and Ramdas Pophale) SiO2 
 PCOD8064338
Probable space group: P 2/M
;
_chemical_formula_sum "Si O2"
_cell_formula_units_Z 32
_cell_length_a 29.355595
_cell_length_b 8.591142
_cell_length_c 12.147938
_cell_angle_alpha 90.000000
_cell_angle_beta 148.603009
_cell_angle_gamma 90.000000
_cell_volume 1596.072946
_symmetry_space_group_name_H-M "P 2/M"
_symmetry_group_IT_number 10
_symmetry_cell_setting 'monoclinic'
loop_
_space_group_symop_operation_xyz
x,y,z
-x,y,-z
-x,-y,-z
x,-y,z
loop_
_atom_site_type_symbol
_atom_site_label
_atom_site_fract_x
_atom_site_fract_y
_atom_site_fract_z
Si Si1 0.589283 0.318557 0.232539
Si Si2 0.641579 0.318675 0.981945
Si Si3 0.745212 0.685330 0.404765
Si Si4 0.068375 0.182612 0.234701
Si Si5 0.314846 0.178416 0.153601
Si Si6 0.968582 0.682299 0.602839
Si Si7 0.554213 0.317916 0.407110
Si Si8 0.120341 0.819954 0.787249
O O1 0.584759 0.500000 0.195064
O O2 0.676772 0.253499 0.355650
O O3 0.596998 0.285641 0.377402
O O4 0.500000 0.241822 0.000000
O O5 0.632126 0.500000 0.982293
O O6 0.681443 0.283757 0.946283
O O7 0.544041 0.249575 0.793796
O O8 0.707257 0.254524 0.209800
O O9 0.759536 0.500000 0.437960
O O10 0.836720 0.769549 0.614319
O O11 0.046402 0.268683 0.302861
O O12 0.063717 0.000000 0.247147
O O13 0.000000 0.234389 0.000000
O O14 0.392389 0.221131 0.394526
O O15 0.323877 0.000000 0.135781
O O16 0.222268 0.209927 0.021327
O O17 0.951431 0.500000 0.556923
O O18 0.901845 0.769245 0.383317
O O19 0.067278 0.721503 0.768286
O O20 0.557203 0.500000 0.444481
O O21 0.095271 0.000000 0.749464
#
# Coordination Sequence:
#
# PCOD8064338 Si02
#       8
#     4   4   4   4   4   4   4   4
#     4   9  16  33  60  87 115 145 185 235 289 345
#     4  10  20  35  57  84 114 149 191 237 288 344
#     4  10  20  36  63  93 116 146 192 246 294 345
#     4  11  25  43  60  82 119 163 198 237 295 362
#     4  11  24  37  52  79 116 155 193 234 281 338
#     4  11  22  38  64  92 115 143 192 251 295 342
#     4  10  20  35  57  83 113 152 191 234 287 343
#     4  10  21  39  61  85 118 159 193 230 291 360
#
# _framework density 20.049209999999999
#
# number of rings (size 3 to 8) (size 9 to 14) (size 15 to 20)
#    0.000    1.750    1.250    4.125    0.000    8.500 
#    0.000    3.125    0.000    0.750    0.000    0.000 
#    0.000    0.000    0.000    0.000    0.000    0.000 
#
# Total GULP energy -396857.534284 kJ/mol
# GULP energy per Si atom -12401.797946 kJ/mol
# Density = 2.000358 g / cm^3
# Si number density = 20.049210 Si / 1000 Ang^3
#
#
#
# Elastic Constant Matrix: (Units=GPa)
#
#
# Indices 1 2 3 4 5 6 
#
# 1 106.5249 11.2844 35.4025 0.0000 11.8906 0.0000
# 2 11.2844 33.9562 17.9806 0.0000 4.1980 0.0000
# 3 35.4025 17.9806 114.2255 0.0000 23.3697 0.0000
# 4 0.0000 0.0000 0.0000 16.8009 0.0000 5.8180
# 5 11.8906 4.1980 23.3697 0.0000 27.7571 0.0000
# 6 0.0000 0.0000 0.0000 5.8180 0.0000 14.8848
#
#
#
# Elastic Compliance Matrix: (Units=1/GPa)
#
#
# Indices 1 2 3 4 5 6 
#
# 1 0.010684 -0.001925 -0.002575 0.000000 -0.002118 0.000000
# 2 -0.001925 0.032487 -0.004447 0.000000 -0.000345 0.000000
# 3 -0.002575 -0.004447 0.011947 0.000000 -0.008283 0.000000
# 4 0.000000 0.000000 0.000000 0.068838 0.000000 -0.026906
# 5 -0.002118 -0.000345 -0.008283 0.000000 0.043960 0.000000
# 6 0.000000 0.000000 0.000000 -0.026906 0.000000 0.077699
#
#
# Mechanical properties :
#
#
# Convention : Reuss Voigt Hill
#
# Bulk Modulus (GPa) = 26.86422 42.67129 34.76775
# Shear Modulus (GPa) = 18.12145 24.55784 21.33964
#
# Velocity S-wave (km/s) = 3.00967 3.50362 3.26600
# Velocity P-wave (km/s) = 5.05032 6.13976 5.62149
#
# Compressibility (1/GPa) = 0.03722424
#
# Stress axis : x y z
#
# Youngs Moduli (GPa) = 93.60201 30.78184 83.70069
#
# Poissons Ratio (x) = 0.05926 0.21552
# Poissons Ratio (y) = 0.18019 0.37218
# Poissons Ratio (z) = 0.24102 0.13688
#
# Static dielectric constant tensor:
#      x y z
#    x 3.760950 0.000000 0.137430 
#    y 0.000000 3.443480 0.000000 
#    z 0.137430 0.000000 3.719070 
# 
# 
# High freq. dielectric constant tensor:
#      x y z
#    x 1.792870 0.000000 0.008600 
#    y 0.000000 1.762840 0.000000 
#    z 0.008600 0.000000 1.787440 
# 
# From -- ./inp_files/58243.got.cif
#   From: 2010.06.25/outbox.cif.g09.slc.cpg/sg10_30_cif.got.tgz:58243.got - 2010.06.27 22:07:45.
