data_PCOD8064199
_publ_section_title
;
Structure prediction by ZEFSAII (Michael W. Deem and Ramdas Pophale) SiO2 
 PCOD8064199
Probable space group: P 2/M
;
_chemical_formula_sum "Si O2"
_cell_formula_units_Z 32
_cell_length_a 6.951748
_cell_length_b 8.965199
_cell_length_c 27.900213
_cell_angle_alpha 90.000000
_cell_angle_beta 90.000263
_cell_angle_gamma 90.000000
_cell_volume 1738.847413
_symmetry_space_group_name_H-M "P 2/M"
_symmetry_group_IT_number 10
_symmetry_cell_setting 'monoclinic'
loop_
_space_group_symop_operation_xyz
x,y,z
-x,y,-z
-x,-y,-z
x,-y,z
loop_
_atom_site_type_symbol
_atom_site_label
_atom_site_fract_x
_atom_site_fract_y
_atom_site_fract_z
Si Si1 0.525047 0.326854 0.299674
Si Si2 0.545727 0.327121 0.053641
Si Si3 0.474949 0.173144 0.799673
Si Si4 0.237212 0.326647 0.133394
Si Si5 0.834385 0.827268 0.119226
Si Si6 0.762789 0.173354 0.633394
Si Si7 0.454271 0.172880 0.553641
Si Si8 0.165617 0.672733 0.619226
O O1 0.485735 0.500000 0.291243
O O2 0.578188 0.250009 0.249999
O O3 0.332151 0.256304 0.321563
O O4 0.704366 0.298065 0.334368
O O5 0.606318 0.500000 0.055640
O O6 0.357499 0.295947 0.085301
O O7 0.724033 0.229774 0.072115
O O8 0.500000 0.275014 0.000000
O O9 0.667845 0.243685 0.821566
O O10 0.295628 0.201925 0.834367
O O11 0.514257 0.000000 0.791236
O O12 0.227805 0.500000 0.146047
O O13 0.025874 0.266154 0.125268
O O14 0.885057 0.000000 0.112548
O O15 0.642494 0.204061 0.585303
O O16 0.974124 0.233851 0.625268
O O17 0.772205 0.000000 0.646044
O O18 0.500000 0.224985 0.500000
O O19 0.275960 0.270225 0.572113
O O20 0.393685 0.000000 0.555641
O O21 0.114951 0.500000 0.612550
#
# Coordination Sequence:
#
# PCOD8064199 Si02
#       8
#     4   4   4   4   4   4   4   4
#     4  10  21  37  56  78 105 137 174 216 261 310
#     4   9  19  36  56  78 105 139 180 222 264 314
#     4  10  21  37  56  78 105 137 174 216 261 310
#     4  10  20  35  56  79 106 140 176 217 263 312
#     4  10  21  36  54  78 109 141 175 218 265 316
#     4  10  20  35  56  79 106 140 176 217 263 312
#     4   9  19  36  56  78 105 139 180 222 264 314
#     4  10  21  36  54  78 109 141 175 218 265 316
#
# _framework density 18.402996000000002
#
# number of rings (size 3 to 8) (size 9 to 14) (size 15 to 20)
#    0.000    2.250    0.000    2.250    0.000    6.500 
#    0.000    7.500    0.000    0.000    0.000    0.000 
#    0.000    0.000    0.000    0.000    0.000    0.000 
#
# Total GULP energy -396964.677402 kJ/mol
# GULP energy per Si atom -12405.146169 kJ/mol
# Density = 1.836111 g / cm^3
# Si number density = 18.402996 Si / 1000 Ang^3
#
#
#
# Elastic Constant Matrix: (Units=GPa)
#
#
# Indices 1 2 3 4 5 6 
#
# 1 104.0704 53.2810 23.9739 0.0000 -0.0003 0.0000
# 2 53.2810 105.5188 46.9205 0.0000 -0.0014 0.0000
# 3 23.9739 46.9205 105.4145 0.0000 0.0004 0.0000
# 4 0.0000 0.0000 0.0000 32.1910 0.0000 0.0001
# 5 -0.0003 -0.0014 0.0004 0.0000 12.4120 0.0000
# 6 0.0000 0.0000 0.0000 0.0001 0.0000 36.8742
#
#
#
# Elastic Compliance Matrix: (Units=1/GPa)
#
#
# Indices 1 2 3 4 5 6 
#
# 1 0.012959 -0.006524 -0.000043 0.000000 0.000000 0.000000
# 2 -0.006524 0.015100 -0.005237 0.000000 0.000002 0.000000
# 3 -0.000043 -0.005237 0.011827 0.000000 -0.000001 0.000000
# 4 0.000000 0.000000 0.000000 0.031065 0.000000 0.000000
# 5 0.000000 0.000002 -0.000001 0.000000 0.080567 0.000000
# 6 0.000000 0.000000 0.000000 0.000000 0.000000 0.027119
#
#
# Mechanical properties :
#
#
# Convention : Reuss Voigt Hill
#
# Bulk Modulus (GPa) = 61.43709 62.59496 62.01603
# Shear Modulus (GPa) = 24.07624 29.01733 26.54679
#
# Velocity S-wave (km/s) = 3.62094 3.97517 3.80218
# Velocity P-wave (km/s) = 7.13711 7.42675 7.28337
#
# Compressibility (1/GPa) = 0.01627681
#
# Stress axis : x y z
#
# Youngs Moduli (GPa) = 77.16562 66.22368 84.54959
#
# Poissons Ratio (x) = 0.43207 0.00365
# Poissons Ratio (y) = 0.50346 0.44282
# Poissons Ratio (z) = 0.00333 0.34684
#
# Static dielectric constant tensor:
#      x y z
#    x 3.304220 0.000000 -0.000010 
#    y 0.000000 3.520220 0.000000 
#    z -0.000010 0.000000 3.456340 
# 
# 
# High freq. dielectric constant tensor:
#      x y z
#    x 1.714000 0.000000 0.000000 
#    y 0.000000 1.726930 0.000000 
#    z 0.000000 0.000000 1.715710 
# 
# From -- ./inp_files/94330.got.cif
#   From: 2010.06.25/outbox.cif.g09.slc.cpg/sg10_48_cif.got.tgz:94330.got - 2010.06.27 22:07:45.
