data_PCOD8064251
_publ_section_title
;
Structure prediction by ZEFSAII (Michael W. Deem and Ramdas Pophale) SiO2 
 PCOD8064251
Probable space group: P 2/M
;
_chemical_formula_sum "Si O2"
_cell_formula_units_Z 28
_cell_length_a 13.709820
_cell_length_b 9.153260
_cell_length_c 12.526430
_cell_angle_alpha 90.000000
_cell_angle_beta 125.975926
_cell_angle_gamma 90.000000
_cell_volume 1272.111068
_symmetry_space_group_name_H-M "P 2/M"
_symmetry_group_IT_number 10
_symmetry_cell_setting 'monoclinic'
loop_
_space_group_symop_operation_xyz
x,y,z
-x,y,-z
-x,-y,-z
x,-y,z
loop_
_atom_site_type_symbol
_atom_site_label
_atom_site_fract_x
_atom_site_fract_y
_atom_site_fract_z
Si Si1 0.473156 0.829521 0.668284
Si Si2 0.798021 0.832720 0.487690
Si Si3 0.296464 0.669714 0.217587
Si Si4 0.185250 0.340603 0.703480
Si Si5 0.535506 0.338784 0.136945
Si Si6 0.093321 0.169409 0.218691
Si Si7 0.855003 0.330031 0.082371
O O1 0.335305 0.775861 0.560000
O O2 0.574551 0.741769 0.666392
O O3 0.508345 0.786383 0.811542
O O4 0.490562 0.000000 0.656516
O O5 0.861288 0.758276 0.425035
O O6 0.890103 0.810109 0.643467
O O7 0.779423 0.000000 0.443310
O O8 0.302612 0.500000 0.250712
O O9 0.197038 0.744707 0.225983
O O10 0.260247 0.693667 0.069126
O O11 0.121989 0.500000 0.657679
O O12 0.323698 0.359896 0.766474
O O13 0.171211 0.273584 0.813626
O O14 0.475394 0.500000 0.121764
O O15 0.500000 0.278345 0.000000
O O16 0.964815 0.236743 0.104267
O O17 0.097821 0.000000 0.188578
O O18 0.891748 0.500000 0.107393
#
# Coordination Sequence:
#
# PCOD8064251 Si02
#       7
#     4   4   4   4   4   4   4
#     4  10  20  35  56  82 113 148 187 231 280 336
#     4   9  21  40  58  82 118 154 186 228 284 335
#     4  11  23  40  61  85 115 149 187 234 288 340
#     4   9  18  33  56  83 111 146 188 231 275 333
#     4   9  16  29  50  77 111 149 186 227 279 334
#     4  11  24  41  60  82 112 151 194 238 281 331
#     4  10  22  40  60  85 116 149 186 233 288 336
#
# _framework density 22.010656999999998
#
# number of rings (size 3 to 8) (size 9 to 14) (size 15 to 20)
#    0.000    2.143    0.000    2.571    0.000    8.857 
#    0.000    8.571    0.000    0.000    0.000    0.000 
#    0.000    0.000    0.000    0.000    0.000    0.000 
#
# Total GULP energy -347005.592098 kJ/mol
# GULP energy per Si atom -12393.056861 kJ/mol
# Density = 2.196056 g / cm^3
# Si number density = 22.010657 Si / 1000 Ang^3
#
#
#
# Elastic Constant Matrix: (Units=GPa)
#
#
# Indices 1 2 3 4 5 6 
#
# 1 61.6386 27.1852 -12.7676 0.0000 -0.9080 0.0000
# 2 27.1852 84.4707 11.6349 0.0000 2.3464 0.0000
# 3 -12.7676 11.6349 38.0793 0.0000 0.6659 0.0000
# 4 0.0000 0.0000 0.0000 29.9647 0.0000 -3.6720
# 5 -0.9080 2.3464 0.6659 0.0000 32.6055 0.0000
# 6 0.0000 0.0000 0.0000 -3.6720 0.0000 33.6293
#
#
#
# Elastic Compliance Matrix: (Units=1/GPa)
#
#
# Indices 1 2 3 4 5 6 
#
# 1 0.022053 -0.008499 0.009973 0.000000 0.001022 0.000000
# 2 -0.008499 0.015656 -0.007612 0.000000 -0.001208 0.000000
# 3 0.009973 -0.007612 0.031928 0.000000 0.000174 0.000000
# 4 0.000000 0.000000 0.000000 0.033825 0.000000 0.003693
# 5 0.001022 -0.001208 0.000174 0.000000 0.030782 0.000000
# 6 0.000000 0.000000 0.000000 0.003693 0.000000 0.030139
#
#
# Mechanical properties :
#
#
# Convention : Reuss Voigt Hill
#
# Bulk Modulus (GPa) = 17.43377 26.25485 21.84431
# Shear Modulus (GPa) = 25.53893 29.78231 27.66062
#
# Velocity S-wave (km/s) = 3.41001 3.68242 3.54883
# Velocity P-wave (km/s) = 4.84170 5.48037 5.17090
#
# Compressibility (1/GPa) = 0.05735994
#
# Stress axis : x y z
#
# Youngs Moduli (GPa) = 45.34504 63.87381 31.32070
#
# Poissons Ratio (x) = 0.54289 -0.31237
# Poissons Ratio (y) = 0.38541 0.23842
# Poissons Ratio (z) = -0.45224 0.48622
#
# Static dielectric constant tensor:
#      x y z
#    x 3.775310 0.000000 0.625080 
#    y 0.000000 4.035650 0.000000 
#    z 0.625080 0.000000 1.793740 
# 
# 
# High freq. dielectric constant tensor:
#      x y z
#    x 1.869060 0.000000 0.000540 
#    y 0.000000 1.852740 0.000000 
#    z 0.000540 0.000000 1.862100 
# 
# From -- ./inp_files/50092.got.cif
#   From: 2010.06.25/outbox.cif.g09.slc.cpg/sg10_26_cif.got.tgz:50092.got - 2010.06.27 22:07:45.
