data_PCOD8064650
_publ_section_title
;
Structure prediction by ZEFSAII (Michael W. Deem and Ramdas Pophale) SiO2 
 PCOD8064650
Probable space group: P 2/M
;
_chemical_formula_sum "Si O2"
_cell_formula_units_Z 28
_cell_length_a 15.245306
_cell_length_b 8.841114
_cell_length_c 14.908511
_cell_angle_alpha 90.000000
_cell_angle_beta 49.329887
_cell_angle_gamma 90.000000
_cell_volume 1524.117062
_symmetry_space_group_name_H-M "P 2/M"
_symmetry_group_IT_number 10
_symmetry_cell_setting 'monoclinic'
loop_
_space_group_symop_operation_xyz
x,y,z
-x,y,-z
-x,-y,-z
x,-y,z
loop_
_atom_site_type_symbol
_atom_site_label
_atom_site_fract_x
_atom_site_fract_y
_atom_site_fract_z
Si Si1 0.475324 0.671523 0.209209
Si Si2 0.274566 0.323312 0.905727
Si Si3 0.114788 0.821432 0.875246
Si Si4 0.243345 0.671383 0.443865
Si Si5 0.284348 0.178580 0.241299
Si Si6 0.152274 0.322821 0.170464
Si Si7 0.089138 0.821349 0.688674
O O1 0.493220 0.500000 0.161710
O O2 0.597477 0.741385 0.158338
O O3 0.384290 0.672683 0.353528
O O4 0.418894 0.771670 0.166504
O O5 0.282213 0.500000 0.881181
O O6 0.228142 0.244069 0.847386
O O7 0.189038 0.285567 0.044506
O O8 0.114717 0.767489 0.772616
O O9 0.119131 0.000000 0.880364
O O10 0.000000 0.756899 0.000000
O O11 0.195226 0.500000 0.480728
O O12 0.206141 0.747243 0.373282
O O13 0.196672 0.769898 0.556969
O O14 0.243313 0.240802 0.173686
O O15 0.271429 0.000000 0.252976
O O16 0.154504 0.500000 0.189318
O O17 0.025284 0.258138 0.272717
O O18 0.071981 0.000000 0.694451
#
# Coordination Sequence:
#
# PCOD8064650 Si02
#       7
#     4   4   4   4   4   4   4
#     4   8  18  38  58  80 112 148 186 232 278 321
#     4  10  21  37  60  85 112 147 191 234 274 329
#     4  10  21  38  57  82 116 150 180 225 285 335
#     4   9  19  38  60  80 112 149 186 231 278 327
#     4  10  20  36  57  83 114 149 188 227 276 334
#     4  11  22  35  55  85 115 149 189 230 280 331
#     4  11  22  37  58  83 115 147 186 232 279 334
#
# _framework density 18.371290999999999
#
# number of rings (size 3 to 8) (size 9 to 14) (size 15 to 20)
#    0.857    1.286    1.429    2.143    0.000    3.714 
#    0.000    6.429    0.000    4.286    0.000    0.000 
#    0.000    0.000    0.000    0.000    0.000    0.000 
#
# Total GULP energy -347120.243403 kJ/mol
# GULP energy per Si atom -12397.151550 kJ/mol
# Density = 1.832948 g / cm^3
# Si number density = 18.371291 Si / 1000 Ang^3
#
#
#
# Elastic Constant Matrix: (Units=GPa)
#
#
# Indices 1 2 3 4 5 6 
#
# 1 114.8247 40.0369 17.2672 0.0000 1.5074 0.0000
# 2 40.0369 78.9072 20.8738 0.0000 4.2179 0.0000
# 3 17.2672 20.8738 38.9382 0.0000 -4.4221 0.0000
# 4 0.0000 0.0000 0.0000 23.6593 0.0000 4.3741
# 5 1.5074 4.2179 -4.4221 0.0000 25.2352 0.0000
# 6 0.0000 0.0000 0.0000 4.3741 0.0000 33.2891
#
#
#
# Elastic Compliance Matrix: (Units=1/GPa)
#
#
# Indices 1 2 3 4 5 6 
#
# 1 0.010733 -0.004858 -0.002179 0.000000 -0.000211 0.000000
# 2 -0.004858 0.017359 -0.007599 0.000000 -0.003943 0.000000
# 3 -0.002179 -0.007599 0.031508 0.000000 0.006922 0.000000
# 4 0.000000 0.000000 0.000000 0.043319 0.000000 -0.005692
# 5 -0.000211 -0.003943 0.006922 0.000000 0.041512 0.000000
# 6 0.000000 0.000000 0.000000 -0.005692 0.000000 0.030788
#
#
# Mechanical properties :
#
#
# Convention : Reuss Voigt Hill
#
# Bulk Modulus (GPa) = 32.97393 43.22508 38.09951
# Shear Modulus (GPa) = 23.29899 26.73622 25.01760
#
# Velocity S-wave (km/s) = 3.56508 3.81901 3.69423
# Velocity P-wave (km/s) = 5.91050 6.55943 6.24340
#
# Compressibility (1/GPa) = 0.03032698
#
# Stress axis : x y z
#
# Youngs Moduli (GPa) = 93.16726 57.60643 31.73801
#
# Poissons Ratio (x) = 0.27987 0.06917
# Poissons Ratio (y) = 0.45263 0.24118
# Poissons Ratio (z) = 0.20304 0.43776
#
# Static dielectric constant tensor:
#      x y z
#    x 3.316970 0.000000 -0.033830 
#    y 0.000000 3.298290 0.000000 
#    z -0.033830 0.000000 3.277860 
# 
# 
# High freq. dielectric constant tensor:
#      x y z
#    x 1.705680 0.000000 -0.001600 
#    y 0.000000 1.715480 0.000000 
#    z -0.001600 0.000000 1.700440 
# 
# From -- ./inp_files/66404.got.cif
#   From: 2010.06.25/outbox.cif.g09.slc.cpg/sg10_34_cif.got.tgz:66404.got - 2010.06.27 22:07:45.
