data_PCOD8064695
_publ_section_title
;
Structure prediction by ZEFSAII (Michael W. Deem and Ramdas Pophale) SiO2 
 PCOD8064695
Probable space group: P 2/M
;
_chemical_formula_sum "Si O2"
_cell_formula_units_Z 28
_cell_length_a 8.938360
_cell_length_b 9.167966
_cell_length_c 24.928909
_cell_angle_alpha 90.000000
_cell_angle_beta 45.000046
_cell_angle_gamma 90.000000
_cell_volume 1444.506363
_symmetry_space_group_name_H-M "P 2/M"
_symmetry_group_IT_number 10
_symmetry_cell_setting 'monoclinic'
loop_
_space_group_symop_operation_xyz
x,y,z
-x,y,-z
-x,-y,-z
x,-y,z
loop_
_atom_site_type_symbol
_atom_site_label
_atom_site_fract_x
_atom_site_fract_y
_atom_site_fract_z
Si Si1 0.705403 0.329859 0.479860
Si Si2 0.402078 0.668141 0.371214
Si Si3 0.239088 0.168581 0.205663
Si Si4 0.659389 0.327680 0.078215
Si Si5 0.111381 0.328481 0.769467
Si Si6 0.129829 0.831847 0.353165
Si Si7 0.031827 0.328212 0.908485
O O1 0.500000 0.274490 0.500000
O O2 0.742188 0.500000 0.459664
O O3 0.680413 0.296076 0.548800
O O4 0.904252 0.245001 0.406268
O O5 0.362596 0.500000 0.366212
O O6 0.647638 0.707301 0.305412
O O7 0.272727 0.765283 0.363158
O O8 0.440093 0.244185 0.127298
O O9 0.251339 0.189773 0.266392
O O10 0.027237 0.243791 0.238373
O O11 0.236089 0.000000 0.190054
O O12 0.615305 0.500000 0.092412
O O13 0.782137 0.269282 0.099935
O O14 0.801462 0.287905 0.990276
O O15 0.062902 0.500000 0.777547
O O16 0.057912 0.265419 0.842184
O O17 0.091114 0.000000 0.376210
O O18 0.059359 0.500000 0.900400
#
# Coordination Sequence:
#
# PCOD8064695 Si02
#       7
#     4   4   4   4   4   4   4
#     4  10  21  38  60  86 114 141 175 222 270 316
#     4  10  21  37  60  87 110 137 179 226 268 316
#     4  11  24  38  51  76 112 146 183 224 267 318
#     4   9  17  34  59  82 106 139 178 222 271 321
#     4  10  20  36  58  82 108 141 180 222 271 322
#     4  11  24  39  56  79 110 148 185 221 265 320
#     4   8  16  32  57  86 108 132 177 228 268 317
#
# _framework density 19.383785
#
# number of rings (size 3 to 8) (size 9 to 14) (size 15 to 20)
#    0.000    2.143    0.000    3.857    0.000    8.286 
#    0.000    5.714    0.000    0.000    0.000    0.000 
#    0.000    0.000    0.000    0.000    0.000    0.000 
#
# Total GULP energy -347283.996501 kJ/mol
# GULP energy per Si atom -12402.999875 kJ/mol
# Density = 1.933967 g / cm^3
# Si number density = 19.383785 Si / 1000 Ang^3
#
#
#
# Elastic Constant Matrix: (Units=GPa)
#
#
# Indices 1 2 3 4 5 6 
#
# 1 69.6004 34.5920 6.3540 0.0000 -13.2181 0.0000
# 2 34.5920 67.1957 33.1254 0.0000 -12.2215 0.0000
# 3 6.3540 33.1254 78.9527 0.0000 -16.7410 0.0000
# 4 0.0000 0.0000 0.0000 4.0452 0.0000 21.3634
# 5 -13.2181 -12.2215 -16.7410 0.0000 31.6719 0.0000
# 6 0.0000 0.0000 0.0000 21.3634 0.0000 1.6257
#
#
#
# Elastic Compliance Matrix: (Units=1/GPa)
#
#
# Indices 1 2 3 4 5 6 
#
# 1 0.021192 -0.012039 0.004771 0.000000 0.006720 0.000000
# 2 -0.012039 0.025946 -0.009978 0.000000 -0.000286 0.000000
# 3 0.004771 -0.009978 0.018103 0.000000 0.007709 0.000000
# 4 0.000000 0.000000 0.000000 -0.003614 0.000000 0.047493
# 5 0.006720 -0.000286 0.007709 0.000000 0.038343 0.000000
# 6 0.000000 0.000000 0.000000 0.047493 0.000000 -0.008993
#
#
# Mechanical properties :
#
#
# Convention : Reuss Voigt Hill
#
# Bulk Modulus (GPa) = 32.52184 40.43239 36.47711
# Shear Modulus (GPa) = 36.84086 16.91371 26.87728
#
# Velocity S-wave (km/s) = 4.36432 2.95713 3.72773
# Velocity P-wave (km/s) = 6.49697 5.70646 6.11450
#
# Compressibility (1/GPa) = 0.03074857
#
# Stress axis : x y z
#
# Youngs Moduli (GPa) = 47.18771 38.54136 55.23985
#
# Poissons Ratio (x) = 0.46400 -0.26352
# Poissons Ratio (y) = 0.56809 0.55117
# Poissons Ratio (z) = -0.22511 0.38456
#
# Static dielectric constant tensor:
#      x y z
#    x 3.617930 0.000000 0.120010 
#    y 0.000000 3.309730 0.000000 
#    z 0.120010 0.000000 3.736780 
# 
# 
# High freq. dielectric constant tensor:
#      x y z
#    x 1.761600 0.000000 -0.000220 
#    y 0.000000 1.730370 0.000000 
#    z -0.000220 0.000000 1.769560 
# 
# From -- ./inp_files/37128.got.cif
#   From: 2010.06.25/outbox.cif.g09.slc.cpg/sg10_19_cif.got.tgz:37128.got - 2010.06.27 22:07:45.
