data_PCOD8064032
_publ_section_title
;
Structure prediction by ZEFSAII (Michael W. Deem and Ramdas Pophale) SiO2 
 PCOD8064032
Probable space group: P 2/M
;
_chemical_formula_sum "Si O2"
_cell_formula_units_Z 28
_cell_length_a 14.065543
_cell_length_b 8.933825
_cell_length_c 12.353429
_cell_angle_alpha 90.000000
_cell_angle_beta 77.123257
_cell_angle_gamma 90.000000
_cell_volume 1513.282590
_symmetry_space_group_name_H-M "P 2/M"
_symmetry_group_IT_number 10
_symmetry_cell_setting 'monoclinic'
loop_
_space_group_symop_operation_xyz
x,y,z
-x,y,-z
-x,-y,-z
x,-y,z
loop_
_atom_site_type_symbol
_atom_site_label
_atom_site_fract_x
_atom_site_fract_y
_atom_site_fract_z
Si Si1 0.808999 0.176604 0.445706
Si Si2 0.999687 0.326806 0.669104
Si Si3 0.931969 0.326951 0.109905
Si Si4 0.216821 0.676030 0.333325
Si Si5 0.579406 0.176634 0.110348
Si Si6 0.379112 0.321848 0.120817
Si Si7 0.746209 0.826218 0.228143
O O1 0.920521 0.234741 0.418763
O O2 0.751674 0.245203 0.562540
O O3 0.753137 0.231345 0.350666
O O4 0.809018 0.000000 0.455764
O O5 0.013794 0.500000 0.634667
O O6 0.013507 0.297980 0.791969
O O7 0.891807 0.269890 0.668754
O O8 0.913708 0.500000 0.090705
O O9 0.826847 0.251006 0.133050
O O10 0.000000 0.255841 0.000000
O O11 0.222234 0.500000 0.349394
O O12 0.289006 0.725468 0.219212
O O13 0.476988 0.259986 0.152106
O O14 0.641012 0.209229 0.203484
O O15 0.563342 0.000000 0.096656
O O16 0.635333 0.244054 0.991984
O O17 0.386690 0.500000 0.103955
O O18 0.770116 0.000000 0.219647
#
# Coordination Sequence:
#
# PCOD8064032 Si02
#       7
#     4   4   4   4   4   4   4
#     4  10  20  35  53  76 105 137 178 218 252 302
#     4   9  18  33  50  72 105 142 173 209 257 306
#     4   9  18  30  49  76 104 135 175 214 251 304
#     4  10  21  35  53  76 106 139 173 213 261 309
#     4  10  20  37  58  78 105 138 172 211 263 319
#     4  10  21  36  56  82 107 133 170 218 264 308
#     4   9  20  36  53  74 103 140 173 209 261 310
#
# _framework density 18.502821000000001
#
# number of rings (size 3 to 8) (size 9 to 14) (size 15 to 20)
#    0.000    2.429    0.000    2.571    2.000    5.429 
#    0.000    0.714    0.000    4.286    0.000    0.000 
#    0.000    0.000    0.000    0.000    0.000    0.000 
#
# Total GULP energy -347207.955344 kJ/mol
# GULP energy per Si atom -12400.284119 kJ/mol
# Density = 1.846071 g / cm^3
# Si number density = 18.502821 Si / 1000 Ang^3
#
#
#
# Elastic Constant Matrix: (Units=GPa)
#
#
# Indices 1 2 3 4 5 6 
#
# 1 93.8591 29.5124 47.6994 0.0000 8.4563 0.0000
# 2 29.5124 50.1135 33.0586 0.0000 -0.8952 0.0000
# 3 47.6994 33.0586 97.4991 0.0000 -7.9526 0.0000
# 4 0.0000 0.0000 0.0000 14.6157 0.0000 10.9554
# 5 8.4563 -0.8952 -7.9526 0.0000 21.1820 0.0000
# 6 0.0000 0.0000 0.0000 10.9554 0.0000 16.3499
#
#
#
# Elastic Compliance Matrix: (Units=1/GPa)
#
#
# Indices 1 2 3 4 5 6 
#
# 1 0.016886 -0.005341 -0.007240 0.000000 -0.009685 0.000000
# 2 -0.005341 0.027498 -0.006645 0.000000 0.000799 0.000000
# 3 -0.007240 -0.006645 0.016778 0.000000 0.008909 0.000000
# 4 0.000000 0.000000 0.000000 0.137457 0.000000 -0.092105
# 5 -0.009685 0.000799 0.008909 0.000000 0.054455 0.000000
# 6 0.000000 0.000000 0.000000 -0.092105 0.000000 0.122878
#
#
# Mechanical properties :
#
#
# Convention : Reuss Voigt Hill
#
# Bulk Modulus (GPa) = 44.03494 51.33474 47.68484
# Shear Modulus (GPa) = 11.84903 19.17627 15.51265
#
# Velocity S-wave (km/s) = 2.53334 3.22280 2.89864
# Velocity P-wave (km/s) = 5.69278 6.45392 6.08527
#
# Compressibility (1/GPa) = 0.02270924
#
# Stress axis : x y z
#
# Youngs Moduli (GPa) = 59.22202 36.36585 59.60051
#
# Poissons Ratio (x) = 0.19424 0.43150
# Poissons Ratio (y) = 0.31631 0.39607
# Poissons Ratio (z) = 0.42876 0.24167
#
# Static dielectric constant tensor:
#      x y z
#    x 3.427010 0.000000 0.058190 
#    y 0.000000 3.357550 0.000000 
#    z 0.058190 0.000000 3.567540 
# 
# 
# High freq. dielectric constant tensor:
#      x y z
#    x 1.708960 0.000000 0.008640 
#    y 0.000000 1.715690 0.000000 
#    z 0.008640 0.000000 1.722580 
# 
# From -- ./inp_files/49186.got.cif
#   From: 2010.06.25/outbox.cif.g09.slc.cpg/sg10_25_cif.got.tgz:49186.got - 2010.06.27 22:07:45.
