data_PCOD8064351
_publ_section_title
;
Structure prediction by ZEFSAII (Michael W. Deem and Ramdas Pophale) SiO2 
 PCOD8064351
Probable space group: P 2/M
;
_chemical_formula_sum "Si O2"
_cell_formula_units_Z 28
_cell_length_a 13.635078
_cell_length_b 8.700196
_cell_length_c 13.631231
_cell_angle_alpha 90.000000
_cell_angle_beta 60.167712
_cell_angle_gamma 90.000000
_cell_volume 1402.761515
_symmetry_space_group_name_H-M "P 2/M"
_symmetry_group_IT_number 10
_symmetry_cell_setting 'monoclinic'
loop_
_space_group_symop_operation_xyz
x,y,z
-x,y,-z
-x,-y,-z
x,-y,z
loop_
_atom_site_type_symbol
_atom_site_label
_atom_site_fract_x
_atom_site_fract_y
_atom_site_fract_z
Si Si1 0.168289 0.181544 0.668698
Si Si2 0.396910 0.322648 0.484827
Si Si3 0.976074 0.182739 0.620228
Si Si4 0.554859 0.322756 0.764956
Si Si5 0.732479 0.180053 0.815974
Si Si6 0.877757 0.817854 0.091976
Si Si7 0.306611 0.679377 0.956467
O O1 0.288247 0.223828 0.564491
O O2 0.154073 0.250109 0.785249
O O3 0.069771 0.249602 0.648194
O O4 0.156905 0.000000 0.677979
O O5 0.500000 0.264010 0.500000
O O6 0.369879 0.500000 0.520308
O O7 0.430772 0.293717 0.356676
O O8 0.853678 0.237838 0.717222
O O9 0.000000 0.250572 0.500000
O O10 0.981746 0.000000 0.613971
O O11 0.577700 0.500000 0.782193
O O12 0.641240 0.212728 0.777706
O O13 0.428969 0.272476 0.855967
O O14 0.733925 0.000000 0.840589
O O15 0.699952 0.276404 0.927109
O O16 0.786822 0.769614 0.057473
O O17 0.881330 0.000000 0.094055
O O18 0.000000 0.752308 0.000000
O O19 0.285011 0.500000 0.953540
#
# Coordination Sequence:
#
# PCOD8064351 Si02
#       7
#     4   4   4   4   4   4   4
#     4  10  20  35  57  84 112 143 183 231 278 325
#     4  10  21  38  58  80 111 150 188 227 275 330
#     4   9  18  34  56  82 112 145 180 221 273 330
#     4  10  22  39  57  80 113 151 189 231 279 331
#     4  11  22  37  60  86 112 145 186 231 281 336
#     4  10  21  38  59  83 114 150 188 232 280 331
#     4  11  23  39  59  82 112 149 188 231 280 335
#
# _framework density 19.960628
#
# number of rings (size 3 to 8) (size 9 to 14) (size 15 to 20)
#    0.000    1.857    0.000    3.857    0.000    9.143 
#    0.000    2.857    0.000    3.857    0.000    0.000 
#    0.000    0.000    0.000    0.000    0.000    0.000 
#
# Total GULP energy -347333.032997 kJ/mol
# GULP energy per Si atom -12404.751178 kJ/mol
# Density = 1.991520 g / cm^3
# Si number density = 19.960628 Si / 1000 Ang^3
#
#
#
# Elastic Constant Matrix: (Units=GPa)
#
#
# Indices 1 2 3 4 5 6 
#
# 1 148.9938 13.6775 59.9984 0.0000 -6.5103 0.0000
# 2 13.6775 13.6495 17.9036 0.0000 -5.0052 0.0000
# 3 59.9984 17.9036 146.9403 0.0000 -9.6684 0.0000
# 4 0.0000 0.0000 0.0000 21.1985 0.0000 6.0921
# 5 -6.5103 -5.0052 -9.6684 0.0000 42.5155 0.0000
# 6 0.0000 0.0000 0.0000 6.0921 0.0000 25.3983
#
#
#
# Elastic Compliance Matrix: (Units=1/GPa)
#
#
# Indices 1 2 3 4 5 6 
#
# 1 0.008268 -0.004560 -0.002814 0.000000 0.000089 0.000000
# 2 -0.004560 0.092457 -0.008866 0.000000 0.008170 0.000000
# 3 -0.002814 -0.008866 0.009074 0.000000 0.000589 0.000000
# 4 0.000000 0.000000 0.000000 0.050666 0.000000 -0.012153
# 5 0.000089 0.008170 0.000589 0.000000 0.024630 0.000000
# 6 0.000000 0.000000 0.000000 -0.012153 0.000000 0.042288
#
#
# Mechanical properties :
#
#
# Convention : Reuss Voigt Hill
#
# Bulk Modulus (GPa) = 12.93364 54.74916 33.84140
# Shear Modulus (GPa) = 17.50487 32.35606 24.93047
#
# Velocity S-wave (km/s) = 2.96458 4.03052 3.53793
# Velocity P-wave (km/s) = 4.26755 7.01058 5.80346
#
# Compressibility (1/GPa) = 0.07731773
#
# Stress axis : x y z
#
# Youngs Moduli (GPa) = 120.95553 10.81583 110.21072
#
# Poissons Ratio (x) = 0.04932 0.31016
# Poissons Ratio (y) = 0.55161 0.97707
# Poissons Ratio (z) = 0.34040 0.09589
#
# Static dielectric constant tensor:
#      x y z
#    x 3.783840 0.000000 0.049350 
#    y 0.000000 3.333490 0.000000 
#    z 0.049350 0.000000 3.891260 
# 
# 
# High freq. dielectric constant tensor:
#      x y z
#    x 1.796330 0.000000 0.001560 
#    y 0.000000 1.752270 0.000000 
#    z 0.001560 0.000000 1.799510 
# 
# From -- ./inp_files/63651.got.cif
#   From: 2010.06.25/outbox.cif.g09.slc.cpg/sg10_32_cif.got.tgz:63651.got - 2010.06.27 22:07:45.
