data_PCOD8064426
_publ_section_title
;
Structure prediction by ZEFSAII (Michael W. Deem and Ramdas Pophale) SiO2 
 PCOD8064426
Probable space group: P 2/M
;
_chemical_formula_sum "Si O2"
_cell_formula_units_Z 24
_cell_length_a 20.627029
_cell_length_b 8.744130
_cell_length_c 9.145229
_cell_angle_alpha 90.000000
_cell_angle_beta 131.752440
_cell_angle_gamma 90.000000
_cell_volume 1230.562254
_symmetry_space_group_name_H-M "P 2/M"
_symmetry_group_IT_number 10
_symmetry_cell_setting 'monoclinic'
loop_
_space_group_symop_operation_xyz
x,y,z
-x,y,-z
-x,-y,-z
x,-y,z
loop_
_atom_site_type_symbol
_atom_site_label
_atom_site_fract_x
_atom_site_fract_y
_atom_site_fract_z
Si Si1 0.083233 0.681589 0.711318
Si Si2 0.588274 0.679434 0.790472
Si Si3 0.592290 0.179220 0.487339
Si Si4 0.916174 0.318603 0.959312
Si Si5 0.758261 0.177941 0.552132
Si Si6 0.752723 0.679174 0.229958
O O1 0.078068 0.500000 0.709973
O O2 0.170673 0.734301 0.761979
O O3 0.000000 0.747857 0.500000
O O4 0.083297 0.748854 0.875549
O O5 0.572501 0.500000 0.753636
O O6 0.499551 0.758840 0.710153
O O7 0.618115 0.740551 0.677747
O O8 0.661616 0.719149 0.018088
O O9 0.664074 0.219906 0.474901
O O10 0.584742 0.000000 0.505135
O O11 0.919538 0.500000 0.968565
O O12 0.829361 0.270221 0.748083
O O13 0.000000 0.253100 0.000000
O O14 0.760417 0.224730 0.387720
O O15 0.778750 0.000000 0.598544
O O16 0.761194 0.500000 0.278932
#
# Coordination Sequence:
#
# PCOD8064426 Si02
#       6
#     4   4   4   4   4   4
#     4   9  17  32  56  84 110 137 175 220 267 323
#     4  10  20  35  58  85 109 139 183 234 281 325
#     4  10  21  37  56  79 110 148 185 223 274 334
#     4  10  20  36  61  87 111 143 181 225 276 326
#     4  11  24  38  54  79 112 149 186 225 270 325
#     4  10  21  36  55  80 110 143 182 229 276 324
#
# _framework density 19.50328
#
# number of rings (size 3 to 8) (size 9 to 14) (size 15 to 20)
#    0.000    2.000    0.000    4.500    0.000    9.000 
#    0.000    4.167    0.000    2.000    0.000    0.000 
#    0.000    0.000    0.000    0.000    0.000    0.000 
#
# Total GULP energy -297678.121953 kJ/mol
# GULP energy per Si atom -12403.255081 kJ/mol
# Density = 1.945889 g / cm^3
# Si number density = 19.503280 Si / 1000 Ang^3
#
#
#
# Elastic Constant Matrix: (Units=GPa)
#
#
# Indices 1 2 3 4 5 6 
#
# 1 178.0545 71.0202 79.8424 0.0000 -6.1400 0.0000
# 2 71.0202 124.5753 50.3223 0.0000 6.3499 0.0000
# 3 79.8424 50.3223 148.2405 0.0000 -2.0045 0.0000
# 4 0.0000 0.0000 0.0000 3.8385 0.0000 -1.4844
# 5 -6.1400 6.3499 -2.0045 0.0000 32.9174 0.0000
# 6 0.0000 0.0000 0.0000 -1.4844 0.0000 27.8575
#
#
#
# Elastic Compliance Matrix: (Units=1/GPa)
#
#
# Indices 1 2 3 4 5 6 
#
# 1 0.008683 -0.003686 -0.003397 0.000000 0.002124 0.000000
# 2 -0.003686 0.011000 -0.001788 0.000000 -0.002918 0.000000
# 3 -0.003397 -0.001788 0.009186 0.000000 0.000271 0.000000
# 4 0.000000 0.000000 0.000000 0.266000 0.000000 0.014174
# 5 0.002124 -0.002918 0.000271 0.000000 0.031355 0.000000
# 6 0.000000 0.000000 0.000000 0.014174 0.000000 0.036652
#
#
# Mechanical properties :
#
#
# Convention : Reuss Voigt Hill
#
# Bulk Modulus (GPa) = 89.87343 94.80446 92.33894
# Shear Modulus (GPa) = 13.00976 29.56837 21.28906
#
# Velocity S-wave (km/s) = 2.58554 3.89790 3.30747
# Velocity P-wave (km/s) = 7.42257 8.30501 7.87616
#
# Compressibility (1/GPa) = 0.01112676
#
# Stress axis : x y z
#
# Youngs Moduli (GPa) = 115.16870 90.90986 108.86353
#
# Poissons Ratio (x) = 0.33513 0.36976
# Poissons Ratio (y) = 0.42455 0.19466
# Poissons Ratio (z) = 0.39117 0.16255
#
# Static dielectric constant tensor:
#      x y z
#    x 3.809700 0.000000 0.025240 
#    y 0.000000 3.353000 0.000000 
#    z 0.025240 0.000000 3.689180 
# 
# 
# High freq. dielectric constant tensor:
#      x y z
#    x 1.773970 0.000000 0.004510 
#    y 0.000000 1.740880 0.000000 
#    z 0.004510 0.000000 1.769780 
# 
# From -- ./inp_files/33732.got.cif
#   From: 2010.06.25/outbox.cif.g09.slc.cpg/sg10_17_cif.got.tgz:33732.got - 2010.06.27 22:07:45.
