data_PCOD8064043
_publ_section_title
;
Structure prediction by ZEFSAII (Michael W. Deem and Ramdas Pophale) SiO2 
 PCOD8064043
Probable space group: P 2/M
;
_chemical_formula_sum "Si O2"
_cell_formula_units_Z 28
_cell_length_a 23.374307
_cell_length_b 10.092180
_cell_length_c 13.362912
_cell_angle_alpha 90.000000
_cell_angle_beta 29.267799
_cell_angle_gamma 90.000000
_cell_volume 1541.125482
_symmetry_space_group_name_H-M "P 2/M"
_symmetry_group_IT_number 10
_symmetry_cell_setting 'monoclinic'
loop_
_space_group_symop_operation_xyz
x,y,z
-x,y,-z
-x,-y,-z
x,-y,z
loop_
_atom_site_type_symbol
_atom_site_label
_atom_site_fract_x
_atom_site_fract_y
_atom_site_fract_z
Si Si1 0.676753 0.650603 0.418799
Si Si2 0.076229 0.845314 0.635896
Si Si3 0.760683 0.153848 0.798542
Si Si4 0.115827 0.652672 0.758754
Si Si5 0.627487 0.220511 0.286646
Si Si6 0.860828 0.855870 0.845451
Si Si7 0.584391 0.351391 0.148019
O O1 0.707039 0.500000 0.348170
O O2 0.776483 0.707352 0.339401
O O3 0.678348 0.722434 0.310745
O O4 0.553048 0.666212 0.663299
O O5 0.180698 0.828505 0.397591
O O6 0.108048 0.751993 0.678539
O O7 0.955697 0.784385 0.771924
O O8 0.064164 0.000000 0.687957
O O9 0.848179 0.206170 0.753541
O O10 0.726353 0.000000 0.870857
O O11 0.645726 0.245210 0.981522
O O12 0.135838 0.500000 0.692786
O O13 0.000000 0.663748 0.000000
O O14 0.500000 0.150163 0.500000
O O15 0.608770 0.331638 0.229501
O O16 0.730958 0.125638 0.090897
O O17 0.917790 0.000000 0.744308
O O18 0.625743 0.500000 0.057423
#
# Coordination Sequence:
#
# PCOD8064043 Si02
#       7
#     4   4   4   4   4   4   4
#     4   9  17  31  49  70  99 133 165 197 241 294
#     4  10  20  35  54  73  96 130 168 203 241 288
#     4   9  18  33  52  74 100 128 159 199 248 296
#     4  10  21  36  53  73  99 131 165 202 242 284
#     4   9  16  27  47  75 103 128 158 199 243 288
#     4   9  17  30  49  72  99 131 163 196 242 298
#     4   9  17  30  51  77 101 127 161 200 242 291
#
# _framework density 18.168541000000001
#
# number of rings (size 3 to 8) (size 9 to 14) (size 15 to 20)
#    0.000    2.714    0.000    1.714    0.000    4.571 
#    0.000    7.143    0.000    8.571    0.000    0.000 
#    0.000    0.000    0.000    0.000    0.000    0.000 
#
# Total GULP energy -346915.729102 kJ/mol
# GULP energy per Si atom -12389.847468 kJ/mol
# Density = 1.812719 g / cm^3
# Si number density = 18.168541 Si / 1000 Ang^3
#
#
#
# Elastic Constant Matrix: (Units=GPa)
#
#
# Indices 1 2 3 4 5 6 
#
# 1 121.2663 46.8605 47.3833 0.0000 -7.3900 0.0000
# 2 46.8605 75.1451 41.3818 0.0000 1.8451 0.0000
# 3 47.3833 41.3818 82.0442 0.0000 -0.7362 0.0000
# 4 0.0000 0.0000 0.0000 26.4610 0.0000 0.1186
# 5 -7.3900 1.8451 -0.7362 0.0000 28.8581 0.0000
# 6 0.0000 0.0000 0.0000 0.1186 0.0000 20.6566
#
#
#
# Elastic Compliance Matrix: (Units=1/GPa)
#
#
# Indices 1 2 3 4 5 6 
#
# 1 0.012193 -0.005295 -0.004341 0.000000 0.003350 0.000000
# 2 -0.005295 0.020783 -0.007450 0.000000 -0.002875 0.000000
# 3 -0.004341 -0.007450 0.018452 0.000000 -0.000165 0.000000
# 4 0.000000 0.000000 0.000000 0.037792 0.000000 -0.000217
# 5 0.003350 -0.002875 -0.000165 0.000000 0.035690 0.000000
# 6 0.000000 0.000000 0.000000 -0.000217 0.000000 0.048412
#
#
# Mechanical properties :
#
#
# Convention : Reuss Voigt Hill
#
# Bulk Modulus (GPa) = 57.95412 61.07851 59.51632
# Shear Modulus (GPa) = 23.44706 24.71716 24.08211
#
# Velocity S-wave (km/s) = 3.59629 3.69241 3.64467
# Velocity P-wave (km/s) = 7.01511 7.20203 7.10918
#
# Compressibility (1/GPa) = 0.01725503
#
# Stress axis : x y z
#
# Youngs Moduli (GPa) = 82.01535 48.11605 54.19505
#
# Poissons Ratio (x) = 0.25479 0.23525
# Poissons Ratio (y) = 0.43429 0.40377
# Poissons Ratio (z) = 0.35602 0.35848
#
# Static dielectric constant tensor:
#      x y z
#    x 3.368960 0.000000 -0.189090 
#    y 0.000000 3.164400 0.000000 
#    z -0.189090 0.000000 3.437080 
# 
# 
# High freq. dielectric constant tensor:
#      x y z
#    x 1.697340 0.000000 -0.008750 
#    y 0.000000 1.680500 0.000000 
#    z -0.008750 0.000000 1.709330 
# 
# From -- ./inp_files/55789.got.cif
#   From: 2010.06.25/outbox.cif.g09.slc.cpg/sg10_28_cif.got.tgz:55789.got - 2010.06.27 22:07:45.
