data_PCOD8064881
_publ_section_title
;
Structure prediction by ZEFSAII (Michael W. Deem and Ramdas Pophale) SiO2 
 PCOD8064881
Probable space group: P 2/M
;
_chemical_formula_sum "Si O2"
_cell_formula_units_Z 26
_cell_length_a 21.357010
_cell_length_b 9.923795
_cell_length_c 7.959705
_cell_angle_alpha 90.000000
_cell_angle_beta 131.569143
_cell_angle_gamma 90.000000
_cell_volume 1262.138766
_symmetry_space_group_name_H-M "P 2/M"
_symmetry_group_IT_number 10
_symmetry_cell_setting 'monoclinic'
loop_
_space_group_symop_operation_xyz
x,y,z
-x,y,-z
-x,-y,-z
x,-y,z
loop_
_atom_site_type_symbol
_atom_site_label
_atom_site_fract_x
_atom_site_fract_y
_atom_site_fract_z
Si Si1 0.028045 0.652812 0.238543
Si Si2 0.663352 0.148175 0.213112
Si Si3 0.836147 0.846532 0.410716
Si Si4 0.500000 0.299886 0.000000
Si Si5 0.567113 0.352999 0.479706
Si Si6 0.889062 0.847405 0.127378
Si Si7 0.288655 0.848791 0.321445
O O1 0.038207 0.500000 0.331588
O O2 0.960393 0.739010 0.220127
O O3 0.114804 0.736176 0.391582
O O4 0.000000 0.639149 0.000000
O O5 0.738270 0.200791 0.225207
O O6 0.704864 0.153444 0.468681
O O7 0.637696 0.000000 0.111585
O O8 0.576018 0.222862 0.047703
O O9 0.877471 0.848162 0.304177
O O10 0.840351 0.000000 0.495114
O O11 0.465094 0.373722 0.771633
O O12 0.500000 0.306237 0.500000
O O13 0.600939 0.500000 0.592730
O O14 0.641279 0.246861 0.632499
O O15 0.913684 0.000000 0.111087
O O16 0.803772 0.797563 0.888294
O O17 0.302623 0.000000 0.274482
#
# Coordination Sequence:
#
# PCOD8064881 Si02
#       7
#     4   4   4   2   4   4   4
#     4  11  24  40  58  83 115 152 195 237 284 342
#     4   9  18  34  57  86 117 148 188 238 290 343
#     4  10  21  37  59  87 117 150 189 236 290 348
#     4  10  20  36  60  84 115 156 199 244 293 348
#     4  10  22  38  56  81 115 153 196 241 292 350
#     4  10  21  37  60  88 118 149 189 236 289 349
#     4   9  19  36  57  84 113 146 187 233 284 339
#
# _framework density 20.599952999999999
#
# number of rings (size 3 to 8) (size 9 to 14) (size 15 to 20)
#    0.000    2.154    0.000    2.308    2.154    6.462 
#    0.000    5.385    0.000    0.000    0.000    0.000 
#    0.000    0.000    0.000    0.000    0.000    0.000 
#
# Total GULP energy -322109.501070 kJ/mol
# GULP energy per Si atom -12388.826964 kJ/mol
# Density = 2.055307 g / cm^3
# Si number density = 20.599953 Si / 1000 Ang^3
#
#
#
# Elastic Constant Matrix: (Units=GPa)
#
#
# Indices 1 2 3 4 5 6 
#
# 1 113.0748 61.8757 4.2242 0.0000 23.5249 0.0000
# 2 61.8757 125.8989 29.1311 0.0000 33.4833 0.0000
# 3 4.2242 29.1311 52.7046 0.0000 20.6898 0.0000
# 4 0.0000 0.0000 0.0000 15.7735 0.0000 0.8572
# 5 23.5249 33.4833 20.6898 0.0000 36.0633 0.0000
# 6 0.0000 0.0000 0.0000 0.8572 0.0000 8.1898
#
#
#
# Elastic Compliance Matrix: (Units=1/GPa)
#
#
# Indices 1 2 3 4 5 6 
#
# 1 0.013111 -0.006000 0.004435 0.000000 -0.005526 0.000000
# 2 -0.006000 0.013568 -0.004659 0.000000 -0.006011 0.000000
# 3 0.004435 -0.004659 0.026628 0.000000 -0.013844 0.000000
# 4 0.000000 0.000000 0.000000 0.063760 0.000000 -0.006674
# 5 -0.005526 -0.006011 -0.013844 0.000000 0.044857 0.000000
# 6 0.000000 0.000000 0.000000 -0.006674 0.000000 0.122802
#
#
# Mechanical properties :
#
#
# Convention : Reuss Voigt Hill
#
# Bulk Modulus (GPa) = 24.47457 53.57115 39.02286
# Shear Modulus (GPa) = 16.08780 25.10180 20.59480
#
# Velocity S-wave (km/s) = 2.79760 3.49454 3.16531
# Velocity P-wave (km/s) = 4.72675 6.50725 5.68711
#
# Compressibility (1/GPa) = 0.04085873
#
# Stress axis : x y z
#
# Youngs Moduli (GPa) = 76.27127 73.70045 37.55440
#
# Poissons Ratio (x) = 0.44222 -0.16655
# Poissons Ratio (y) = 0.45765 0.17497
# Poissons Ratio (z) = -0.33826 0.34338
#
# Static dielectric constant tensor:
#      x y z
#    x 3.810540 0.000000 0.107510 
#    y 0.000000 3.996450 0.000000 
#    z 0.107510 0.000000 3.722520 
# 
# 
# High freq. dielectric constant tensor:
#      x y z
#    x 1.814880 0.000000 0.004930 
#    y 0.000000 1.795570 0.000000 
#    z 0.004930 0.000000 1.802220 
# 
# From -- ./inp_files/34227.got.cif
#   From: 2010.06.25/outbox.cif.g09.slc.cpg/sg10_18_cif.got.tgz:34227.got - 2010.06.27 22:07:45.
