data_PCOD8064458
_publ_section_title
;
Structure prediction by ZEFSAII (Michael W. Deem and Ramdas Pophale) SiO2 
 PCOD8064458
Probable space group: P 2/M
;
_chemical_formula_sum "Si O2"
_cell_formula_units_Z 24
_cell_length_a 13.749547
_cell_length_b 21.012689
_cell_length_c 11.883520
_cell_angle_alpha 90.000000
_cell_angle_beta 159.635309
_cell_angle_gamma 90.000000
_cell_volume 1194.778355
_symmetry_space_group_name_H-M "P 2/M"
_symmetry_group_IT_number 10
_symmetry_cell_setting 'monoclinic'
loop_
_space_group_symop_operation_xyz
x,y,z
-x,y,-z
-x,-y,-z
x,-y,z
loop_
_atom_site_type_symbol
_atom_site_label
_atom_site_fract_x
_atom_site_fract_y
_atom_site_fract_z
Si Si1 0.564141 0.724379 0.439098
Si Si2 0.989611 0.320114 0.735690
Si Si3 0.720119 0.073255 0.836048
Si Si4 0.779258 0.571404 0.358341
Si Si5 0.208758 0.205695 0.629942
Si Si6 0.708584 0.139018 0.503152
O O1 0.500000 0.715087 0.500000
O O2 0.849851 0.691283 0.706864
O O3 0.591786 0.798586 0.439686
O O4 0.320476 0.688920 0.105723
O O5 0.901176 0.389261 0.595652
O O6 0.894119 0.269393 0.540266
O O7 0.500000 0.091492 0.500000
O O8 0.544712 0.088232 0.759561
O O9 0.812294 0.000000 0.932342
O O10 0.001255 0.114666 0.127046
O O11 0.718274 0.500000 0.337407
O O12 0.000000 0.570323 0.500000
O O13 0.500000 0.601398 0.000000
O O14 0.238172 0.149397 0.570959
O O15 0.000000 0.181888 0.500000
O O16 0.500000 0.223198 0.000000
#
# Coordination Sequence:
#
# PCOD8064458 Si02
#       6
#     4   4   4   4   4   4
#     4  11  23  38  57  84 115 149 188 233 286 340
#     4  11  21  36  58  84 115 151 189 234 287 337
#     4  11  23  39  61  87 114 145 183 231 284 339
#     4  10  20  35  58  88 120 154 193 239 288 337
#     4  11  21  35  55  81 111 144 184 229 280 335
#     4  11  22  38  59  84 113 147 185 231 285 338
#
# _framework density 20.087409000000001
#
# number of rings (size 3 to 8) (size 9 to 14) (size 15 to 20)
#    0.000    1.167    0.000    9.000    0.000    4.000 
#    0.000    0.000    0.000   13.000    0.000    0.000 
#    0.000    0.000    0.000    0.000    0.000    0.000 
#
# Total GULP energy -297577.355026 kJ/mol
# GULP energy per Si atom -12399.056459 kJ/mol
# Density = 2.004169 g / cm^3
# Si number density = 20.087409 Si / 1000 Ang^3
#
#
#
# Elastic Constant Matrix: (Units=GPa)
#
#
# Indices 1 2 3 4 5 6 
#
# 1 107.9566 30.9280 13.2586 0.0000 2.0215 0.0000
# 2 30.9280 75.6017 30.7868 0.0000 -6.2371 0.0000
# 3 13.2586 30.7868 104.7718 0.0000 12.0951 0.0000
# 4 0.0000 0.0000 0.0000 37.6701 0.0000 1.3566
# 5 2.0215 -6.2371 12.0951 0.0000 36.8575 0.0000
# 6 0.0000 0.0000 0.0000 1.3566 0.0000 25.6730
#
#
#
# Elastic Compliance Matrix: (Units=1/GPa)
#
#
# Indices 1 2 3 4 5 6 
#
# 1 0.010558 -0.004492 0.000144 0.000000 -0.001387 0.000000
# 2 -0.004492 0.017573 -0.005162 0.000000 0.004914 0.000000
# 3 0.000144 -0.005162 0.011584 0.000000 -0.004683 0.000000
# 4 0.000000 0.000000 0.000000 0.026597 0.000000 -0.001405
# 5 -0.001387 0.004914 -0.004683 0.000000 0.029576 0.000000
# 6 0.000000 0.000000 0.000000 -0.001405 0.000000 0.039026
#
#
# Mechanical properties :
#
#
# Convention : Reuss Voigt Hill
#
# Bulk Modulus (GPa) = 48.32498 48.69744 48.51121
# Shear Modulus (GPa) = 31.08822 34.26390 32.67606
#
# Velocity S-wave (km/s) = 3.93828 4.13454 4.03760
# Velocity P-wave (km/s) = 6.69251 6.86207 6.77782
#
# Compressibility (1/GPa) = 0.02069323
#
# Stress axis : x y z
#
# Youngs Moduli (GPa) = 94.71272 56.90646 86.32663
#
# Poissons Ratio (x) = 0.25564 -0.01243
# Poissons Ratio (y) = 0.42548 0.44566
# Poissons Ratio (z) = -0.01364 0.29378
#
# Static dielectric constant tensor:
#      x y z
#    x 3.880880 0.000000 0.198500 
#    y 0.000000 3.649680 0.000000 
#    z 0.198500 0.000000 3.749590 
# 
# 
# High freq. dielectric constant tensor:
#      x y z
#    x 1.794890 0.000000 0.022440 
#    y 0.000000 1.761050 0.000000 
#    z 0.022440 0.000000 1.793430 
# 
# From -- ./inp_files/52078.got.cif
#   From: 2010.06.25/outbox.cif.g09.slc.cpg/sg10_27_cif.got.tgz:52078.got - 2010.06.27 22:07:45.
