data_PCOD8064557
_publ_section_title
;
Structure prediction by ZEFSAII (Michael W. Deem and Ramdas Pophale) SiO2 
 PCOD8064557
Probable space group: P 2/M
;
_chemical_formula_sum "Si O2"
_cell_formula_units_Z 30
_cell_length_a 18.765280
_cell_length_b 17.294091
_cell_length_c 15.820926
_cell_angle_alpha 90.000000
_cell_angle_beta 19.025182
_cell_angle_gamma 90.000000
_cell_volume 1673.711327
_symmetry_space_group_name_H-M "P 2/M"
_symmetry_group_IT_number 10
_symmetry_cell_setting 'monoclinic'
loop_
_space_group_symop_operation_xyz
x,y,z
-x,y,-z
-x,-y,-z
x,-y,z
loop_
_atom_site_type_symbol
_atom_site_label
_atom_site_fract_x
_atom_site_fract_y
_atom_site_fract_z
Si Si1 0.868709 0.223242 0.442740
Si Si2 0.530701 0.677712 0.056979
Si Si3 0.113071 0.311688 0.042555
Si Si4 0.239405 0.413080 0.647378
Si Si5 0.500000 0.336159 0.500000
Si Si6 0.442237 0.911699 0.163175
Si Si7 0.336399 0.411809 0.933530
Si Si8 0.820703 0.183965 0.763954
O O1 0.700525 0.293307 0.646505
O O2 0.760088 0.139042 0.575884
O O3 0.976382 0.237086 0.229119
O O4 0.075639 0.226466 0.272635
O O5 0.657093 0.620615 0.978341
O O6 0.500000 0.636452 0.000000
O O7 0.679977 0.752636 0.870900
O O8 0.965413 0.358597 0.142219
O O9 0.335289 0.285346 0.743789
O O10 0.172468 0.364301 0.057320
O O11 0.149777 0.500000 0.755315
O O12 0.350701 0.391231 0.610744
O O13 0.415943 0.405979 0.375511
O O14 0.383064 0.000000 0.249031
O O15 0.500000 0.897992 0.000000
O O16 0.658811 0.885911 0.972504
O O17 0.252116 0.500000 0.029775
O O18 0.000000 0.148434 0.500000
#
# Coordination Sequence:
#
# PCOD8064557 Si02
#       8
#     4   4   4   4   2   4   4   4
#     4  11  20  34  55  75 102 147 180 213 265 321
#     4  11  20  32  52  74 101 137 194 231 258 315
#     4  11  21  36  56  75 105 141 181 225 272 332
#     4  10  20  36  55  76 108 141 173 223 288 340
#     4  10  23  34  52  86 105 130 180 232 275 332
#     4  10  21  33  50  83 115 138 177 219 259 323
#     4  10  21  34  49  74 104 139 186 233 273 314
#     4  11  18  32  52  76 103 143 179 216 264 311
#
# _framework density 17.924237999999999
#
# number of rings (size 3 to 8) (size 9 to 14) (size 15 to 20)
#    0.000    1.467    5.333    1.800    0.000    3.200 
#    0.000    0.000    0.000    1.200    0.000    0.467 
#    0.000    3.200    0.000    0.133    0.000    0.000 
#
# Total GULP energy -371872.149594 kJ/mol
# GULP energy per Si atom -12395.738320 kJ/mol
# Density = 1.788344 g / cm^3
# Si number density = 17.924238 Si / 1000 Ang^3
#
#
#
# Elastic Constant Matrix: (Units=GPa)
#
#
# Indices 1 2 3 4 5 6 
#
# 1 104.0326 32.0854 35.0925 0.0000 -6.6968 0.0000
# 2 32.0854 79.6103 43.3173 0.0000 8.3240 0.0000
# 3 35.0925 43.3173 99.2347 0.0000 5.5907 0.0000
# 4 0.0000 0.0000 0.0000 17.3616 0.0000 1.3586
# 5 -6.6968 8.3240 5.5907 0.0000 31.4583 0.0000
# 6 0.0000 0.0000 0.0000 1.3586 0.0000 12.3635
#
#
#
# Elastic Compliance Matrix: (Units=1/GPa)
#
#
# Indices 1 2 3 4 5 6 
#
# 1 0.011973 -0.003698 -0.002847 0.000000 0.004033 0.000000
# 2 -0.003698 0.017924 -0.006267 0.000000 -0.004416 0.000000
# 3 -0.002847 -0.006267 0.013900 0.000000 -0.001418 0.000000
# 4 0.000000 0.000000 0.000000 0.058098 0.000000 -0.006384
# 5 0.004033 -0.004416 -0.001418 0.000000 0.034067 0.000000
# 6 0.000000 0.000000 0.000000 -0.006384 0.000000 0.081585
#
#
# Mechanical properties :
#
#
# Convention : Reuss Voigt Hill
#
# Bulk Modulus (GPa) = 55.03196 55.98534 55.50865
# Shear Modulus (GPa) = 20.06195 23.72883 21.89539
#
# Velocity S-wave (km/s) = 3.34917 3.64241 3.49886
# Velocity P-wave (km/s) = 6.76203 6.99941 6.88175
#
# Compressibility (1/GPa) = 0.01817126
#
# Stress axis : x y z
#
# Youngs Moduli (GPa) = 83.52205 55.79261 71.94478
#
# Poissons Ratio (x) = 0.20633 0.20482
# Poissons Ratio (y) = 0.30887 0.45090
# Poissons Ratio (z) = 0.23778 0.34967
#
# Static dielectric constant tensor:
#      x y z
#    x 3.340360 0.000000 -0.110170 
#    y 0.000000 3.004920 0.000000 
#    z -0.110170 0.000000 3.496480 
# 
# 
# High freq. dielectric constant tensor:
#      x y z
#    x 1.692000 0.000000 -0.018280 
#    y 0.000000 1.650750 0.000000 
#    z -0.018280 0.000000 1.703980 
# 
# From -- ./inp_files/69390.got.cif
#   From: 2010.06.25/outbox.cif.g09.slc.cpg/sg10_35_cif.got.tgz:69390.got - 2010.06.27 22:07:45.
