data_PCOD8064763
_publ_section_title
;
Structure prediction by ZEFSAII (Michael W. Deem and Ramdas Pophale) SiO2 
 PCOD8064763
Probable space group: P 2/M
;
_chemical_formula_sum "Si O2"
_cell_formula_units_Z 32
_cell_length_a 9.281795
_cell_length_b 13.117946
_cell_length_c 29.318904
_cell_angle_alpha 90.000000
_cell_angle_beta 27.021558
_cell_angle_gamma 90.000000
_cell_volume 1621.858130
_symmetry_space_group_name_H-M "P 2/M"
_symmetry_group_IT_number 10
_symmetry_cell_setting 'monoclinic'
loop_
_space_group_symop_operation_xyz
x,y,z
-x,y,-z
-x,-y,-z
x,-y,z
loop_
_atom_site_type_symbol
_atom_site_label
_atom_site_fract_x
_atom_site_fract_y
_atom_site_fract_z
Si Si1 0.787561 0.730972 0.888623
Si Si2 0.284918 0.115772 0.724086
Si Si3 0.315828 0.286601 0.238690
Si Si4 0.821818 0.385615 0.150126
Si Si5 0.760125 0.882051 0.671343
Si Si6 0.407478 0.616638 0.922927
Si Si7 0.761748 0.770666 0.527978
Si Si8 0.649305 0.385190 0.408586
O O1 0.652888 0.642802 0.894075
O O2 0.954918 0.822418 0.814228
O O3 0.064756 0.683623 0.840716
O O4 0.500000 0.775903 0.000000
O O5 0.452593 0.128399 0.725980
O O6 0.516104 0.149245 0.618361
O O7 0.191810 0.000000 0.741264
O O8 0.463838 0.354655 0.237798
O O9 0.303020 0.170967 0.261543
O O10 0.545925 0.300415 0.130252
O O11 0.976842 0.325454 0.318527
O O12 0.821569 0.500000 0.168328
O O13 0.048779 0.373681 0.041965
O O14 0.061052 0.827390 0.563276
O O15 0.842268 0.000000 0.657181
O O16 0.472786 0.500000 0.887977
O O17 0.584127 0.670544 0.560524
O O18 0.000000 0.732926 0.500000
O O19 0.500000 0.386819 0.500000
O O20 0.705991 0.500000 0.374617
#
# Coordination Sequence:
#
# PCOD8064763 Si02
#       8
#     4   4   4   4   4   4   4   4
#     4  10  20  36  58  89 121 153 190 239 291 346
#     4  10  20  37  62  87 113 149 196 248 298 339
#     4  12  21  37  58  84 116 157 192 234 287 344
#     4  10  20  36  60  87 114 153 199 235 282 348
#     4  10  21  39  62  86 112 149 196 248 294 337
#     4  10  21  36  57  87 122 153 190 241 286 334
#     4  10  21  41  65  87 112 149 198 245 286 341
#     4  11  23  38  56  84 123 157 182 224 286 347
#
# _framework density 19.730457000000001
#
# number of rings (size 3 to 8) (size 9 to 14) (size 15 to 20)
#    0.000    1.625    2.500    3.000    0.000    4.500 
#    0.000    4.375    0.000    2.250    0.000    0.000 
#    0.000    0.000    0.000    0.000    0.000    0.000 
#
# Total GULP energy -396812.066773 kJ/mol
# GULP energy per Si atom -12400.377087 kJ/mol
# Density = 1.968555 g / cm^3
# Si number density = 19.730457 Si / 1000 Ang^3
#
#
#
# Elastic Constant Matrix: (Units=GPa)
#
#
# Indices 1 2 3 4 5 6 
#
# 1 68.7556 39.8225 26.1703 0.0000 -3.1411 0.0000
# 2 39.8225 117.7672 34.0708 0.0000 -2.9822 0.0000
# 3 26.1703 34.0708 57.3548 0.0000 -9.8259 0.0000
# 4 0.0000 0.0000 0.0000 36.8375 0.0000 3.5942
# 5 -3.1411 -2.9822 -9.8259 0.0000 33.8105 0.0000
# 6 0.0000 0.0000 0.0000 3.5942 0.0000 31.9148
#
#
#
# Elastic Compliance Matrix: (Units=1/GPa)
#
#
# Indices 1 2 3 4 5 6 
#
# 1 0.019701 -0.004893 -0.006149 0.000000 -0.000388 0.000000
# 2 -0.004893 0.011495 -0.004736 0.000000 -0.000817 0.000000
# 3 -0.006149 -0.004736 0.024084 0.000000 0.006010 0.000000
# 4 0.000000 0.000000 0.000000 0.027448 0.000000 -0.003091
# 5 -0.000388 -0.000817 0.006010 0.000000 0.031215 0.000000
# 6 0.000000 0.000000 0.000000 -0.003091 0.000000 0.031682
#
#
# Mechanical properties :
#
#
# Convention : Reuss Voigt Hill
#
# Bulk Modulus (GPa) = 42.15109 49.33387 45.74248
# Shear Modulus (GPa) = 27.01396 30.10015 28.55706
#
# Velocity S-wave (km/s) = 3.70422 3.91009 3.80854
# Velocity P-wave (km/s) = 6.30118 6.74116 6.52488
#
# Compressibility (1/GPa) = 0.02372418
#
# Stress axis : x y z
#
# Youngs Moduli (GPa) = 50.75911 86.99266 41.52069
#
# Poissons Ratio (x) = 0.42561 0.25533
# Poissons Ratio (y) = 0.24834 0.19665
# Poissons Ratio (z) = 0.31214 0.41201
#
# Static dielectric constant tensor:
#      x y z
#    x 3.610560 0.000000 -0.065280 
#    y 0.000000 3.543250 0.000000 
#    z -0.065280 0.000000 3.838520 
# 
# 
# High freq. dielectric constant tensor:
#      x y z
#    x 1.769530 0.000000 -0.005610 
#    y 0.000000 1.757560 0.000000 
#    z -0.005610 0.000000 1.772090 
# 
# From -- ./inp_files/61232.got.cif
#   From: 2010.06.25/outbox.cif.g09.slc.cpg/sg10_31_cif.got.tgz:61232.got - 2010.06.27 22:07:45.
