data_PCOD8064975
_publ_section_title
;
Structure prediction by ZEFSAII (Michael W. Deem and Ramdas Pophale) SiO2 
 PCOD8064975
Probable space group: P 2/M
;
_chemical_formula_sum "Si O2"
_cell_formula_units_Z 28
_cell_length_a 13.631205
_cell_length_b 8.483122
_cell_length_c 13.623619
_cell_angle_alpha 90.000000
_cell_angle_beta 119.893959
_cell_angle_gamma 90.000000
_cell_volume 1365.765547
_symmetry_space_group_name_H-M "P 2/M"
_symmetry_group_IT_number 10
_symmetry_cell_setting 'monoclinic'
loop_
_space_group_symop_operation_xyz
x,y,z
-x,y,-z
-x,-y,-z
x,-y,z
loop_
_atom_site_type_symbol
_atom_site_label
_atom_site_fract_x
_atom_site_fract_y
_atom_site_fract_z
Si Si1 0.162167 0.687743 0.323961
Si Si2 0.682444 0.318014 0.942396
Si Si3 0.546007 0.181239 0.244908
Si Si4 0.873726 0.182953 0.907308
Si Si5 0.029761 0.312823 0.621971
Si Si6 0.725699 0.685625 0.187843
Si Si7 0.597239 0.684762 0.479133
O O1 0.159386 0.500000 0.306228
O O2 0.144538 0.777853 0.214603
O O3 0.280297 0.748594 0.428021
O O4 0.063842 0.745540 0.347921
O O5 0.645990 0.500000 0.917377
O O6 0.581470 0.211755 0.852203
O O7 0.792515 0.290222 0.932096
O O8 0.711157 0.269565 0.067401
O O9 0.628908 0.225957 0.198541
O O10 0.574938 0.281377 0.354875
O O11 0.560231 0.000000 0.279426
O O12 0.848002 0.000000 0.914319
O O13 0.000000 0.229076 0.000000
O O14 0.030103 0.500000 0.618445
O O15 0.152547 0.250831 0.716073
O O16 0.000000 0.243364 0.500000
O O17 0.713624 0.500000 0.200077
O O18 0.500000 0.761460 0.500000
O O19 0.596693 0.500000 0.494788
#
# Coordination Sequence:
#
# PCOD8064975 Si02
#       7
#     4   4   4   4   4   4   4
#     4  10  20  36  61  89 117 154 201 249 292 341
#     4  11  23  40  63  87 114 153 202 250 290 338
#     4  12  25  39  59  87 120 155 190 236 298 363
#     4  11  24  40  59  87 125 162 193 235 293 352
#     4   9  17  32  57  87 115 146 189 241 291 339
#     4  10  21  38  60  85 114 151 197 245 291 343
#     4  10  21  38  61  88 117 152 196 244 293 346
#
# _framework density 20.501322999999999
#
# number of rings (size 3 to 8) (size 9 to 14) (size 15 to 20)
#    0.000    1.571    0.000    5.143    0.000    9.429 
#    0.000    0.714    0.000    1.714    0.000    0.000 
#    0.000    0.000    0.000    0.000    0.000    0.000 
#
# Total GULP energy -347352.317272 kJ/mol
# GULP energy per Si atom -12405.439903 kJ/mol
# Density = 2.045466 g / cm^3
# Si number density = 20.501323 Si / 1000 Ang^3
#
#
#
# Elastic Constant Matrix: (Units=GPa)
#
#
# Indices 1 2 3 4 5 6 
#
# 1 149.2821 12.5577 58.9415 0.0000 0.9002 0.0000
# 2 12.5577 17.4105 8.1134 0.0000 4.7573 0.0000
# 3 58.9415 8.1134 153.2074 0.0000 4.8067 0.0000
# 4 0.0000 0.0000 0.0000 160.4487 0.0000 -171.5711
# 5 0.9002 4.7573 4.8067 0.0000 45.8981 0.0000
# 6 0.0000 0.0000 0.0000 -171.5711 0.0000 231.5825
#
#
#
# Elastic Compliance Matrix: (Units=1/GPa)
#
#
# Indices 1 2 3 4 5 6 
#
# 1 0.008258 -0.004759 -0.002945 0.000000 0.000640 0.000000
# 2 -0.004759 0.063210 -0.001318 0.000000 -0.006320 0.000000
# 3 -0.002945 -0.001318 0.007749 0.000000 -0.000617 0.000000
# 4 0.000000 0.000000 0.000000 0.029996 0.000000 0.022223
# 5 0.000640 -0.006320 -0.000617 0.000000 0.022495 0.000000
# 6 0.000000 0.000000 0.000000 0.022223 0.000000 0.020782
#
#
# Mechanical properties :
#
#
# Convention : Reuss Voigt Hill
#
# Bulk Modulus (GPa) = 16.34698 53.23614 34.79156
# Shear Modulus (GPa) = 26.18821 103.60503 64.89662
#
# Velocity S-wave (km/s) = 3.57794 7.11656 5.63237
# Velocity P-wave (km/s) = 5.00598 9.67217 7.70100
#
# Compressibility (1/GPa) = 0.06117338
#
# Stress axis : x y z
#
# Youngs Moduli (GPa) = 121.09518 15.82020 129.04413
#
# Poissons Ratio (x) = 0.07528 0.38004
# Poissons Ratio (y) = 0.57625 0.17013
# Poissons Ratio (z) = 0.35663 0.02086
#
# Static dielectric constant tensor:
#      x y z
#    x 10.965860 0.000000 2.008700 
#    y 0.000000 3.397470 0.000000 
#    z 2.008700 0.000000 4.388950 
# 
# 
# High freq. dielectric constant tensor:
#      x y z
#    x 1.821230 0.000000 0.001410 
#    y 0.000000 1.775150 0.000000 
#    z 0.001410 0.000000 1.820050 
# 
# From -- ./inp_files/63892.got.cif
#   From: 2010.06.25/outbox.cif.g09.slc.cpg/sg10_32_cif.got.tgz:63892.got - 2010.06.27 22:07:45.
