data_PCOD8064229
_publ_section_title
;
Structure prediction by ZEFSAII (Michael W. Deem and Ramdas Pophale) SiO2 
 PCOD8064229
Probable space group: P 2/M
;
_chemical_formula_sum "Si O2"
_cell_formula_units_Z 28
_cell_length_a 16.107078
_cell_length_b 9.081632
_cell_length_c 11.246407
_cell_angle_alpha 90.000000
_cell_angle_beta 119.446687
_cell_angle_gamma 90.000000
_cell_volume 1432.582420
_symmetry_space_group_name_H-M "P 2/M"
_symmetry_group_IT_number 10
_symmetry_cell_setting 'monoclinic'
loop_
_space_group_symop_operation_xyz
x,y,z
-x,y,-z
-x,-y,-z
x,-y,z
loop_
_atom_site_type_symbol
_atom_site_label
_atom_site_fract_x
_atom_site_fract_y
_atom_site_fract_z
Si Si1 0.469988 0.326182 0.609043
Si Si2 0.368372 0.168366 0.142971
Si Si3 0.739445 0.829865 0.166853
Si Si4 0.912801 0.325665 0.175221
Si Si5 0.103856 0.829184 0.321690
Si Si6 0.833675 0.829066 0.896972
Si Si7 0.706468 0.830082 0.410650
O O1 0.500000 0.268436 0.500000
O O2 0.467549 0.500000 0.611821
O O3 0.544337 0.270724 0.759634
O O4 0.365326 0.267222 0.563770
O O5 0.277606 0.205440 0.161400
O O6 0.400472 0.000000 0.182384
O O7 0.342663 0.201581 0.987695
O O8 0.831244 0.730455 0.206465
O O9 0.696418 0.790773 0.264665
O O10 0.772226 0.000000 0.182807
O O11 0.911502 0.500000 0.171458
O O12 0.013837 0.268782 0.295349
O O13 0.898331 0.264533 0.031952
O O14 0.140797 0.782742 0.217778
O O15 0.186236 0.794114 0.474061
O O16 0.074578 0.000000 0.303745
O O17 0.854898 0.000000 0.938152
O O18 0.681925 0.000000 0.418320
#
# Coordination Sequence:
#
# PCOD8064229 Si02
#       7
#     4   4   4   4   4   4   4
#     4  11  24  39  56  83 118 149 175 214 273 332
#     4   9  18  35  60  84 108 142 184 229 271 317
#     4   9  20  40  61  82 108 140 184 232 273 316
#     4  11  22  34  53  81 113 149 184 222 273 331
#     4  10  20  35  56  81 109 144 186 231 277 321
#     4   9  18  34  56  82 111 143 183 231 276 319
#     4  10  22  40  62  83 105 141 188 232 270 317
#
# _framework density 19.545123
#
# number of rings (size 3 to 8) (size 9 to 14) (size 15 to 20)
#    0.000    2.143    0.000    3.857    0.000    9.143 
#    0.000    5.714    0.000    0.000    0.000    0.000 
#    0.000    0.000    0.000    0.000    0.000    0.000 
#
# Total GULP energy -347332.691059 kJ/mol
# GULP energy per Si atom -12404.738966 kJ/mol
# Density = 1.950064 g / cm^3
# Si number density = 19.545123 Si / 1000 Ang^3
#
#
#
# Elastic Constant Matrix: (Units=GPa)
#
#
# Indices 1 2 3 4 5 6 
#
# 1 64.3850 39.4631 43.7099 0.0000 -2.3517 0.0000
# 2 39.4631 84.7057 43.1714 0.0000 3.4675 0.0000
# 3 43.7099 43.1714 98.4762 0.0000 0.3247 0.0000
# 4 0.0000 0.0000 0.0000 3.8488 0.0000 -1.1084
# 5 -2.3517 3.4675 0.3247 0.0000 31.2459 0.0000
# 6 0.0000 0.0000 0.0000 -1.1084 0.0000 23.9009
#
#
#
# Elastic Compliance Matrix: (Units=1/GPa)
#
#
# Indices 1 2 3 4 5 6 
#
# 1 0.026096 -0.008203 -0.007997 0.000000 0.002958 0.000000
# 2 -0.008203 0.017863 -0.004182 0.000000 -0.002556 0.000000
# 3 -0.007997 -0.004182 0.015538 0.000000 -0.000299 0.000000
# 4 0.000000 0.000000 0.000000 0.263341 0.000000 0.012212
# 5 0.002958 -0.002556 -0.000299 0.000000 0.032514 0.000000
# 6 0.000000 0.000000 0.000000 0.012212 0.000000 0.042406
#
#
# Mechanical properties :
#
#
# Convention : Reuss Voigt Hill
#
# Bulk Modulus (GPa) = 53.37661 55.58397 54.48029
# Shear Modulus (GPa) = 11.24186 19.88061 15.56124
#
# Velocity S-wave (km/s) = 2.40088 3.19276 2.82471
# Velocity P-wave (km/s) = 5.92067 6.48785 6.21074
#
# Compressibility (1/GPa) = 0.01873480
#
# Stress axis : x y z
#
# Youngs Moduli (GPa) = 38.31940 55.98095 64.35711
#
# Poissons Ratio (x) = 0.45923 0.51464
# Poissons Ratio (y) = 0.31435 0.26911
# Poissons Ratio (z) = 0.30643 0.23409
#
# Static dielectric constant tensor:
#      x y z
#    x 3.524960 0.000000 -0.071930 
#    y 0.000000 3.384360 0.000000 
#    z -0.071930 0.000000 3.655910 
# 
# 
# High freq. dielectric constant tensor:
#      x y z
#    x 1.761210 0.000000 0.001580 
#    y 0.000000 1.746310 0.000000 
#    z 0.001580 0.000000 1.766810 
# 
# From -- ./inp_files/49609.got.cif
#   From: 2010.06.25/outbox.cif.g09.slc.cpg/sg10_25_cif.got.tgz:49609.got - 2010.06.27 22:07:45.
