data_PCOD8064302
_publ_section_title
;
Structure prediction by ZEFSAII (Michael W. Deem and Ramdas Pophale) SiO2 
 PCOD8064302
Probable space group: P 2/M
;
_chemical_formula_sum "Si O2"
_cell_formula_units_Z 28
_cell_length_a 9.058906
_cell_length_b 9.381224
_cell_length_c 29.200838
_cell_angle_alpha 90.000000
_cell_angle_beta 141.893347
_cell_angle_gamma 90.000000
_cell_volume 1531.458723
_symmetry_space_group_name_H-M "P 2/M"
_symmetry_group_IT_number 10
_symmetry_cell_setting 'monoclinic'
loop_
_space_group_symop_operation_xyz
x,y,z
-x,y,-z
-x,-y,-z
x,-y,z
loop_
_atom_site_type_symbol
_atom_site_label
_atom_site_fract_x
_atom_site_fract_y
_atom_site_fract_z
Si Si1 0.341956 0.158873 0.365710
Si Si2 0.568465 0.168086 0.195060
Si Si3 0.078571 0.169252 0.796597
Si Si4 0.682612 0.659654 0.502470
Si Si5 0.782889 0.836742 0.069478
Si Si6 0.919042 0.333312 0.928814
Si Si7 0.981982 0.842981 0.362078
O O1 0.567915 0.259896 0.430842
O O2 0.182418 0.221850 0.284797
O O3 0.172608 0.151715 0.368141
O O4 0.437584 0.000000 0.377755
O O5 0.708114 0.225155 0.184095
O O6 0.328896 0.256621 0.142117
O O7 0.725768 0.201149 0.278711
O O8 0.510795 0.000000 0.177179
O O9 0.119294 0.221522 0.858095
O O10 0.083353 0.000000 0.793911
O O11 0.500000 0.661682 0.500000
O O12 0.742311 0.500000 0.501567
O O13 0.931987 0.733576 0.577912
O O14 0.879103 0.734223 0.053865
O O15 0.866140 0.000000 0.081387
O O16 0.500000 0.827208 0.000000
O O17 0.893753 0.500000 0.912008
O O18 0.000000 0.304116 0.000000
O O19 0.964957 0.000000 0.380306
#
# Coordination Sequence:
#
# PCOD8064302 Si02
#       7
#     4   4   4   4   4   4   4
#     4   8  13  23  39  59  89 125 157 194 240 287
#     4   9  17  32  54  76  98 127 166 208 246 289
#     4   8  15  29  50  76 100 124 161 208 253 292
#     4   9  15  21  32  56  91 127 162 197 232 276
#     4  10  20  35  57  80  99 124 162 206 248 291
#     4  11  24  38  51  72 103 135 164 196 240 294
#     4   8  14  24  40  63  90 122 158 196 241 286
#
# _framework density 18.283221999999999
#
# number of rings (size 3 to 8) (size 9 to 14) (size 15 to 20)
#    0.000    3.000    0.000    3.429    0.000    4.857 
#    0.000    3.571    0.000    0.000    0.000    1.000 
#    0.000    8.000    0.000    0.000    0.000    0.000 
#
# Total GULP energy -347085.231418 kJ/mol
# GULP energy per Si atom -12395.901122 kJ/mol
# Density = 1.824161 g / cm^3
# Si number density = 18.283222 Si / 1000 Ang^3
#
#
#
# Elastic Constant Matrix: (Units=GPa)
#
#
# Indices 1 2 3 4 5 6 
#
# 1 54.0029 34.8860 35.9025 0.0000 -2.7545 0.0000
# 2 34.8860 103.5700 74.2381 0.0000 3.5459 0.0000
# 3 35.9025 74.2381 146.0939 0.0000 -4.3719 0.0000
# 4 0.0000 0.0000 0.0000 18.0951 0.0000 -0.2544
# 5 -2.7545 3.5459 -4.3719 0.0000 20.2487 0.0000
# 6 0.0000 0.0000 0.0000 -0.2544 0.0000 14.9770
#
#
#
# Elastic Compliance Matrix: (Units=1/GPa)
#
#
# Indices 1 2 3 4 5 6 
#
# 1 0.024709 -0.006591 -0.002605 0.000000 0.003953 0.000000
# 2 -0.006591 0.017336 -0.007355 0.000000 -0.005521 0.000000
# 3 -0.002605 -0.007355 0.011324 0.000000 0.003379 0.000000
# 4 0.000000 0.000000 0.000000 0.055277 0.000000 0.000939
# 5 0.003953 -0.005521 0.003379 0.000000 0.051620 0.000000
# 6 0.000000 0.000000 0.000000 0.000939 0.000000 0.066785
#
#
# Mechanical properties :
#
#
# Convention : Reuss Voigt Hill
#
# Bulk Modulus (GPa) = 49.34073 65.96889 57.65481
# Shear Modulus (GPa) = 18.73309 21.24017 19.98663
#
# Velocity S-wave (km/s) = 3.20442 3.41211 3.30990
# Velocity P-wave (km/s) = 6.38252 7.18911 6.79779
#
# Compressibility (1/GPa) = 0.02026723
#
# Stress axis : x y z
#
# Youngs Moduli (GPa) = 40.47173 57.68198 88.31168
#
# Poissons Ratio (x) = 0.38019 0.23001
# Poissons Ratio (y) = 0.26676 0.64953
# Poissons Ratio (z) = 0.10541 0.42425
#
# Static dielectric constant tensor:
#      x y z
#    x 2.927700 0.000000 -0.155900 
#    y 0.000000 3.345670 0.000000 
#    z -0.155900 0.000000 3.799030 
# 
# 
# High freq. dielectric constant tensor:
#      x y z
#    x 1.657640 0.000000 -0.002330 
#    y 0.000000 1.689460 0.000000 
#    z -0.002330 0.000000 1.729110 
# 
# From -- ./inp_files/86459.got.cif
#   From: 2010.06.25/outbox.cif.g09.slc.cpg/sg10_44_cif.got.tgz:86459.got - 2010.06.27 22:07:45.
