data_PCOD8064755
_publ_section_title
;
Structure prediction by ZEFSAII (Michael W. Deem and Ramdas Pophale) SiO2 
 PCOD8064755
Probable space group: P 2/M
;
_chemical_formula_sum "Si O2"
_cell_formula_units_Z 20
_cell_length_a 6.373745
_cell_length_b 13.148841
_cell_length_c 12.295233
_cell_angle_alpha 90.000000
_cell_angle_beta 104.481484
_cell_angle_gamma 90.000000
_cell_volume 997.692678
_symmetry_space_group_name_H-M "P 2/M"
_symmetry_group_IT_number 10
_symmetry_cell_setting 'monoclinic'
loop_
_space_group_symop_operation_xyz
x,y,z
-x,y,-z
-x,-y,-z
x,-y,z
loop_
_atom_site_type_symbol
_atom_site_label
_atom_site_fract_x
_atom_site_fract_y
_atom_site_fract_z
Si Si1 0.723706 0.887180 0.146198
Si Si2 0.000000 0.207027 0.000000
Si Si3 0.864820 0.886313 0.659192
Si Si4 0.000000 0.739550 0.500000
Si Si5 0.403514 0.381797 0.607005
Si Si6 0.362749 0.757988 0.198964
O O1 0.843799 0.865667 0.048733
O O2 0.545842 0.800199 0.141993
O O3 0.889866 0.883933 0.267408
O O4 0.619576 0.000000 0.124803
O O5 0.848256 0.275171 0.900146
O O6 0.697335 0.850989 0.729376
O O7 0.850649 0.809904 0.556515
O O8 0.798475 0.000000 0.613865
O O9 0.166780 0.669059 0.588294
O O10 0.500000 0.362217 0.500000
O O11 0.376295 0.500000 0.627773
O O12 0.561282 0.338174 0.720696
#
# Coordination Sequence:
#
# PCOD8064755 Si02
#       6
#     4   2   4   2   4   4
#     4  10  20  36  58  86 124 164 201 241 293 354
#     4  10  23  36  59  88 122 160 203 244 295 354
#     4  10  21  34  56  90 126 161 196 233 292 366
#     4  12  20  40  60  90 120 156 196 252 300 356
#     4  11  24  42  65  90 116 154 205 257 307 355
#     4  11  21  40  59  87 122 160 201 249 295 352
#
# _framework density 20.046251000000002
#
# number of rings (size 3 to 8) (size 9 to 14) (size 15 to 20)
#    0.000    1.400    4.000    2.100    0.000    3.200 
#    0.000    1.500    0.000    2.400    0.000    0.000 
#    0.000    0.000    0.000    0.000    0.000    0.000 
#
# Total GULP energy -248014.105204 kJ/mol
# GULP energy per Si atom -12400.705260 kJ/mol
# Density = 2.000062 g / cm^3
# Si number density = 20.046251 Si / 1000 Ang^3
#
#
#
# Elastic Constant Matrix: (Units=GPa)
#
#
# Indices 1 2 3 4 5 6 
#
# 1 82.0134 49.0667 38.8417 0.0000 -7.1141 0.0000
# 2 49.0667 132.1106 61.6743 0.0000 8.1009 0.0000
# 3 38.8417 61.6743 107.0683 0.0000 7.5950 0.0000
# 4 0.0000 0.0000 0.0000 19.6244 0.0000 0.7642
# 5 -7.1141 8.1009 7.5950 0.0000 41.9369 0.0000
# 6 0.0000 0.0000 0.0000 0.7642 0.0000 23.0858
#
#
#
# Elastic Compliance Matrix: (Units=1/GPa)
#
#
# Indices 1 2 3 4 5 6 
#
# 1 0.017341 -0.004969 -0.003754 0.000000 0.004581 0.000000
# 2 -0.004969 0.011814 -0.004843 0.000000 -0.002248 0.000000
# 3 -0.003754 -0.004843 0.013645 0.000000 -0.002172 0.000000
# 4 0.000000 0.000000 0.000000 0.051023 0.000000 -0.001689
# 5 0.004581 -0.002248 -0.002172 0.000000 0.025450 0.000000
# 6 0.000000 0.000000 0.000000 -0.001689 0.000000 0.043373
#
#
# Mechanical properties :
#
#
# Convention : Reuss Voigt Hill
#
# Bulk Modulus (GPa) = 63.82066 68.92864 66.37465
# Shear Modulus (GPa) = 25.64105 28.37006 27.00555
#
# Velocity S-wave (km/s) = 3.58032 3.76604 3.67435
# Velocity P-wave (km/s) = 6.99982 7.30549 7.15428
#
# Compressibility (1/GPa) = 0.01566891
#
# Stress axis : x y z
#
# Youngs Moduli (GPa) = 57.66602 84.64750 73.28575
#
# Poissons Ratio (x) = 0.42064 0.27508
# Poissons Ratio (y) = 0.28656 0.35491
# Poissons Ratio (z) = 0.21645 0.40993
#
# Static dielectric constant tensor:
#      x y z
#    x 3.656400 0.000000 0.118880 
#    y 0.000000 3.398370 0.000000 
#    z 0.118880 0.000000 3.761700 
# 
# 
# High freq. dielectric constant tensor:
#      x y z
#    x 1.790210 0.000000 0.001590 
#    y 0.000000 1.753630 0.000000 
#    z 0.001590 0.000000 1.786500 
# 
# From -- ./inp_files/8985.got.cif
#   From: 2010.06.25/outbox.cif.g09.slc.cpg/sg10_5_cif.got.tgz:8985.got - 2010.06.27 22:07:45.
