data_PCOD8064566
_publ_section_title
;
Structure prediction by ZEFSAII (Michael W. Deem and Ramdas Pophale) SiO2 
 PCOD8064566
Probable space group: P 2/M
;
_chemical_formula_sum "Si O2"
_cell_formula_units_Z 28
_cell_length_a 19.567737
_cell_length_b 13.117634
_cell_length_c 10.262343
_cell_angle_alpha 90.000000
_cell_angle_beta 31.993694
_cell_angle_gamma 90.000000
_cell_volume 1395.647823
_symmetry_space_group_name_H-M "P 2/M"
_symmetry_group_IT_number 10
_symmetry_cell_setting 'monoclinic'
loop_
_space_group_symop_operation_xyz
x,y,z
-x,y,-z
-x,-y,-z
x,-y,z
loop_
_atom_site_type_symbol
_atom_site_label
_atom_site_fract_x
_atom_site_fract_y
_atom_site_fract_z
Si Si1 0.409824 0.390480 0.916878
Si Si2 0.183464 0.615097 0.469758
Si Si3 0.700160 0.614511 0.447324
Si Si4 0.946228 0.000000 0.299867
Si Si5 0.355667 0.805008 0.880097
Si Si6 0.198733 0.000000 0.719216
Si Si7 0.649921 0.179381 0.406388
Si Si8 0.898005 0.806799 0.551696
O O1 0.387707 0.500000 0.888066
O O2 0.554511 0.377752 0.735617
O O3 0.366107 0.317496 0.869344
O O4 0.325653 0.374809 0.181387
O O5 0.127051 0.500000 0.535714
O O6 0.198119 0.633727 0.600674
O O7 0.097729 0.703638 0.542587
O O8 0.724973 0.500000 0.347804
O O9 0.709621 0.706817 0.328658
O O10 0.945330 0.900098 0.389263
O O11 0.826627 0.000000 0.394142
O O12 0.073768 0.000000 0.009376
O O13 0.324856 0.845625 0.786053
O O14 0.499951 0.839832 0.687536
O O15 0.242802 0.838458 0.162408
O O16 0.276616 0.101974 0.620980
O O17 0.000000 0.786692 0.500000
#
# Coordination Sequence:
#
# PCOD8064566 Si02
#       8
#     4   4   4   2   4   2   4   4
#     4   8  14  26  46  75 111 148 183 220 268 322
#     4   9  17  30  50  78 110 143 182 226 273 324
#     4   9  16  28  50  78 110 146 181 223 271 322
#     4  11  25  43  63  84 106 138 186 223 262 327
#     4   9  20  34  54  83 113 146 184 228 273 320
#     4  11  24  42  63  83 108 144 174 219 275 328
#     4  10  20  36  55  82 115 147 184 223 274 326
#     4  11  22  38  59  82 109 145 186 230 272 320
#
# _framework density 20.062367999999999
#
# number of rings (size 3 to 8) (size 9 to 14) (size 15 to 20)
#    0.000    2.429    0.000    2.357    0.000    4.857 
#    0.000    5.714    0.000    2.571    0.000   10.000 
#    0.000    0.000    0.000    0.000    0.000    0.000 
#
# Total GULP energy -346896.479754 kJ/mol
# GULP energy per Si atom -12389.159991 kJ/mol
# Density = 2.001671 g / cm^3
# Si number density = 20.062368 Si / 1000 Ang^3
#
#
#
# Elastic Constant Matrix: (Units=GPa)
#
#
# Indices 1 2 3 4 5 6 
#
# 1 95.1526 42.1444 6.1317 0.0000 -16.5563 0.0000
# 2 42.1444 112.1391 8.2655 0.0000 -11.6199 0.0000
# 3 6.1317 8.2655 42.5972 0.0000 -4.1326 0.0000
# 4 0.0000 0.0000 0.0000 -108.7765 0.0000 -60.6809
# 5 -16.5563 -11.6199 -4.1326 0.0000 17.4547 0.0000
# 6 0.0000 0.0000 0.0000 -60.6809 0.0000 4.7862
#
#
#
# Elastic Compliance Matrix: (Units=1/GPa)
#
#
# Indices 1 2 3 4 5 6 
#
# 1 0.014252 -0.004238 -0.000196 0.000000 0.010651 0.000000
# 2 -0.004238 0.010906 -0.001220 0.000000 0.002951 0.000000
# 3 -0.000196 -0.001220 0.024200 0.000000 0.004732 0.000000
# 4 0.000000 0.000000 0.000000 -0.001139 0.000000 -0.014438
# 5 0.010651 0.002951 0.004732 0.000000 0.070479 0.000000
# 6 0.000000 0.000000 0.000000 -0.014438 0.000000 0.025882
#
#
# Mechanical properties :
#
#
# Convention : Reuss Voigt Hill
#
# Bulk Modulus (GPa) = 26.28101 40.33025 33.30563
# Shear Modulus (GPa) = 29.66100 -4.41729 12.62185
#
# Velocity S-wave (km/s) = 3.84922 -1.48545 2.51097
# Velocity P-wave (km/s) = 5.73441 4.14777 5.00437
#
# Compressibility (1/GPa) = 0.03805028
#
# Stress axis : x y z
#
# Youngs Moduli (GPa) = 70.16316 91.69194 41.32291
#
# Poissons Ratio (x) = 0.38862 0.00809
# Poissons Ratio (y) = 0.29737 0.05041
# Poissons Ratio (z) = 0.01374 0.11184
#
# Static dielectric constant tensor:
#      x y z
#    x 3.532840 0.000000 -0.077430 
#    y 0.000000 3.822390 0.000000 
#    z -0.077430 0.000000 3.507600 
# 
# 
# High freq. dielectric constant tensor:
#      x y z
#    x 1.774700 0.000000 -0.005350 
#    y 0.000000 1.790020 0.000000 
#    z -0.005350 0.000000 1.762560 
# 
# From -- ./inp_files/55827.got.cif
#   From: 2010.06.25/outbox.cif.g09.slc.cpg/sg10_28_cif.got.tgz:55827.got - 2010.06.27 22:07:45.
