data_PCOD8064284
_publ_section_title
;
Structure prediction by ZEFSAII (Michael W. Deem and Ramdas Pophale) SiO2 
 PCOD8064284
Probable space group: P 2/M
;
_chemical_formula_sum "Si O2"
_cell_formula_units_Z 24
_cell_length_a 10.296745
_cell_length_b 13.591521
_cell_length_c 10.159381
_cell_angle_alpha 90.000000
_cell_angle_beta 57.588925
_cell_angle_gamma 90.000000
_cell_volume 1200.309196
_symmetry_space_group_name_H-M "P 2/M"
_symmetry_group_IT_number 10
_symmetry_cell_setting 'monoclinic'
loop_
_space_group_symop_operation_xyz
x,y,z
-x,y,-z
-x,-y,-z
x,-y,z
loop_
_atom_site_type_symbol
_atom_site_label
_atom_site_fract_x
_atom_site_fract_y
_atom_site_fract_z
Si Si1 0.836104 0.387714 0.791347
Si Si2 0.312366 0.703722 0.888478
Si Si3 0.828217 0.201364 0.631646
Si Si4 0.669712 0.111812 0.957202
Si Si5 0.829880 0.386712 0.276987
Si Si6 0.598559 0.271012 0.566441
O O1 0.822438 0.500000 0.750378
O O2 0.810526 0.316276 0.681753
O O3 0.004320 0.362731 0.755033
O O4 0.710342 0.366393 0.972758
O O5 0.187359 0.678372 0.845077
O O6 0.483720 0.685912 0.739570
O O7 0.288618 0.817573 0.943456
O O8 0.784863 0.128832 0.773355
O O9 0.711900 0.189448 0.570488
O O10 0.000000 0.172562 0.500000
O O11 0.683340 0.000000 0.999332
O O12 0.500000 0.138140 0.000000
O O13 0.813017 0.500000 0.246073
O O14 0.699125 0.360571 0.454218
O O15 0.500000 0.221932 0.500000
#
# Coordination Sequence:
#
# PCOD8064284 Si02
#       6
#     4   4   4   4   4   4
#     4  10  21  34  55  86 117 156 197 235 282 335
#     4  10  20  35  58  80 116 148 194 236 285 339
#     4  11  21  38  61  86 115 152 194 243 287 339
#     4  10  21  39  64  87 111 148 191 242 304 353
#     4  10  20  35  56  84 120 163 195 226 280 342
#     4  10  21  36  55  83 117 153 190 233 287 340
#
# _framework density 19.994847
#
# number of rings (size 3 to 8) (size 9 to 14) (size 15 to 20)
#    0.000    1.833    3.333    1.000    0.000    6.333 
#    0.000    0.833    0.000   17.000    0.000    0.000 
#    0.000    0.000    0.000    0.000    0.000    0.000 
#
# Total GULP energy -297613.579480 kJ/mol
# GULP energy per Si atom -12400.565812 kJ/mol
# Density = 1.994934 g / cm^3
# Si number density = 19.994847 Si / 1000 Ang^3
#
#
#
# Elastic Constant Matrix: (Units=GPa)
#
#
# Indices 1 2 3 4 5 6 
#
# 1 91.9797 27.4777 34.0938 0.0000 0.4071 0.0000
# 2 27.4777 91.3274 19.5999 0.0000 9.2376 0.0000
# 3 34.0938 19.5999 126.5019 0.0000 -12.2108 0.0000
# 4 0.0000 0.0000 0.0000 15.3035 0.0000 2.8706
# 5 0.4071 9.2376 -12.2108 0.0000 29.6163 0.0000
# 6 0.0000 0.0000 0.0000 2.8706 0.0000 21.6938
#
#
#
# Elastic Compliance Matrix: (Units=1/GPa)
#
#
# Indices 1 2 3 4 5 6 
#
# 1 0.012956 -0.003203 -0.003037 0.000000 -0.000431 0.000000
# 2 -0.003203 0.012706 -0.001545 0.000000 -0.004556 0.000000
# 3 -0.003037 -0.001545 0.009387 0.000000 0.004394 0.000000
# 4 0.000000 0.000000 0.000000 0.067007 0.000000 -0.008867
# 5 -0.000431 -0.004556 0.004394 0.000000 0.037004 0.000000
# 6 0.000000 0.000000 0.000000 -0.008867 0.000000 0.047269
#
#
# Mechanical properties :
#
#
# Convention : Reuss Voigt Hill
#
# Bulk Modulus (GPa) = 51.33790 52.46130 51.89960
# Shear Modulus (GPa) = 23.99308 28.56525 26.27916
#
# Velocity S-wave (km/s) = 3.46781 3.78382 3.62926
# Velocity P-wave (km/s) = 6.46263 6.73677 6.60112
#
# Compressibility (1/GPa) = 0.01947879
#
# Stress axis : x y z
#
# Youngs Moduli (GPa) = 77.18137 78.70502 106.52841
#
# Poissons Ratio (x) = 0.25207 0.32356
# Poissons Ratio (y) = 0.24719 0.16461
# Poissons Ratio (z) = 0.23443 0.12161
#
# Static dielectric constant tensor:
#      x y z
#    x 3.731630 0.000000 -0.051560 
#    y 0.000000 3.272170 0.000000 
#    z -0.051560 0.000000 3.849550 
# 
# 
# High freq. dielectric constant tensor:
#      x y z
#    x 1.781370 0.000000 -0.006600 
#    y 0.000000 1.740230 0.000000 
#    z -0.006600 0.000000 1.800520 
# 
# From -- ./inp_files/46503.got.cif
#   From: 2010.06.25/outbox.cif.g09.slc.cpg/sg10_24_cif.got.tgz:46503.got - 2010.06.27 22:07:45.
