data_PCOD8064597
_publ_section_title
;
Structure prediction by ZEFSAII (Michael W. Deem and Ramdas Pophale) SiO2 
 PCOD8064597
Probable space group: P 2/M
;
_chemical_formula_sum "Si O2"
_cell_formula_units_Z 32
_cell_length_a 22.503663
_cell_length_b 8.926240
_cell_length_c 14.956546
_cell_angle_alpha 90.000000
_cell_angle_beta 32.234423
_cell_angle_gamma 90.000000
_cell_volume 1602.483375
_symmetry_space_group_name_H-M "P 2/M"
_symmetry_group_IT_number 10
_symmetry_cell_setting 'monoclinic'
loop_
_space_group_symop_operation_xyz
x,y,z
-x,y,-z
-x,-y,-z
x,-y,z
loop_
_atom_site_type_symbol
_atom_site_label
_atom_site_fract_x
_atom_site_fract_y
_atom_site_fract_z
Si Si1 0.464621 0.332958 0.647122
Si Si2 0.264677 0.826898 0.468967
Si Si3 0.885562 0.325558 0.812497
Si Si4 0.742581 0.177207 0.840336
Si Si5 0.319838 0.827515 0.591525
Si Si6 0.751988 0.176311 0.123829
Si Si7 0.857627 0.674544 0.528334
Si Si8 0.501906 0.176893 0.097047
O O1 0.500000 0.337000 0.500000
O O2 0.439518 0.500000 0.714933
O O3 0.566440 0.261949 0.572221
O O4 0.355084 0.231255 0.796428
O O5 0.241253 0.805734 0.604887
O O6 0.178753 0.723581 0.524817
O O7 0.391099 0.772600 0.289716
O O8 0.248629 0.000000 0.460955
O O9 0.861437 0.500000 0.850855
O O10 0.807063 0.257850 0.837014
O O11 0.012202 0.292529 0.625118
O O12 0.860059 0.251253 0.941365
O O13 0.791222 0.225385 0.682947
O O14 0.756638 0.000000 0.833223
O O15 0.613030 0.229018 0.008511
O O16 0.255226 0.772639 0.762968
O O17 0.354681 0.000000 0.559887
O O18 0.761997 0.000000 0.101631
O O19 0.831259 0.500000 0.576871
O O20 0.507109 0.000000 0.081623
O O21 0.500000 0.248153 0.000000
#
# Coordination Sequence:
#
# PCOD8064597 Si02
#       8
#     4   4   4   4   4   4   4   4
#     4   9  17  30  50  77 112 152 188 229 285 345
#     4  10  20  37  61  86 118 156 195 239 290 346
#     4  11  25  42  59  83 116 154 197 247 300 347
#     4  11  22  38  64  92 117 151 194 236 290 355
#     4   9  19  34  56  85 116 153 195 243 294 344
#     4  10  20  36  56  82 114 150 198 247 293 346
#     4  11  24  42  60  82 117 156 195 243 295 350
#     4   9  17  33  57  88 120 148 181 231 286 340
#
# _framework density 19.969006
#
# number of rings (size 3 to 8) (size 9 to 14) (size 15 to 20)
#    0.000    2.000    1.250    2.250    1.750    6.000 
#    0.000    2.500    0.000    3.750    0.000    0.000 
#    0.000    0.000    0.000    0.000    0.000    0.000 
#
# Total GULP energy -396808.067157 kJ/mol
# GULP energy per Si atom -12400.252099 kJ/mol
# Density = 1.992356 g / cm^3
# Si number density = 19.969006 Si / 1000 Ang^3
#
#
#
# Elastic Constant Matrix: (Units=GPa)
#
#
# Indices 1 2 3 4 5 6 
#
# 1 107.8048 27.2539 27.0814 0.0000 -2.9361 0.0000
# 2 27.2539 69.7625 27.0499 0.0000 -7.1824 0.0000
# 3 27.0814 27.0499 48.4449 0.0000 -1.5434 0.0000
# 4 0.0000 0.0000 0.0000 29.2089 0.0000 -1.7549
# 5 -2.9361 -7.1824 -1.5434 0.0000 28.9748 0.0000
# 6 0.0000 0.0000 0.0000 -1.7549 0.0000 24.8728
#
#
#
# Elastic Compliance Matrix: (Units=1/GPa)
#
#
# Indices 1 2 3 4 5 6 
#
# 1 0.011116 -0.002437 -0.004845 0.000000 0.000264 0.000000
# 2 -0.002437 0.019304 -0.009287 0.000000 0.004043 0.000000
# 3 -0.004845 -0.009287 0.028496 0.000000 -0.001275 0.000000
# 4 0.000000 0.000000 0.000000 0.034382 0.000000 0.002426
# 5 0.000264 0.004043 -0.001275 0.000000 0.035474 0.000000
# 6 0.000000 0.000000 0.000000 0.002426 0.000000 0.040376
#
#
# Mechanical properties :
#
#
# Convention : Reuss Voigt Hill
#
# Bulk Modulus (GPa) = 38.79449 43.19807 40.99628
# Shear Modulus (GPa) = 23.71030 26.25311 24.98171
#
# Velocity S-wave (km/s) = 3.44954 3.62980 3.54082
# Velocity P-wave (km/s) = 5.94435 6.26473 6.10664
#
# Compressibility (1/GPa) = 0.02577685
#
# Stress axis : x y z
#
# Youngs Moduli (GPa) = 89.95685 51.80320 35.09302
#
# Poissons Ratio (x) = 0.12624 0.17003
# Poissons Ratio (y) = 0.21922 0.32593
# Poissons Ratio (z) = 0.43585 0.48112
#
# Static dielectric constant tensor:
#      x y z
#    x 3.668870 0.000000 0.060750 
#    y 0.000000 3.558000 0.000000 
#    z 0.060750 0.000000 3.706730 
# 
# 
# High freq. dielectric constant tensor:
#      x y z
#    x 1.777300 0.000000 0.009560 
#    y 0.000000 1.769950 0.000000 
#    z 0.009560 0.000000 1.773300 
# 
# From -- ./inp_files/58074.got.cif
#   From: 2010.06.25/outbox.cif.g09.slc.cpg/sg10_30_cif.got.tgz:58074.got - 2010.06.27 22:07:45.
