data_PCOD8064886
_publ_section_title
;
Structure prediction by ZEFSAII (Michael W. Deem and Ramdas Pophale) SiO2 
 PCOD8064886
Probable space group: P 2/M
;
_chemical_formula_sum "Si O2"
_cell_formula_units_Z 24
_cell_length_a 19.174429
_cell_length_b 15.184694
_cell_length_c 12.654557
_cell_angle_alpha 90.000000
_cell_angle_beta 19.692075
_cell_angle_gamma 90.000000
_cell_volume 1241.538718
_symmetry_space_group_name_H-M "P 2/M"
_symmetry_group_IT_number 10
_symmetry_cell_setting 'monoclinic'
loop_
_space_group_symop_operation_xyz
x,y,z
-x,y,-z
-x,-y,-z
x,-y,z
loop_
_atom_site_type_symbol
_atom_site_label
_atom_site_fract_x
_atom_site_fract_y
_atom_site_fract_z
Si Si1 0.469418 0.600030 0.736114
Si Si2 0.649682 0.306545 0.885113
Si Si3 0.094879 0.684547 0.180386
Si Si4 0.780890 0.160267 0.842923
Si Si5 0.428491 0.901911 0.484473
Si Si6 0.822285 0.268819 0.170859
O O1 0.548267 0.500000 0.620704
O O2 0.637943 0.662100 0.441971
O O3 0.441675 0.628391 0.896963
O O4 0.258889 0.606256 0.966743
O O5 0.677008 0.206215 0.888603
O O6 0.868785 0.347712 0.537313
O O7 0.500000 0.302027 0.000000
O O8 0.172586 0.762545 0.142609
O O9 0.080667 0.721030 0.082614
O O10 0.000000 0.112657 0.500000
O O11 0.621013 0.094665 0.127586
O O12 0.500000 0.875833 0.500000
O O13 0.259679 0.830195 0.689955
O O14 0.329898 0.000000 0.624868
O O15 0.000000 0.291343 0.000000
#
# Coordination Sequence:
#
# PCOD8064886 Si02
#       6
#     4   4   4   4   4   4
#     4  11  23  40  61  86 117 155 201 247 294 355
#     4  10  20  36  60  89 116 155 194 241 298 355
#     4  10  20  36  60  85 113 157 202 235 291 352
#     4   9  18  35  59  86 115 152 197 241 286 350
#     4  11  21  38  64  90 119 157 201 243 291 354
#     4  12  23  39  61  86 122 157 194 250 303 349
#
# _framework density 19.330850999999999
#
# number of rings (size 3 to 8) (size 9 to 14) (size 15 to 20)
#    0.000    1.500    5.000    3.000    0.000    4.000 
#    0.000    1.667    0.000    0.500    0.000    0.000 
#    0.000    0.000    0.000    0.000    0.000    0.000 
#
# Total GULP energy -297581.177589 kJ/mol
# GULP energy per Si atom -12399.215733 kJ/mol
# Density = 1.928685 g / cm^3
# Si number density = 19.330851 Si / 1000 Ang^3
#
#
#
# Elastic Constant Matrix: (Units=GPa)
#
#
# Indices 1 2 3 4 5 6 
#
# 1 104.2140 7.8553 18.3878 0.0000 -9.7925 0.0000
# 2 7.8553 76.9438 10.3120 0.0000 0.3002 0.0000
# 3 18.3878 10.3120 64.2324 0.0000 10.2183 0.0000
# 4 0.0000 0.0000 0.0000 2.7415 0.0000 3.3341
# 5 -9.7925 0.3002 10.2183 0.0000 33.1887 0.0000
# 6 0.0000 0.0000 0.0000 3.3341 0.0000 16.7966
#
#
#
# Elastic Compliance Matrix: (Units=1/GPa)
#
#
# Indices 1 2 3 4 5 6 
#
# 1 0.010687 -0.000620 -0.003641 0.000000 0.004280 0.000000
# 2 -0.000620 0.013328 -0.002013 0.000000 0.000316 0.000000
# 3 -0.003641 -0.002013 0.017983 0.000000 -0.006593 0.000000
# 4 0.000000 0.000000 0.000000 0.480848 0.000000 -0.095447
# 5 0.004280 0.000316 -0.006593 0.000000 0.033420 0.000000
# 6 0.000000 0.000000 0.000000 -0.095447 0.000000 0.078482
#
#
# Mechanical properties :
#
#
# Convention : Reuss Voigt Hill
#
# Bulk Modulus (GPa) = 33.95410 35.38892 34.67151
# Shear Modulus (GPa) = 7.60906 24.46771 16.03838
#
# Velocity S-wave (km/s) = 1.98614 3.56157 2.88354
# Velocity P-wave (km/s) = 4.78148 5.93800 5.39084
#
# Compressibility (1/GPa) = 0.02945152
#
# Stress axis : x y z
#
# Youngs Moduli (GPa) = 93.57274 75.02850 55.60949
#
# Poissons Ratio (x) = 0.04650 0.20245
# Poissons Ratio (y) = 0.05800 0.11192
# Poissons Ratio (z) = 0.34067 0.15100
#
# Static dielectric constant tensor:
#      x y z
#    x 0.997060 0.000000 -4.045650 
#    y 0.000000 3.278770 0.000000 
#    z -4.045650 0.000000 -2.896670 
# 
# 
# High freq. dielectric constant tensor:
#      x y z
#    x 1.753340 0.000000 0.014470 
#    y 0.000000 1.724720 0.000000 
#    z 0.014470 0.000000 1.763420 
# 
# From -- ./inp_files/19310.got.cif
#   From: 2010.06.25/outbox.cif.g09.slc.cpg/sg10_10_cif.got.tgz:19310.got - 2010.06.27 22:07:45.
