data_PCOD8064249
_publ_section_title
;
Structure prediction by ZEFSAII (Michael W. Deem and Ramdas Pophale) SiO2 
 PCOD8064249
Probable space group: P 2/M
;
_chemical_formula_sum "Si O2"
_cell_formula_units_Z 20
_cell_length_a 11.356999
_cell_length_b 8.490087
_cell_length_c 13.454454
_cell_angle_alpha 90.000000
_cell_angle_beta 125.565439
_cell_angle_gamma 90.000000
_cell_volume 1055.294331
_symmetry_space_group_name_H-M "P 2/M"
_symmetry_group_IT_number 10
_symmetry_cell_setting 'monoclinic'
loop_
_space_group_symop_operation_xyz
x,y,z
-x,y,-z
-x,-y,-z
x,-y,z
loop_
_atom_site_type_symbol
_atom_site_label
_atom_site_fract_x
_atom_site_fract_y
_atom_site_fract_z
Si Si1 0.206092 0.183709 0.059754
Si Si2 0.208411 0.683756 0.642890
Si Si3 0.935357 0.183882 0.611959
Si Si4 0.509130 0.684352 0.889996
Si Si5 0.064623 0.314554 0.179107
O O1 0.366828 0.216324 0.101962
O O2 0.179921 0.273309 0.150535
O O3 0.182026 0.000000 0.065849
O O4 0.092912 0.243920 0.922171
O O5 0.201975 0.500000 0.615566
O O6 0.187056 0.778281 0.529861
O O7 0.360467 0.732857 0.764413
O O8 0.083139 0.724801 0.659639
O O9 0.877741 0.240798 0.690161
O O10 0.968377 0.000000 0.628690
O O11 0.543522 0.500000 0.896171
O O12 0.500000 0.734258 0.000000
O O13 0.049871 0.500000 0.182410
#
# Coordination Sequence:
#
# PCOD8064249 Si02
#       5
#     4   4   4   4   4
#     4  11  22  36  56  84 114 141 178 225 274 324
#     4  10  20  35  56  82 112 147 187 223 265 326
#     4  11  21  35  56  82 112 143 182 230 277 319
#     4  10  21  37  57  81 111 147 183 220 266 322
#     4  11  21  37  59  80 108 145 185 224 268 324
#
# _framework density 18.952058000000001
#
# number of rings (size 3 to 8) (size 9 to 14) (size 15 to 20)
#    0.000    1.400    0.000    9.600    0.000    3.600 
#    0.000    1.000    0.000    6.000    0.000    0.000 
#    0.000    0.000    0.000    0.000    0.000    0.000 
#
# Total GULP energy -248118.725661 kJ/mol
# GULP energy per Si atom -12405.936283 kJ/mol
# Density = 1.890892 g / cm^3
# Si number density = 18.952058 Si / 1000 Ang^3
#
#
#
# Elastic Constant Matrix: (Units=GPa)
#
#
# Indices 1 2 3 4 5 6 
#
# 1 87.4196 11.4938 62.8282 0.0000 4.4161 0.0000
# 2 11.4938 67.8722 29.2686 0.0000 7.5436 0.0000
# 3 62.8282 29.2686 114.8260 0.0000 -3.1714 0.0000
# 4 0.0000 0.0000 0.0000 20.4509 0.0000 -6.0754
# 5 4.4161 7.5436 -3.1714 0.0000 29.9658 0.0000
# 6 0.0000 0.0000 0.0000 -6.0754 0.0000 27.0259
#
#
#
# Elastic Compliance Matrix: (Units=1/GPa)
#
#
# Indices 1 2 3 4 5 6 
#
# 1 0.019567 0.002102 -0.011370 0.000000 -0.004616 0.000000
# 2 0.002102 0.017444 -0.005744 0.000000 -0.005309 0.000000
# 3 -0.011370 -0.005744 0.016529 0.000000 0.004871 0.000000
# 4 0.000000 0.000000 0.000000 0.052397 0.000000 0.011779
# 5 -0.004616 -0.005309 0.004871 0.000000 0.035904 0.000000
# 6 0.000000 0.000000 0.000000 0.011779 0.000000 0.039649
#
#
# Mechanical properties :
#
#
# Convention : Reuss Voigt Hill
#
# Bulk Modulus (GPa) = 42.51990 53.03323 47.77657
# Shear Modulus (GPa) = 22.79448 26.59034 24.69241
#
# Velocity S-wave (km/s) = 3.47182 3.74977 3.61347
# Velocity P-wave (km/s) = 6.20932 6.84042 6.53249
#
# Compressibility (1/GPa) = 0.02351840
#
# Stress axis : x y z
#
# Youngs Moduli (GPa) = 51.10546 57.32497 60.50144
#
# Poissons Ratio (x) = -0.12053 0.68790
# Poissons Ratio (y) = -0.10745 0.34749
# Poissons Ratio (z) = 0.58106 0.32925
#
# Static dielectric constant tensor:
#      x y z
#    x 3.482890 0.000000 -0.262610 
#    y 0.000000 3.537680 0.000000 
#    z -0.262610 0.000000 3.726430 
# 
# 
# High freq. dielectric constant tensor:
#      x y z
#    x 1.728370 0.000000 -0.012430 
#    y 0.000000 1.751290 0.000000 
#    z -0.012430 0.000000 1.738700 
# 
# From -- ./inp_files/48598.got.cif
#   From: 2010.06.25/outbox.cif.g09.slc.cpg/sg10_25_cif.got.tgz:48598.got - 2010.06.27 22:07:45.
