data_PCOD8064215
_publ_section_title
;
Structure prediction by ZEFSAII (Michael W. Deem and Ramdas Pophale) SiO2 
 PCOD8064215
Probable space group: P 2/M
;
_chemical_formula_sum "Si O2"
_cell_formula_units_Z 32
_cell_length_a 31.047072
_cell_length_b 8.795685
_cell_length_c 11.215259
_cell_angle_alpha 90.000000
_cell_angle_beta 147.348500
_cell_angle_gamma 90.000000
_cell_volume 1652.393401
_symmetry_space_group_name_H-M "P 2/M"
_symmetry_group_IT_number 10
_symmetry_cell_setting 'monoclinic'
loop_
_space_group_symop_operation_xyz
x,y,z
-x,y,-z
-x,-y,-z
x,-y,z
loop_
_atom_site_type_symbol
_atom_site_label
_atom_site_fract_x
_atom_site_fract_y
_atom_site_fract_z
Si Si1 0.173169 0.319399 0.643797
Si Si2 0.691989 0.821194 0.441382
Si Si3 0.325238 0.680511 0.853273
Si Si4 0.520118 0.823627 0.683663
Si Si5 0.992314 0.680543 0.847742
Si Si6 0.207171 0.322178 0.988150
Si Si7 0.376461 0.322149 0.490240
Si Si8 0.860582 0.177784 0.943107
O O1 0.173452 0.500000 0.645855
O O2 0.243225 0.259871 0.721111
O O3 0.089667 0.255450 0.399287
O O4 0.186991 0.259279 0.809950
O O5 0.667406 0.743663 0.261858
O O6 0.633275 0.756514 0.404706
O O7 0.783062 0.778397 0.684992
O O8 0.679528 0.000000 0.402795
O O9 0.328876 0.500000 0.858560
O O10 0.396290 0.742514 0.099281
O O11 0.500000 0.797131 0.500000
O O12 0.453378 0.747363 0.608718
O O13 0.526148 0.000000 0.731079
O O14 0.992585 0.500000 0.848409
O O15 0.064895 0.736299 0.937752
O O16 0.000000 0.743833 0.000000
O O17 0.188216 0.500000 0.957608
O O18 0.299968 0.287980 0.229310
O O19 0.151026 0.231825 0.948483
O O20 0.389154 0.500000 0.539594
O O21 0.877361 0.000000 0.980999
#
# Coordination Sequence:
#
# PCOD8064215 Si02
#       8
#     4   4   4   4   4   4   4   4
#     4   9  19  35  56  82 109 141 183 232 281 325
#     4  10  21  38  58  82 115 150 183 224 280 340
#     4  11  22  38  61  86 112 143 187 237 278 324
#     4  11  24  40  58  83 117 153 185 222 276 337
#     4  10  20  35  56  80 108 144 186 229 274 327
#     4   9  18  35  58  81 108 143 183 227 275 327
#     4  10  20  36  60  86 110 143 189 235 278 325
#     4  10  21  36  55  81 113 147 182 223 273 329
#
# _framework density 19.365849000000001
#
# number of rings (size 3 to 8) (size 9 to 14) (size 15 to 20)
#    0.000    2.000    0.000    3.375    0.000    6.250 
#    0.000    8.125    0.000    0.000    0.000    0.000 
#    0.000    0.000    0.000    0.000    0.000    0.000 
#
# Total GULP energy -396945.318678 kJ/mol
# GULP energy per Si atom -12404.541209 kJ/mol
# Density = 1.932177 g / cm^3
# Si number density = 19.365849 Si / 1000 Ang^3
#
#
#
# Elastic Constant Matrix: (Units=GPa)
#
#
# Indices 1 2 3 4 5 6 
#
# 1 121.1274 38.2825 57.9515 0.0000 3.9996 0.0000
# 2 38.2825 63.8302 39.0504 0.0000 0.1035 0.0000
# 3 57.9515 39.0504 99.5200 0.0000 2.9506 0.0000
# 4 0.0000 0.0000 0.0000 25.2031 0.0000 -4.0750
# 5 3.9996 0.1035 2.9506 0.0000 41.0629 0.0000
# 6 0.0000 0.0000 0.0000 -4.0750 0.0000 9.4227
#
#
#
# Elastic Compliance Matrix: (Units=1/GPa)
#
#
# Indices 1 2 3 4 5 6 
#
# 1 0.012160 -0.003913 -0.005523 0.000000 -0.000778 0.000000
# 2 -0.003913 0.021886 -0.006332 0.000000 0.000781 0.000000
# 3 -0.005523 -0.006332 0.015766 0.000000 -0.000579 0.000000
# 4 0.000000 0.000000 0.000000 0.042661 0.000000 0.018449
# 5 -0.000778 0.000781 -0.000579 0.000000 0.024468 0.000000
# 6 0.000000 0.000000 0.000000 0.018449 0.000000 0.114105
#
#
# Mechanical properties :
#
#
# Convention : Reuss Voigt Hill
#
# Bulk Modulus (GPa) = 54.71561 61.67183 58.19372
# Shear Modulus (GPa) = 18.60982 25.08394 21.84688
#
# Velocity S-wave (km/s) = 3.10330 3.60289 3.36238
# Velocity P-wave (km/s) = 6.41526 7.01588 6.72228
#
# Compressibility (1/GPa) = 0.01827632
#
# Stress axis : x y z
#
# Youngs Moduli (GPa) = 82.23370 45.69050 63.42799
#
# Poissons Ratio (x) = 0.17881 0.35028
# Poissons Ratio (y) = 0.32182 0.40164
# Poissons Ratio (z) = 0.45414 0.28932
#
# Static dielectric constant tensor:
#      x y z
#    x 3.489950 0.000000 -0.178630 
#    y 0.000000 3.451890 0.000000 
#    z -0.178630 0.000000 3.613320 
# 
# 
# High freq. dielectric constant tensor:
#      x y z
#    x 1.768830 0.000000 -0.000980 
#    y 0.000000 1.746310 0.000000 
#    z -0.000980 0.000000 1.758470 
# 
# From -- ./inp_files/58263.got.cif
#   From: 2010.06.25/outbox.cif.g09.slc.cpg/sg10_30_cif.got.tgz:58263.got - 2010.06.27 22:07:45.
