data_PCOD8064306
_publ_section_title
;
Structure prediction by ZEFSAII (Michael W. Deem and Ramdas Pophale) SiO2 
 PCOD8064306
Probable space group: P 2/M
;
_chemical_formula_sum "Si O2"
_cell_formula_units_Z 28
_cell_length_a 29.114721
_cell_length_b 9.030376
_cell_length_c 9.105134
_cell_angle_alpha 90.000000
_cell_angle_beta 141.428766
_cell_angle_gamma 90.000000
_cell_volume 1492.561768
_symmetry_space_group_name_H-M "P 2/M"
_symmetry_group_IT_number 10
_symmetry_cell_setting 'monoclinic'
loop_
_space_group_symop_operation_xyz
x,y,z
-x,y,-z
-x,-y,-z
x,-y,z
loop_
_atom_site_type_symbol
_atom_site_label
_atom_site_fract_x
_atom_site_fract_y
_atom_site_fract_z
Si Si1 0.135069 0.827018 0.509768
Si Si2 1.000000 0.671868 0.672976
Si Si3 0.717975 0.666587 0.120400
Si Si4 0.135069 0.172982 0.165579
Si Si5 0.426647 0.828802 0.894567
Si Si6 0.426647 0.171198 0.238665
Si Si7 0.282025 0.666587 0.530525
O O1 0.212527 0.761817 0.759983
O O2 0.123191 0.796390 0.307977
O O3 0.071663 0.746917 0.439887
O O4 0.133529 0.000000 0.541375
O O5 0.999999 0.500000 0.715930
O O6 0.000000 0.696542 0.500000
O O7 0.071663 0.746915 0.918428
O O8 0.725016 0.500000 0.076710
O O9 0.715446 0.667893 0.288615
O O10 0.643037 0.739144 0.871953
O O11 0.212527 0.238182 0.302651
O O12 0.133528 0.000000 0.126269
O O13 0.436414 0.803046 0.091036
O O14 0.413257 0.000000 0.823034
O O15 0.500000 0.768291 0.000000
O O16 0.356963 0.739143 0.656767
O O17 0.500000 0.231709 0.500000
O O18 0.413257 0.000000 0.243249
O O19 0.274983 0.500000 0.451628
#
# Coordination Sequence:
#
# PCOD8064306 Si02
#       7
#     4   4   4   4   4   4   4
#     4  10  20  35  57  82 104 131 172 216 255 301
#     4  11  24  39  54  76 108 141 170 205 254 308
#     4   9  17  30  50  75 101 130 166 209 254 297
#     4  10  20  35  57  82 104 131 172 216 255 301
#     4   9  17  30  48  70  97 129 165 205 249 298
#     4   9  17  30  48  70  97 129 165 205 249 298
#     4   9  17  30  50  75 101 130 166 209 254 297
#
# _framework density 18.759691
#
# number of rings (size 3 to 8) (size 9 to 14) (size 15 to 20)
#    0.000    2.429    0.000    2.571    0.000    8.571 
#    0.000    1.429    0.000    5.143    0.000    0.000 
#    0.000    0.000    0.000    0.000    0.000    0.000 
#
# Total GULP energy -347246.896743 kJ/mol
# GULP energy per Si atom -12401.674884 kJ/mol
# Density = 1.871699 g / cm^3
# Si number density = 18.759691 Si / 1000 Ang^3
#
#
#
# Elastic Constant Matrix: (Units=GPa)
#
#
# Indices 1 2 3 4 5 6 
#
# 1 92.2468 68.8557 58.8994 0.0000 39.1191 0.0000
# 2 68.8557 147.2944 84.2731 0.0000 27.0731 0.0000
# 3 58.8994 84.2731 138.9911 0.0000 42.9671 0.0000
# 4 0.0000 0.0000 0.0000 -5.1445 0.0000 -19.3074
# 5 39.1191 27.0731 42.9671 0.0000 34.5698 0.0000
# 6 0.0000 0.0000 0.0000 -19.3074 0.0000 5.8453
#
#
#
# Elastic Compliance Matrix: (Units=1/GPa)
#
#
# Indices 1 2 3 4 5 6 
#
# 1 0.027777 -0.009285 0.002156 0.000000 -0.026841 0.000000
# 2 -0.009285 0.013504 -0.006873 0.000000 0.008473 0.000000
# 3 0.002156 -0.006873 0.015490 0.000000 -0.016311 0.000000
# 4 0.000000 0.000000 0.000000 -0.014510 0.000000 -0.047928
# 5 -0.026841 0.008473 -0.016311 0.000000 0.072937 0.000000
# 6 0.000000 0.000000 0.000000 -0.047928 0.000000 0.012770
#
#
# Mechanical properties :
#
#
# Convention : Reuss Voigt Hill
#
# Bulk Modulus (GPa) = 34.76033 89.17650 61.96841
# Shear Modulus (GPa) = 30.20047 18.15439 24.17743
#
# Velocity S-wave (km/s) = 4.01666 3.11422 3.59388
# Velocity P-wave (km/s) = 6.33095 7.78271 7.09406
#
# Compressibility (1/GPa) = 0.02876843
#
# Stress axis : x y z
#
# Youngs Moduli (GPa) = 36.00161 74.05033 64.55713
#
# Poissons Ratio (x) = 0.68756 -0.13921
# Poissons Ratio (y) = 0.33428 0.44368
# Poissons Ratio (z) = -0.07763 0.50892
#
# Static dielectric constant tensor:
#      x y z
#    x 3.343600 0.000000 0.333330 
#    y 0.000000 3.615740 0.000000 
#    z 0.333330 0.000000 3.533400 
# 
# 
# High freq. dielectric constant tensor:
#      x y z
#    x 1.709740 0.000000 0.029420 
#    y 0.000000 1.738860 0.000000 
#    z 0.029420 0.000000 1.726490 
# 
# From -- ./inp_files/37303.got.cif
#   From: 2010.06.25/outbox.cif.g09.slc.cpg/sg10_19_cif.got.tgz:37303.got - 2010.06.27 22:07:45.
