data_PCOD8064824
_publ_section_title
;
Structure prediction by ZEFSAII (Michael W. Deem and Ramdas Pophale) SiO2 
 PCOD8064824
Probable space group: P 2/M
;
_chemical_formula_sum "Si O2"
_cell_formula_units_Z 32
_cell_length_a 30.190654
_cell_length_b 9.398152
_cell_length_c 11.896236
_cell_angle_alpha 90.000000
_cell_angle_beta 28.782546
_cell_angle_gamma 90.000000
_cell_volume 1625.207637
_symmetry_space_group_name_H-M "P 2/M"
_symmetry_group_IT_number 10
_symmetry_cell_setting 'monoclinic'
loop_
_space_group_symop_operation_xyz
x,y,z
-x,y,-z
-x,-y,-z
x,-y,z
loop_
_atom_site_type_symbol
_atom_site_label
_atom_site_fract_x
_atom_site_fract_y
_atom_site_fract_z
Si Si1 0.512453 0.840923 0.662415
Si Si2 0.101757 0.163691 0.594440
Si Si3 0.189470 0.659096 0.218655
Si Si4 0.243034 0.831817 0.473774
Si Si5 0.102187 0.836838 0.977116
Si Si6 0.358338 0.157666 0.817792
Si Si7 0.082818 0.660504 0.241953
Si Si8 0.563449 0.332261 0.966377
O O1 0.604362 0.798374 0.388915
O O2 0.434470 0.843610 0.743145
O O3 0.521787 0.000000 0.694484
O O4 0.493064 0.726203 0.801570
O O5 0.111127 0.256816 0.461124
O O6 0.176399 0.214660 0.519820
O O7 0.995647 0.184973 0.870066
O O8 0.120282 0.000000 0.523296
O O9 0.192644 0.500000 0.259383
O O10 0.171196 0.661504 0.126230
O O11 0.286731 0.730172 0.023742
O O12 0.338312 0.746256 0.261002
O O13 0.264630 0.000000 0.420219
O O14 0.186625 0.790192 0.710717
O O15 0.108358 0.748607 0.076587
O O16 0.113433 0.000000 0.986659
O O17 0.314252 0.000000 0.907019
O O18 0.055724 0.500000 0.265342
O O19 0.000000 0.727047 0.500000
O O20 0.581053 0.500000 0.941924
O O21 0.500000 0.300182 0.000000
#
# Coordination Sequence:
#
# PCOD8064824 Si02
#       8
#     4   4   4   4   4   4   4   4
#     4   9  19  38  62  84 110 145 183 228 284 342
#     4  10  20  36  59  85 117 151 185 233 287 335
#     4  11  22  34  53  82 115 152 192 229 273 330
#     4  10  22  40  61  87 115 146 188 236 287 340
#     4  10  21  37  60  87 114 148 192 238 281 331
#     4   9  19  36  58  86 115 142 180 232 286 336
#     4  10  21  38  54  73 111 155 188 223 270 325
#     4  11  25  42  59  82 115 152 191 236 284 335
#
# _framework density 19.689793000000002
#
# number of rings (size 3 to 8) (size 9 to 14) (size 15 to 20)
#    0.000    2.000    1.250    2.625    0.000    9.750 
#    0.000    6.250    0.000    2.250    0.000    0.000 
#    0.000    0.000    0.000    0.000    0.000    0.000 
#
# Total GULP energy -396689.972382 kJ/mol
# GULP energy per Si atom -12396.561637 kJ/mol
# Density = 1.964498 g / cm^3
# Si number density = 19.689793 Si / 1000 Ang^3
#
#
#
# Elastic Constant Matrix: (Units=GPa)
#
#
# Indices 1 2 3 4 5 6 
#
# 1 73.5112 37.5590 16.6803 0.0000 18.5107 0.0000
# 2 37.5590 87.0171 36.8676 0.0000 13.1874 0.0000
# 3 16.6803 36.8676 69.0443 0.0000 16.7504 0.0000
# 4 0.0000 0.0000 0.0000 -7.4553 0.0000 -2.8069
# 5 18.5107 13.1874 16.7504 0.0000 31.7894 0.0000
# 6 0.0000 0.0000 0.0000 -2.8069 0.0000 25.5673
#
#
#
# Elastic Compliance Matrix: (Units=1/GPa)
#
#
# Indices 1 2 3 4 5 6 
#
# 1 0.019435 -0.007706 0.001593 0.000000 -0.008960 0.000000
# 2 -0.007706 0.018052 -0.008083 0.000000 0.001257 0.000000
# 3 0.001593 -0.008083 0.020439 0.000000 -0.008344 0.000000
# 4 0.000000 0.000000 0.000000 -0.128808 0.000000 -0.014141
# 5 -0.008960 0.001257 -0.008344 0.000000 0.040549 0.000000
# 6 0.000000 0.000000 0.000000 -0.014141 0.000000 0.037560
#
#
# Mechanical properties :
#
#
# Convention : Reuss Voigt Hill
#
# Bulk Modulus (GPa) = 33.85799 45.75404 39.80602
# Shear Modulus (GPa) = 109.97984 19.21132 64.59558
#
# Velocity S-wave (km/s) = 7.48181 3.12701 5.73392
# Velocity P-wave (km/s) = 9.58487 6.02706 8.00610
#
# Compressibility (1/GPa) = 0.02953512
#
# Stress axis : x y z
#
# Youngs Moduli (GPa) = 51.45312 55.39553 48.92648
#
# Poissons Ratio (x) = 0.42687 -0.07794
# Poissons Ratio (y) = 0.39649 0.39545
# Poissons Ratio (z) = -0.08197 0.44774
#
# Static dielectric constant tensor:
#      x y z
#    x 3.531730 0.000000 0.085680 
#    y 0.000000 3.582230 0.000000 
#    z 0.085680 0.000000 3.869020 
# 
# 
# High freq. dielectric constant tensor:
#      x y z
#    x 1.764020 0.000000 0.000710 
#    y 0.000000 1.761070 0.000000 
#    z 0.000710 0.000000 1.774030 
# 
# From -- ./inp_files/58129.got.cif
#   From: 2010.06.25/outbox.cif.g09.slc.cpg/sg10_30_cif.got.tgz:58129.got - 2010.06.27 22:07:45.
