data_PCOD8064340
_publ_section_title
;
Structure prediction by ZEFSAII (Michael W. Deem and Ramdas Pophale) SiO2 
 PCOD8064340
Probable space group: P 2/M
;
_chemical_formula_sum "Si O2"
_cell_formula_units_Z 28
_cell_length_a 12.603824
_cell_length_b 8.810318
_cell_length_c 13.679053
_cell_angle_alpha 90.000000
_cell_angle_beta 112.759251
_cell_angle_gamma 90.000000
_cell_volume 1400.703168
_symmetry_space_group_name_H-M "P 2/M"
_symmetry_group_IT_number 10
_symmetry_cell_setting 'monoclinic'
loop_
_space_group_symop_operation_xyz
x,y,z
-x,y,-z
-x,-y,-z
x,-y,z
loop_
_atom_site_type_symbol
_atom_site_label
_atom_site_fract_x
_atom_site_fract_y
_atom_site_fract_z
Si Si1 0.967068 0.823863 0.380269
Si Si2 0.838251 0.173712 0.704711
Si Si3 0.735919 0.679098 0.221302
Si Si4 0.118249 0.321697 0.080914
Si Si5 0.511471 0.819916 0.211686
Si Si6 0.577536 0.177550 0.612759
Si Si7 0.322226 0.320328 0.019573
O O1 0.862678 0.727785 0.299410
O O2 0.000000 0.767450 0.500000
O O3 0.081079 0.793958 0.358162
O O4 0.931008 0.000000 0.367520
O O5 0.874579 0.284963 0.803312
O O6 0.708024 0.213134 0.629129
O O7 0.847909 0.000000 0.744326
O O8 0.723613 0.500000 0.229196
O O9 0.642425 0.761857 0.255858
O O10 0.713885 0.729767 0.101786
O O11 0.116800 0.500000 0.063852
O O12 0.225006 0.254218 0.058064
O O13 0.000000 0.248652 0.000000
O O14 0.454201 0.756431 0.291579
O O15 0.442962 0.753717 0.094026
O O16 0.509137 0.000000 0.205293
O O17 0.500000 0.253060 0.500000
O O18 0.551694 0.000000 0.608032
O O19 0.336406 0.500000 0.032077
#
# Coordination Sequence:
#
# PCOD8064340 Si02
#       7
#     4   4   4   4   4   4   4
#     4  10  23  41  63  89 118 154 199 247 293 344
#     4  10  20  37  60  88 117 148 191 241 290 340
#     4  11  24  41  61  85 119 160 200 239 293 354
#     4  10  20  35  57  83 115 156 196 234 284 344
#     4  11  22  37  62  91 119 152 196 245 296 350
#     4   9  19  35  59  88 117 152 190 235 291 348
#     4  10  21  38  58  83 119 159 197 240 291 351
#
# _framework density 19.989958999999999
#
# number of rings (size 3 to 8) (size 9 to 14) (size 15 to 20)
#    0.000    1.857    1.429    2.143    2.000    5.143 
#    0.000    0.000    0.000    2.143    0.000    0.000 
#    0.000    0.000    0.000    0.000    0.000    0.000 
#
# Total GULP energy -347284.101843 kJ/mol
# GULP energy per Si atom -12403.003637 kJ/mol
# Density = 1.994446 g / cm^3
# Si number density = 19.989959 Si / 1000 Ang^3
#
#
#
# Elastic Constant Matrix: (Units=GPa)
#
#
# Indices 1 2 3 4 5 6 
#
# 1 140.3096 28.0789 57.2901 0.0000 2.5679 0.0000
# 2 28.0789 36.9944 28.8919 0.0000 1.2459 0.0000
# 3 57.2901 28.8919 141.3618 0.0000 7.0654 0.0000
# 4 0.0000 0.0000 0.0000 40.4046 0.0000 8.2605
# 5 2.5679 1.2459 7.0654 0.0000 35.8422 0.0000
# 6 0.0000 0.0000 0.0000 8.2605 0.0000 29.2581
#
#
#
# Elastic Compliance Matrix: (Units=1/GPa)
#
#
# Indices 1 2 3 4 5 6 
#
# 1 0.009219 -0.004854 -0.002747 0.000000 0.000050 0.000000
# 2 -0.004854 0.034722 -0.005137 0.000000 0.000153 0.000000
# 3 -0.002747 -0.005137 0.009310 0.000000 -0.001460 0.000000
# 4 0.000000 0.000000 0.000000 0.026266 0.000000 -0.007416
# 5 0.000050 0.000153 -0.001460 0.000000 0.028179 0.000000
# 6 0.000000 0.000000 0.000000 -0.007416 0.000000 0.036272
#
#
# Mechanical properties :
#
#
# Convention : Reuss Voigt Hill
#
# Bulk Modulus (GPa) = 36.00244 60.79862 48.40053
# Shear Modulus (GPa) = 27.97952 34.72797 31.35374
#
# Velocity S-wave (km/s) = 3.74529 4.17258 3.96469
# Velocity P-wave (km/s) = 6.06236 7.32765 6.72483
#
# Compressibility (1/GPa) = 0.02777589
#
# Stress axis : x y z
#
# Youngs Moduli (GPa) = 108.47113 28.80013 107.41027
#
# Poissons Ratio (x) = 0.13979 0.29502
# Poissons Ratio (y) = 0.52651 0.55178
# Poissons Ratio (z) = 0.29793 0.14795
#
# Static dielectric constant tensor:
#      x y z
#    x 3.883510 0.000000 0.016410 
#    y 0.000000 3.329580 0.000000 
#    z 0.016410 0.000000 3.725570 
# 
# 
# High freq. dielectric constant tensor:
#      x y z
#    x 1.798370 0.000000 0.002730 
#    y 0.000000 1.753510 0.000000 
#    z 0.002730 0.000000 1.786300 
# 
# From -- ./inp_files/49550.got.cif
#   From: 2010.06.25/outbox.cif.g09.slc.cpg/sg10_25_cif.got.tgz:49550.got - 2010.06.27 22:07:45.
