data_PCOD8064363
_publ_section_title
;
Structure prediction by ZEFSAII (Michael W. Deem and Ramdas Pophale) SiO2 
 PCOD8064363
Probable space group: P 2/M
;
_chemical_formula_sum "Si O2"
_cell_formula_units_Z 24
_cell_length_a 11.633223
_cell_length_b 8.659944
_cell_length_c 12.567321
_cell_angle_alpha 90.000000
_cell_angle_beta 89.403019
_cell_angle_gamma 90.000000
_cell_volume 1266.001647
_symmetry_space_group_name_H-M "P 2/M"
_symmetry_group_IT_number 10
_symmetry_cell_setting 'monoclinic'
loop_
_space_group_symop_operation_xyz
x,y,z
-x,y,-z
-x,-y,-z
x,-y,z
loop_
_atom_site_type_symbol
_atom_site_label
_atom_site_fract_x
_atom_site_fract_y
_atom_site_fract_z
Si Si1 0.133931 0.821565 0.986706
Si Si2 0.262865 0.320738 0.793309
Si Si3 0.487856 0.821653 0.878899
Si Si4 0.259097 0.822220 0.199299
Si Si5 0.124828 0.181960 0.610126
Si Si6 0.117848 0.318773 0.382930
O O1 0.196867 0.766665 0.092754
O O2 0.162818 0.000000 0.961592
O O3 0.178515 0.717721 0.890792
O O4 0.000000 0.792641 0.000000
O O5 0.254201 0.500000 0.766589
O O6 0.393130 0.278410 0.819999
O O7 0.225670 0.225822 0.689896
O O8 0.605321 0.797349 0.813912
O O9 0.448972 0.000000 0.880355
O O10 0.500000 0.762975 0.000000
O O11 0.215932 0.718735 0.296719
O O12 0.228414 0.000000 0.222862
O O13 0.156653 0.249590 0.495044
O O14 0.003496 0.247873 0.653573
O O15 0.113755 0.000000 0.601027
O O16 0.102666 0.500000 0.395258
#
# Coordination Sequence:
#
# PCOD8064363 Si02
#       6
#     4   4   4   4   4   4
#     4  10  20  35  57  84 115 153 195 239 286 348
#     4  12  24  37  57  87 121 151 191 246 304 349
#     4  10  20  39  62  83 113 159 206 242 282 344
#     4  10  20  36  59  86 117 156 202 240 281 346
#     4  11  22  40  64  86 115 157 203 238 284 352
#     4  11  22  38  61  91 125 152 187 241 302 349
#
# _framework density 18.957321
#
# number of rings (size 3 to 8) (size 9 to 14) (size 15 to 20)
#    0.000    1.333    1.667    6.500    0.000    3.333 
#    0.000    0.833    0.000    5.000    0.000    0.000 
#    0.000    0.000    0.000    0.000    0.000    0.000 
#
# Total GULP energy -297758.907752 kJ/mol
# GULP energy per Si atom -12406.621156 kJ/mol
# Density = 1.891417 g / cm^3
# Si number density = 18.957321 Si / 1000 Ang^3
#
#
#
# Elastic Constant Matrix: (Units=GPa)
#
#
# Indices 1 2 3 4 5 6 
#
# 1 91.1112 34.6826 46.5633 0.0000 13.8547 0.0000
# 2 34.6826 125.8498 48.0130 0.0000 3.7755 0.0000
# 3 46.5633 48.0130 100.6589 0.0000 15.9575 0.0000
# 4 0.0000 0.0000 0.0000 20.8241 0.0000 -0.1763
# 5 13.8547 3.7755 15.9575 0.0000 23.7277 0.0000
# 6 0.0000 0.0000 0.0000 -0.1763 0.0000 25.4513
#
#
#
# Elastic Compliance Matrix: (Units=1/GPa)
#
#
# Indices 1 2 3 4 5 6 
#
# 1 0.015203 -0.002029 -0.005271 0.000000 -0.005010 0.000000
# 2 -0.002029 0.010050 -0.004242 0.000000 0.002438 0.000000
# 3 -0.005271 -0.004242 0.015448 0.000000 -0.006637 0.000000
# 4 0.000000 0.000000 0.000000 0.048024 0.000000 0.000333
# 5 -0.005010 0.002438 -0.006637 0.000000 0.049145 0.000000
# 6 0.000000 0.000000 0.000000 0.000333 0.000000 0.039293
#
#
# Mechanical properties :
#
#
# Convention : Reuss Voigt Hill
#
# Bulk Modulus (GPa) = 56.75785 64.01530 60.38657
# Shear Modulus (GPa) = 24.25766 26.55804 25.40785
#
# Velocity S-wave (km/s) = 3.58102 3.74697 3.66494
# Velocity P-wave (km/s) = 6.86317 7.24991 7.05919
#
# Compressibility (1/GPa) = 0.01761871
#
# Stress axis : x y z
#
# Youngs Moduli (GPa) = 65.77458 99.50013 64.73193
#
# Poissons Ratio (x) = 0.20185 0.34121
# Poissons Ratio (y) = 0.13343 0.27459
# Poissons Ratio (z) = 0.34670 0.42207
#
# Static dielectric constant tensor:
#      x y z
#    x 3.441660 0.000000 0.060690 
#    y 0.000000 3.428740 0.000000 
#    z 0.060690 0.000000 3.492900 
# 
# 
# High freq. dielectric constant tensor:
#      x y z
#    x 1.738490 0.000000 0.002830 
#    y 0.000000 1.737080 0.000000 
#    z 0.002830 0.000000 1.739100 
# 
# From -- ./inp_files/45175.got.cif
#   From: 2010.06.25/outbox.cif.g09.slc.cpg/sg10_23_cif.got.tgz:45175.got - 2010.06.27 22:07:45.
