data_PCOD8064697
_publ_section_title
;
Structure prediction by ZEFSAII (Michael W. Deem and Ramdas Pophale) SiO2 
 PCOD8064697
Probable space group: P 2/M
;
_chemical_formula_sum "Si O2"
_cell_formula_units_Z 32
_cell_length_a 21.462151
_cell_length_b 8.687000
_cell_length_c 11.551156
_cell_angle_alpha 90.000000
_cell_angle_beta 51.163853
_cell_angle_gamma 90.000000
_cell_volume 1677.543978
_symmetry_space_group_name_H-M "P 2/M"
_symmetry_group_IT_number 10
_symmetry_cell_setting 'monoclinic'
loop_
_space_group_symop_operation_xyz
x,y,z
-x,y,-z
-x,-y,-z
x,-y,z
loop_
_atom_site_type_symbol
_atom_site_label
_atom_site_fract_x
_atom_site_fract_y
_atom_site_fract_z
Si Si1 0.223559 0.181144 0.689286
Si Si2 0.627725 0.182292 0.348905
Si Si3 0.736658 0.681242 0.606208
Si Si4 0.956806 0.180198 0.729166
Si Si5 0.506279 0.817051 0.319772
Si Si6 0.878107 0.819658 0.581432
Si Si7 0.563908 0.817624 0.831266
Si Si8 0.079061 0.325760 0.982697
O O1 0.287492 0.249300 0.708223
O O2 0.236308 0.255155 0.549414
O O3 0.138697 0.217190 0.843081
O O4 0.233199 0.000000 0.659844
O O5 0.560669 0.241467 0.514505
O O6 0.595549 0.236407 0.259085
O O7 0.634295 0.000000 0.343484
O O8 0.732897 0.500000 0.601724
O O9 0.800651 0.727810 0.629488
O O10 0.650513 0.742804 0.747243
O O11 0.896908 0.222875 0.693390
O O12 0.046609 0.225465 0.586973
O O13 0.951335 0.000000 0.762937
O O14 0.933006 0.271822 0.871589
O O15 0.480724 0.747218 0.228094
O O16 0.505647 0.000000 0.313469
O O17 0.860759 0.000000 0.590359
O O18 0.577445 0.000000 0.810037
O O19 0.500000 0.767956 0.000000
O O20 0.111447 0.500000 0.948574
O O21 0.000000 0.314773 0.000000
#
# Coordination Sequence:
#
# PCOD8064697 Si02
#       8
#     4   4   4   4   4   4   4   4
#     4  11  21  36  59  84 111 146 195 245 286 331
#     4   8  14  26  51  80 104 132 172 228 279 322
#     4  12  24  37  56  83 117 152 189 232 290 353
#     4   9  19  38  63  89 114 146 191 243 287 328
#     4   8  13  27  51  79 106 130 170 223 276 328
#     4   9  19  38  64  89 113 145 193 243 283 331
#     4  10  20  36  58  82 108 144 189 237 286 335
#     4  11  24  39  55  82 122 160 190 226 282 348
#
# _framework density 19.075505
#
# number of rings (size 3 to 8) (size 9 to 14) (size 15 to 20)
#    0.000    2.250    1.250    4.125    0.000    4.250 
#    2.250    1.250    0.000    2.250    0.000    0.000 
#    0.000    0.000    0.000    0.000    0.000    0.000 
#
# Total GULP energy -396515.539428 kJ/mol
# GULP energy per Si atom -12391.110607 kJ/mol
# Density = 1.903209 g / cm^3
# Si number density = 19.075505 Si / 1000 Ang^3
#
#
#
# Elastic Constant Matrix: (Units=GPa)
#
#
# Indices 1 2 3 4 5 6 
#
# 1 158.0069 44.7574 62.2143 0.0000 0.6263 0.0000
# 2 44.7574 60.1732 35.5456 0.0000 1.4962 0.0000
# 3 62.2143 35.5456 102.5663 0.0000 0.3802 0.0000
# 4 0.0000 0.0000 0.0000 19.8614 0.0000 0.1807
# 5 0.6263 1.4962 0.3802 0.0000 20.7205 0.0000
# 6 0.0000 0.0000 0.0000 0.1807 0.0000 15.8693
#
#
#
# Elastic Compliance Matrix: (Units=1/GPa)
#
#
# Indices 1 2 3 4 5 6 
#
# 1 0.009172 -0.004449 -0.004022 0.000000 0.000118 0.000000
# 2 -0.004449 0.023094 -0.005299 0.000000 -0.001436 0.000000
# 3 -0.004022 -0.005299 0.014025 0.000000 0.000247 0.000000
# 4 0.000000 0.000000 0.000000 0.050354 0.000000 -0.000573
# 5 0.000118 -0.001436 0.000247 0.000000 0.048357 0.000000
# 6 0.000000 0.000000 0.000000 -0.000573 0.000000 0.063021
#
#
# Mechanical properties :
#
#
# Convention : Reuss Voigt Hill
#
# Bulk Modulus (GPa) = 53.33346 67.30899 60.32123
# Shear Modulus (GPa) = 20.67680 23.17216 21.92448
#
# Velocity S-wave (km/s) = 3.29590 3.48912 3.39389
# Velocity P-wave (km/s) = 6.51949 7.18291 6.85922
#
# Compressibility (1/GPa) = 0.01874996
#
# Stress axis : x y z
#
# Youngs Moduli (GPa) = 109.02191 43.30044 71.30010
#
# Poissons Ratio (x) = 0.19267 0.28678
# Poissons Ratio (y) = 0.48509 0.37785
# Poissons Ratio (z) = 0.43851 0.22947
#
# Static dielectric constant tensor:
#      x y z
#    x 3.953620 0.000000 0.082180 
#    y 0.000000 3.210050 0.000000 
#    z 0.082180 0.000000 3.367130 
# 
# 
# High freq. dielectric constant tensor:
#      x y z
#    x 1.767790 0.000000 0.003590 
#    y 0.000000 1.711490 0.000000 
#    z 0.003590 0.000000 1.727770 
# 
# From -- ./inp_files/55186.got.cif
#   From: 2010.06.25/outbox.cif.g09.slc.cpg/sg10_28_cif.got.tgz:55186.got - 2010.06.27 22:07:45.
