data_PCOD8064329
_publ_section_title
;
Structure prediction by ZEFSAII (Michael W. Deem and Ramdas Pophale) SiO2 
 PCOD8064329
Probable space group: P 2/M
;
_chemical_formula_sum "Si O2"
_cell_formula_units_Z 28
_cell_length_a 13.654448
_cell_length_b 9.438312
_cell_length_c 18.648636
_cell_angle_alpha 90.000000
_cell_angle_beta 143.610684
_cell_angle_gamma 90.000000
_cell_volume 1425.827706
_symmetry_space_group_name_H-M "P 2/M"
_symmetry_group_IT_number 10
_symmetry_cell_setting 'monoclinic'
loop_
_space_group_symop_operation_xyz
x,y,z
-x,y,-z
-x,-y,-z
x,-y,z
loop_
_atom_site_type_symbol
_atom_site_label
_atom_site_fract_x
_atom_site_fract_y
_atom_site_fract_z
Si Si1 0.647401 0.835739 0.535943
Si Si2 0.175951 0.337156 0.079844
Si Si3 0.907469 0.336871 0.373542
Si Si4 0.583520 0.166702 0.193232
Si Si5 0.522540 0.161769 0.710797
Si Si6 0.037942 0.662149 0.298008
Si Si7 0.273812 0.336897 0.975972
O O1 0.500000 0.779796 0.500000
O O2 0.603254 0.807287 0.427306
O O3 0.815910 0.752776 0.651293
O O4 0.680657 0.000000 0.571549
O O5 0.192868 0.500000 0.112014
O O6 0.315325 0.254762 0.205904
O O7 0.193255 0.313074 0.005760
O O8 0.000000 0.275575 0.000000
O O9 0.848320 0.500000 0.345607
O O10 0.752098 0.237128 0.266664
O O11 0.032161 0.318156 0.380453
O O12 0.000000 0.286972 0.500000
O O13 0.566620 0.201281 0.267581
O O14 0.586780 0.000000 0.179040
O O15 0.433198 0.237003 0.060534
O O16 0.581259 0.000000 0.745582
O O17 0.071801 0.500000 0.296569
O O18 0.861900 0.710318 0.162077
O O19 0.328491 0.500000 0.997257
#
# Coordination Sequence:
#
# PCOD8064329 Si02
#       7
#     4   4   4   4   4   4   4
#     4  10  22  38  55  78 110 146 180 220 273 325
#     4   9  18  31  51  77 102 134 177 223 266 310
#     4  10  21  37  58  83 111 143 181 224 272 323
#     4  10  20  35  57  83 109 142 184 224 268 321
#     4   9  19  35  52  75 106 139 177 218 263 319
#     4  10  22  38  57  82 109 142 183 225 270 322
#     4   9  19  36  54  76 111 145 177 222 273 322
#
# _framework density 19.637716999999999
#
# number of rings (size 3 to 8) (size 9 to 14) (size 15 to 20)
#    0.000    2.429    0.000    1.286    2.000    3.714 
#    0.000    2.857    0.000    0.000    0.000    0.000 
#    0.000    0.000    0.000    0.000    0.000    0.000 
#
# Total GULP energy -347297.217271 kJ/mol
# GULP energy per Si atom -12403.472045 kJ/mol
# Density = 1.959302 g / cm^3
# Si number density = 19.637717 Si / 1000 Ang^3
#
#
#
# Elastic Constant Matrix: (Units=GPa)
#
#
# Indices 1 2 3 4 5 6 
#
# 1 60.4225 34.9034 35.9156 0.0000 15.1390 0.0000
# 2 34.9034 79.4597 55.2726 0.0000 19.6289 0.0000
# 3 35.9156 55.2726 106.3345 0.0000 12.5601 0.0000
# 4 0.0000 0.0000 0.0000 28.7186 0.0000 6.6571
# 5 15.1390 19.6289 12.5601 0.0000 35.0358 0.0000
# 6 0.0000 0.0000 0.0000 6.6571 0.0000 26.9060
#
#
#
# Elastic Compliance Matrix: (Units=1/GPa)
#
#
# Indices 1 2 3 4 5 6 
#
# 1 0.024035 -0.006312 -0.004206 0.000000 -0.005341 0.000000
# 2 -0.006312 0.023581 -0.009280 0.000000 -0.007157 0.000000
# 3 -0.004206 -0.009280 0.015475 0.000000 0.001469 0.000000
# 4 0.000000 0.000000 0.000000 0.036939 0.000000 -0.009139
# 5 -0.005341 -0.007157 0.001469 0.000000 0.034333 0.000000
# 6 0.000000 0.000000 0.000000 -0.009139 0.000000 0.039428
#
#
# Mechanical properties :
#
#
# Convention : Reuss Voigt Hill
#
# Bulk Modulus (GPa) = 42.56356 55.37777 48.97067
# Shear Modulus (GPa) = 22.60207 26.14044 24.37125
#
# Velocity S-wave (km/s) = 3.39625 3.65243 3.52667
# Velocity P-wave (km/s) = 6.09104 6.78586 6.44782
#
# Compressibility (1/GPa) = 0.02349427
#
# Stress axis : x y z
#
# Youngs Moduli (GPa) = 41.60634 42.40726 64.62012
#
# Poissons Ratio (x) = 0.26769 0.27179
# Poissons Ratio (y) = 0.26264 0.59967
# Poissons Ratio (z) = 0.17499 0.39353
#
# Static dielectric constant tensor:
#      x y z
#    x 3.478310 0.000000 -0.055690 
#    y 0.000000 3.500310 0.000000 
#    z -0.055690 0.000000 3.544920 
# 
# 
# High freq. dielectric constant tensor:
#      x y z
#    x 1.763140 0.000000 -0.000420 
#    y 0.000000 1.756970 0.000000 
#    z -0.000420 0.000000 1.766440 
# 
# From -- ./inp_files/49403.got.cif
#   From: 2010.06.25/outbox.cif.g09.slc.cpg/sg10_25_cif.got.tgz:49403.got - 2010.06.27 22:07:45.
