data_PCOD8064810
_publ_section_title
;
Structure prediction by ZEFSAII (Michael W. Deem and Ramdas Pophale) SiO2 
 PCOD8064810
Probable space group: P 2/M
;
_chemical_formula_sum "Si O2"
_cell_formula_units_Z 24
_cell_length_a 11.757529
_cell_length_b 8.522584
_cell_length_c 12.614204
_cell_angle_alpha 90.000000
_cell_angle_beta 89.768673
_cell_angle_gamma 90.000000
_cell_volume 1263.990063
_symmetry_space_group_name_H-M "P 2/M"
_symmetry_group_IT_number 10
_symmetry_cell_setting 'monoclinic'
loop_
_space_group_symop_operation_xyz
x,y,z
-x,y,-z
-x,-y,-z
x,-y,z
loop_
_atom_site_type_symbol
_atom_site_label
_atom_site_fract_x
_atom_site_fract_y
_atom_site_fract_z
Si Si1 0.006994 0.183408 0.121844
Si Si2 0.373387 0.686483 0.003787
Si Si3 0.618492 0.817554 0.615906
Si Si4 0.378807 0.682910 0.610143
Si Si5 0.774872 0.315251 0.191706
Si Si6 0.234695 0.684284 0.205700
O O1 0.104383 0.276345 0.183257
O O2 0.891828 0.221033 0.184750
O O3 0.033968 0.000000 0.125806
O O4 0.000000 0.242562 0.000000
O O5 0.378086 0.500000 0.003601
O O6 0.305631 0.746830 0.901903
O O7 0.500000 0.757797 0.000000
O O8 0.310979 0.748853 0.108772
O O9 0.504877 0.724938 0.651900
O O10 0.651071 0.779645 0.494777
O O11 0.724566 0.768835 0.687834
O O12 0.593265 0.000000 0.627197
O O13 0.375841 0.500000 0.582964
O O14 0.285501 0.726792 0.697910
O O15 0.798750 0.500000 0.180530
O O16 0.249008 0.500000 0.220848
#
# Coordination Sequence:
#
# PCOD8064810 Si02
#       6
#     4   4   4   4   4   4
#     4  11  23  38  56  81 118 156 190 231 286 347
#     4   9  17  30  52  83 113 140 177 230 285 331
#     4  11  22  37  58  85 121 155 188 231 290 348
#     4  10  20  37  62  88 115 149 195 239 281 336
#     4  10  20  36  59  85 112 147 194 240 281 333
#     4  11  21  36  60  83 112 150 196 241 278 333
#
# _framework density 18.987490999999999
#
# number of rings (size 3 to 8) (size 9 to 14) (size 15 to 20)
#    0.000    1.667    1.667    5.000    0.000    4.667 
#    0.000    0.833    0.000    7.500    0.000    0.000 
#    0.000    0.000    0.000    0.000    0.000    0.000 
#
# Total GULP energy -297714.713814 kJ/mol
# GULP energy per Si atom -12404.779742 kJ/mol
# Density = 1.894427 g / cm^3
# Si number density = 18.987491 Si / 1000 Ang^3
#
#
#
# Elastic Constant Matrix: (Units=GPa)
#
#
# Indices 1 2 3 4 5 6 
#
# 1 131.7930 16.6155 60.5074 0.0000 0.2154 0.0000
# 2 16.6155 50.7068 26.9782 0.0000 -2.7165 0.0000
# 3 60.5074 26.9782 100.4679 0.0000 2.9669 0.0000
# 4 0.0000 0.0000 0.0000 22.3034 0.0000 2.2344
# 5 0.2154 -2.7165 2.9669 0.0000 34.5388 0.0000
# 6 0.0000 0.0000 0.0000 2.2344 0.0000 21.8207
#
#
#
# Elastic Compliance Matrix: (Units=1/GPa)
#
#
# Indices 1 2 3 4 5 6 
#
# 1 0.010495 -0.000051 -0.006321 0.000000 0.000474 0.000000
# 2 -0.000051 0.023200 -0.006269 0.000000 0.002364 0.000000
# 3 -0.006321 -0.006269 0.015497 0.000000 -0.001785 0.000000
# 4 0.000000 0.000000 0.000000 0.045301 0.000000 -0.004639
# 5 0.000474 0.002364 -0.001785 0.000000 0.029289 0.000000
# 6 0.000000 0.000000 0.000000 -0.004639 0.000000 0.046303
#
#
# Mechanical properties :
#
#
# Convention : Reuss Voigt Hill
#
# Bulk Modulus (GPa) = 41.82368 54.57445 48.19907
# Shear Modulus (GPa) = 24.58969 27.65700 26.12335
#
# Velocity S-wave (km/s) = 3.60258 3.82067 3.71323
# Velocity P-wave (km/s) = 6.27531 6.94752 6.61996
#
# Compressibility (1/GPa) = 0.02390990
#
# Stress axis : x y z
#
# Youngs Moduli (GPa) = 95.27934 43.10373 64.53005
#
# Poissons Ratio (x) = 0.00218 0.40792
# Poissons Ratio (y) = 0.00481 0.40455
# Poissons Ratio (z) = 0.60230 0.27022
#
# Static dielectric constant tensor:
#      x y z
#    x 3.468260 0.000000 -0.001700 
#    y 0.000000 3.282430 0.000000 
#    z -0.001700 0.000000 3.503790 
# 
# 
# High freq. dielectric constant tensor:
#      x y z
#    x 1.739160 0.000000 0.001810 
#    y 0.000000 1.728880 0.000000 
#    z 0.001810 0.000000 1.738860 
# 
# From -- ./inp_files/45117.got.cif
#   From: 2010.06.25/outbox.cif.g09.slc.cpg/sg10_23_cif.got.tgz:45117.got - 2010.06.27 22:07:45.
