data_PCOD8064583
_publ_section_title
;
Structure prediction by ZEFSAII (Michael W. Deem and Ramdas Pophale) SiO2 
 PCOD8064583
Probable space group: P 2/M
;
_chemical_formula_sum "Si O2"
_cell_formula_units_Z 26
_cell_length_a 29.472630
_cell_length_b 8.260460
_cell_length_c 5.259512
_cell_angle_alpha 90.000000
_cell_angle_beta 112.429219
_cell_angle_gamma 90.000000
_cell_volume 1183.602197
_symmetry_space_group_name_H-M "P 2/M"
_symmetry_group_IT_number 10
_symmetry_cell_setting 'monoclinic'
loop_
_space_group_symop_operation_xyz
x,y,z
-x,y,-z
-x,-y,-z
x,-y,z
loop_
_atom_site_type_symbol
_atom_site_label
_atom_site_fract_x
_atom_site_fract_y
_atom_site_fract_z
Si Si1 0.443619 0.322858 0.955538
Si Si2 0.300881 0.688964 0.868595
Si Si3 0.532641 0.000000 0.814696
Si Si4 0.024920 0.311098 0.803274
Si Si5 0.650516 0.685717 0.529123
Si Si6 0.866719 0.810269 0.969587
Si Si7 0.807296 0.189657 0.343301
O O1 0.429969 0.500000 0.053137
O O2 0.408451 0.296777 0.634923
O O3 0.500000 0.329693 0.000000
O O4 0.435355 0.166997 0.121535
O O5 0.312486 0.500000 0.883899
O O6 0.321850 0.767944 0.653687
O O7 0.243457 0.716427 0.776114
O O8 0.330716 0.768861 0.170177
O O9 0.500000 0.000000 0.500000
O O10 0.500000 0.000000 0.000000
O O11 0.013219 0.500000 0.778163
O O12 0.082697 0.284660 0.927296
O O13 0.000000 0.231117 0.500000
O O14 0.000000 0.231198 0.000000
O O15 0.666859 0.500000 0.578384
O O16 0.838149 0.758717 0.162530
O O17 0.877889 0.000000 0.989279
O O18 0.835843 0.756645 0.657596
O O19 0.796227 0.000000 0.320725
#
# Coordination Sequence:
#
# PCOD8064583 Si02
#       7
#     4   4   2   4   4   4   4
#     4   9  19  38  62  86 117 157 193 238 296 348
#     4  10  20  36  56  79 109 142 178 229 279 328
#     4  10  22  38  56  84 116 144 190 238 274 340
#     4  10  21  36  54  80 113 144 179 224 268 317
#     4   9  19  35  55  81 110 139 181 226 272 336
#     4  10  21  36  56  79 108 144 182 226 269 319
#     4  10  21  37  54  79 109 138 181 229 271 323
#
# _framework density 21.966843000000001
#
# number of rings (size 3 to 8) (size 9 to 14) (size 15 to 20)
#    0.000    2.308    0.000    1.846    0.000    4.615 
#    2.769    4.615    0.000    0.000    0.000    0.000 
#    0.000    0.000    0.000    0.000    0.000    0.000 
#
# Total GULP energy -322237.993875 kJ/mol
# GULP energy per Si atom -12393.768995 kJ/mol
# Density = 2.191685 g / cm^3
# Si number density = 21.966843 Si / 1000 Ang^3
#
#
#
# Elastic Constant Matrix: (Units=GPa)
#
#
# Indices 1 2 3 4 5 6 
#
# 1 117.2295 -8.2700 58.4057 0.0000 1.5419 0.0000
# 2 -8.2700 71.9774 22.0774 0.0000 1.6988 0.0000
# 3 58.4057 22.0774 193.5716 0.0000 -4.0317 0.0000
# 4 0.0000 0.0000 0.0000 -12.1582 0.0000 -38.5292
# 5 1.5419 1.6988 -4.0317 0.0000 43.9426 0.0000
# 6 0.0000 0.0000 0.0000 -38.5292 0.0000 -69.5420
#
#
#
# Elastic Compliance Matrix: (Units=1/GPa)
#
#
# Indices 1 2 3 4 5 6 
#
# 1 0.010399 0.002259 -0.003411 0.000000 -0.000765 0.000000
# 2 0.002259 0.014910 -0.002400 0.000000 -0.000876 0.000000
# 3 -0.003411 -0.002400 0.006486 0.000000 0.000808 0.000000
# 4 0.000000 0.000000 0.000000 0.108830 0.000000 -0.060296
# 5 -0.000765 -0.000876 0.000808 0.000000 0.022892 0.000000
# 6 0.000000 0.000000 0.000000 -0.060296 0.000000 0.019027
#
#
# Mechanical properties :
#
#
# Convention : Reuss Voigt Hill
#
# Bulk Modulus (GPa) = 40.50224 58.57830 49.54027
# Shear Modulus (GPa) = 25.26806 13.15284 19.21045
#
# Velocity S-wave (km/s) = 3.39526 2.44961 2.96044
# Velocity P-wave (km/s) = 5.81793 5.89282 5.85550
#
# Compressibility (1/GPa) = 0.02468999
#
# Stress axis : x y z
#
# Youngs Moduli (GPa) = 96.16017 67.07008 154.17962
#
# Poissons Ratio (x) = -0.15153 0.52596
# Poissons Ratio (y) = -0.21725 0.37010
# Poissons Ratio (z) = 0.32804 0.16100
#
# Static dielectric constant tensor:
#      x y z
#    x 3.821080 0.000000 -0.223830 
#    y 0.000000 4.325730 0.000000 
#    z -0.223830 0.000000 4.455330 
# 
# 
# High freq. dielectric constant tensor:
#      x y z
#    x 1.859140 0.000000 0.005000 
#    y 0.000000 1.839320 0.000000 
#    z 0.005000 0.000000 1.880650 
# 
# From -- ./inp_files/13577.got.cif
#   From: 2010.06.25/outbox.cif.g09.slc.cpg/sg10_7_cif.got.tgz:13577.got - 2010.06.27 22:07:45.
