data_PCOD8064788
_publ_section_title
;
Structure prediction by ZEFSAII (Michael W. Deem and Ramdas Pophale) SiO2 
 PCOD8064788
Probable space group: P 2/M
;
_chemical_formula_sum "Si O2"
_cell_formula_units_Z 28
_cell_length_a 9.581419
_cell_length_b 31.777802
_cell_length_c 5.033842
_cell_angle_alpha 90.000000
_cell_angle_beta 118.976281
_cell_angle_gamma 90.000000
_cell_volume 1340.825111
_symmetry_space_group_name_H-M "P 2/M"
_symmetry_group_IT_number 10
_symmetry_cell_setting 'monoclinic'
loop_
_space_group_symop_operation_xyz
x,y,z
-x,y,-z
-x,-y,-z
x,-y,z
loop_
_atom_site_type_symbol
_atom_site_label
_atom_site_fract_x
_atom_site_fract_y
_atom_site_fract_z
Si Si1 0.830827 0.414893 0.719684
Si Si2 0.890776 0.680074 0.657417
Si Si3 0.688195 0.244297 0.616491
Si Si4 0.105179 0.047123 0.838723
Si Si5 0.323301 0.451460 0.926406
Si Si6 0.608650 0.890823 0.860890
Si Si7 0.681567 0.799874 0.112284
O O1 0.822273 0.366709 0.621384
O O2 0.798176 0.442162 0.426608
O O3 0.704947 0.423495 0.837804
O O4 0.000000 0.427902 0.000000
O O5 0.739656 0.711092 0.538017
O O6 0.000000 0.684686 0.500000
O O7 0.000000 0.692995 0.000000
O O8 0.500000 0.244026 0.500000
O O9 0.755597 0.208726 0.471495
O O10 0.764180 0.231013 0.970486
O O11 0.000000 0.066407 0.500000
O O12 0.162346 0.000000 0.812299
O O13 0.257264 0.074580 0.057642
O O14 0.000000 0.045463 0.000000
O O15 0.306813 0.500000 0.993150
O O16 0.500000 0.439696 0.000000
O O17 0.500000 0.884093 0.500000
O O18 0.500000 0.907213 0.000000
O O19 0.695020 0.847572 0.024462
O O20 0.500000 0.786513 0.000000
#
# Coordination Sequence:
#
# PCOD8064788 Si02
#       7
#     4   4   4   4   4   4   4
#     4  11  23  41  63  87 119 160 198 237 289 351
#     4  11  23  41  59  83 119 151 189 244 295 332
#     4  10  20  36  59  83 109 149 193 228 279 352
#     4  10  22  40  58  81 119 159 193 241 303 357
#     4  11  24  41  62  91 124 154 191 245 297 340
#     4  11  21  36  61  88 115 152 198 247 293 345
#     4   9  18  34  55  82 115 145 182 237 291 336
#
# _framework density 20.882663000000001
#
# number of rings (size 3 to 8) (size 9 to 14) (size 15 to 20)
#    0.000    1.571    0.000    6.857    0.000    4.571 
#    0.000    5.714    0.000    0.000    0.000    0.000 
#    0.000    0.000    0.000    0.000    0.000    0.000 
#
# Total GULP energy -347037.592209 kJ/mol
# GULP energy per Si atom -12394.199722 kJ/mol
# Density = 2.083513 g / cm^3
# Si number density = 20.882663 Si / 1000 Ang^3
#
#
#
# Elastic Constant Matrix: (Units=GPa)
#
#
# Indices 1 2 3 4 5 6 
#
# 1 104.1390 69.2132 32.1274 0.0000 -28.3815 0.0000
# 2 69.2132 99.5044 31.2640 0.0000 -4.1181 0.0000
# 3 32.1274 31.2640 92.5380 0.0000 -24.9283 0.0000
# 4 0.0000 0.0000 0.0000 26.0748 0.0000 -2.9225
# 5 -28.3815 -4.1181 -24.9283 0.0000 37.5174 0.0000
# 6 0.0000 0.0000 0.0000 -2.9225 0.0000 32.2337
#
#
#
# Elastic Compliance Matrix: (Units=1/GPa)
#
#
# Indices 1 2 3 4 5 6 
#
# 1 0.026267 -0.018172 0.002236 0.000000 0.019362 0.000000
# 2 -0.018172 0.023891 -0.005797 0.000000 -0.014976 0.000000
# 3 0.002236 -0.005797 0.014949 0.000000 0.010988 0.000000
# 4 0.000000 0.000000 0.000000 0.038745 0.000000 0.003513
# 5 0.019362 -0.014976 0.010988 0.000000 0.046958 0.000000
# 6 0.000000 0.000000 0.000000 0.003513 0.000000 0.031342
#
#
# Mechanical properties :
#
#
# Convention : Reuss Voigt Hill
#
# Bulk Modulus (GPa) = 46.21015 62.37674 54.29345
# Shear Modulus (GPa) = 21.47469 30.07030 25.77250
#
# Velocity S-wave (km/s) = 3.21027 3.79880 3.51687
# Velocity P-wave (km/s) = 5.99313 7.01257 6.52280
#
# Compressibility (1/GPa) = 0.02164027
#
# Stress axis : x y z
#
# Youngs Moduli (GPa) = 38.07054 41.85590 66.89572
#
# Poissons Ratio (x) = 0.76060 -0.14956
# Poissons Ratio (y) = 0.69182 0.38781
# Poissons Ratio (z) = -0.08511 0.24265
#
# Static dielectric constant tensor:
#      x y z
#    x 3.761330 0.000000 -0.381730 
#    y 0.000000 3.709660 0.000000 
#    z -0.381730 0.000000 3.999670 
# 
# 
# High freq. dielectric constant tensor:
#      x y z
#    x 1.818770 0.000000 -0.029370 
#    y 0.000000 1.813990 0.000000 
#    z -0.029370 0.000000 1.823380 
# 
# From -- ./inp_files/5546.got.cif
#   From: 2010.06.25/outbox.cif.g09.slc.cpg/sg10_3_cif.got.tgz:5546.got - 2010.06.27 22:07:45.
