data_PCOD8064572
_publ_section_title
;
Structure prediction by ZEFSAII (Michael W. Deem and Ramdas Pophale) SiO2 
 PCOD8064572
Probable space group: P 2/M
;
_chemical_formula_sum "Si O2"
_cell_formula_units_Z 32
_cell_length_a 27.711615
_cell_length_b 8.887697
_cell_length_c 21.552416
_cell_angle_alpha 90.000000
_cell_angle_beta 17.877215
_cell_angle_gamma 90.000000
_cell_volume 1629.500622
_symmetry_space_group_name_H-M "P 2/M"
_symmetry_group_IT_number 10
_symmetry_cell_setting 'monoclinic'
loop_
_space_group_symop_operation_xyz
x,y,z
-x,y,-z
-x,-y,-z
x,-y,z
loop_
_atom_site_type_symbol
_atom_site_label
_atom_site_fract_x
_atom_site_fract_y
_atom_site_fract_z
Si Si1 0.595114 0.327229 0.100164
Si Si2 0.054588 0.179022 0.839283
Si Si3 0.040961 0.823503 0.636920
Si Si4 0.271529 0.825058 0.461154
Si Si5 0.732564 0.673918 0.063136
Si Si6 0.938565 0.323018 0.642879
Si Si7 0.494162 0.835589 0.579196
Si Si8 0.800665 0.324205 0.216362
O O1 0.571233 0.500000 0.112584
O O2 0.443369 0.245074 0.258462
O O3 0.612247 0.301993 0.152890
O O4 0.757225 0.268447 0.870128
O O5 0.144955 0.234256 0.666856
O O6 0.133432 0.255581 0.801508
O O7 0.053630 0.000000 0.845952
O O8 0.875210 0.241976 0.063765
O O9 0.202643 0.790713 0.476693
O O10 0.051409 0.764374 0.553414
O O11 0.001529 0.000000 0.686156
O O12 0.904616 0.731776 0.837209
O O13 0.295120 0.000000 0.443090
O O14 0.743863 0.500000 0.067934
O O15 0.672862 0.772738 0.193673
O O16 0.949565 0.500000 0.644462
O O17 0.000000 0.282041 0.500000
O O18 0.500000 0.859553 0.500000
O O19 0.617093 0.707010 0.446294
O O20 0.527797 0.000000 0.569064
O O21 0.834828 0.500000 0.170694
#
# Coordination Sequence:
#
# PCOD8064572 Si02
#       8
#     4   4   4   4   4   4   4   4
#     4   9  19  35  58  86 112 143 184 228 275 332
#     4  10  20  36  56  74 101 144 186 227 282 344
#     4  10  21  37  57  86 119 151 189 230 278 339
#     4  10  22  36  54  81 114 148 186 230 277 332
#     4  10  21  38  58  82 110 144 190 241 289 341
#     4   9  19  39  64  89 118 152 190 231 275 330
#     4  11  24  38  53  73 103 143 186 234 289 345
#     4  11  22  36  52  76 104 134 183 239 291 343
#
# _framework density 19.637917999999999
#
# number of rings (size 3 to 8) (size 9 to 14) (size 15 to 20)
#    0.000    2.000    0.000    4.875    1.750    7.750 
#    0.000    0.625    0.000    3.750    0.000    0.000 
#    0.000    0.000    0.000    0.000    0.000    0.000 
#
# Total GULP energy -396656.022106 kJ/mol
# GULP energy per Si atom -12395.500691 kJ/mol
# Density = 1.959322 g / cm^3
# Si number density = 19.637918 Si / 1000 Ang^3
#
#
#
# Elastic Constant Matrix: (Units=GPa)
#
#
# Indices 1 2 3 4 5 6 
#
# 1 92.6500 48.6544 43.8771 0.0000 3.3507 0.0000
# 2 48.6544 108.1636 38.5345 0.0000 0.3682 0.0000
# 3 43.8771 38.5345 70.8187 0.0000 8.7749 0.0000
# 4 0.0000 0.0000 0.0000 30.3369 0.0000 0.2351
# 5 3.3507 0.3682 8.7749 0.0000 33.9805 0.0000
# 6 0.0000 0.0000 0.0000 0.2351 0.0000 29.2421
#
#
#
# Elastic Compliance Matrix: (Units=1/GPa)
#
#
# Indices 1 2 3 4 5 6 
#
# 1 0.017123 -0.004844 -0.008027 0.000000 0.000437 0.000000
# 2 -0.004844 0.012917 -0.004204 0.000000 0.001423 0.000000
# 3 -0.008027 -0.004204 0.021981 0.000000 -0.004839 0.000000
# 4 0.000000 0.000000 0.000000 0.032965 0.000000 -0.000265
# 5 0.000437 0.001423 -0.004839 0.000000 0.030620 0.000000
# 6 0.000000 0.000000 0.000000 -0.000265 0.000000 0.034199
#
#
# Mechanical properties :
#
#
# Convention : Reuss Voigt Hill
#
# Bulk Modulus (GPa) = 55.95638 59.30713 57.63176
# Shear Modulus (GPa) = 26.32808 28.08301 27.20555
#
# Velocity S-wave (km/s) = 3.66550 3.78569 3.72608
# Velocity P-wave (km/s) = 6.81692 7.02670 6.92260
#
# Compressibility (1/GPa) = 0.01787106
#
# Stress axis : x y z
#
# Youngs Moduli (GPa) = 58.40188 77.41784 45.49410
#
# Poissons Ratio (x) = 0.37501 0.36519
# Poissons Ratio (y) = 0.28289 0.19124
# Poissons Ratio (z) = 0.46880 0.32544
#
# Static dielectric constant tensor:
#      x y z
#    x 0.000000 0.000000 0.000000 
#    y 0.000000 0.000000 0.000000 
#    z 0.000000 0.000000 0.000000 
# 
# 
# High freq. dielectric constant tensor:
#      x y z
#    x 1.755780 0.000000 -0.004170 
#    y 0.000000 1.770750 0.000000 
#    z -0.004170 0.000000 1.759530 
# 
# From -- ./inp_files/86915.got.cif
#   From: 2010.06.25/outbox.cif.g09.slc.cpg/sg10_44_cif.got.tgz:86915.got - 2010.06.27 22:07:45.
