data_PCOD8064418
_publ_section_title
;
Structure prediction by ZEFSAII (Michael W. Deem and Ramdas Pophale) SiO2 
 PCOD8064418
Probable space group: P 2/M
;
_chemical_formula_sum "Si O2"
_cell_formula_units_Z 32
_cell_length_a 12.226449
_cell_length_b 8.939988
_cell_length_c 21.898587
_cell_angle_alpha 90.000000
_cell_angle_beta 43.875277
_cell_angle_gamma 90.000000
_cell_volume 1658.989103
_symmetry_space_group_name_H-M "P 2/M"
_symmetry_group_IT_number 10
_symmetry_cell_setting 'monoclinic'
loop_
_space_group_symop_operation_xyz
x,y,z
-x,y,-z
-x,-y,-z
x,-y,z
loop_
_atom_site_type_symbol
_atom_site_label
_atom_site_fract_x
_atom_site_fract_y
_atom_site_fract_z
Si Si1 0.123259 0.325691 0.153946
Si Si2 0.368174 0.325909 0.948391
Si Si3 0.306603 0.176422 0.185659
Si Si4 0.171242 0.321979 0.913070
Si Si5 0.508218 0.321271 0.565658
Si Si6 0.807740 0.322951 0.517221
Si Si7 0.158742 0.322927 0.358964
Si Si8 0.211200 0.322109 0.761155
O O1 0.122425 0.500000 0.171595
O O2 0.174858 0.234148 0.192181
O O3 0.949700 0.268040 0.205847
O O4 0.237091 0.293227 0.051628
O O5 0.413813 0.500000 0.928321
O O6 0.522348 0.233331 0.904183
O O7 0.301018 0.270558 0.910210
O O8 0.270521 0.237714 0.267315
O O9 0.305537 0.000000 0.186731
O O10 0.160294 0.500000 0.917168
O O11 0.221093 0.260352 0.826493
O O12 0.000000 0.256324 0.000000
O O13 0.500000 0.260422 0.500000
O O14 0.508948 0.500000 0.566049
O O15 0.667164 0.256189 0.532631
O O16 0.358489 0.259067 0.663458
O O17 0.801433 0.500000 0.518929
O O18 0.787209 0.271081 0.595423
O O19 0.976713 0.272832 0.422166
O O20 0.179300 0.500000 0.341734
O O21 0.213976 0.500000 0.761885
#
# Coordination Sequence:
#
# PCOD8064418 Si02
#       8
#     4   4   4   4   4   4   4   4
#     4  10  20  36  57  81 108 142 184 226 273 326
#     4  10  20  35  58  84 110 141 180 227 276 325
#     4  12  26  38  52  77 109 147 190 230 275 325
#     4   9  15  28  51  83 114 136 170 222 276 328
#     4   9  17  26  42  77 120 147 163 202 269 334
#     4   8  16  31  52  82 114 139 172 220 276 324
#     4   9  18  35  58  81 105 139 182 230 274 318
#     4   9  17  28  48  82 116 142 170 216 275 329
#
# _framework density 19.288854000000001
#
# number of rings (size 3 to 8) (size 9 to 14) (size 15 to 20)
#    0.000    2.500    1.250    2.250    3.500    2.000 
#    0.000    1.250    0.000    1.125    0.000    0.875 
#    0.000    0.000    0.000    0.000    0.000    0.000 
#
# Total GULP energy -396789.445968 kJ/mol
# GULP energy per Si atom -12399.670186 kJ/mol
# Density = 1.924495 g / cm^3
# Si number density = 19.288854 Si / 1000 Ang^3
#
#
#
# Elastic Constant Matrix: (Units=GPa)
#
#
# Indices 1 2 3 4 5 6 
#
# 1 133.9301 18.2293 48.4292 0.0000 0.1521 0.0000
# 2 18.2293 38.4298 19.9622 0.0000 1.0376 0.0000
# 3 48.4292 19.9622 109.8903 0.0000 1.6782 0.0000
# 4 0.0000 0.0000 0.0000 2.0844 0.0000 1.2323
# 5 0.1521 1.0376 1.6782 0.0000 32.8952 0.0000
# 6 0.0000 0.0000 0.0000 1.2323 0.0000 1.2544
#
#
#
# Elastic Compliance Matrix: (Units=1/GPa)
#
#
# Indices 1 2 3 4 5 6 
#
# 1 0.009090 -0.002468 -0.003561 0.000000 0.000217 0.000000
# 2 -0.002468 0.029416 -0.004245 0.000000 -0.000700 0.000000
# 3 -0.003561 -0.004245 0.011447 0.000000 -0.000434 0.000000
# 4 0.000000 0.000000 0.000000 1.144509 0.000000 -1.124342
# 5 0.000217 -0.000700 -0.000434 0.000000 0.030443 0.000000
# 6 0.000000 0.000000 0.000000 -1.124342 0.000000 1.901696
#
#
# Mechanical properties :
#
#
# Convention : Reuss Voigt Hill
#
# Bulk Modulus (GPa) = 34.00801 50.61017 42.30909
# Shear Modulus (GPa) = 1.58381 20.28877 10.93629
#
# Velocity S-wave (km/s) = 0.90713 3.24673 2.38371
# Velocity P-wave (km/s) = 4.33202 6.35216 5.43674
#
# Compressibility (1/GPa) = 0.02940484
#
# Stress axis : x y z
#
# Youngs Moduli (GPa) = 110.01222 33.99476 87.35823
#
# Poissons Ratio (x) = 0.08390 0.31108
# Poissons Ratio (y) = 0.27151 0.37086
# Poissons Ratio (z) = 0.39175 0.14432
#
# Static dielectric constant tensor:
#      x y z
#    x 3.884780 0.000000 0.008640 
#    y 0.000000 2.828240 0.000000 
#    z 0.008640 0.000000 3.678580 
# 
# 
# High freq. dielectric constant tensor:
#      x y z
#    x 1.767280 0.000000 0.001390 
#    y 0.000000 1.675580 0.000000 
#    z 0.001390 0.000000 1.762150 
# 
# From -- ./inp_files/83586.got.cif
#   From: 2010.06.25/outbox.cif.g09.slc.cpg/sg10_42_cif.got.tgz:83586.got - 2010.06.27 22:07:45.
