data_PCOD8064233
_publ_section_title
;
Structure prediction by ZEFSAII (Michael W. Deem and Ramdas Pophale) SiO2 
 PCOD8064233
Probable space group: P 2/M
;
_chemical_formula_sum "Si O2"
_cell_formula_units_Z 24
_cell_length_a 15.249365
_cell_length_b 18.621454
_cell_length_c 8.980515
_cell_angle_alpha 90.000000
_cell_angle_beta 151.795218
_cell_angle_gamma 90.000000
_cell_volume 1205.265304
_symmetry_space_group_name_H-M "P 2/M"
_symmetry_group_IT_number 10
_symmetry_cell_setting 'monoclinic'
loop_
_space_group_symop_operation_xyz
x,y,z
-x,y,-z
-x,-y,-z
x,-y,z
loop_
_atom_site_type_symbol
_atom_site_label
_atom_site_fract_x
_atom_site_fract_y
_atom_site_fract_z
Si Si1 0.826343 0.811334 0.636694
Si Si2 0.674176 0.417471 0.162936
Si Si3 0.546370 0.831195 0.736547
Si Si4 0.197658 0.306800 0.874548
Si Si5 0.037568 0.342328 0.222077
Si Si6 0.305177 0.079543 0.790004
O O1 0.640819 0.814933 0.454845
O O2 0.843400 0.731314 0.596102
O O3 0.827588 0.866564 0.500213
O O4 0.000000 0.830841 0.000000
O O5 0.659819 0.500000 0.092380
O O6 0.689036 0.369995 0.036838
O O7 0.855015 0.405922 0.534703
O O8 0.500000 0.392706 0.000000
O O9 0.500000 0.856612 0.500000
O O10 0.673510 0.761680 0.926993
O O11 0.662759 0.893500 0.993249
O O12 0.000000 0.290740 0.500000
O O13 0.157561 0.329688 0.985143
O O14 0.000000 0.368678 0.000000
O O15 0.214687 0.000000 0.660158
O O16 0.500000 0.076048 0.000000
#
# Coordination Sequence:
#
# PCOD8064233 Si02
#       6
#     4   4   4   4   4   4
#     4  10  20  36  58  82 110 145 187 230 276 332
#     4  10  21  37  56  79 110 147 184 222 271 330
#     4  11  21  34  57  83 111 144 183 234 281 328
#     4  10  21  36  58  82 109 144 187 231 275 331
#     4  10  20  35  56  81 110 140 180 230 275 325
#     4   9  19  35  54  78 110 148 185 224 276 334
#
# _framework density 19.912628000000002
#
# number of rings (size 3 to 8) (size 9 to 14) (size 15 to 20)
#    0.000    2.000    0.000    5.000    0.000    5.333 
#    0.000    0.000    0.000   14.000    0.000    0.000 
#    0.000    0.000    0.000    0.000    0.000    0.000 
#
# Total GULP energy -297593.500166 kJ/mol
# GULP energy per Si atom -12399.729174 kJ/mol
# Density = 1.986731 g / cm^3
# Si number density = 19.912628 Si / 1000 Ang^3
#
#
#
# Elastic Constant Matrix: (Units=GPa)
#
#
# Indices 1 2 3 4 5 6 
#
# 1 133.3469 33.4002 26.7179 0.0000 -10.0294 0.0000
# 2 33.4002 62.6437 19.6971 0.0000 -7.6882 0.0000
# 3 26.7179 19.6971 68.0203 0.0000 -7.4714 0.0000
# 4 0.0000 0.0000 0.0000 25.0893 0.0000 3.8872
# 5 -10.0294 -7.6882 -7.4714 0.0000 39.7147 0.0000
# 6 0.0000 0.0000 0.0000 3.8872 0.0000 7.4250
#
#
#
# Elastic Compliance Matrix: (Units=1/GPa)
#
#
# Indices 1 2 3 4 5 6 
#
# 1 0.009031 -0.003965 -0.002280 0.000000 0.001084 0.000000
# 2 -0.003965 0.019549 -0.003878 0.000000 0.002053 0.000000
# 3 -0.002280 -0.003878 0.016924 0.000000 0.001857 0.000000
# 4 0.000000 0.000000 0.000000 0.043376 0.000000 -0.022709
# 5 0.001084 0.002053 0.001857 0.000000 0.026200 0.000000
# 6 0.000000 0.000000 0.000000 -0.022709 0.000000 0.146569
#
#
# Mechanical properties :
#
#
# Convention : Reuss Voigt Hill
#
# Bulk Modulus (GPa) = 39.59178 47.07122 43.33150
# Shear Modulus (GPa) = 17.22276 26.72551 21.97414
#
# Velocity S-wave (km/s) = 2.94414 3.66750 3.32554
# Velocity P-wave (km/s) = 5.61099 6.45168 6.04597
#
# Compressibility (1/GPa) = 0.02525777
#
# Stress axis : x y z
#
# Youngs Moduli (GPa) = 110.73290 51.15430 59.08769
#
# Poissons Ratio (x) = 0.20283 0.13472
# Poissons Ratio (y) = 0.43906 0.22913
# Poissons Ratio (z) = 0.25247 0.19837
#
# Static dielectric constant tensor:
#      x y z
#    x 4.171020 0.000000 0.069480 
#    y 0.000000 3.614250 0.000000 
#    z 0.069480 0.000000 3.681180 
# 
# 
# High freq. dielectric constant tensor:
#      x y z
#    x 1.791130 0.000000 -0.002830 
#    y 0.000000 1.766900 0.000000 
#    z -0.002830 0.000000 1.767690 
# 
# From -- ./inp_files/30235.got.cif
#   From: 2010.06.25/outbox.cif.g09.slc.cpg/sg10_16_cif.got.tgz:30235.got - 2010.06.27 22:07:45.
