data_PCOD8064662
_publ_section_title
;
Structure prediction by ZEFSAII (Michael W. Deem and Ramdas Pophale) SiO2 
 PCOD8064662
Probable space group: P 2/M
;
_chemical_formula_sum "Si O2"
_cell_formula_units_Z 28
_cell_length_a 13.778036
_cell_length_b 8.664306
_cell_length_c 17.313856
_cell_angle_alpha 90.000000
_cell_angle_beta 44.186820
_cell_angle_gamma 90.000000
_cell_volume 1440.614503
_symmetry_space_group_name_H-M "P 2/M"
_symmetry_group_IT_number 10
_symmetry_cell_setting 'monoclinic'
loop_
_space_group_symop_operation_xyz
x,y,z
-x,y,-z
-x,-y,-z
x,-y,z
loop_
_atom_site_type_symbol
_atom_site_label
_atom_site_fract_x
_atom_site_fract_y
_atom_site_fract_z
Si Si1 0.790659 0.678427 0.905182
Si Si2 0.362564 0.820388 0.874050
Si Si3 0.844652 0.322778 0.700908
Si Si4 0.913159 0.819998 0.239491
Si Si5 0.155327 0.679292 0.567042
Si Si6 0.678208 0.178628 0.660849
Si Si7 0.852453 0.319682 0.119558
O O1 0.769678 0.500000 0.938150
O O2 0.771673 0.707754 0.824951
O O3 0.944362 0.724345 0.844546
O O4 0.676157 0.778573 0.015641
O O5 0.521831 0.773623 0.770493
O O6 0.269238 0.720491 0.870080
O O7 0.335970 0.000000 0.874044
O O8 0.825300 0.500000 0.686041
O O9 0.775530 0.212176 0.678278
O O10 0.007342 0.280229 0.612566
O O11 0.824465 0.775486 0.365828
O O12 0.825228 0.774477 0.213993
O O13 0.947560 0.000000 0.220566
O O14 0.162303 0.500000 0.584504
O O15 0.277115 0.722823 0.438787
O O16 0.691409 0.000000 0.632137
O O17 0.849561 0.500000 0.139731
O O18 0.000000 0.267989 0.000000
#
# Coordination Sequence:
#
# PCOD8064662 Si02
#       7
#     4   4   4   4   4   4   4
#     4  10  20  36  57  85 117 150 193 239 282 339
#     4  11  24  39  56  83 119 155 191 235 290 346
#     4   9  20  37  59  85 113 149 194 240 286 337
#     4  11  21  35  60  90 119 148 184 236 292 338
#     4  10  21  39  62  86 115 151 196 240 281 336
#     4  11  24  39  56  83 118 154 194 239 288 341
#     4  11  22  37  61  89 116 148 191 236 280 340
#
# _framework density 19.436152
#
# number of rings (size 3 to 8) (size 9 to 14) (size 15 to 20)
#    0.000    1.571    1.429    4.714    0.000    8.571 
#    0.000    3.571    0.000    4.286    0.000    0.000 
#    0.000    0.000    0.000    0.000    0.000    0.000 
#
# Total GULP energy -347369.528673 kJ/mol
# GULP energy per Si atom -12406.054595 kJ/mol
# Density = 1.939191 g / cm^3
# Si number density = 19.436152 Si / 1000 Ang^3
#
#
#
# Elastic Constant Matrix: (Units=GPa)
#
#
# Indices 1 2 3 4 5 6 
#
# 1 38.9760 18.1274 29.1864 0.0000 14.1525 0.0000
# 2 18.1274 60.5262 26.2667 0.0000 4.8474 0.0000
# 3 29.1864 26.2667 122.0297 0.0000 8.0555 0.0000
# 4 0.0000 0.0000 0.0000 34.7133 0.0000 4.5692
# 5 14.1525 4.8474 8.0555 0.0000 24.7888 0.0000
# 6 0.0000 0.0000 0.0000 4.5692 0.0000 28.8566
#
#
#
# Elastic Compliance Matrix: (Units=1/GPa)
#
#
# Indices 1 2 3 4 5 6 
#
# 1 0.041850 -0.007895 -0.006985 0.000000 -0.020079 0.000000
# 2 -0.007895 0.019847 -0.002478 0.000000 0.001432 0.000000
# 3 -0.006985 -0.002478 0.010325 0.000000 0.001117 0.000000
# 4 0.000000 0.000000 0.000000 0.029421 0.000000 -0.004659
# 5 -0.020079 0.001432 0.001117 0.000000 0.051162 0.000000
# 6 0.000000 0.000000 0.000000 -0.004659 0.000000 0.035392
#
#
# Mechanical properties :
#
#
# Convention : Reuss Voigt Hill
#
# Bulk Modulus (GPa) = 26.80487 40.96587 33.88537
# Shear Modulus (GPa) = 21.26335 27.53517 24.39926
#
# Velocity S-wave (km/s) = 3.31117 3.76799 3.54694
# Velocity P-wave (km/s) = 5.33288 6.32876 5.85205
#
# Compressibility (1/GPa) = 0.03730665
#
# Stress axis : x y z
#
# Youngs Moduli (GPa) = 23.89501 50.38524 96.85241
#
# Poissons Ratio (x) = 0.39777 0.67647
# Poissons Ratio (y) = 0.18864 0.24004
# Poissons Ratio (z) = 0.16690 0.12487
#
# Static dielectric constant tensor:
#      x y z
#    x 3.404970 0.000000 0.182190 
#    y 0.000000 3.515890 0.000000 
#    z 0.182190 0.000000 3.714060 
# 
# 
# High freq. dielectric constant tensor:
#      x y z
#    x 1.743280 0.000000 0.019480 
#    y 0.000000 1.766180 0.000000 
#    z 0.019480 0.000000 1.758530 
# 
# From -- ./inp_files/77731.got.cif
#   From: 2010.06.25/outbox.cif.g09.slc.cpg/sg10_39_cif.got.tgz:77731.got - 2010.06.27 22:07:45.
