data_PCOD8064208
_publ_section_title
;
Structure prediction by ZEFSAII (Michael W. Deem and Ramdas Pophale) SiO2 
 PCOD8064208
Probable space group: P 2/M
;
_chemical_formula_sum "Si O2"
_cell_formula_units_Z 32
_cell_length_a 12.067108
_cell_length_b 18.106212
_cell_length_c 14.313013
_cell_angle_alpha 90.000000
_cell_angle_beta 32.532922
_cell_angle_gamma 90.000000
_cell_volume 1681.782576
_symmetry_space_group_name_H-M "P 2/M"
_symmetry_group_IT_number 10
_symmetry_cell_setting 'monoclinic'
loop_
_space_group_symop_operation_xyz
x,y,z
-x,y,-z
-x,-y,-z
x,-y,z
loop_
_atom_site_type_symbol
_atom_site_label
_atom_site_fract_x
_atom_site_fract_y
_atom_site_fract_z
Si Si1 0.975258 0.584901 0.305430
Si Si2 0.980931 0.086334 0.301692
Si Si3 0.876981 0.912473 0.000107
Si Si4 0.415350 0.086322 0.302141
Si Si5 0.876291 0.587628 0.000015
Si Si6 0.798428 0.176265 0.701502
Si Si7 0.586127 0.584901 0.694553
Si Si8 0.695601 0.339310 0.804394
O O1 0.047372 0.500000 0.262642
O O2 0.097832 0.632153 0.294066
O O3 0.732208 0.593012 0.499988
O O4 0.017417 0.615268 0.171332
O O5 0.011972 0.114235 0.173801
O O6 0.746782 0.103599 0.499755
O O7 0.145148 0.128652 0.248246
O O8 0.030499 0.000000 0.276492
O O9 0.885898 0.000000 0.999675
O O10 0.000000 0.877310 0.000000
O O11 0.640109 0.885941 0.174417
O O12 0.358496 0.128752 0.248380
O O13 0.415888 0.000000 0.277051
O O14 0.885120 0.500000 0.000045
O O15 0.639900 0.615281 0.171354
O O16 0.000000 0.622096 0.000000
O O17 0.689318 0.251006 0.810653
O O18 0.000000 0.197221 0.500000
O O19 0.572617 0.500000 0.737364
O O20 0.685990 0.632134 0.705916
O O21 0.500000 0.370289 0.000000
#
# Coordination Sequence:
#
# PCOD8064208 Si02
#       8
#     4   4   4   4   4   4   4   4
#     4  10  20  35  56  80 107 139 173 212 260 311
#     4   9  18  33  54  78 104 135 169 209 257 306
#     4   9  18  31  49  76 106 135 170 211 252 299
#     4   9  18  33  54  78 104 135 169 209 257 306
#     4   9  18  33  53  80 110 137 172 215 256 303
#     4  10  21  35  52  77 107 135 170 213 258 312
#     4  10  20  35  56  80 107 139 173 212 260 311
#     4  12  23  34  53  79 108 140 174 215 264 314
#
# _framework density 19.027429000000001
#
# number of rings (size 3 to 8) (size 9 to 14) (size 15 to 20)
#    0.000    2.250    1.250    1.875    1.750    4.000 
#    0.000    6.875    0.000    3.000    0.000    3.500 
#    0.000    0.000    0.000    0.000    0.000    0.000 
#
# Total GULP energy -396839.095012 kJ/mol
# GULP energy per Si atom -12401.221719 kJ/mol
# Density = 1.898412 g / cm^3
# Si number density = 19.027429 Si / 1000 Ang^3
#
#
#
# Elastic Constant Matrix: (Units=GPa)
#
#
# Indices 1 2 3 4 5 6 
#
# 1 175.0668 39.3177 82.4393 0.0000 -2.7824 0.0000
# 2 39.3177 51.7011 28.6358 0.0000 -0.7302 0.0000
# 3 82.4393 28.6358 139.3042 0.0000 0.4102 0.0000
# 4 0.0000 0.0000 0.0000 18.5909 0.0000 1.3167
# 5 -2.7824 -0.7302 0.4102 0.0000 25.5533 0.0000
# 6 0.0000 0.0000 0.0000 1.3167 0.0000 -1.4755
#
#
#
# Elastic Compliance Matrix: (Units=1/GPa)
#
#
# Indices 1 2 3 4 5 6 
#
# 1 0.008689 -0.004227 -0.004276 0.000000 0.000894 0.000000
# 2 -0.004227 0.023896 -0.002411 0.000000 0.000261 0.000000
# 3 -0.004276 -0.002411 0.010207 0.000000 -0.000698 0.000000
# 4 0.000000 0.000000 0.000000 0.050592 0.000000 0.045148
# 5 0.000894 0.000261 -0.000698 0.000000 0.039250 0.000000
# 6 0.000000 0.000000 0.000000 0.045148 0.000000 -0.637461
#
#
# Mechanical properties :
#
#
# Convention : Reuss Voigt Hill
#
# Bulk Modulus (GPa) = 47.70272 74.09530 60.89901
# Shear Modulus (GPa) = -10.50395 22.91238 6.20422
#
# Velocity S-wave (km/s) = -2.35211 3.47389 1.80769
# Velocity P-wave (km/s) = 4.21288 7.42404 6.03592
#
# Compressibility (1/GPa) = 0.02096317
#
# Stress axis : x y z
#
# Youngs Moduli (GPa) = 115.08564 41.84836 97.97458
#
# Poissons Ratio (x) = 0.17689 0.41893
# Poissons Ratio (y) = 0.48647 0.23625
# Poissons Ratio (z) = 0.49210 0.10091
#
# Static dielectric constant tensor:
#      x y z
#    x 3.593560 0.000000 0.004640 
#    y 0.000000 3.117280 0.000000 
#    z 0.004640 0.000000 3.653860 
# 
# 
# High freq. dielectric constant tensor:
#      x y z
#    x 1.732940 0.000000 0.001520 
#    y 0.000000 1.703390 0.000000 
#    z 0.001520 0.000000 1.756110 
# 
# From -- ./inp_files/65397.got.cif
#   From: 2010.06.25/outbox.cif.g09.slc.cpg/sg10_33_cif.got.tgz:65397.got - 2010.06.27 22:07:45.
