data_PCOD8064492
_publ_section_title
;
Structure prediction by ZEFSAII (Michael W. Deem and Ramdas Pophale) SiO2 
 PCOD8064492
Probable space group: P 2/M
;
_chemical_formula_sum "Si O2"
_cell_formula_units_Z 32
_cell_length_a 24.571377
_cell_length_b 9.306869
_cell_length_c 15.049920
_cell_angle_alpha 90.000000
_cell_angle_beta 27.622261
_cell_angle_gamma 90.000000
_cell_volume 1595.689840
_symmetry_space_group_name_H-M "P 2/M"
_symmetry_group_IT_number 10
_symmetry_cell_setting 'monoclinic'
loop_
_space_group_symop_operation_xyz
x,y,z
-x,y,-z
-x,-y,-z
x,-y,z
loop_
_atom_site_type_symbol
_atom_site_label
_atom_site_fract_x
_atom_site_fract_y
_atom_site_fract_z
Si Si1 0.619488 0.666070 0.870446
Si Si2 0.001035 0.836922 0.397642
Si Si3 0.627481 0.668638 0.350418
Si Si4 0.658353 0.163582 0.483450
Si Si5 0.130370 0.667290 0.560967
Si Si6 0.265952 0.837796 0.954248
Si Si7 0.906868 0.832831 0.209328
Si Si8 0.409266 0.165174 0.915374
O O1 0.603171 0.500000 0.918341
O O2 0.728624 0.689671 0.645802
O O3 0.500000 0.727657 0.000000
O O4 0.644667 0.748233 0.925151
O O5 0.921515 0.733182 0.453829
O O6 0.000000 0.780337 0.500000
O O7 0.132558 0.831334 0.174265
O O8 0.951498 0.000000 0.464187
O O9 0.500000 0.713630 0.500000
O O10 0.646652 0.500000 0.324000
O O11 0.647234 0.726800 0.419634
O O12 0.722857 0.738270 0.147833
O O13 0.776358 0.199434 0.365003
O O14 0.549425 0.186990 0.707501
O O15 0.659705 0.000000 0.445221
O O16 0.097558 0.500000 0.613102
O O17 0.073685 0.744503 0.728472
O O18 0.304881 0.000000 0.873944
O O19 0.348868 0.777205 0.912738
O O20 0.926545 0.000000 0.203097
O O21 0.000000 0.781909 0.000000
O O22 0.374290 0.000000 0.980250
#
# Coordination Sequence:
#
# PCOD8064492 Si02
#       8
#     4   4   4   4   4   4   4   4
#     4  10  22  39  59  84 117 155 192 233 292 357
#     4  10  22  41  65  90 120 161 204 249 302 358
#     4  11  23  37  56  87 123 160 196 238 297 360
#     4  10  21  38  61  86 117 156 200 251 302 348
#     4  11  24  41  62  90 124 161 199 248 305 360
#     4  10  21  37  59  85 116 153 194 243 298 349
#     4  10  23  42  63  88 118 157 206 254 301 357
#     4  10  20  35  59  89 114 145 193 245 292 346
#
# _framework density 20.054022
#
# number of rings (size 3 to 8) (size 9 to 14) (size 15 to 20)
#    0.000    1.750    1.250    2.250    1.750    5.250 
#    0.000    0.000    0.000    0.000    0.000    0.000 
#    0.000    0.000    0.000    0.000    0.000    0.000 
#
# Total GULP energy -396957.701273 kJ/mol
# GULP energy per Si atom -12404.928165 kJ/mol
# Density = 2.000838 g / cm^3
# Si number density = 20.054022 Si / 1000 Ang^3
#
#
#
# Elastic Constant Matrix: (Units=GPa)
#
#
# Indices 1 2 3 4 5 6 
#
# 1 96.3088 53.7764 32.9264 0.0000 12.0588 0.0000
# 2 53.7764 82.3483 37.9929 0.0000 14.7848 0.0000
# 3 32.9264 37.9929 82.3009 0.0000 10.2708 0.0000
# 4 0.0000 0.0000 0.0000 25.7145 0.0000 2.3282
# 5 12.0588 14.7848 10.2708 0.0000 39.6380 0.0000
# 6 0.0000 0.0000 0.0000 2.3282 0.0000 33.2791
#
#
#
# Elastic Compliance Matrix: (Units=1/GPa)
#
#
# Indices 1 2 3 4 5 6 
#
# 1 0.016648 -0.009771 -0.002038 0.000000 -0.000892 0.000000
# 2 -0.009771 0.021817 -0.005702 0.000000 -0.003688 0.000000
# 3 -0.002038 -0.005702 0.015765 0.000000 -0.001338 0.000000
# 4 0.000000 0.000000 0.000000 0.039136 0.000000 -0.002738
# 5 -0.000892 -0.003688 -0.001338 0.000000 0.027222 0.000000
# 6 0.000000 0.000000 0.000000 -0.002738 0.000000 0.030240
#
#
# Mechanical properties :
#
#
# Convention : Reuss Voigt Hill
#
# Bulk Modulus (GPa) = 52.06414 56.70548 54.38481
# Shear Modulus (GPa) = 26.00719 28.81049 27.40884
#
# Velocity S-wave (km/s) = 3.60510 3.79442 3.70097
# Velocity P-wave (km/s) = 6.58386 6.89453 6.74099
#
# Compressibility (1/GPa) = 0.01920708
#
# Stress axis : x y z
#
# Youngs Moduli (GPa) = 60.06845 45.83532 63.43012
#
# Poissons Ratio (x) = 0.44785 0.12930
# Poissons Ratio (y) = 0.58693 0.36170
# Poissons Ratio (z) = 0.12244 0.26137
#
# Static dielectric constant tensor:
#      x y z
#    x 3.582560 0.000000 -0.096090 
#    y 0.000000 3.577860 0.000000 
#    z -0.096090 0.000000 3.715970 
# 
# 
# High freq. dielectric constant tensor:
#      x y z
#    x 1.783840 0.000000 -0.000850 
#    y 0.000000 1.773970 0.000000 
#    z -0.000850 0.000000 1.794330 
# 
# From -- ./inp_files/71490.got.cif
#   From: 2010.06.25/outbox.cif.g09.slc.cpg/sg10_36_cif.got.tgz:71490.got - 2010.06.27 22:07:45.
