data_PCOD8064035
_publ_section_title
;
Structure prediction by ZEFSAII (Michael W. Deem and Ramdas Pophale) SiO2 
 PCOD8064035
Probable space group: P 2/M
;
_chemical_formula_sum "Si O2"
_cell_formula_units_Z 32
_cell_length_a 11.968300
_cell_length_b 8.720966
_cell_length_c 16.957394
_cell_angle_alpha 90.000000
_cell_angle_beta 85.129437
_cell_angle_gamma 90.000000
_cell_volume 1763.539198
_symmetry_space_group_name_H-M "P 2/M"
_symmetry_group_IT_number 10
_symmetry_cell_setting 'monoclinic'
loop_
_space_group_symop_operation_xyz
x,y,z
-x,y,-z
-x,-y,-z
x,-y,z
loop_
_atom_site_type_symbol
_atom_site_label
_atom_site_fract_x
_atom_site_fract_y
_atom_site_fract_z
Si Si1 0.428708 0.819806 0.644488
Si Si2 0.853336 0.681459 0.730173
Si Si3 0.080327 0.179353 0.666775
Si Si4 0.089561 0.318221 0.101166
Si Si5 0.153459 0.680608 0.930631
Si Si6 0.262010 0.176913 0.785193
Si Si7 0.312211 0.179896 0.377123
Si Si8 0.745217 0.680239 0.457448
O O1 0.371693 0.767809 0.730418
O O2 0.558014 0.775888 0.639960
O O3 0.371485 0.731489 0.575468
O O4 0.407580 0.000000 0.631550
O O5 0.834667 0.500000 0.726459
O O6 0.859709 0.743100 0.819974
O O7 0.748469 0.769723 0.699245
O O8 0.966286 0.724885 0.677050
O O9 0.152535 0.216267 0.740163
O O10 0.149322 0.232421 0.586377
O O11 0.052995 0.000000 0.660770
O O12 0.081700 0.500000 0.105415
O O13 0.964060 0.253051 0.095914
O O14 0.166492 0.267331 0.021609
O O15 0.153151 0.500000 0.925991
O O16 0.255085 0.740470 0.870335
O O17 0.271203 0.000000 0.803492
O O18 0.257835 0.275594 0.450982
O O19 0.297059 0.000000 0.393704
O O20 0.762064 0.500000 0.446391
#
# Coordination Sequence:
#
# PCOD8064035 Si02
#       8
#     4   4   4   4   4   4   4   4
#     4   9  20  38  57  76 104 139 174 214 263 312
#     4  11  21  35  54  77 107 139 175 220 261 303
#     4  10  20  35  53  76 108 143 174 206 258 320
#     4   8  16  29  48  74 107 139 168 205 252 308
#     4   9  15  28  50  76 104 138 171 201 252 312
#     4   9  17  30  50  78 106 131 166 216 258 297
#     4  11  23  39  56  74 101 142 180 211 259 319
#     4  11  22  36  57  83 106 129 169 224 267 302
#
# _framework density 18.145329
#
# number of rings (size 3 to 8) (size 9 to 14) (size 15 to 20)
#    0.000    2.250    1.250    4.125    0.000    5.000 
#    0.000    5.000    0.000    0.750    0.000    5.250 
#    0.000    0.000    0.000    0.000    0.000    0.000 
#
# Total GULP energy -396770.438545 kJ/mol
# GULP energy per Si atom -12399.076205 kJ/mol
# Density = 1.810403 g / cm^3
# Si number density = 18.145329 Si / 1000 Ang^3
#
#
#
# Elastic Constant Matrix: (Units=GPa)
#
#
# Indices 1 2 3 4 5 6 
#
# 1 51.1008 14.4890 39.3421 0.0000 5.8989 0.0000
# 2 14.4890 38.4869 19.7239 0.0000 -1.1408 0.0000
# 3 39.3421 19.7239 129.9229 0.0000 -5.0078 0.0000
# 4 0.0000 0.0000 0.0000 25.4399 0.0000 -4.6543
# 5 5.8989 -1.1408 -5.0078 0.0000 22.2542 0.0000
# 6 0.0000 0.0000 0.0000 -4.6543 0.0000 20.9335
#
#
#
# Elastic Compliance Matrix: (Units=1/GPa)
#
#
# Indices 1 2 3 4 5 6 
#
# 1 0.028911 -0.007043 -0.008065 0.000000 -0.009839 0.000000
# 2 -0.007043 0.029896 -0.002295 0.000000 0.002883 0.000000
# 3 -0.008065 -0.002295 0.010658 0.000000 0.004418 0.000000
# 4 0.000000 0.000000 0.000000 0.040975 0.000000 0.009110
# 5 -0.009839 0.002883 0.004418 0.000000 0.048685 0.000000
# 6 0.000000 0.000000 0.000000 0.009110 0.000000 0.049796
#
#
# Mechanical properties :
#
#
# Convention : Reuss Voigt Hill
#
# Bulk Modulus (GPa) = 28.85171 40.73561 34.79366
# Shear Modulus (GPa) = 19.58654 23.45590 21.52122
#
# Velocity S-wave (km/s) = 3.28903 3.59927 3.44764
# Velocity P-wave (km/s) = 5.50985 6.30646 5.92156
#
# Compressibility (1/GPa) = 0.03465999
#
# Stress axis : x y z
#
# Youngs Moduli (GPa) = 34.58938 33.44971 93.82975
#
# Poissons Ratio (x) = 0.23557 0.75670
# Poissons Ratio (y) = 0.24360 0.21533
# Poissons Ratio (z) = 0.27895 0.07676
#
# Static dielectric constant tensor:
#      x y z
#    x 3.204640 0.000000 -0.137580 
#    y 0.000000 3.187460 0.000000 
#    z -0.137580 0.000000 3.618230 
# 
# 
# High freq. dielectric constant tensor:
#      x y z
#    x 1.677310 0.000000 -0.015700 
#    y 0.000000 1.694500 0.000000 
#    z -0.015700 0.000000 1.709200 
# 
# From -- ./inp_files/52794.got.cif
#   From: 2010.06.25/outbox.cif.g09.slc.cpg/sg10_27_cif.got.tgz:52794.got - 2010.06.27 22:07:45.
