data_PCOD8064660
_publ_section_title
;
Structure prediction by ZEFSAII (Michael W. Deem and Ramdas Pophale) SiO2 
 PCOD8064660
Probable space group: P 2/M
;
_chemical_formula_sum "Si O2"
_cell_formula_units_Z 28
_cell_length_a 9.213992
_cell_length_b 9.251821
_cell_length_c 26.893023
_cell_angle_alpha 90.000000
_cell_angle_beta 141.053664
_cell_angle_gamma 90.000000
_cell_volume 1441.065377
_symmetry_space_group_name_H-M "P 2/M"
_symmetry_group_IT_number 10
_symmetry_cell_setting 'monoclinic'
loop_
_space_group_symop_operation_xyz
x,y,z
-x,y,-z
-x,-y,-z
x,-y,z
loop_
_atom_site_type_symbol
_atom_site_label
_atom_site_fract_x
_atom_site_fract_y
_atom_site_fract_z
Si Si1 0.323394 0.832098 0.353228
Si Si2 0.724672 0.828985 0.032642
Si Si3 0.523189 0.670006 0.229638
Si Si4 0.187968 0.832528 0.208082
Si Si5 0.208585 0.332256 0.519529
Si Si6 0.050745 0.667743 0.365862
Si Si7 0.267308 0.341172 0.062793
O O1 0.170566 0.810624 0.262794
O O2 0.571383 0.763056 0.408391
O O3 0.198103 0.757738 0.365971
O O4 0.356368 0.000000 0.374720
O O5 0.954450 0.768753 0.120944
O O6 0.730963 0.000000 0.034507
O O7 0.500000 0.767847 0.000000
O O8 0.694598 0.776410 0.968878
O O9 0.505079 0.500000 0.234729
O O10 0.409736 0.748443 0.246436
O O11 0.389557 0.718770 0.144611
O O12 0.786670 0.719742 0.294027
O O13 0.219122 0.000000 0.202722
O O14 0.268556 0.500000 0.544399
O O15 0.145480 0.302239 0.445797
O O16 0.000000 0.284705 0.500000
O O17 0.073199 0.500000 0.357414
O O18 0.369072 0.500000 0.075689
O O19 0.000000 0.358785 0.000000
#
# Coordination Sequence:
#
# PCOD8064660 Si02
#       7
#     4   4   4   4   4   4   4
#     4  11  24  39  58  86 121 153 186 233 286 335
#     4  10  22  38  57  80 111 153 197 235 278 338
#     4  10  21  38  60  85 114 148 190 237 286 339
#     4  10  22  39  56  81 114 150 193 236 280 336
#     4  10  21  40  65  89 114 149 192 233 277 335
#     4  10  22  39  60  87 116 149 190 232 277 338
#     4  10  20  36  57  85 116 145 185 240 292 336
#
# _framework density 19.430070000000001
#
# number of rings (size 3 to 8) (size 9 to 14) (size 15 to 20)
#    0.000    1.857    1.429    1.714    2.000    6.571 
#    0.000    0.000    0.000    0.000    0.000    0.000 
#    0.000    0.000    0.000    0.000    0.000    0.000 
#
# Total GULP energy -347272.700837 kJ/mol
# GULP energy per Si atom -12402.596458 kJ/mol
# Density = 1.938585 g / cm^3
# Si number density = 19.430070 Si / 1000 Ang^3
#
#
#
# Elastic Constant Matrix: (Units=GPa)
#
#
# Indices 1 2 3 4 5 6 
#
# 1 136.3662 51.6364 34.5132 0.0000 4.0143 0.0000
# 2 51.6364 53.4021 30.5098 0.0000 3.2501 0.0000
# 3 34.5132 30.5098 77.6345 0.0000 1.6580 0.0000
# 4 0.0000 0.0000 0.0000 16.1827 0.0000 -11.3254
# 5 4.0143 3.2501 1.6580 0.0000 33.6936 0.0000
# 6 0.0000 0.0000 0.0000 -11.3254 0.0000 29.9619
#
#
#
# Elastic Compliance Matrix: (Units=1/GPa)
#
#
# Indices 1 2 3 4 5 6 
#
# 1 0.011628 -0.010671 -0.000969 0.000000 -0.000308 0.000000
# 2 -0.010671 0.034058 -0.008607 0.000000 -0.001590 0.000000
# 3 -0.000969 -0.008607 0.016691 0.000000 0.000124 0.000000
# 4 0.000000 0.000000 0.000000 0.084021 0.000000 0.031759
# 5 -0.000308 -0.001590 0.000124 0.000000 0.029863 0.000000
# 6 0.000000 0.000000 0.000000 0.031759 0.000000 0.045380
#
#
# Mechanical properties :
#
#
# Convention : Reuss Voigt Hill
#
# Bulk Modulus (GPa) = 45.69598 55.63572 50.66585
# Shear Modulus (GPa) = 18.55756 26.01721 22.28738
#
# Velocity S-wave (km/s) = 3.09381 3.66323 3.39050
# Velocity P-wave (km/s) = 6.02756 6.82556 6.43894
#
# Compressibility (1/GPa) = 0.02188377
#
# Stress axis : x y z
#
# Youngs Moduli (GPa) = 85.99626 29.36129 59.91112
#
# Poissons Ratio (x) = 0.31333 0.05806
# Poissons Ratio (y) = 0.91771 0.51563
# Poissons Ratio (z) = 0.08334 0.25270
#
# Static dielectric constant tensor:
#      x y z
#    x 3.456280 0.000000 0.078380 
#    y 0.000000 3.464680 0.000000 
#    z 0.078380 0.000000 3.753080 
# 
# 
# High freq. dielectric constant tensor:
#      x y z
#    x 1.761260 0.000000 -0.002120 
#    y 0.000000 1.746900 0.000000 
#    z -0.002120 0.000000 1.771870 
# 
# From -- ./inp_files/36696.got.cif
#   From: 2010.06.25/outbox.cif.g09.slc.cpg/sg10_19_cif.got.tgz:36696.got - 2010.06.27 22:07:45.
