data_PCOD8064030
_publ_section_title
;
Structure prediction by ZEFSAII (Michael W. Deem and Ramdas Pophale) SiO2 
 PCOD8064030
Probable space group: P 2/M
;
_chemical_formula_sum "Si O2"
_cell_formula_units_Z 32
_cell_length_a 20.947919
_cell_length_b 8.943933
_cell_length_c 26.298331
_cell_angle_alpha 90.000000
_cell_angle_beta 20.672087
_cell_angle_gamma 90.000000
_cell_volume 1739.385266
_symmetry_space_group_name_H-M "P 2/M"
_symmetry_group_IT_number 10
_symmetry_cell_setting 'monoclinic'
loop_
_space_group_symop_operation_xyz
x,y,z
-x,y,-z
-x,-y,-z
x,-y,z
loop_
_atom_site_type_symbol
_atom_site_label
_atom_site_fract_x
_atom_site_fract_y
_atom_site_fract_z
Si Si1 0.295061 0.674491 0.156230
Si Si2 0.201151 0.178804 0.856767
Si Si3 0.530248 0.178054 0.146747
Si Si4 0.520047 0.177494 0.269477
Si Si5 0.220187 0.827885 0.571280
Si Si6 0.516171 0.172443 0.432805
Si Si7 0.812047 0.177071 0.662904
Si Si8 0.155600 0.325206 0.150085
O O1 0.285405 0.500000 0.176170
O O2 0.194904 0.763426 0.274910
O O3 0.199848 0.717161 0.174869
O O4 0.500000 0.730393 0.000000
O O5 0.296991 0.232271 0.837965
O O6 0.319248 0.243583 0.721992
O O7 0.198449 0.000000 0.857810
O O8 0.000000 0.245101 0.000000
O O9 0.515961 0.240167 0.215137
O O10 0.355956 0.237473 0.245495
O O11 0.538608 0.000000 0.140101
O O12 0.712462 0.239402 0.986329
O O13 0.341504 0.230415 0.433386
O O14 0.518207 0.000000 0.270705
O O15 0.329744 0.810286 0.541730
O O16 0.048404 0.723713 0.707131
O O17 0.161518 0.000000 0.606441
O O18 0.500000 0.251974 0.500000
O O19 0.565036 0.000000 0.404639
O O20 0.000000 0.236795 0.500000
O O21 0.808336 0.000000 0.667052
O O22 0.179216 0.500000 0.122329
#
# Coordination Sequence:
#
# PCOD8064030 Si02
#       8
#     4   4   4   4   4   4   4   4
#     4  10  21  39  57  73 100 137 173 212 258 305
#     4   8  13  22  38  64  98 133 162 194 242 292
#     4  10  20  35  53  75 103 134 167 207 257 308
#     4   8  16  30  48  72 103 134 166 205 249 301
#     4   9  18  33  54  78 105 139 172 208 258 307
#     4   8  14  25  43  72 106 133 163 204 247 297
#     4  10  22  36  54  82 107 129 164 211 259 307
#     4  11  23  37  53  75 103 135 174 217 256 303
#
# _framework density 18.397303999999998
#
# number of rings (size 3 to 8) (size 9 to 14) (size 15 to 20)
#    0.000    2.750    1.250    1.875    1.750    2.500 
#    0.000    4.375    0.000    0.375    0.000    0.000 
#    0.000    4.500    0.000    0.000    0.000    0.000 
#
# Total GULP energy -396708.745903 kJ/mol
# GULP energy per Si atom -12397.148309 kJ/mol
# Density = 1.835543 g / cm^3
# Si number density = 18.397304 Si / 1000 Ang^3
#
#
#
# Elastic Constant Matrix: (Units=GPa)
#
#
# Indices 1 2 3 4 5 6 
#
# 1 125.9450 19.0477 63.1742 0.0000 17.9089 0.0000
# 2 19.0477 11.3412 15.4299 0.0000 1.7309 0.0000
# 3 63.1742 15.4299 132.4478 0.0000 2.8666 0.0000
# 4 0.0000 0.0000 0.0000 -0.3569 0.0000 -21.0518
# 5 17.9089 1.7309 2.8666 0.0000 30.0916 0.0000
# 6 0.0000 0.0000 0.0000 -21.0518 0.0000 -23.5001
#
#
#
# Elastic Compliance Matrix: (Units=1/GPa)
#
#
# Indices 1 2 3 4 5 6 
#
# 1 0.013491 -0.015540 -0.004479 0.000000 -0.006709 0.000000
# 2 -0.015540 0.123402 -0.007025 0.000000 0.002820 0.000000
# 3 -0.004479 -0.007025 0.010460 0.000000 0.002073 0.000000
# 4 0.000000 0.000000 0.000000 0.054049 0.000000 -0.048418
# 5 -0.006709 0.002820 0.002073 0.000000 0.036865 0.000000
# 6 0.000000 0.000000 0.000000 -0.048418 0.000000 0.000821
#
#
# Mechanical properties :
#
#
# Convention : Reuss Voigt Hill
#
# Bulk Modulus (GPa) = 10.72225 51.67085 31.19655
# Shear Modulus (GPa) = 15.41951 12.71905 14.06928
#
# Velocity S-wave (km/s) = 2.89821 2.63221 2.76841
# Velocity P-wave (km/s) = 4.12799 6.11434 5.21658
#
# Compressibility (1/GPa) = 0.09326403
#
# Stress axis : x y z
#
# Youngs Moduli (GPa) = 74.12350 8.10362 95.60119
#
# Poissons Ratio (x) = 0.12593 0.42822
# Poissons Ratio (y) = 1.15191 0.67157
# Poissons Ratio (z) = 0.33202 0.05693
#
# Static dielectric constant tensor:
#      x y z
#    x 3.509440 0.000000 -0.045040 
#    y 0.000000 2.875440 0.000000 
#    z -0.045040 0.000000 3.484690 
# 
# 
# High freq. dielectric constant tensor:
#      x y z
#    x 1.724740 0.000000 0.001310 
#    y 0.000000 1.661870 0.000000 
#    z 0.001310 0.000000 1.722220 
# 
# From -- ./inp_files/93657.got.cif
#   From: 2010.06.25/outbox.cif.g09.slc.cpg/sg10_47_cif.got.tgz:93657.got - 2010.06.27 22:07:45.
