data_PCOD8064316
_publ_section_title
;
Structure prediction by ZEFSAII (Michael W. Deem and Ramdas Pophale) SiO2 
 PCOD8064316
Probable space group: P 2/M
;
_chemical_formula_sum "Si O2"
_cell_formula_units_Z 28
_cell_length_a 9.015337
_cell_length_b 7.768793
_cell_length_c 26.800015
_cell_angle_alpha 90.000000
_cell_angle_beta 132.770322
_cell_angle_gamma 90.000000
_cell_volume 1377.891279
_symmetry_space_group_name_H-M "P 2/M"
_symmetry_group_IT_number 10
_symmetry_cell_setting 'monoclinic'
loop_
_space_group_symop_operation_xyz
x,y,z
-x,y,-z
-x,-y,-z
x,-y,z
loop_
_atom_site_type_symbol
_atom_site_label
_atom_site_fract_x
_atom_site_fract_y
_atom_site_fract_z
Si Si1 0.827908 0.194436 0.700323
Si Si2 0.757078 0.308724 0.167421
Si Si3 0.716090 0.795176 0.566180
Si Si4 0.569632 0.000000 0.072134
Si Si5 0.059190 0.796882 0.568956
Si Si6 0.423442 0.300978 0.171663
Si Si7 0.498907 0.694676 0.697761
Si Si8 0.778532 0.000000 0.927833
O O1 0.768312 0.274971 0.633211
O O2 0.632444 0.190900 0.691238
O O3 0.007115 0.303606 0.765483
O O4 0.905870 0.000000 0.711098
O O5 0.708223 0.500000 0.135540
O O6 0.703625 0.170057 0.112769
O O7 0.629804 0.270727 0.188310
O O8 0.500000 0.718654 0.500000
O O9 0.885211 0.730292 0.566291
O O10 0.704331 0.000000 0.564176
O O11 0.371823 0.000000 0.060328
O O12 0.500000 0.000000 0.000000
O O13 0.265127 0.705923 0.630914
O O14 0.000000 0.739737 0.500000
O O15 0.089698 0.000000 0.579802
O O16 0.350367 0.500000 0.150950
O O17 0.468961 0.243665 0.238322
O O18 0.251046 0.173532 0.111468
O O19 0.572987 0.500000 0.708579
O O20 0.000000 0.000000 0.000000
#
# Coordination Sequence:
#
# PCOD8064316 Si02
#       8
#     4   4   4   2   4   4   4   2
#     4  11  21  34  56  85 115 151 195 243 293 348
#     4  10  20  39  62  86 118 155 195 241 291 342
#     4   9  18  33  54  81 112 146 191 243 294 351
#     4  10  22  40  60  90 123 152 197 234 280 350
#     4  10  20  35  57  82 109 147 193 242 296 350
#     4   9  21  39  60  86 118 154 195 241 287 343
#     4  11  23  37  54  82 115 151 192 239 295 346
#     4  10  22  38  62  90 117 156 193 232 286 344
#
# _framework density 20.320907999999999
#
# number of rings (size 3 to 8) (size 9 to 14) (size 15 to 20)
#    0.000    2.000    0.714    2.571    2.000    4.286 
#    0.000    0.714    0.000    3.000    0.000    0.000 
#    0.000    0.000    0.000    0.000    0.000    0.000 
#
# Total GULP energy -347293.682359 kJ/mol
# GULP energy per Si atom -12403.345799 kJ/mol
# Density = 2.027466 g / cm^3
# Si number density = 20.320908 Si / 1000 Ang^3
#
#
#
# Elastic Constant Matrix: (Units=GPa)
#
#
# Indices 1 2 3 4 5 6 
#
# 1 115.6205 29.6260 71.2361 0.0000 -7.4298 0.0000
# 2 29.6260 85.9136 52.9765 0.0000 -7.3115 0.0000
# 3 71.2361 52.9765 173.2028 0.0000 -7.0554 0.0000
# 4 0.0000 0.0000 0.0000 18.7658 0.0000 1.6515
# 5 -7.4298 -7.3115 -7.0554 0.0000 44.4677 0.0000
# 6 0.0000 0.0000 0.0000 1.6515 0.0000 18.1762
#
#
#
# Elastic Compliance Matrix: (Units=1/GPa)
#
#
# Indices 1 2 3 4 5 6 
#
# 1 0.011753 -0.001243 -0.004410 0.000000 0.001060 0.000000
# 2 -0.001243 0.014601 -0.003891 0.000000 0.001576 0.000000
# 3 -0.004410 -0.003891 0.008778 0.000000 0.000016 0.000000
# 4 0.000000 0.000000 0.000000 0.053718 0.000000 -0.004881
# 5 0.001060 0.001576 0.000016 0.000000 0.022927 0.000000
# 6 0.000000 0.000000 0.000000 -0.004881 0.000000 0.055460
#
#
# Mechanical properties :
#
#
# Convention : Reuss Voigt Hill
#
# Bulk Modulus (GPa) = 62.32740 75.82380 69.07560
# Shear Modulus (GPa) = 26.08590 31.00849 28.54719
#
# Velocity S-wave (km/s) = 3.58676 3.91057 3.75216
# Velocity P-wave (km/s) = 6.92035 7.60159 7.26896
#
# Compressibility (1/GPa) = 0.01604431
#
# Stress axis : x y z
#
# Youngs Moduli (GPa) = 85.08483 68.48665 113.91843
#
# Poissons Ratio (x) = 0.08513 0.50244
# Poissons Ratio (y) = 0.10576 0.44321
# Poissons Ratio (z) = 0.37527 0.26645
#
# Static dielectric constant tensor:
#      x y z
#    x 3.101280 0.000000 0.152280 
#    y 0.000000 3.641050 0.000000 
#    z 0.152280 0.000000 3.513480 
# 
# 
# High freq. dielectric constant tensor:
#      x y z
#    x 1.794860 0.000000 -0.001470 
#    y 0.000000 1.791400 0.000000 
#    z -0.001470 0.000000 1.789620 
# 
# From -- ./inp_files/92127.got.cif
#   From: 2010.06.25/outbox.cif.g09.slc.cpg/sg10_47_cif.got.tgz:92127.got - 2010.06.27 22:07:45.
