data_PCOD8064453
_publ_section_title
;
Structure prediction by ZEFSAII (Michael W. Deem and Ramdas Pophale) SiO2 
 PCOD8064453
Probable space group: P 2/M
;
_chemical_formula_sum "Si O2"
_cell_formula_units_Z 32
_cell_length_a 25.244221
_cell_length_b 8.927704
_cell_length_c 24.562646
_cell_angle_alpha 90.000000
_cell_angle_beta 16.301215
_cell_angle_gamma 90.000000
_cell_volume 1553.814967
_symmetry_space_group_name_H-M "P 2/M"
_symmetry_group_IT_number 10
_symmetry_cell_setting 'monoclinic'
loop_
_space_group_symop_operation_xyz
x,y,z
-x,y,-z
-x,-y,-z
x,-y,z
loop_
_atom_site_type_symbol
_atom_site_label
_atom_site_fract_x
_atom_site_fract_y
_atom_site_fract_z
Si Si1 0.986557 0.819759 0.932474
Si Si2 0.720846 0.322775 0.280634
Si Si3 0.663874 0.669086 0.952207
Si Si4 0.782506 0.670568 0.623370
Si Si5 0.723529 0.169839 0.787898
Si Si6 0.827153 0.822044 0.469999
Si Si7 0.922879 0.826395 0.874612
Si Si8 0.402933 0.172481 0.877079
O O1 0.181904 0.753238 0.762785
O O2 0.966770 0.757986 0.890350
O O3 0.985207 0.000000 0.938280
O O4 0.809013 0.753139 0.140200
O O5 0.500000 0.286617 0.500000
O O6 0.760934 0.500000 0.240827
O O7 0.733879 0.500000 0.884955
O O8 0.777371 0.746627 0.790893
O O9 0.441011 0.683165 0.163501
O O10 0.714300 0.745447 0.959756
O O11 0.849764 0.500000 0.561649
O O12 0.835798 0.756015 0.626644
O O13 0.885191 0.745977 0.470058
O O14 0.791062 0.000000 0.725761
O O15 0.500000 0.182009 0.000000
O O16 0.951507 0.756775 0.297839
O O17 0.616107 0.771672 0.661604
O O18 0.848419 0.000000 0.455936
O O19 0.973115 0.000000 0.828475
O O20 0.703336 0.799354 0.075492
O O21 0.397893 0.000000 0.898841
#
# Coordination Sequence:
#
# PCOD8064453 Si02
#       8
#     4   4   4   4   4   4   4   4
#     4  10  20  35  58  88 117 145 185 234 275 316
#     4  10  21  38  59  83 116 156 189 221 268 323
#     4   9  16  26  41  64  94 125 161 208 258 307
#     4   9  16  26  41  64  94 125 161 208 258 307
#     4   9  15  23  39  64  91 122 162 205 255 316
#     4   9  17  31  50  70  96 132 170 207 251 307
#     4   9  19  34  53  79 107 136 173 216 260 305
#     4   9  17  31  50  70  96 132 170 207 251 307
#
# _framework density 20.594470999999999
#
# number of rings (size 3 to 8) (size 9 to 14) (size 15 to 20)
#    0.000    2.750    0.000    2.625    0.000    6.500 
#    0.000    5.625    0.000    3.750    0.000    5.250 
#    0.000    0.000    0.000    0.000    0.000    0.000 
#
# Total GULP energy -396744.463641 kJ/mol
# GULP energy per Si atom -12398.264489 kJ/mol
# Density = 2.054760 g / cm^3
# Si number density = 20.594471 Si / 1000 Ang^3
#
#
#
# Elastic Constant Matrix: (Units=GPa)
#
#
# Indices 1 2 3 4 5 6 
#
# 1 146.9625 49.2820 26.0355 0.0000 18.5950 0.0000
# 2 49.2820 101.2604 18.6203 0.0000 7.4715 0.0000
# 3 26.0355 18.6203 60.9470 0.0000 7.8120 0.0000
# 4 0.0000 0.0000 0.0000 14.5969 0.0000 -1.2527
# 5 18.5950 7.4715 7.8120 0.0000 23.4903 0.0000
# 6 0.0000 0.0000 0.0000 -1.2527 0.0000 12.7455
#
#
#
# Elastic Compliance Matrix: (Units=1/GPa)
#
#
# Indices 1 2 3 4 5 6 
#
# 1 0.009067 -0.003637 -0.002079 0.000000 -0.005329 0.000000
# 2 -0.003637 0.012050 -0.002095 0.000000 -0.000257 0.000000
# 3 -0.002079 -0.002095 0.018425 0.000000 -0.003815 0.000000
# 4 0.000000 0.000000 0.000000 0.069090 0.000000 0.006791
# 5 -0.005329 -0.000257 -0.003815 0.000000 0.048140 0.000000
# 6 0.000000 0.000000 0.000000 0.006791 0.000000 0.079127
#
#
# Mechanical properties :
#
#
# Convention : Reuss Voigt Hill
#
# Bulk Modulus (GPa) = 41.80650 55.22728 48.51689
# Shear Modulus (GPa) = 19.26834 24.51535 21.89184
#
# Velocity S-wave (km/s) = 3.06209 3.45394 3.26390
# Velocity P-wave (km/s) = 5.73112 6.54072 6.14926
#
# Compressibility (1/GPa) = 0.02391973
#
# Stress axis : x y z
#
# Youngs Moduli (GPa) = 110.29378 82.98876 54.27466
#
# Poissons Ratio (x) = 0.30184 0.11283
# Poissons Ratio (y) = 0.40116 0.11369
# Poissons Ratio (z) = 0.22929 0.17384
#
# Static dielectric constant tensor:
#      x y z
#    x 3.870230 0.000000 0.098070 
#    y 0.000000 3.595140 0.000000 
#    z 0.098070 0.000000 3.652110 
# 
# 
# High freq. dielectric constant tensor:
#      x y z
#    x 1.805280 0.000000 -0.002250 
#    y 0.000000 1.791570 0.000000 
#    z -0.002250 0.000000 1.805670 
# 
# From -- ./inp_files/90609.got.cif
#   From: 2010.06.25/outbox.cif.g09.slc.cpg/sg10_46_cif.got.tgz:90609.got - 2010.06.27 22:07:45.
