data_PCOD8064346
_publ_section_title
;
Structure prediction by ZEFSAII (Michael W. Deem and Ramdas Pophale) SiO2 
 PCOD8064346
Probable space group: P 2/M
;
_chemical_formula_sum "Si O2"
_cell_formula_units_Z 28
_cell_length_a 28.906348
_cell_length_b 9.097271
_cell_length_c 9.226998
_cell_angle_alpha 90.000000
_cell_angle_beta 37.792372
_cell_angle_gamma 90.000000
_cell_volume 1486.910590
_symmetry_space_group_name_H-M "P 2/M"
_symmetry_group_IT_number 10
_symmetry_cell_setting 'monoclinic'
loop_
_space_group_symop_operation_xyz
x,y,z
-x,y,-z
-x,-y,-z
x,-y,z
loop_
_atom_site_type_symbol
_atom_site_label
_atom_site_fract_x
_atom_site_fract_y
_atom_site_fract_z
Si Si1 0.496618 0.169140 0.178762
Si Si2 0.624462 0.332572 0.023071
Si Si3 0.203640 0.330037 0.385555
Si Si4 0.068493 0.171580 0.232649
Si Si5 0.211342 0.827955 0.072032
Si Si6 0.069616 0.672230 0.924765
Si Si7 0.365367 0.328825 0.667755
O O1 0.575446 0.221357 0.050765
O O2 0.428623 0.265761 0.406681
O O3 0.483499 0.000000 0.253519
O O4 0.500000 0.192060 0.000000
O O5 0.602173 0.500000 0.039702
O O6 0.609393 0.302232 0.229578
O O7 0.711568 0.301101 0.769004
O O8 0.193821 0.500000 0.364240
O O9 0.184631 0.233274 0.292805
O O10 0.147413 0.284837 0.652762
O O11 0.147081 0.207788 0.115278
O O12 0.000000 0.232387 0.500000
O O13 0.057837 0.000000 0.231431
O O14 0.066671 0.249464 0.084301
O O15 0.226622 0.000000 0.050219
O O16 0.286875 0.750757 0.828152
O O17 0.063858 0.500000 0.967134
O O18 0.000000 0.727645 0.000000
O O19 0.354207 0.500000 0.663015
#
# Coordination Sequence:
#
# PCOD8064346 Si02
#       7
#     4   4   4   4   4   4   4
#     4  11  24  38  53  79 113 144 179 225 271 318
#     4   9  19  36  57  80 106 140 182 223 267 325
#     4   9  19  36  56  81 112 142 178 225 273 324
#     4  10  22  38  55  79 112 148 185 225 271 326
#     4  10  20  35  57  84 111 141 181 225 269 322
#     4  10  21  36  56  83 112 144 186 232 273 318
#     4  10  21  38  60  83 108 141 181 223 270 326
#
# _framework density 18.83099
#
# number of rings (size 3 to 8) (size 9 to 14) (size 15 to 20)
#    0.000    2.143    0.000    3.429    0.000    9.143 
#    0.000    2.857    0.000    0.000    0.000    0.000 
#    0.000    0.000    0.000    0.000    0.000    0.000 
#
# Total GULP energy -347322.574788 kJ/mol
# GULP energy per Si atom -12404.377671 kJ/mol
# Density = 1.878813 g / cm^3
# Si number density = 18.830990 Si / 1000 Ang^3
#
#
#
# Elastic Constant Matrix: (Units=GPa)
#
#
# Indices 1 2 3 4 5 6 
#
# 1 128.6652 78.0232 77.6255 0.0000 2.2849 0.0000
# 2 78.0232 91.7469 62.6894 0.0000 -1.9821 0.0000
# 3 77.6255 62.6894 149.4317 0.0000 -0.7695 0.0000
# 4 0.0000 0.0000 0.0000 33.4002 0.0000 2.6869
# 5 2.2849 -1.9821 -0.7695 0.0000 21.3978 0.0000
# 6 0.0000 0.0000 0.0000 2.6869 0.0000 36.6316
#
#
#
# Elastic Compliance Matrix: (Units=1/GPa)
#
#
# Indices 1 2 3 4 5 6 
#
# 1 0.017832 -0.012467 -0.004050 0.000000 -0.003205 0.000000
# 2 -0.012467 0.024026 -0.003585 0.000000 0.003428 0.000000
# 3 -0.004050 -0.003585 0.010302 0.000000 0.000471 0.000000
# 4 0.000000 0.000000 0.000000 0.030118 0.000000 -0.002209
# 5 -0.003205 0.003428 0.000471 0.000000 0.047410 0.000000
# 6 0.000000 0.000000 0.000000 -0.002209 0.000000 0.027461
#
#
# Mechanical properties :
#
#
# Convention : Reuss Voigt Hill
#
# Bulk Modulus (GPa) = 83.63938 89.61333 86.62635
# Shear Modulus (GPa) = 24.83378 28.38630 26.61004
#
# Velocity S-wave (km/s) = 3.63543 3.88677 3.76320
# Velocity P-wave (km/s) = 7.88251 8.23615 8.06127
#
# Compressibility (1/GPa) = 0.01195609
#
# Stress axis : x y z
#
# Youngs Moduli (GPa) = 56.07776 41.62226 97.06625
#
# Poissons Ratio (x) = 0.51891 0.39309
# Poissons Ratio (y) = 0.69913 0.34801
# Poissons Ratio (z) = 0.22710 0.14923
#
# Static dielectric constant tensor:
#      x y z
#    x 3.397660 0.000000 -0.124850 
#    y 0.000000 3.480630 0.000000 
#    z -0.124850 0.000000 3.581290 
# 
# 
# High freq. dielectric constant tensor:
#      x y z
#    x 1.731390 0.000000 -0.008870 
#    y 0.000000 1.734480 0.000000 
#    z -0.008870 0.000000 1.743710 
# 
# From -- ./inp_files/36820.got.cif
#   From: 2010.06.25/outbox.cif.g09.slc.cpg/sg10_19_cif.got.tgz:36820.got - 2010.06.27 22:07:45.
