data_PCOD8064786
_publ_section_title
;
Structure prediction by ZEFSAII (Michael W. Deem and Ramdas Pophale) SiO2 
 PCOD8064786
Probable space group: P 2/M
;
_chemical_formula_sum "Si O2"
_cell_formula_units_Z 28
_cell_length_a 8.904206
_cell_length_b 9.126197
_cell_length_c 28.607367
_cell_angle_alpha 90.000000
_cell_angle_beta 38.845163
_cell_angle_gamma 90.000000
_cell_volume 1458.080113
_symmetry_space_group_name_H-M "P 2/M"
_symmetry_group_IT_number 10
_symmetry_cell_setting 'monoclinic'
loop_
_space_group_symop_operation_xyz
x,y,z
-x,y,-z
-x,-y,-z
x,-y,z
loop_
_atom_site_type_symbol
_atom_site_label
_atom_site_fract_x
_atom_site_fract_y
_atom_site_fract_z
Si Si1 0.234515 0.326076 0.572616
Si Si2 0.947444 0.328835 0.282596
Si Si3 0.877732 0.668566 0.579466
Si Si4 0.192607 0.172281 0.857674
Si Si5 0.616605 0.827219 0.289331
Si Si6 0.495958 0.331212 0.861152
Si Si7 0.304398 0.329746 0.009748
O O1 0.500000 0.260661 0.500000
O O2 0.244214 0.500000 0.567416
O O3 0.139264 0.273228 0.645794
O O4 0.056758 0.267968 0.575477
O O5 0.890675 0.500000 0.289436
O O6 0.813322 0.238756 0.275791
O O7 0.225894 0.294482 0.210159
O O8 0.809971 0.500000 0.606395
O O9 0.641048 0.764109 0.636097
O O10 0.000000 0.684218 0.500000
O O11 0.315671 0.218723 0.779495
O O12 0.354250 0.230473 0.860115
O O13 0.930318 0.238054 0.923715
O O14 0.169743 0.000000 0.868240
O O15 0.611636 0.000000 0.297368
O O16 0.444882 0.500000 0.861015
O O17 0.407641 0.292511 0.934101
O O18 0.239563 0.500000 0.030522
O O19 0.500000 0.281337 0.000000
#
# Coordination Sequence:
#
# PCOD8064786 Si02
#       7
#     4   4   4   4   4   4   4
#     4   9  17  31  54  85 114 138 175 227 274 320
#     4  10  20  36  59  83 109 145 187 231 279 329
#     4  10  20  36  61  88 112 144 186 230 277 330
#     4  11  24  39  56  81 114 152 189 226 275 336
#     4  11  24  39  55  80 115 151 187 228 275 330
#     4  10  21  37  59  86 112 143 186 234 283 333
#     4  10  21  38  60  85 112 143 184 235 285 332
#
# _framework density 19.203334999999999
#
# number of rings (size 3 to 8) (size 9 to 14) (size 15 to 20)
#    0.000    1.857    0.000    3.857    0.000   10.286 
#    0.000    0.714    0.000    1.714    0.000    0.000 
#    0.000    0.000    0.000    0.000    0.000    0.000 
#
# Total GULP energy -347334.321590 kJ/mol
# GULP energy per Si atom -12404.797200 kJ/mol
# Density = 1.915963 g / cm^3
# Si number density = 19.203335 Si / 1000 Ang^3
#
#
#
# Elastic Constant Matrix: (Units=GPa)
#
#
# Indices 1 2 3 4 5 6 
#
# 1 145.0223 58.0549 66.2042 0.0000 7.2621 0.0000
# 2 58.0549 57.7111 63.0296 0.0000 1.8055 0.0000
# 3 66.2042 63.0296 121.6757 0.0000 -6.9692 0.0000
# 4 0.0000 0.0000 0.0000 19.9248 0.0000 14.3379
# 5 7.2621 1.8055 -6.9692 0.0000 34.7671 0.0000
# 6 0.0000 0.0000 0.0000 14.3379 0.0000 -12.1446
#
#
#
# Elastic Compliance Matrix: (Units=1/GPa)
#
#
# Indices 1 2 3 4 5 6 
#
# 1 0.011707 -0.010648 -0.000973 0.000000 -0.002088 0.000000
# 2 -0.010648 0.050995 -0.020886 0.000000 -0.004611 0.000000
# 3 -0.000973 -0.020886 0.019869 0.000000 0.005271 0.000000
# 4 0.000000 0.000000 0.000000 0.027136 0.000000 0.032036
# 5 -0.002088 -0.004611 0.005271 0.000000 0.030495 0.000000
# 6 0.000000 0.000000 0.000000 0.032036 0.000000 -0.044519
#
#
# Mechanical properties :
#
#
# Convention : Reuss Voigt Hill
#
# Bulk Modulus (GPa) = 56.96299 77.66517 67.31408
# Shear Modulus (GPa) = 30.02086 17.65081 23.83583
#
# Velocity S-wave (km/s) = 3.95817 3.03504 3.52694
# Velocity P-wave (km/s) = 7.11456 7.26728 7.19132
#
# Compressibility (1/GPa) = 0.01755526
#
# Stress axis : x y z
#
# Youngs Moduli (GPa) = 85.41764 19.60977 50.32842
#
# Poissons Ratio (x) = 0.20881 0.04899
# Poissons Ratio (y) = 0.90957 1.05117
# Poissons Ratio (z) = 0.08315 0.40958
#
# Static dielectric constant tensor:
#      x y z
#    x 3.704420 0.000000 0.044220 
#    y 0.000000 3.314670 0.000000 
#    z 0.044220 0.000000 3.727370 
# 
# 
# High freq. dielectric constant tensor:
#      x y z
#    x 1.766960 0.000000 0.001070 
#    y 0.000000 1.723920 0.000000 
#    z 0.001070 0.000000 1.767400 
# 
# From -- ./inp_files/36923.got.cif
#   From: 2010.06.25/outbox.cif.g09.slc.cpg/sg10_19_cif.got.tgz:36923.got - 2010.06.27 22:07:45.
