data_PCOD8064054
_publ_section_title
;
Structure prediction by ZEFSAII (Michael W. Deem and Ramdas Pophale) SiO2 
 PCOD8064054
Probable space group: P 2/M
;
_chemical_formula_sum "Si O2"
_cell_formula_units_Z 32
_cell_length_a 24.447844
_cell_length_b 17.021025
_cell_length_c 11.731709
_cell_angle_alpha 90.000000
_cell_angle_beta 159.426326
_cell_angle_gamma 90.000000
_cell_volume 1715.550653
_symmetry_space_group_name_H-M "P 2/M"
_symmetry_group_IT_number 10
_symmetry_cell_setting 'monoclinic'
loop_
_space_group_symop_operation_xyz
x,y,z
-x,y,-z
-x,-y,-z
x,-y,z
loop_
_atom_site_type_symbol
_atom_site_label
_atom_site_fract_x
_atom_site_fract_y
_atom_site_fract_z
Si Si1 0.944866 0.908453 0.265599
Si Si2 0.442809 0.264514 0.269492
Si Si3 0.750615 0.409526 0.054140
Si Si4 0.061368 0.589867 0.799364
Si Si5 0.711138 0.813660 0.669053
Si Si6 0.471966 0.085861 0.076922
Si Si7 0.969145 0.286564 0.071079
Si Si8 0.794588 0.181555 0.344531
O O1 0.000000 0.889062 0.500000
O O2 0.086625 0.886489 0.459370
O O3 0.901138 0.000000 0.165042
O O4 0.799945 0.852035 0.950854
O O5 0.500000 0.227887 0.500000
O O6 0.587321 0.253458 0.464933
O O7 0.395872 0.356179 0.194043
O O8 0.291105 0.216672 0.933607
O O9 0.695243 0.500000 0.944459
O O10 0.812677 0.382954 0.050173
O O11 0.888974 0.398233 0.413997
O O12 0.091424 0.500000 0.889328
O O13 0.081910 0.637596 0.955912
O O14 0.626014 0.884210 0.439681
O O15 0.830253 0.776230 0.810780
O O16 0.433917 0.000000 0.054270
O O17 0.500000 0.078949 0.000000
O O18 0.328620 0.143735 0.811672
O O19 0.125581 0.251815 0.430636
O O20 0.000000 0.309361 0.000000
#
# Coordination Sequence:
#
# PCOD8064054 Si02
#       8
#     4   4   4   4   4   4   4   4
#     4  10  20  35  54  76 105 143 180 220 270 323
#     4  11  20  33  53  81 112 141 172 215 274 326
#     4   9  18  34  57  83 112 140 172 219 269 318
#     4   9  18  34  57  84 109 139 179 220 263 313
#     4  10  22  35  51  80 111 138 176 226 269 320
#     4  10  20  36  56  75 100 138 180 224 272 316
#     4  11  21  36  56  79 108 146 186 224 263 312
#     4  10  21  35  52  78 107 139 180 226 265 318
#
# _framework density 18.652902999999998
#
# number of rings (size 3 to 8) (size 9 to 14) (size 15 to 20)
#    0.000    2.000    1.250    3.750    0.000    1.500 
#    0.000    0.625    0.000   12.000    0.000    1.750 
#    0.000    0.000    0.000    0.000    0.000    0.000 
#
# Total GULP energy -396757.556204 kJ/mol
# GULP energy per Si atom -12398.673631 kJ/mol
# Density = 1.861045 g / cm^3
# Si number density = 18.652903 Si / 1000 Ang^3
#
#
#
# Elastic Constant Matrix: (Units=GPa)
#
#
# Indices 1 2 3 4 5 6 
#
# 1 92.3773 46.3114 32.5581 0.0000 -6.8666 0.0000
# 2 46.3114 104.4152 41.9715 0.0000 4.2254 0.0000
# 3 32.5581 41.9715 93.6578 0.0000 2.1373 0.0000
# 4 0.0000 0.0000 0.0000 33.8470 0.0000 0.4902
# 5 -6.8666 4.2254 2.1373 0.0000 25.0247 0.0000
# 6 0.0000 0.0000 0.0000 0.4902 0.0000 30.9398
#
#
#
# Elastic Compliance Matrix: (Units=1/GPa)
#
#
# Indices 1 2 3 4 5 6 
#
# 1 0.015112 -0.005804 -0.002775 0.000000 0.005363 0.000000
# 2 -0.005804 0.013969 -0.004160 0.000000 -0.003596 0.000000
# 3 -0.002775 -0.004160 0.013534 0.000000 -0.001215 0.000000
# 4 0.000000 0.000000 0.000000 0.029552 0.000000 -0.000468
# 5 0.005363 -0.003596 -0.001215 0.000000 0.042143 0.000000
# 6 0.000000 0.000000 0.000000 -0.000468 0.000000 0.032328
#
#
# Mechanical properties :
#
#
# Convention : Reuss Voigt Hill
#
# Bulk Modulus (GPa) = 58.35517 59.12580 58.74049
# Shear Modulus (GPa) = 28.11705 29.26958 28.69331
#
# Velocity S-wave (km/s) = 3.88671 3.96557 3.92634
# Velocity P-wave (km/s) = 7.17598 7.26185 7.21904
#
# Compressibility (1/GPa) = 0.01713644
#
# Stress axis : x y z
#
# Youngs Moduli (GPa) = 66.17459 71.58515 73.88903
#
# Poissons Ratio (x) = 0.41550 0.20501
# Poissons Ratio (y) = 0.38409 0.30741
# Poissons Ratio (z) = 0.18360 0.29782
#
# Static dielectric constant tensor:
#      x y z
#    x 3.200190 0.000000 0.056840 
#    y 0.000000 3.459830 0.000000 
#    z 0.056840 0.000000 3.362490 
# 
# 
# High freq. dielectric constant tensor:
#      x y z
#    x 1.709380 0.000000 0.001260 
#    y 0.000000 1.724730 0.000000 
#    z 0.001260 0.000000 1.732180 
# 
# From -- ./inp_files/57110.got.cif
#   From: 2010.06.25/outbox.cif.g09.slc.cpg/sg10_29_cif.got.tgz:57110.got - 2010.06.27 22:07:45.
