data_PCOD8064792
_publ_section_title
;
Structure prediction by ZEFSAII (Michael W. Deem and Ramdas Pophale) SiO2 
 PCOD8064792
Probable space group: P 2/M
;
_chemical_formula_sum "Si O2"
_cell_formula_units_Z 28
_cell_length_a 11.042954
_cell_length_b 9.020579
_cell_length_c 14.642419
_cell_angle_alpha 90.000000
_cell_angle_beta 70.182022
_cell_angle_gamma 90.000000
_cell_volume 1372.201895
_symmetry_space_group_name_H-M "P 2/M"
_symmetry_group_IT_number 10
_symmetry_cell_setting 'monoclinic'
loop_
_space_group_symop_operation_xyz
x,y,z
-x,y,-z
-x,-y,-z
x,-y,z
loop_
_atom_site_type_symbol
_atom_site_label
_atom_site_fract_x
_atom_site_fract_y
_atom_site_fract_z
Si Si1 0.261963 0.833569 0.631308
Si Si2 0.995322 0.329520 0.266437
Si Si3 0.443149 0.165679 0.738639
Si Si4 0.372480 0.324951 0.440547
Si Si5 0.118323 0.671644 0.416850
Si Si6 0.893404 0.323818 0.952216
Si Si7 0.387382 0.175324 0.957579
O O1 0.126029 0.753713 0.660697
O O2 0.302340 0.835920 0.727748
O O3 0.371139 0.750137 0.541504
O O4 0.248726 0.000000 0.596919
O O5 0.954606 0.500000 0.266185
O O6 0.109997 0.307554 0.309943
O O7 0.046142 0.266643 0.158075
O O8 0.516866 0.281064 0.657088
O O9 0.436205 0.221089 0.844452
O O10 0.503570 0.000000 0.719540
O O11 0.377308 0.500000 0.454505
O O12 0.247835 0.258040 0.421467
O O13 0.121509 0.500000 0.443168
O O14 0.000000 0.748645 0.500000
O O15 0.873374 0.500000 0.960035
O O16 0.751759 0.251863 0.994942
O O17 0.000000 0.273815 0.000000
O O18 0.365529 0.000000 0.971692
O O19 0.500000 0.227500 0.000000
#
# Coordination Sequence:
#
# PCOD8064792 Si02
#       7
#     4   4   4   4   4   4   4
#     4  11  22  37  57  84 118 154 190 232 287 347
#     4  10  20  36  59  83 115 151 187 235 288 343
#     4  10  23  41  58  80 116 155 190 237 292 344
#     4  11  22  36  59  86 113 150 195 236 283 346
#     4   9  17  33  54  78 110 146 181 226 281 335
#     4  10  22  39  62  93 123 153 198 255 307 357
#     4  10  23  43  64  87 120 161 205 253 304 360
#
# _framework density 20.405159999999999
#
# number of rings (size 3 to 8) (size 9 to 14) (size 15 to 20)
#    0.000    1.857    1.429    2.143    2.000    4.571 
#    0.000    2.143    0.000    0.000    0.000    0.000 
#    0.000    0.000    0.000    0.000    0.000    0.000 
#
# Total GULP energy -347003.439147 kJ/mol
# GULP energy per Si atom -12392.979970 kJ/mol
# Density = 2.035872 g / cm^3
# Si number density = 20.405160 Si / 1000 Ang^3
#
#
#
# Elastic Constant Matrix: (Units=GPa)
#
#
# Indices 1 2 3 4 5 6 
#
# 1 98.5101 26.7528 44.7304 0.0000 2.3108 0.0000
# 2 26.7528 70.9458 42.7414 0.0000 -3.1023 0.0000
# 3 44.7304 42.7414 147.5222 0.0000 7.5675 0.0000
# 4 0.0000 0.0000 0.0000 27.4205 0.0000 -6.0189
# 5 2.3108 -3.1023 7.5675 0.0000 34.4895 0.0000
# 6 0.0000 0.0000 0.0000 -6.0189 0.0000 24.4264
#
#
#
# Elastic Compliance Matrix: (Units=1/GPa)
#
#
# Indices 1 2 3 4 5 6 
#
# 1 0.012247 -0.002926 -0.002842 0.000000 -0.000460 0.000000
# 2 -0.002926 0.018018 -0.004477 0.000000 0.002799 0.000000
# 3 -0.002842 -0.004477 0.009050 0.000000 -0.002198 0.000000
# 4 0.000000 0.000000 0.000000 0.038554 0.000000 0.009500
# 5 -0.000460 0.002799 -0.002198 0.000000 0.029759 0.000000
# 6 0.000000 0.000000 0.000000 0.009500 0.000000 0.043280
#
#
# Mechanical properties :
#
#
# Convention : Reuss Voigt Hill
#
# Bulk Modulus (GPa) = 53.11927 60.60302 56.86115
# Shear Modulus (GPa) = 28.14136 30.78419 29.46278
#
# Velocity S-wave (km/s) = 3.71769 3.88834 3.80398
# Velocity P-wave (km/s) = 6.67211 7.06564 6.87170
#
# Compressibility (1/GPa) = 0.01882556
#
# Stress axis : x y z
#
# Youngs Moduli (GPa) = 81.65117 55.49981 110.49523
#
# Poissons Ratio (x) = 0.16240 0.31404
# Poissons Ratio (y) = 0.23893 0.49465
# Poissons Ratio (z) = 0.23206 0.24845
#
# Static dielectric constant tensor:
#      x y z
#    x 3.977500 0.000000 0.233220 
#    y 0.000000 3.485260 0.000000 
#    z 0.233220 0.000000 3.814230 
# 
# 
# High freq. dielectric constant tensor:
#      x y z
#    x 1.808750 0.000000 0.013800 
#    y 0.000000 1.775140 0.000000 
#    z 0.013800 0.000000 1.805700 
# 
# From -- ./inp_files/63401.got.cif
#   From: 2010.06.25/outbox.cif.g09.slc.cpg/sg10_32_cif.got.tgz:63401.got - 2010.06.27 22:07:45.
