data_PCOD8064840
_publ_section_title
;
Structure prediction by ZEFSAII (Michael W. Deem and Ramdas Pophale) SiO2 
 PCOD8064840
Probable space group: P 2/M
;
_chemical_formula_sum "Si O2"
_cell_formula_units_Z 32
_cell_length_a 24.997292
_cell_length_b 9.015796
_cell_length_c 15.311813
_cell_angle_alpha 90.000000
_cell_angle_beta 27.439571
_cell_angle_gamma 90.000000
_cell_volume 1590.187105
_symmetry_space_group_name_H-M "P 2/M"
_symmetry_group_IT_number 10
_symmetry_cell_setting 'monoclinic'
loop_
_space_group_symop_operation_xyz
x,y,z
-x,y,-z
-x,-y,-z
x,-y,z
loop_
_atom_site_type_symbol
_atom_site_label
_atom_site_fract_x
_atom_site_fract_y
_atom_site_fract_z
Si Si1 0.626613 0.824902 0.848186
Si Si2 0.003016 0.831656 0.397414
Si Si3 0.627994 0.672202 0.349015
Si Si4 0.666357 0.175570 0.475069
Si Si5 0.146776 0.672610 0.531192
Si Si6 0.265526 0.831059 0.959429
Si Si7 0.894035 0.672538 0.214290
Si Si8 0.419621 0.175510 0.893632
O O1 0.725479 0.744652 0.648762
O O2 0.643137 0.000000 0.812158
O O3 0.500000 0.774989 0.000000
O O4 0.637144 0.772067 0.933490
O O5 0.924140 0.738847 0.446428
O O6 0.000000 0.765638 0.500000
O O7 0.132902 0.826039 0.176657
O O8 0.954548 0.000000 0.468810
O O9 0.500000 0.707248 0.500000
O O10 0.646714 0.500000 0.343035
O O11 0.654204 0.768002 0.395062
O O12 0.719732 0.724278 0.144123
O O13 0.779132 0.239906 0.356824
O O14 0.552875 0.229464 0.693109
O O15 0.676964 0.000000 0.458310
O O16 0.161882 0.500000 0.492145
O O17 0.080820 0.701708 0.719186
O O18 0.304288 0.000000 0.881611
O O19 0.342735 0.761891 0.925727
O O20 0.872011 0.500000 0.227628
O O21 0.000000 0.730039 0.000000
O O22 0.416511 0.000000 0.894603
#
# Coordination Sequence:
#
# PCOD8064840 Si02
#       8
#     4   4   4   4   4   4   4   4
#     4  10  20  37  63  90 119 155 198 247 303 361
#     4  10  22  41  66  92 123 163 205 254 308 360
#     4  11  23  38  57  86 125 166 200 239 303 371
#     4  11  22  38  64  92 119 152 202 260 304 352
#     4  11  24  41  62  90 126 165 204 252 306 364
#     4  10  20  36  59  86 117 155 203 250 298 354
#     4  10  24  45  63  83 120 167 206 248 307 368
#     4   9  18  34  58  88 120 152 188 244 307 356
#
# _framework density 20.123418999999998
#
# number of rings (size 3 to 8) (size 9 to 14) (size 15 to 20)
#    0.000    1.750    1.250    2.625    1.750    5.750 
#    0.000    3.125    0.000    0.000    0.000    0.000 
#    0.000    0.000    0.000    0.000    0.000    0.000 
#
# Total GULP energy -396855.266970 kJ/mol
# GULP energy per Si atom -12401.727093 kJ/mol
# Density = 2.007762 g / cm^3
# Si number density = 20.123419 Si / 1000 Ang^3
#
#
#
# Elastic Constant Matrix: (Units=GPa)
#
#
# Indices 1 2 3 4 5 6 
#
# 1 102.9426 39.1454 43.3813 0.0000 1.0432 0.0000
# 2 39.1454 55.8723 39.5766 0.0000 -6.6053 0.0000
# 3 43.3813 39.5766 111.2369 0.0000 7.7897 0.0000
# 4 0.0000 0.0000 0.0000 34.3085 0.0000 -4.1892
# 5 1.0432 -6.6053 7.7897 0.0000 37.7209 0.0000
# 6 0.0000 0.0000 0.0000 -4.1892 0.0000 24.9768
#
#
#
# Elastic Compliance Matrix: (Units=1/GPa)
#
#
# Indices 1 2 3 4 5 6 
#
# 1 0.013840 -0.008146 -0.002407 0.000000 -0.001312 0.000000
# 2 -0.008146 0.030159 -0.008055 0.000000 0.007170 0.000000
# 3 -0.002407 -0.008055 0.013078 0.000000 -0.004045 0.000000
# 4 0.000000 0.000000 0.000000 0.029757 0.000000 0.004991
# 5 -0.001312 0.007170 -0.004045 0.000000 0.028638 0.000000
# 6 0.000000 0.000000 0.000000 0.004991 0.000000 0.040874
#
#
# Mechanical properties :
#
#
# Convention : Reuss Voigt Hill
#
# Bulk Modulus (GPa) = 50.35523 57.13983 53.74753
# Shear Modulus (GPa) = 24.97728 29.26448 27.12088
#
# Velocity S-wave (km/s) = 3.52690 3.81760 3.67512
# Velocity P-wave (km/s) = 6.45468 6.92015 6.69146
#
# Compressibility (1/GPa) = 0.01985891
#
# Stress axis : x y z
#
# Youngs Moduli (GPa) = 72.25639 33.15756 76.46600
#
# Poissons Ratio (x) = 0.27012 0.18405
# Poissons Ratio (y) = 0.58864 0.61595
# Poissons Ratio (z) = 0.17392 0.26709
#
# Static dielectric constant tensor:
#      x y z
#    x 3.958510 0.000000 -0.022290 
#    y 0.000000 3.522560 0.000000 
#    z -0.022290 0.000000 3.939010 
# 
# 
# High freq. dielectric constant tensor:
#      x y z
#    x 1.798000 0.000000 0.005620 
#    y 0.000000 1.765080 0.000000 
#    z 0.005620 0.000000 1.797850 
# 
# From -- ./inp_files/71489.got.cif
#   From: 2010.06.25/outbox.cif.g09.slc.cpg/sg10_36_cif.got.tgz:71489.got - 2010.06.27 22:07:45.
