data_PCOD8064591
_publ_section_title
;
Structure prediction by ZEFSAII (Michael W. Deem and Ramdas Pophale) SiO2 
 PCOD8064591
Probable space group: P 2/M
;
_chemical_formula_sum "Si O2"
_cell_formula_units_Z 24
_cell_length_a 14.453147
_cell_length_b 8.976705
_cell_length_c 9.917315
_cell_angle_alpha 90.000000
_cell_angle_beta 100.270221
_cell_angle_gamma 90.000000
_cell_volume 1266.073145
_symmetry_space_group_name_H-M "P 2/M"
_symmetry_group_IT_number 10
_symmetry_cell_setting 'monoclinic'
loop_
_space_group_symop_operation_xyz
x,y,z
-x,y,-z
-x,-y,-z
x,-y,z
loop_
_atom_site_type_symbol
_atom_site_label
_atom_site_fract_x
_atom_site_fract_y
_atom_site_fract_z
Si Si1 0.524633 0.176106 0.655517
Si Si2 0.909558 0.823502 0.300559
Si Si3 0.734973 0.822749 0.772932
Si Si4 0.772092 0.675815 0.061612
Si Si5 0.573328 0.324936 0.130794
Si Si6 0.880676 0.824097 0.591388
O O1 0.500000 0.232490 0.500000
O O2 0.628596 0.232008 0.721970
O O3 0.447634 0.245507 0.734092
O O4 0.517090 0.000000 0.663518
O O5 0.859464 0.734574 0.169168
O O6 0.867193 0.769707 0.433700
O O7 0.018637 0.774963 0.323157
O O8 0.896524 0.000000 0.275765
O O9 0.797048 0.762819 0.663541
O O10 0.740912 0.000000 0.786997
O O11 0.776698 0.750582 0.917301
O O12 0.778491 0.500000 0.045084
O O13 0.676709 0.723396 0.111971
O O14 0.563423 0.500000 0.149429
O O15 0.500000 0.267176 0.000000
O O16 0.878837 0.000000 0.587313
#
# Coordination Sequence:
#
# PCOD8064591 Si02
#       6
#     4   4   4   4   4   4
#     4  10  22  36  55  86 114 137 175 228 276 316
#     4   9  18  36  61  84 106 140 181 222 271 324
#     4  10  20  36  56  80 111 144 178 221 271 323
#     4  11  23  37  54  80 111 144 185 225 265 316
#     4  10  21  39  57  74 107 151 185 217 260 320
#     4   8  17  35  59  84 109 139 179 222 268 327
#
# _framework density 18.956251999999999
#
# number of rings (size 3 to 8) (size 9 to 14) (size 15 to 20)
#    0.000    2.333    1.667    1.500    2.333    2.667 
#    0.000    6.667    0.000    0.000    0.000    0.000 
#    0.000    0.000    0.000    0.000    0.000    0.000 
#
# Total GULP energy -297635.451149 kJ/mol
# GULP energy per Si atom -12401.477131 kJ/mol
# Density = 1.891311 g / cm^3
# Si number density = 18.956252 Si / 1000 Ang^3
#
#
#
# Elastic Constant Matrix: (Units=GPa)
#
#
# Indices 1 2 3 4 5 6 
#
# 1 61.6335 15.1880 26.5882 0.0000 -4.1385 0.0000
# 2 15.1880 24.0142 22.2625 0.0000 -1.9858 0.0000
# 3 26.5882 22.2625 116.4497 0.0000 0.8326 0.0000
# 4 0.0000 0.0000 0.0000 3.9566 0.0000 -4.1164
# 5 -4.1385 -1.9858 0.8326 0.0000 40.7329 0.0000
# 6 0.0000 0.0000 0.0000 -4.1164 0.0000 22.9931
#
#
#
# Elastic Compliance Matrix: (Units=1/GPa)
#
#
# Indices 1 2 3 4 5 6 
#
# 1 0.019945 -0.010028 -0.002648 0.000000 0.001592 0.000000
# 2 -0.010028 0.055945 -0.008419 0.000000 0.001881 0.000000
# 3 -0.002648 -0.008419 0.010808 0.000000 -0.000900 0.000000
# 4 0.000000 0.000000 0.000000 0.310593 0.000000 0.055605
# 5 0.001592 0.001881 -0.000900 0.000000 0.024822 0.000000
# 6 0.000000 0.000000 0.000000 0.055605 0.000000 0.053446
#
#
# Mechanical properties :
#
#
# Convention : Reuss Voigt Hill
#
# Bulk Modulus (GPa) = 22.46810 36.68609 29.57710
# Shear Modulus (GPa) = 9.38815 22.74043 16.06429
#
# Velocity S-wave (km/s) = 2.22784 3.46732 2.91424
# Velocity P-wave (km/s) = 4.30070 5.95187 5.19234
#
# Compressibility (1/GPa) = 0.04450755
#
# Stress axis : x y z
#
# Youngs Moduli (GPa) = 50.13687 17.87470 92.52357
#
# Poissons Ratio (x) = 0.17925 0.24503
# Poissons Ratio (y) = 0.50277 0.77898
# Poissons Ratio (z) = 0.13278 0.15049
#
# Static dielectric constant tensor:
#      x y z
#    x 3.732890 0.000000 -0.172270 
#    y 0.000000 3.128850 0.000000 
#    z -0.172270 0.000000 3.647710 
# 
# 
# High freq. dielectric constant tensor:
#      x y z
#    x 1.743570 0.000000 -0.001660 
#    y 0.000000 1.708460 0.000000 
#    z -0.001660 0.000000 1.748130 
# 
# From -- ./inp_files/27065.got.cif
#   From: 2010.06.25/outbox.cif.g09.slc.cpg/sg10_14_cif.got.tgz:27065.got - 2010.06.27 22:07:45.
