data_PCOD8064457
_publ_section_title
;
Structure prediction by ZEFSAII (Michael W. Deem and Ramdas Pophale) SiO2 
 PCOD8064457
Probable space group: P 2/M
;
_chemical_formula_sum "Si O2"
_cell_formula_units_Z 32
_cell_length_a 23.212178
_cell_length_b 9.112595
_cell_length_c 14.659064
_cell_angle_alpha 90.000000
_cell_angle_beta 149.599153
_cell_angle_gamma 90.000000
_cell_volume 1569.114516
_symmetry_space_group_name_H-M "P 2/M"
_symmetry_group_IT_number 10
_symmetry_cell_setting 'monoclinic'
loop_
_space_group_symop_operation_xyz
x,y,z
-x,y,-z
-x,-y,-z
x,-y,z
loop_
_atom_site_type_symbol
_atom_site_label
_atom_site_fract_x
_atom_site_fract_y
_atom_site_fract_z
Si Si1 0.121942 0.663824 0.191533
Si Si2 0.399067 0.840846 0.429463
Si Si3 0.062386 0.669326 0.745629
Si Si4 0.792779 0.339630 0.892274
Si Si5 0.826088 0.173094 0.407061
Si Si6 0.268245 0.329168 0.892583
Si Si7 0.280636 0.173411 0.545992
Si Si8 0.473834 0.327239 0.708623
O O1 0.109959 0.500000 0.219395
O O2 0.187852 0.650451 0.187992
O O3 0.186297 0.774020 0.345430
O O4 0.000000 0.732107 0.000000
O O5 0.500000 0.866909 0.500000
O O6 0.304749 0.779903 0.230379
O O7 0.427090 0.729457 0.548572
O O8 0.362180 0.000000 0.420315
O O9 0.029337 0.500000 0.685029
O O10 0.171229 0.713920 0.833005
O O11 0.953342 0.764361 0.571392
O O12 0.095905 0.703655 0.896696
O O13 0.751866 0.500000 0.873259
O O14 0.748289 0.235479 0.220726
O O15 0.764586 0.220097 0.416535
O O16 0.835196 0.000000 0.410543
O O17 0.261171 0.500000 0.857868
O O18 0.392877 0.288842 0.101532
O O19 0.401811 0.251264 0.691734
O O20 0.296764 0.000000 0.559925
O O21 0.450784 0.500000 0.682172
#
# Coordination Sequence:
#
# PCOD8064457 Si02
#       8
#     4   4   4   4   4   4   4   4
#     4  10  20  35  58  88 119 156 201 244 292 354
#     4  11  23  37  56  86 124 163 199 240 295 359
#     4  10  21  40  65  93 125 159 201 256 312 368
#     4  10  20  35  58  88 119 156 198 240 291 350
#     4  11  25  42  62  90 123 163 206 254 315 373
#     4  10  23  42  65  92 120 157 206 261 317 367
#     4  11  24  41  60  87 126 166 205 253 310 368
#     4  11  23  41  65  91 121 160 209 259 308 365
#
# _framework density 20.393668000000002
#
# number of rings (size 3 to 8) (size 9 to 14) (size 15 to 20)
#    0.000    1.500    1.250    3.375    0.000    9.250 
#    0.000    2.500    0.000    0.000    0.000    0.000 
#    0.000    0.000    0.000    0.000    0.000    0.000 
#
# Total GULP energy -396765.664108 kJ/mol
# GULP energy per Si atom -12398.927003 kJ/mol
# Density = 2.034725 g / cm^3
# Si number density = 20.393668 Si / 1000 Ang^3
#
#
#
# Elastic Constant Matrix: (Units=GPa)
#
#
# Indices 1 2 3 4 5 6 
#
# 1 87.3641 37.8385 27.2595 0.0000 2.7036 0.0000
# 2 37.8385 89.4114 45.0651 0.0000 3.8584 0.0000
# 3 27.2595 45.0651 103.5326 0.0000 4.7394 0.0000
# 4 0.0000 0.0000 0.0000 27.6552 0.0000 -1.7758
# 5 2.7036 3.8584 4.7394 0.0000 39.3924 0.0000
# 6 0.0000 0.0000 0.0000 -1.7758 0.0000 29.0661
#
#
#
# Elastic Compliance Matrix: (Units=1/GPa)
#
#
# Indices 1 2 3 4 5 6 
#
# 1 0.014183 -0.005271 -0.001427 0.000000 -0.000285 0.000000
# 2 -0.005271 0.016303 -0.005683 0.000000 -0.000551 0.000000
# 3 -0.001427 -0.005683 0.012547 0.000000 -0.000855 0.000000
# 4 0.000000 0.000000 0.000000 0.036302 0.000000 0.002218
# 5 -0.000285 -0.000551 -0.000855 0.000000 0.025562 0.000000
# 6 0.000000 0.000000 0.000000 0.002218 0.000000 0.034540
#
#
# Mechanical properties :
#
#
# Convention : Reuss Voigt Hill
#
# Bulk Modulus (GPa) = 54.72979 55.62605 55.17792
# Shear Modulus (GPa) = 29.36158 30.56575 29.96366
#
# Velocity S-wave (km/s) = 3.79851 3.87562 3.83726
# Velocity P-wave (km/s) = 6.79214 6.88205 6.83724
#
# Compressibility (1/GPa) = 0.01827159
#
# Stress axis : x y z
#
# Youngs Moduli (GPa) = 70.50554 61.33798 79.69718
#
# Poissons Ratio (x) = 0.32329 0.11374
# Poissons Ratio (y) = 0.37161 0.45295
# Poissons Ratio (z) = 0.10062 0.34861
#
# Static dielectric constant tensor:
#      x y z
#    x 3.932010 0.000000 -0.174210 
#    y 0.000000 4.148450 0.000000 
#    z -0.174210 0.000000 4.732300 
# 
# 
# High freq. dielectric constant tensor:
#      x y z
#    x 1.801660 0.000000 0.004000 
#    y 0.000000 1.796080 0.000000 
#    z 0.004000 0.000000 1.803310 
# 
# From -- ./inp_files/71624.got.cif
#   From: 2010.06.25/outbox.cif.g09.slc.cpg/sg10_36_cif.got.tgz:71624.got - 2010.06.27 22:07:45.
