data_PCOD8064804
_publ_section_title
;
Structure prediction by ZEFSAII (Michael W. Deem and Ramdas Pophale) SiO2 
 PCOD8064804
Probable space group: P 2/M
;
_chemical_formula_sum "Si O2"
_cell_formula_units_Z 30
_cell_length_a 11.667688
_cell_length_b 9.313517
_cell_length_c 14.499731
_cell_angle_alpha 90.000000
_cell_angle_beta 90.799357
_cell_angle_gamma 90.000000
_cell_volume 1575.491981
_symmetry_space_group_name_H-M "P 2/M"
_symmetry_group_IT_number 10
_symmetry_cell_setting 'monoclinic'
loop_
_space_group_symop_operation_xyz
x,y,z
-x,y,-z
-x,-y,-z
x,-y,z
loop_
_atom_site_type_symbol
_atom_site_label
_atom_site_fract_x
_atom_site_fract_y
_atom_site_fract_z
Si Si1 0.500000 0.299608 0.000000
Si Si2 0.310701 0.837801 0.695844
Si Si3 0.288452 0.333666 0.320243
Si Si4 0.893339 0.666439 0.828562
Si Si5 0.127391 0.164265 0.838759
Si Si6 0.242211 0.654017 0.992643
Si Si7 0.630197 0.834375 0.507865
Si Si8 0.501389 0.327950 0.197409
O O1 0.377602 0.379502 0.003088
O O2 0.496698 0.229380 0.897134
O O3 0.184599 0.821268 0.738442
O O4 0.302861 0.809113 0.586846
O O5 0.391574 0.717532 0.740116
O O6 0.358178 0.000000 0.714113
O O7 0.299118 0.500000 0.345413
O O8 0.168520 0.298144 0.268983
O O9 0.296518 0.246763 0.414581
O O10 0.388464 0.288131 0.251766
O O11 0.926571 0.500000 0.833381
O O12 0.006868 0.758177 0.838221
O O13 0.808083 0.708415 0.910687
O O14 0.214228 0.230250 0.914483
O O15 0.107036 0.000000 0.865929
O O16 0.185366 0.500000 0.966236
O O17 0.500000 0.773933 0.500000
O O18 0.625360 0.000000 0.536652
O O19 0.508813 0.500000 0.174163
#
# Coordination Sequence:
#
# PCOD8064804 Si02
#       8
#     2   4   4   4   4   4   4   4
#     4  12  21  34  59  92 123 150 183 222 277 344
#     4  10  22  39  56  81 115 148 187 232 279 336
#     4  10  21  36  57  88 117 142 183 238 283 327
#     4  10  22  40  59  81 112 152 194 233 275 329
#     4  11  24  40  57  80 112 151 195 240 277 320
#     4  11  21  36  60  86 115 152 189 226 274 338
#     4  10  20  36  59  84 113 150 185 222 281 352
#     4  11  20  33  57  86 117 150 184 225 276 334
#
# _framework density 19.041671999999998
#
# number of rings (size 3 to 8) (size 9 to 14) (size 15 to 20)
#    0.000    1.467    4.000    2.000    0.000    4.000 
#    0.000    2.000    0.000    4.000    0.000    0.000 
#    0.000    0.000    0.000    0.000    0.000    0.000 
#
# Total GULP energy -371688.838871 kJ/mol
# GULP energy per Si atom -12389.627962 kJ/mol
# Density = 1.899833 g / cm^3
# Si number density = 19.041672 Si / 1000 Ang^3
#
#
#
# Elastic Constant Matrix: (Units=GPa)
#
#
# Indices 1 2 3 4 5 6 
#
# 1 120.2937 51.6288 52.1746 0.0000 -1.2794 0.0000
# 2 51.6288 67.3648 56.5978 0.0000 3.6489 0.0000
# 3 52.1746 56.5978 144.5276 0.0000 -2.4238 0.0000
# 4 0.0000 0.0000 0.0000 19.7814 0.0000 0.1217
# 5 -1.2794 3.6489 -2.4238 0.0000 24.9930 0.0000
# 6 0.0000 0.0000 0.0000 0.1217 0.0000 -3.8299
#
#
#
# Elastic Compliance Matrix: (Units=1/GPa)
#
#
# Indices 1 2 3 4 5 6 
#
# 1 0.012594 -0.008879 -0.001038 0.000000 0.001840 0.000000
# 2 -0.008879 0.028807 -0.008167 0.000000 -0.005452 0.000000
# 3 -0.001038 -0.008167 0.010528 0.000000 0.002160 0.000000
# 4 0.000000 0.000000 0.000000 0.050543 0.000000 0.001607
# 5 0.001840 -0.005452 0.002160 0.000000 0.041111 0.000000
# 6 0.000000 0.000000 0.000000 0.001607 0.000000 -0.261053
#
#
# Mechanical properties :
#
#
# Convention : Reuss Voigt Hill
#
# Bulk Modulus (GPa) = 63.45256 72.55429 68.00343
# Shear Modulus (GPa) = -65.74717 19.64123 -23.05297
#
# Velocity S-wave (km/s) = -5.88243 3.21516 -3.48323
# Velocity P-wave (km/s) = 3.56959 7.20893 4.42869
#
# Compressibility (1/GPa) = 0.01575980
#
# Stress axis : x y z
#
# Youngs Moduli (GPa) = 79.40407 34.71437 94.98184
#
# Poissons Ratio (x) = 0.30824 0.09862
# Poissons Ratio (y) = 0.70505 0.77570
# Poissons Ratio (z) = 0.08245 0.28351
#
# Static dielectric constant tensor:
#      x y z
#    x 3.431960 0.000000 -0.082760 
#    y 0.000000 3.311290 0.000000 
#    z -0.082760 0.000000 3.661540 
# 
# 
# High freq. dielectric constant tensor:
#      x y z
#    x 1.736320 0.000000 -0.007180 
#    y 0.000000 1.719230 0.000000 
#    z -0.007180 0.000000 1.751070 
# 
# From -- ./inp_files/63477.got.cif
#   From: 2010.06.25/outbox.cif.g09.slc.cpg/sg10_32_cif.got.tgz:63477.got - 2010.06.27 22:07:45.
