data_PCOD8064277
_publ_section_title
;
Structure prediction by ZEFSAII (Michael W. Deem and Ramdas Pophale) SiO2 
 PCOD8064277
Probable space group: P 2/M
;
_chemical_formula_sum "Si O2"
_cell_formula_units_Z 24
_cell_length_a 9.412029
_cell_length_b 8.829824
_cell_length_c 14.882110
_cell_angle_alpha 90.000000
_cell_angle_beta 98.461369
_cell_angle_gamma 90.000000
_cell_volume 1223.338750
_symmetry_space_group_name_H-M "P 2/M"
_symmetry_group_IT_number 10
_symmetry_cell_setting 'monoclinic'
loop_
_space_group_symop_operation_xyz
x,y,z
-x,y,-z
-x,-y,-z
x,-y,z
loop_
_atom_site_type_symbol
_atom_site_label
_atom_site_fract_x
_atom_site_fract_y
_atom_site_fract_z
Si Si1 0.388544 0.820904 0.917819
Si Si2 0.453293 0.178963 0.246310
Si Si3 0.872971 0.677749 0.548349
Si Si4 0.384021 0.165908 0.564217
Si Si5 0.151266 0.680121 0.250602
Si Si6 0.063957 0.179357 0.909574
O O1 0.445542 0.771741 0.826118
O O2 0.227610 0.759641 0.919426
O O3 0.384670 0.000000 0.928268
O O4 0.500000 0.750796 0.000000
O O5 0.538931 0.235123 0.341496
O O6 0.300964 0.261080 0.224567
O O7 0.423473 0.000000 0.245384
O O8 0.892039 0.500000 0.557294
O O9 0.729340 0.714030 0.481321
O O10 0.870781 0.743878 0.649643
O O11 0.000000 0.749726 0.500000
O O12 0.500000 0.140421 0.500000
O O13 0.314639 0.000000 0.579397
O O14 0.151777 0.500000 0.249172
O O15 0.022577 0.740777 0.177878
O O16 0.054179 0.000000 0.894095
O O17 0.000000 0.226508 0.000000
#
# Coordination Sequence:
#
# PCOD8064277 Si02
#       6
#     4   4   4   4   4   4
#     4   9  18  34  58  86 111 139 180 227 275 332
#     4  10  20  36  58  83 113 146 186 235 283 334
#     4  10  23  40  56  78 113 156 195 230 276 337
#     4  10  20  35  56  84 112 143 186 236 284 327
#     4  11  23  38  57  83 114 151 191 232 279 331
#     4  10  21  38  62  88 114 148 185 226 282 340
#
# _framework density 19.618442000000002
#
# number of rings (size 3 to 8) (size 9 to 14) (size 15 to 20)
#    0.000    2.000    1.667    1.500    2.333    5.000 
#    0.000    0.833    0.000    2.000    0.000    0.000 
#    0.000    0.000    0.000    0.000    0.000    0.000 
#
# Total GULP energy -297590.608118 kJ/mol
# GULP energy per Si atom -12399.608672 kJ/mol
# Density = 1.957379 g / cm^3
# Si number density = 19.618442 Si / 1000 Ang^3
#
#
#
# Elastic Constant Matrix: (Units=GPa)
#
#
# Indices 1 2 3 4 5 6 
#
# 1 172.2932 28.0608 91.1141 0.0000 0.7023 0.0000
# 2 28.0608 26.9386 24.9416 0.0000 -0.0729 0.0000
# 3 91.1141 24.9416 158.0129 0.0000 11.2804 0.0000
# 4 0.0000 0.0000 0.0000 23.8964 0.0000 5.7558
# 5 0.7023 -0.0729 11.2804 0.0000 39.1016 0.0000
# 6 0.0000 0.0000 0.0000 5.7558 0.0000 15.5036
#
#
#
# Elastic Compliance Matrix: (Units=1/GPa)
#
#
# Indices 1 2 3 4 5 6 
#
# 1 0.009006 -0.005266 -0.004441 0.000000 0.001110 0.000000
# 2 -0.005266 0.046725 -0.004443 0.000000 0.001463 0.000000
# 3 -0.004441 -0.004443 0.009787 0.000000 -0.002752 0.000000
# 4 0.000000 0.000000 0.000000 0.045957 0.000000 -0.017062
# 5 0.001110 0.001463 -0.002752 0.000000 0.026351 0.000000
# 6 0.000000 0.000000 0.000000 -0.017062 0.000000 0.070835
#
#
# Mechanical properties :
#
#
# Convention : Reuss Voigt Hill
#
# Bulk Modulus (GPa) = 26.86939 71.71976 49.29457
# Shear Modulus (GPa) = 20.05076 29.90887 24.97981
#
# Velocity S-wave (km/s) = 3.20040 3.90876 3.57218
# Velocity P-wave (km/s) = 5.23282 7.55035 6.49578
#
# Compressibility (1/GPa) = 0.03721707
#
# Stress axis : x y z
#
# Youngs Moduli (GPa) = 111.04085 21.40196 102.17527
#
# Poissons Ratio (x) = 0.11271 0.45375
# Poissons Ratio (y) = 0.58476 0.45398
# Poissons Ratio (z) = 0.49312 0.09509
#
# Static dielectric constant tensor:
#      x y z
#    x 3.703020 0.000000 -0.115160 
#    y 0.000000 3.234580 0.000000 
#    z -0.115160 0.000000 3.826310 
# 
# 
# High freq. dielectric constant tensor:
#      x y z
#    x 1.773310 0.000000 -0.000810 
#    y 0.000000 1.730700 0.000000 
#    z -0.000810 0.000000 1.782700 
# 
# From -- ./inp_files/27098.got.cif
#   From: 2010.06.25/outbox.cif.g09.slc.cpg/sg10_14_cif.got.tgz:27098.got - 2010.06.27 22:07:45.
