data_PCOD8064682
_publ_section_title
;
Structure prediction by ZEFSAII (Michael W. Deem and Ramdas Pophale) SiO2 
 PCOD8064682
Probable space group: P 2/M
;
_chemical_formula_sum "Si O2"
_cell_formula_units_Z 32
_cell_length_a 21.131859
_cell_length_b 9.152122
_cell_length_c 26.749045
_cell_angle_alpha 90.000000
_cell_angle_beta 18.419398
_cell_angle_gamma 90.000000
_cell_volume 1634.609455
_symmetry_space_group_name_H-M "P 2/M"
_symmetry_group_IT_number 10
_symmetry_cell_setting 'monoclinic'
loop_
_space_group_symop_operation_xyz
x,y,z
-x,y,-z
-x,-y,-z
x,-y,z
loop_
_atom_site_type_symbol
_atom_site_label
_atom_site_fract_x
_atom_site_fract_y
_atom_site_fract_z
Si Si1 0.543624 0.325901 0.522922
Si Si2 0.988604 0.673965 0.209877
Si Si3 0.950209 0.827841 0.633708
Si Si4 0.776642 0.325808 0.156407
Si Si5 0.593389 0.336957 0.853786
Si Si6 0.675935 0.666365 0.678807
Si Si7 0.304970 0.326147 0.893271
Si Si8 0.138735 0.668798 0.203760
O O1 0.500000 0.266593 0.500000
O O2 0.538241 0.500000 0.527318
O O3 0.377111 0.265075 0.686499
O O4 0.761997 0.267628 0.375175
O O5 0.993096 0.500000 0.205105
O O6 0.080874 0.730860 0.192788
O O7 0.121713 0.735707 0.064203
O O8 0.741346 0.781575 0.765596
O O9 0.981691 0.761204 0.665145
O O10 0.130417 0.768911 0.464689
O O11 0.958383 0.000000 0.630420
O O12 0.774022 0.500000 0.158777
O O13 0.711686 0.265949 0.150638
O O14 0.000000 0.267701 0.000000
O O15 0.669440 0.500000 0.811370
O O16 0.571762 0.323641 0.810560
O O17 0.372771 0.310017 0.040791
O O18 0.741281 0.500000 0.617995
O O19 0.516751 0.724931 0.757461
O O20 0.294542 0.500000 0.901850
O O21 0.074873 0.500000 0.255943
#
# Coordination Sequence:
#
# PCOD8064682 Si02
#       8
#     4   4   4   4   4   4   4   4
#     4   9  16  24  37  63 102 146 179 206 251 311
#     4   9  16  28  47  71  99 134 177 222 265 313
#     4  12  26  38  52  78 111 144 178 220 275 330
#     4   9  16  24  37  63 102 146 179 206 251 311
#     4  10  20  38  60  82 103 134 182 228 277 326
#     4  10  20  36  58  81 105 138 181 229 275 321
#     4   9  16  28  47  71  99 134 177 222 265 313
#     4  10  20  36  58  81 105 138 181 229 275 321
#
# _framework density 19.576542
#
# number of rings (size 3 to 8) (size 9 to 14) (size 15 to 20)
#    0.000    2.250    1.250    2.625    1.750    7.000 
#    0.000    0.000    0.000    0.000    0.000    0.000 
#    0.000    1.000    0.000    0.000    0.500    0.000 
#
# Total GULP energy -396817.397524 kJ/mol
# GULP energy per Si atom -12400.543673 kJ/mol
# Density = 1.953198 g / cm^3
# Si number density = 19.576542 Si / 1000 Ang^3
#
#
#
# Elastic Constant Matrix: (Units=GPa)
#
#
# Indices 1 2 3 4 5 6 
#
# 1 107.7784 17.1562 32.2581 0.0000 -2.0469 0.0000
# 2 17.1562 50.8678 24.6926 0.0000 -0.7391 0.0000
# 3 32.2581 24.6926 102.0369 0.0000 -0.1486 0.0000
# 4 0.0000 0.0000 0.0000 1.5081 0.0000 1.2142
# 5 -2.0469 -0.7391 -0.1486 0.0000 34.1330 0.0000
# 6 0.0000 0.0000 0.0000 1.2142 0.0000 2.6339
#
#
#
# Elastic Compliance Matrix: (Units=1/GPa)
#
#
# Indices 1 2 3 4 5 6 
#
# 1 0.010468 -0.002171 -0.002783 0.000000 0.000569 0.000000
# 2 -0.002171 0.022733 -0.004814 0.000000 0.000341 0.000000
# 3 -0.002783 -0.004814 0.011845 0.000000 -0.000220 0.000000
# 4 0.000000 0.000000 0.000000 1.054428 0.000000 -0.486073
# 5 0.000569 0.000341 -0.000220 0.000000 0.029338 0.000000
# 6 0.000000 0.000000 0.000000 -0.486073 0.000000 0.603738
#
#
# Mechanical properties :
#
#
# Convention : Reuss Voigt Hill
#
# Bulk Modulus (GPa) = 39.20277 45.43299 42.31788
# Shear Modulus (GPa) = 2.83996 20.09340 11.46668
#
# Velocity S-wave (km/s) = 1.20575 3.20723 2.42282
# Velocity P-wave (km/s) = 4.69120 6.08057 5.43050
#
# Compressibility (1/GPa) = 0.02550840
#
# Stress axis : x y z
#
# Youngs Moduli (GPa) = 95.53225 43.98871 84.42407
#
# Poissons Ratio (x) = 0.09551 0.23495
# Poissons Ratio (y) = 0.20742 0.40645
# Poissons Ratio (z) = 0.26587 0.21178
#
# Static dielectric constant tensor:
#      x y z
#    x 3.777450 0.000000 0.070060 
#    y 0.000000 2.829250 0.000000 
#    z 0.070060 0.000000 3.680510 
# 
# 
# High freq. dielectric constant tensor:
#      x y z
#    x 1.780320 0.000000 0.004340 
#    y 0.000000 1.678720 0.000000 
#    z 0.004340 0.000000 1.775570 
# 
# From -- ./inp_files/93631.got.cif
#   From: 2010.06.25/outbox.cif.g09.slc.cpg/sg10_47_cif.got.tgz:93631.got - 2010.06.27 22:07:45.
