data_PCOD8064274
_publ_section_title
;
Structure prediction by ZEFSAII (Michael W. Deem and Ramdas Pophale) SiO2 
 PCOD8064274
Probable space group: P 2/M
;
_chemical_formula_sum "Si O2"
_cell_formula_units_Z 28
_cell_length_a 15.140618
_cell_length_b 9.026395
_cell_length_c 18.974140
_cell_angle_alpha 90.000000
_cell_angle_beta 33.991070
_cell_angle_gamma 90.000000
_cell_volume 1449.710619
_symmetry_space_group_name_H-M "P 2/M"
_symmetry_group_IT_number 10
_symmetry_cell_setting 'monoclinic'
loop_
_space_group_symop_operation_xyz
x,y,z
-x,y,-z
-x,-y,-z
x,-y,z
loop_
_atom_site_type_symbol
_atom_site_label
_atom_site_fract_x
_atom_site_fract_y
_atom_site_fract_z
Si Si1 0.218783 0.325429 0.405059
Si Si2 0.345979 0.325012 0.057168
Si Si3 0.228455 0.829717 0.999200
Si Si4 0.052624 0.675975 0.886405
Si Si5 0.383928 0.171801 0.638905
Si Si6 0.110529 0.675799 0.328379
Si Si7 0.500556 0.164626 0.285511
O O1 0.213496 0.500000 0.405411
O O2 0.202575 0.262158 0.336382
O O3 0.381584 0.280249 0.331315
O O4 0.070711 0.268309 0.550130
O O5 0.346878 0.500000 0.041344
O O6 0.194490 0.269384 0.201972
O O7 0.500000 0.279353 0.000000
O O8 0.335179 0.240051 0.990592
O O9 0.327601 0.815507 0.861984
O O10 0.189255 0.000000 0.043131
O O11 0.067013 0.740974 0.092824
O O12 0.051046 0.500000 0.882030
O O13 0.225057 0.732871 0.750077
O O14 0.000000 0.727431 0.000000
O O15 0.500000 0.227479 0.500000
O O16 0.486480 0.196066 0.640794
O O17 0.336264 0.000000 0.660126
O O18 0.119467 0.500000 0.324991
O O19 0.435218 0.000000 0.314134
#
# Coordination Sequence:
#
# PCOD8064274 Si02
#       7
#     4   4   4   4   4   4   4
#     4   9  17  32  56  78 103 144 188 226 275 343
#     4  10  20  35  56  83 117 151 189 241 291 339
#     4  11  23  38  59  84 114 155 196 239 293 356
#     4  11  23  40  64  91 118 151 198 252 299 355
#     4  10  22  41  63  86 118 158 194 237 298 362
#     4   8  16  32  52  78 109 143 183 229 282 333
#     4  10  21  36  54  80 111 142 184 235 285 341
#
# _framework density 19.3142
#
# number of rings (size 3 to 8) (size 9 to 14) (size 15 to 20)
#    0.000    2.143    1.429    2.571    0.000    5.143 
#    0.000    5.714    0.000    0.000    0.000    0.000 
#    0.000    0.000    0.000    0.000    0.000    0.000 
#
# Total GULP energy -347146.876324 kJ/mol
# GULP energy per Si atom -12398.102726 kJ/mol
# Density = 1.927024 g / cm^3
# Si number density = 19.314200 Si / 1000 Ang^3
#
#
#
# Elastic Constant Matrix: (Units=GPa)
#
#
# Indices 1 2 3 4 5 6 
#
# 1 90.5053 35.7756 39.4003 0.0000 0.2705 0.0000
# 2 35.7756 56.9382 35.4557 0.0000 -1.9336 0.0000
# 3 39.4003 35.4557 97.0911 0.0000 2.9451 0.0000
# 4 0.0000 0.0000 0.0000 0.6477 0.0000 14.2169
# 5 0.2705 -1.9336 2.9451 0.0000 35.3666 0.0000
# 6 0.0000 0.0000 0.0000 14.2169 0.0000 16.2761
#
#
#
# Elastic Compliance Matrix: (Units=1/GPa)
#
#
# Indices 1 2 3 4 5 6 
#
# 1 0.015598 -0.007600 -0.003547 0.000000 -0.000239 0.000000
# 2 -0.007600 0.026569 -0.006681 0.000000 0.002067 0.000000
# 3 -0.003547 -0.006681 0.014225 0.000000 -0.001523 0.000000
# 4 0.000000 0.000000 0.000000 -0.084958 0.000000 0.074209
# 5 -0.000239 0.002067 -0.001523 0.000000 0.028517 0.000000
# 6 0.000000 0.000000 0.000000 0.074209 0.000000 -0.003381
#
#
# Mechanical properties :
#
#
# Convention : Reuss Voigt Hill
#
# Bulk Modulus (GPa) = 48.22626 51.75532 49.99079
# Shear Modulus (GPa) = 127.75433 19.38496 73.56965
#
# Velocity S-wave (km/s) = 8.14180 3.17150 6.17848
# Velocity P-wave (km/s) = 10.64935 6.34554 8.76569
#
# Compressibility (1/GPa) = 0.02073559
#
# Stress axis : x y z
#
# Youngs Moduli (GPa) = 64.10998 37.63848 70.29870
#
# Poissons Ratio (x) = 0.28605 0.24937
# Poissons Ratio (y) = 0.48723 0.46966
# Poissons Ratio (z) = 0.22741 0.25146
#
# Static dielectric constant tensor:
#      x y z
#    x 3.485060 0.000000 0.145620 
#    y 0.000000 3.293670 0.000000 
#    z 0.145620 0.000000 3.777830 
# 
# 
# High freq. dielectric constant tensor:
#      x y z
#    x 1.753050 0.000000 0.001000 
#    y 0.000000 1.729610 0.000000 
#    z 0.001000 0.000000 1.760510 
# 
# From -- ./inp_files/68717.got.cif
#   From: 2010.06.25/outbox.cif.g09.slc.cpg/sg10_35_cif.got.tgz:68717.got - 2010.06.27 22:07:45.
