data_PCOD8064768
_publ_section_title
;
Structure prediction by ZEFSAII (Michael W. Deem and Ramdas Pophale) SiO2 
 PCOD8064768
Probable space group: P 2/M
;
_chemical_formula_sum "Si O2"
_cell_formula_units_Z 24
_cell_length_a 14.756008
_cell_length_b 10.504887
_cell_length_c 14.301232
_cell_angle_alpha 90.000000
_cell_angle_beta 149.797169
_cell_angle_gamma 90.000000
_cell_volume 1115.207787
_symmetry_space_group_name_H-M "P 2/M"
_symmetry_group_IT_number 10
_symmetry_cell_setting 'monoclinic'
loop_
_space_group_symop_operation_xyz
x,y,z
-x,y,-z
-x,-y,-z
x,-y,z
loop_
_atom_site_type_symbol
_atom_site_label
_atom_site_fract_x
_atom_site_fract_y
_atom_site_fract_z
Si Si1 0.078709 0.725670 0.966565
Si Si2 0.987122 0.000000 0.877848
Si Si3 0.086914 0.140361 0.480162
Si Si4 0.426278 0.000000 0.538043
Si Si5 0.502720 0.859049 0.105577
Si Si6 0.149022 0.640604 0.399646
Si Si7 0.461115 0.747562 0.255271
O O1 0.083188 0.870786 0.930275
O O2 0.945593 0.641136 0.785693
O O3 0.287245 0.678987 0.147483
O O4 0.000000 0.717113 0.000000
O O5 0.788325 0.000000 0.656857
O O6 0.000000 0.000000 0.000000
O O7 0.297744 0.127115 0.678673
O O8 0.048683 0.252232 0.372333
O O9 0.000000 0.182263 0.500000
O O10 0.011843 0.000000 0.381269
O O11 0.500000 0.000000 0.500000
O O12 0.497913 0.878587 0.656081
O O13 0.404691 0.772224 0.095782
O O14 0.413011 0.000000 0.017862
O O15 0.500000 0.794261 0.000000
O O16 0.120468 0.500000 0.418216
O O17 0.363659 0.659272 0.579912
#
# Coordination Sequence:
#
# PCOD8064768 Si02
#       7
#     4   2   4   2   4   4   4
#     4  11  24  41  64  95 131 172 225 274 334 392
#     4  10  20  36  58  97 128 159 213 274 329 383
#     4   9  20  39  66  96 127 164 215 271 335 388
#     4  12  20  36  65  95 137 166 218 277 336 385
#     4   9  18  33  55  90 128 159 203 256 321 390
#     4  11  26  44  65  94 132 178 223 271 329 399
#     4  11  23  40  64  93 131 175 215 274 333 394
#
# _framework density 21.520654
#
# number of rings (size 3 to 8) (size 9 to 14) (size 15 to 20)
#    0.000    1.667    2.500    2.500    4.667    1.333 
#    0.000    0.833    0.000    2.000    0.000    0.000 
#    0.000    0.000    0.000    0.000    0.000    0.000 
#
# Total GULP energy -297459.484916 kJ/mol
# GULP energy per Si atom -12394.145205 kJ/mol
# Density = 2.147167 g / cm^3
# Si number density = 21.520654 Si / 1000 Ang^3
#
#
#
# Elastic Constant Matrix: (Units=GPa)
#
#
# Indices 1 2 3 4 5 6 
#
# 1 132.0835 45.3109 41.9768 0.0000 -3.5771 0.0000
# 2 45.3109 112.3733 25.3452 0.0000 -12.6507 0.0000
# 3 41.9768 25.3452 98.8503 0.0000 -3.5683 0.0000
# 4 0.0000 0.0000 0.0000 -1.6286 0.0000 -3.3517
# 5 -3.5771 -12.6507 -3.5683 0.0000 38.9767 0.0000
# 6 0.0000 0.0000 0.0000 -3.3517 0.0000 13.1429
#
#
#
# Elastic Compliance Matrix: (Units=1/GPa)
#
#
# Indices 1 2 3 4 5 6 
#
# 1 0.009718 -0.003222 -0.003317 0.000000 -0.000458 0.000000
# 2 -0.003222 0.010840 -0.001299 0.000000 0.003104 0.000000
# 3 -0.003317 -0.001299 0.011871 0.000000 0.000361 0.000000
# 4 0.000000 0.000000 0.000000 -0.402688 0.000000 -0.102693
# 5 -0.000458 0.003104 0.000361 0.000000 0.026655 0.000000
# 6 0.000000 0.000000 0.000000 -0.102693 0.000000 0.049898
#
#
# Mechanical properties :
#
#
# Convention : Reuss Voigt Hill
#
# Bulk Modulus (GPa) = 59.69089 63.17476 61.43282
# Shear Modulus (GPa) = -18.35239 25.47650 3.56206
#
# Velocity S-wave (km/s) = -2.92341 3.44440 1.28793
# Velocity P-wave (km/s) = 4.04990 6.72589 5.55155
#
# Compressibility (1/GPa) = 0.01675298
#
# Stress axis : x y z
#
# Youngs Moduli (GPa) = 102.90149 92.24691 84.23801
#
# Poissons Ratio (x) = 0.29720 0.27944
# Poissons Ratio (y) = 0.33153 0.10945
# Poissons Ratio (z) = 0.34135 0.11986
#
# Static dielectric constant tensor:
#      x y z
#    x -1.701020 0.000000 -2.177760 
#    y 0.000000 3.807310 0.000000 
#    z -2.177760 0.000000 3.125510 
# 
# 
# High freq. dielectric constant tensor:
#      x y z
#    x 1.848450 0.000000 -0.002910 
#    y 0.000000 1.809790 0.000000 
#    z -0.002910 0.000000 1.849800 
# 
# From -- ./inp_files/67430.got.cif
#   From: 2010.06.25/outbox.cif.g09.slc.cpg/sg10_34_cif.got.tgz:67430.got - 2010.06.27 22:07:45.
