data_PCOD8064705
_publ_section_title
;
Structure prediction by ZEFSAII (Michael W. Deem and Ramdas Pophale) SiO2 
 PCOD8064705
Probable space group: P 2/M
;
_chemical_formula_sum "Si O2"
_cell_formula_units_Z 22
_cell_length_a 5.173123
_cell_length_b 25.512268
_cell_length_c 8.679081
_cell_angle_alpha 90.000000
_cell_angle_beta 108.210896
_cell_angle_gamma 90.000000
_cell_volume 1088.076123
_symmetry_space_group_name_H-M "P 2/M"
_symmetry_group_IT_number 10
_symmetry_cell_setting 'monoclinic'
loop_
_space_group_symop_operation_xyz
x,y,z
-x,y,-z
-x,-y,-z
x,-y,z
loop_
_atom_site_type_symbol
_atom_site_label
_atom_site_fract_x
_atom_site_fract_y
_atom_site_fract_z
Si Si1 0.191843 0.274523 0.890465
Si Si2 0.101215 0.620867 0.692845
Si Si3 0.608759 0.895190 0.689310
Si Si4 0.892264 0.169746 0.310177
Si Si5 0.691477 0.000000 0.890562
Si Si6 0.398861 0.441133 0.307039
O O1 0.151702 0.321578 0.764761
O O2 0.109467 0.222181 0.787602
O O3 0.500000 0.271234 0.000000
O O4 0.000000 0.283054 0.000000
O O5 0.379186 0.587950 0.756397
O O6 0.000000 0.626208 0.500000
O O7 0.881771 0.590706 0.756688
O O8 0.500000 0.907513 0.500000
O O9 0.407582 0.855340 0.739885
O O10 0.623336 0.949431 0.778967
O O11 0.908267 0.870489 0.738827
O O12 0.000000 0.183322 0.500000
O O13 0.500000 0.000000 0.000000
O O14 0.000000 0.000000 0.000000
O O15 0.500000 0.443377 0.500000
O O16 0.354592 0.500000 0.236099
#
# Coordination Sequence:
#
# PCOD8064705 Si02
#       6
#     4   4   4   4   2   4
#     4  12  25  39  58  84 117 152 186 233 287 340
#     4  10  20  36  58  82 112 148 187 231 278 337
#     4  10  22  41  63  86 116 153 193 237 284 337
#     4  10  22  41  64  87 112 149 196 240 284 337
#     4  12  25  38  59  90 124 158 192 234 281 336
#     4   9  17  31  56  87 111 138 185 240 283 322
#
# _framework density 20.219173000000001
#
# number of rings (size 3 to 8) (size 9 to 14) (size 15 to 20)
#    0.000    1.636    0.000    4.636    0.000    6.545 
#    0.000   10.909    0.000   10.909    0.000    0.000 
#    0.000    0.000    0.000    0.000    0.000    0.000 
#
# Total GULP energy -272906.415334 kJ/mol
# GULP energy per Si atom -12404.837061 kJ/mol
# Density = 2.017315 g / cm^3
# Si number density = 20.219173 Si / 1000 Ang^3
#
#
#
# Elastic Constant Matrix: (Units=GPa)
#
#
# Indices 1 2 3 4 5 6 
#
# 1 140.7202 30.2554 32.7332 0.0000 -4.8835 0.0000
# 2 30.2554 135.0237 57.6410 0.0000 -6.8271 0.0000
# 3 32.7332 57.6410 43.9075 0.0000 -2.6669 0.0000
# 4 0.0000 0.0000 0.0000 -32.4861 0.0000 1.3851
# 5 -4.8835 -6.8271 -2.6669 0.0000 19.7968 0.0000
# 6 0.0000 0.0000 0.0000 1.3851 0.0000 31.7192
#
#
#
# Elastic Compliance Matrix: (Units=1/GPa)
#
#
# Indices 1 2 3 4 5 6 
#
# 1 0.008856 0.001989 -0.009114 0.000000 0.001643 0.000000
# 2 0.001989 0.017456 -0.024202 0.000000 0.003250 0.000000
# 3 -0.009114 -0.024202 0.061199 0.000000 -0.002350 0.000000
# 4 0.000000 0.000000 0.000000 -0.030725 0.000000 0.001342
# 5 0.001643 0.003250 -0.002350 0.000000 0.051723 0.000000
# 6 0.000000 0.000000 0.000000 0.001342 0.000000 0.031468
#
#
# Mechanical properties :
#
#
# Convention : Reuss Voigt Hill
#
# Bulk Modulus (GPa) = 40.22863 62.32338 51.27600
# Shear Modulus (GPa) = 23.70624 17.07413 20.39018
#
# Velocity S-wave (km/s) = 3.42784 2.90910 3.17907
# Velocity P-wave (km/s) = 5.96710 6.49420 6.23622
#
# Compressibility (1/GPa) = 0.02485792
#
# Stress axis : x y z
#
# Youngs Moduli (GPa) = 112.92388 57.28536 16.34023
#
# Poissons Ratio (x) = -0.11396 0.14892
# Poissons Ratio (y) = -0.22464 0.39547
# Poissons Ratio (z) = 1.02914 1.38643
#
# Static dielectric constant tensor:
#      x y z
#    x 4.051180 0.000000 -0.012830 
#    y 0.000000 3.754810 0.000000 
#    z -0.012830 0.000000 3.535180 
# 
# 
# High freq. dielectric constant tensor:
#      x y z
#    x 1.811600 0.000000 -0.002160 
#    y 0.000000 1.805420 0.000000 
#    z -0.002160 0.000000 1.777900 
# 
# From -- ./inp_files/15593.got.cif
#   From: 2010.06.25/outbox.cif.g09.slc.cpg/sg10_8_cif.got.tgz:15593.got - 2010.06.27 22:07:45.
