data_PCOD8064034
_publ_section_title
;
Structure prediction by ZEFSAII (Michael W. Deem and Ramdas Pophale) SiO2 
 PCOD8064034
Probable space group: P 2/M
;
_chemical_formula_sum "Si O2"
_cell_formula_units_Z 32
_cell_length_a 11.959226
_cell_length_b 9.289348
_cell_length_c 31.371977
_cell_angle_alpha 90.000000
_cell_angle_beta 29.636992
_cell_angle_gamma 90.000000
_cell_volume 1723.452210
_symmetry_space_group_name_H-M "P 2/M"
_symmetry_group_IT_number 10
_symmetry_cell_setting 'monoclinic'
loop_
_space_group_symop_operation_xyz
x,y,z
-x,y,-z
-x,-y,-z
x,-y,z
loop_
_atom_site_type_symbol
_atom_site_label
_atom_site_fract_x
_atom_site_fract_y
_atom_site_fract_z
Si Si1 0.798716 0.663270 0.256462
Si Si2 0.441495 0.165849 0.134260
Si Si3 0.367894 0.167199 0.607453
Si Si4 0.840271 0.168559 0.412438
Si Si5 0.311205 0.334009 0.096037
Si Si6 0.036582 0.163856 0.034706
Si Si7 0.711426 0.670033 0.731178
Si Si8 0.322276 0.666090 0.795518
O O1 0.754754 0.500000 0.284889
O O2 0.715984 0.758302 0.322499
O O3 0.653317 0.703231 0.262641
O O4 0.063453 0.686443 0.157840
O O5 0.311483 0.237228 0.138159
O O6 0.388398 0.251293 0.194717
O O7 0.362882 0.000000 0.165596
O O8 0.705424 0.176128 0.036672
O O9 0.619969 0.217884 0.511649
O O10 0.197099 0.200912 0.625291
O O11 0.372293 0.000000 0.615454
O O12 0.044921 0.265796 0.361353
O O13 0.891943 0.000000 0.402353
O O14 0.358856 0.500000 0.092679
O O15 0.500000 0.279661 0.000000
O O16 0.890650 0.248100 0.116873
O O17 0.950353 0.000000 0.062683
O O18 0.000000 0.231980 0.000000
O O19 0.728507 0.500000 0.734263
O O20 0.552338 0.706108 0.743631
O O21 0.261635 0.500000 0.821943
#
# Coordination Sequence:
#
# PCOD8064034 Si02
#       8
#     4   4   4   4   4   4   4   4
#     4  10  21  37  56  79 109 146 185 224 268 318
#     4  11  22  35  54  79 110 143 179 226 277 324
#     4   9  19  37  60  85 109 140 178 217 268 328
#     4   9  19  37  60  84 112 139 171 220 274 326
#     4  10  21  37  56  79 110 145 183 226 269 319
#     4  10  20  35  53  76 106 141 184 227 268 315
#     4  11  22  35  54  82 110 139 180 224 270 323
#     4  10  22  38  55  77 108 147 187 225 268 320
#
# _framework density 18.567384000000001
#
# number of rings (size 3 to 8) (size 9 to 14) (size 15 to 20)
#    0.000    2.000    1.250    3.000    0.000    7.000 
#    0.000    1.875    0.000    3.750    0.000    0.000 
#    0.000    0.000    0.000    0.000    0.000    0.000 
#
# Total GULP energy -396869.700788 kJ/mol
# GULP energy per Si atom -12402.178150 kJ/mol
# Density = 1.852512 g / cm^3
# Si number density = 18.567384 Si / 1000 Ang^3
#
#
#
# Elastic Constant Matrix: (Units=GPa)
#
#
# Indices 1 2 3 4 5 6 
#
# 1 109.9868 43.7866 43.5361 0.0000 0.0981 0.0000
# 2 43.7866 67.1389 42.7132 0.0000 -2.3014 0.0000
# 3 43.5361 42.7132 96.8253 0.0000 3.3495 0.0000
# 4 0.0000 0.0000 0.0000 55.0081 0.0000 -13.3685
# 5 0.0981 -2.3014 3.3495 0.0000 27.4363 0.0000
# 6 0.0000 0.0000 0.0000 -13.3685 0.0000 34.6866
#
#
#
# Elastic Compliance Matrix: (Units=1/GPa)
#
#
# Indices 1 2 3 4 5 6 
#
# 1 0.012839 -0.006554 -0.002873 0.000000 -0.000245 0.000000
# 2 -0.006554 0.024277 -0.007867 0.000000 0.003020 0.000000
# 3 -0.002873 -0.007867 0.015177 0.000000 -0.002503 0.000000
# 4 0.000000 0.000000 0.000000 0.020058 0.000000 0.007730
# 5 -0.000245 0.003020 -0.002503 0.000000 0.037008 0.000000
# 6 0.000000 0.000000 0.000000 0.007730 0.000000 0.031809
#
#
# Mechanical properties :
#
#
# Convention : Reuss Voigt Hill
#
# Bulk Modulus (GPa) = 56.48267 59.33585 57.90926
# Shear Modulus (GPa) = 27.52439 33.02053 30.27246
#
# Velocity S-wave (km/s) = 3.85438 4.22170 4.04221
# Velocity P-wave (km/s) = 7.09188 7.46928 7.28302
#
# Compressibility (1/GPa) = 0.01770455
#
# Stress axis : x y z
#
# Youngs Moduli (GPa) = 77.89061 41.19083 65.88950
#
# Poissons Ratio (x) = 0.26994 0.18931
# Poissons Ratio (y) = 0.51046 0.51838
# Poissons Ratio (z) = 0.22380 0.32406
#
# Static dielectric constant tensor:
#      x y z
#    x 3.517150 0.000000 -0.127570 
#    y 0.000000 3.397550 0.000000 
#    z -0.127570 0.000000 3.337840 
# 
# 
# High freq. dielectric constant tensor:
#      x y z
#    x 1.723600 0.000000 -0.005810 
#    y 0.000000 1.719730 0.000000 
#    z -0.005810 0.000000 1.716970 
# 
# From -- ./inp_files/58091.got.cif
#   From: 2010.06.25/outbox.cif.g09.slc.cpg/sg10_30_cif.got.tgz:58091.got - 2010.06.27 22:07:45.
