data_PCOD8064633
_publ_section_title
;
Structure prediction by ZEFSAII (Michael W. Deem and Ramdas Pophale) SiO2 
 PCOD8064633
Probable space group: P 2/M
;
_chemical_formula_sum "Si O2"
_cell_formula_units_Z 26
_cell_length_a 8.472839
_cell_length_b 9.649111
_cell_length_c 20.053131
_cell_angle_alpha 90.000000
_cell_angle_beta 50.937323
_cell_angle_gamma 90.000000
_cell_volume 1272.963339
_symmetry_space_group_name_H-M "P 2/M"
_symmetry_group_IT_number 10
_symmetry_cell_setting 'monoclinic'
loop_
_space_group_symop_operation_xyz
x,y,z
-x,y,-z
-x,-y,-z
x,-y,z
loop_
_atom_site_type_symbol
_atom_site_label
_atom_site_fract_x
_atom_site_fract_y
_atom_site_fract_z
Si Si1 0.078958 0.656141 0.054076
Si Si2 0.983614 0.345490 0.578562
Si Si3 0.475345 0.655674 0.251255
Si Si4 0.058451 0.848269 0.670840
Si Si5 0.500000 0.742702 0.000000
Si Si6 0.196454 0.165834 0.777253
Si Si7 0.398415 0.850558 0.162487
O O1 0.009315 0.500000 0.089961
O O2 0.970374 0.767342 0.130044
O O3 0.323225 0.662016 0.005052
O O4 0.000000 0.691390 0.000000
O O5 0.077754 0.500000 0.553523
O O6 0.754045 0.350716 0.664205
O O7 0.113958 0.252432 0.594738
O O8 0.000000 0.281756 0.500000
O O9 0.568277 0.500000 0.225198
O O10 0.587335 0.761684 0.270087
O O11 0.510140 0.720871 0.167919
O O12 0.819987 0.857884 0.746203
O O13 0.154682 0.791313 0.712628
O O14 0.144965 0.000000 0.629731
O O15 0.615988 0.832796 0.913353
O O16 0.201728 0.000000 0.786465
O O17 0.507405 0.000000 0.147284
#
# Coordination Sequence:
#
# PCOD8064633 Si02
#       7
#     4   4   4   4   2   4   4
#     4  11  25  41  57  83 121 161 207 261 310 361
#     4   9  19  37  61  89 117 147 188 235 287 355
#     4  10  21  37  59  86 116 151 191 239 297 356
#     4   9  19  36  56  82 113 148 191 236 284 346
#     4  12  22  36  60  88 118 158 206 258 308 362
#     4  11  22  39  59  82 114 155 199 243 294 356
#     4  10  20  36  57  81 111 150 197 244 292 350
#
# _framework density 20.424782
#
# number of rings (size 3 to 8) (size 9 to 14) (size 15 to 20)
#    0.000    1.846    1.538    2.308    0.000    5.538 
#    0.000    0.769    0.000    4.615    0.000    0.000 
#    0.000    0.000    0.000    0.000    0.000    0.000 
#
# Total GULP energy -322095.870581 kJ/mol
# GULP energy per Si atom -12388.302715 kJ/mol
# Density = 2.037829 g / cm^3
# Si number density = 20.424782 Si / 1000 Ang^3
#
#
#
# Elastic Constant Matrix: (Units=GPa)
#
#
# Indices 1 2 3 4 5 6 
#
# 1 122.1529 54.6222 28.6605 0.0000 35.4392 0.0000
# 2 54.6222 141.4883 46.2400 0.0000 35.9327 0.0000
# 3 28.6605 46.2400 70.8794 0.0000 41.6272 0.0000
# 4 0.0000 0.0000 0.0000 28.6745 0.0000 5.4241
# 5 35.4392 35.9327 41.6272 0.0000 41.9054 0.0000
# 6 0.0000 0.0000 0.0000 5.4241 0.0000 27.9116
#
#
#
# Elastic Compliance Matrix: (Units=1/GPa)
#
#
# Indices 1 2 3 4 5 6 
#
# 1 0.011887 -0.002954 0.003689 0.000000 -0.011184 0.000000
# 2 -0.002954 0.010088 -0.004257 0.000000 -0.001922 0.000000
# 3 0.003689 -0.004257 0.036204 0.000000 -0.035432 0.000000
# 4 0.000000 0.000000 0.000000 0.036205 0.000000 -0.007036
# 5 -0.011184 -0.001922 -0.035432 0.000000 0.070167 0.000000
# 6 0.000000 0.000000 0.000000 -0.007036 0.000000 0.037195
#
#
# Mechanical properties :
#
#
# Convention : Reuss Voigt Hill
#
# Bulk Modulus (GPa) = 19.55685 65.95175 42.75430
# Shear Modulus (GPa) = 22.14013 33.36484 27.75249
#
# Velocity S-wave (km/s) = 3.29596 4.04610 3.69014
# Velocity P-wave (km/s) = 4.90717 7.36125 6.25573
#
# Compressibility (1/GPa) = 0.05113297
#
# Stress axis : x y z
#
# Youngs Moduli (GPa) = 84.12821 99.12936 27.62159
#
# Poissons Ratio (x) = 0.29285 -0.10190
# Poissons Ratio (y) = 0.24853 0.11760
# Poissons Ratio (z) = -0.31036 0.42204
#
# Static dielectric constant tensor:
#      x y z
#    x 3.940540 0.000000 0.175340 
#    y 0.000000 4.188870 0.000000 
#    z 0.175340 0.000000 3.448170 
# 
# 
# High freq. dielectric constant tensor:
#      x y z
#    x 1.798150 0.000000 0.017190 
#    y 0.000000 1.806160 0.000000 
#    z 0.017190 0.000000 1.779660 
# 
# From -- ./inp_files/74442.got.cif
#   From: 2010.06.25/outbox.cif.g09.slc.cpg/sg10_38_cif.got.tgz:74442.got - 2010.06.27 22:07:45.
