data_PCOD8064442
_publ_section_title
;
Structure prediction by ZEFSAII (Michael W. Deem and Ramdas Pophale) SiO2 
 PCOD8064442
Probable space group: P 2/M
;
_chemical_formula_sum "Si O2"
_cell_formula_units_Z 20
_cell_length_a 13.520437
_cell_length_b 9.439484
_cell_length_c 21.848023
_cell_angle_alpha 90.000000
_cell_angle_beta 21.310004
_cell_angle_gamma 90.000000
_cell_volume 1013.334113
_symmetry_space_group_name_H-M "P 2/M"
_symmetry_group_IT_number 10
_symmetry_cell_setting 'monoclinic'
loop_
_space_group_symop_operation_xyz
x,y,z
-x,y,-z
-x,-y,-z
x,-y,z
loop_
_atom_site_type_symbol
_atom_site_label
_atom_site_fract_x
_atom_site_fract_y
_atom_site_fract_z
Si Si1 0.316118 0.832217 0.329317
Si Si2 0.925765 0.833237 0.751495
Si Si3 0.523960 0.833433 0.081873
Si Si4 0.440427 0.337914 0.466592
Si Si5 0.295948 0.663575 0.808458
O O1 0.491731 0.778743 0.169497
O O2 0.454025 0.751401 0.306423
O O3 0.000000 0.790729 0.500000
O O4 0.339692 0.000000 0.327641
O O5 0.715049 0.773624 0.823108
O O6 0.199489 0.753955 0.578204
O O7 0.974926 0.000000 0.716862
O O8 0.814669 0.793874 0.883937
O O9 0.485275 0.000000 0.103842
O O10 0.500000 0.277777 0.500000
O O11 0.346212 0.500000 0.526469
O O12 0.686456 0.321449 0.275871
O O13 0.328582 0.500000 0.809586
O O14 0.000000 0.722102 0.000000
#
# Coordination Sequence:
#
# PCOD8064442 Si02
#       5
#     4   4   4   4   4
#     4  10  20  35  58  86 115 146 184 229 280 332
#     4   9  17  33  56  80 108 141 179 220 268 322
#     4   8  16  31  53  82 113 140 170 221 276 321
#     4  10  22  38  55  76 107 143 181 226 272 317
#     4  10  23  41  58  80 113 151 188 229 278 332
#
# _framework density 19.736826000000001
#
# number of rings (size 3 to 8) (size 9 to 14) (size 15 to 20)
#    0.000    2.600    0.000    2.400    2.800    3.600 
#    0.000    3.000    0.000    0.000    0.000    0.000 
#    0.000    0.000    0.000    0.000    0.000    0.000 
#
# Total GULP energy -247855.002859 kJ/mol
# GULP energy per Si atom -12392.750143 kJ/mol
# Density = 1.969190 g / cm^3
# Si number density = 19.736826 Si / 1000 Ang^3
#
#
#
# Elastic Constant Matrix: (Units=GPa)
#
#
# Indices 1 2 3 4 5 6 
#
# 1 97.7179 25.7371 39.8128 0.0000 14.2879 0.0000
# 2 25.7371 39.0786 29.2289 0.0000 -3.9537 0.0000
# 3 39.8128 29.2289 108.7617 0.0000 6.8532 0.0000
# 4 0.0000 0.0000 0.0000 28.6115 0.0000 -6.0948
# 5 14.2879 -3.9537 6.8532 0.0000 36.1198 0.0000
# 6 0.0000 0.0000 0.0000 -6.0948 0.0000 29.5879
#
#
#
# Elastic Compliance Matrix: (Units=1/GPa)
#
#
# Indices 1 2 3 4 5 6 
#
# 1 0.014333 -0.008023 -0.002710 0.000000 -0.006034 0.000000
# 2 -0.008023 0.037513 -0.007695 0.000000 0.008740 0.000000
# 3 -0.002710 -0.007695 0.012388 0.000000 -0.002121 0.000000
# 4 0.000000 0.000000 0.000000 0.036555 0.000000 0.007530
# 5 -0.006034 0.008740 -0.002121 0.000000 0.031431 0.000000
# 6 0.000000 0.000000 0.000000 0.007530 0.000000 0.035349
#
#
# Mechanical properties :
#
#
# Convention : Reuss Voigt Hill
#
# Bulk Modulus (GPa) = 36.52654 48.34621 42.43637
# Shear Modulus (GPa) = 23.41339 28.91580 26.16459
#
# Velocity S-wave (km/s) = 3.44798 3.83177 3.64493
# Velocity P-wave (km/s) = 5.86501 6.64268 6.26592
#
# Compressibility (1/GPa) = 0.02737735
#
# Stress axis : x y z
#
# Youngs Moduli (GPa) = 69.76823 26.65723 80.72163
#
# Poissons Ratio (x) = 0.21387 0.21879
# Poissons Ratio (y) = 0.55975 0.62117
# Poissons Ratio (z) = 0.18910 0.20513
#
# Static dielectric constant tensor:
#      x y z
#    x 3.788330 0.000000 0.420290 
#    y 0.000000 3.217840 0.000000 
#    z 0.420290 0.000000 3.787230 
# 
# 
# High freq. dielectric constant tensor:
#      x y z
#    x 1.768800 0.000000 0.021460 
#    y 0.000000 1.735190 0.000000 
#    z 0.021460 0.000000 1.778360 
# 
# From -- ./inp_files/22259.got.cif
#   From: 2010.06.25/outbox.cif.g09.slc.cpg/sg10_12_cif.got.tgz:22259.got - 2010.06.27 22:07:45.
