data_PCOD8064354
_publ_section_title
;
Structure prediction by ZEFSAII (Michael W. Deem and Ramdas Pophale) SiO2 
 PCOD8064354
Probable space group: P 2/M
;
_chemical_formula_sum "Si O2"
_cell_formula_units_Z 32
_cell_length_a 19.931468
_cell_length_b 9.054355
_cell_length_c 25.241411
_cell_angle_alpha 90.000000
_cell_angle_beta 21.228188
_cell_angle_gamma 90.000000
_cell_volume 1649.372745
_symmetry_space_group_name_H-M "P 2/M"
_symmetry_group_IT_number 10
_symmetry_cell_setting 'monoclinic'
loop_
_space_group_symop_operation_xyz
x,y,z
-x,y,-z
-x,-y,-z
x,-y,z
loop_
_atom_site_type_symbol
_atom_site_label
_atom_site_fract_x
_atom_site_fract_y
_atom_site_fract_z
Si Si1 0.778063 0.337323 0.478257
Si Si2 0.053993 0.172386 0.553898
Si Si3 0.088091 0.173072 0.989420
Si Si4 0.376994 0.323788 0.251248
Si Si5 0.229209 0.330999 0.731311
Si Si6 0.379480 0.827595 0.140199
Si Si7 0.595560 0.668635 0.510894
Si Si8 0.400230 0.340218 0.815471
O O1 0.871375 0.500000 0.400070
O O2 0.913152 0.228802 0.410345
O O3 0.715007 0.256130 0.469724
O O4 0.599315 0.363322 0.644614
O O5 0.182831 0.253370 0.415291
O O6 0.838366 0.205336 0.704440
O O7 0.100500 0.000000 0.515716
O O8 0.287740 0.232236 0.859664
O O9 0.104649 0.000000 0.973062
O O10 0.000000 0.239679 0.000000
O O11 0.946953 0.224857 0.138457
O O12 0.349230 0.500000 0.269645
O O13 0.439831 0.262863 0.147837
O O14 0.552474 0.280585 0.160214
O O15 0.180715 0.500000 0.781920
O O16 0.294203 0.321256 0.623929
O O17 0.388289 0.266740 0.654096
O O18 0.417513 0.000000 0.121930
O O19 0.500000 0.775269 0.000000
O O20 0.567538 0.500000 0.549457
O O21 0.297601 0.500000 0.893904
#
# Coordination Sequence:
#
# PCOD8064354 Si02
#       8
#     4   4   4   4   4   4   4   4
#     4   9  17  32  54  80 107 133 171 224 270 309
#     4  10  20  35  57  84 112 146 188 222 266 331
#     4  11  23  35  48  73 107 140 177 222 269 313
#     4  10  21  38  61  87 112 141 185 238 282 324
#     4   9  17  32  53  73  97 133 177 217 262 322
#     4  10  22  40  59  82 116 154 187 221 269 334
#     4   8  15  30  53  77  99 131 173 218 267 316
#     4   9  19  35  55  79 105 136 177 219 265 320
#
# _framework density 19.401315
#
# number of rings (size 3 to 8) (size 9 to 14) (size 15 to 20)
#    0.000    2.500    0.000    3.750    0.000    7.250 
#    2.250    2.500    0.000    0.000    0.000    0.000 
#    0.000    0.000    0.000    0.000    0.000    0.000 
#
# Total GULP energy -396467.087248 kJ/mol
# GULP energy per Si atom -12389.596477 kJ/mol
# Density = 1.935716 g / cm^3
# Si number density = 19.401315 Si / 1000 Ang^3
#
#
#
# Elastic Constant Matrix: (Units=GPa)
#
#
# Indices 1 2 3 4 5 6 
#
# 1 148.2531 50.0939 26.3145 0.0000 -3.3688 0.0000
# 2 50.0939 69.4892 27.9884 0.0000 -6.2644 0.0000
# 3 26.3145 27.9884 48.7771 0.0000 -4.0223 0.0000
# 4 0.0000 0.0000 0.0000 22.8270 0.0000 -0.9557
# 5 -3.3688 -6.2644 -4.0223 0.0000 22.0678 0.0000
# 6 0.0000 0.0000 0.0000 -0.9557 0.0000 29.3599
#
#
#
# Elastic Compliance Matrix: (Units=1/GPa)
#
#
# Indices 1 2 3 4 5 6 
#
# 1 0.009005 -0.005941 -0.001497 0.000000 -0.000585 0.000000
# 2 -0.005941 0.022892 -0.009614 0.000000 0.003839 0.000000
# 3 -0.001497 -0.009614 0.026987 0.000000 0.001961 0.000000
# 4 0.000000 0.000000 0.000000 0.043868 0.000000 0.001428
# 5 -0.000585 0.003839 0.001961 0.000000 0.046673 0.000000
# 6 0.000000 0.000000 0.000000 0.001428 0.000000 0.034107
#
#
# Mechanical properties :
#
#
# Convention : Reuss Voigt Hill
#
# Bulk Modulus (GPa) = 40.35518 52.81256 46.58387
# Shear Modulus (GPa) = 22.13408 25.65912 23.89660
#
# Velocity S-wave (km/s) = 3.38132 3.64063 3.51337
# Velocity P-wave (km/s) = 6.00748 6.70466 6.36562
#
# Compressibility (1/GPa) = 0.02477996
#
# Stress axis : x y z
#
# Youngs Moduli (GPa) = 111.04610 43.68326 37.05458
#
# Poissons Ratio (x) = 0.25954 0.05548
# Poissons Ratio (y) = 0.65978 0.35623
# Poissons Ratio (z) = 0.16626 0.41995
#
# Static dielectric constant tensor:
#      x y z
#    x 4.090530 0.000000 -0.140240 
#    y 0.000000 3.429310 0.000000 
#    z -0.140240 0.000000 3.405680 
# 
# 
# High freq. dielectric constant tensor:
#      x y z
#    x 1.773480 0.000000 -0.003280 
#    y 0.000000 1.733620 0.000000 
#    z -0.003280 0.000000 1.734700 
# 
# From -- ./inp_files/93682.got.cif
#   From: 2010.06.25/outbox.cif.g09.slc.cpg/sg10_47_cif.got.tgz:93682.got - 2010.06.27 22:07:45.
