data_PCOD8064094
_publ_section_title
;
Structure prediction by ZEFSAII (Michael W. Deem and Ramdas Pophale) SiO2 
 PCOD8064094
Probable space group: P 2/M
;
_chemical_formula_sum "Si O2"
_cell_formula_units_Z 32
_cell_length_a 11.612858
_cell_length_b 14.035794
_cell_length_c 11.291912
_cell_angle_alpha 90.000000
_cell_angle_beta 107.354394
_cell_angle_gamma 90.000000
_cell_volume 1756.748267
_symmetry_space_group_name_H-M "P 2/M"
_symmetry_group_IT_number 10
_symmetry_cell_setting 'monoclinic'
loop_
_space_group_symop_operation_xyz
x,y,z
-x,y,-z
-x,-y,-z
x,-y,z
loop_
_atom_site_type_symbol
_atom_site_label
_atom_site_fract_x
_atom_site_fract_y
_atom_site_fract_z
Si Si1 0.420844 0.394037 0.592076
Si Si2 0.834327 0.607512 0.055092
Si Si3 0.136538 0.109519 0.522303
Si Si4 0.444828 0.766785 0.259951
Si Si5 0.633222 0.248655 0.017257
Si Si6 0.103598 0.608295 0.193381
Si Si7 0.260767 0.259842 0.403836
Si Si8 0.345146 0.889936 0.764556
O O1 0.500000 0.406546 0.500000
O O2 0.382119 0.500000 0.625056
O O3 0.497422 0.340143 0.717772
O O4 0.307041 0.327522 0.524469
O O5 0.806689 0.500000 0.085955
O O6 0.732720 0.673469 0.082048
O O7 0.964424 0.639385 0.142910
O O8 0.831437 0.616204 0.912875
O O9 0.192150 0.169184 0.432780
O O10 0.213947 0.123863 0.665688
O O11 0.000000 0.144625 0.500000
O O12 0.138560 0.000000 0.482112
O O13 0.368602 0.782041 0.356033
O O14 0.553132 0.843332 0.288872
O O15 0.358883 0.778859 0.119064
O O16 0.655259 0.156426 0.105255
O O17 0.500000 0.291114 0.000000
O O18 0.114744 0.500000 0.243309
O O19 0.167769 0.678633 0.301168
O O20 0.377931 0.000000 0.790681
#
# Coordination Sequence:
#
# PCOD8064094 Si02
#       8
#     4   4   4   4   4   4   4   4
#     4   9  18  31  51  82 118 148 177 217 272 328
#     4   9  18  34  53  81 116 149 188 228 272 325
#     4  10  23  41  60  83 109 145 186 225 283 343
#     4  10  20  35  54  90 111 138 189 230 277 325
#     4  10  21  35  56  80 115 147 190 223 277 335
#     4   9  18  32  56  84 112 149 187 226 275 327
#     4  11  19  34  62  85 112 144 183 237 272 322
#     4  10  22  41  60  77 109 149 186 230 281 336
#
# _framework density 18.215471999999998
#
# number of rings (size 3 to 8) (size 9 to 14) (size 15 to 20)
#    0.000    2.250    2.500    1.125    1.750    4.000 
#    0.000    3.125    0.000    1.500    0.000    4.375 
#    0.000    0.000    0.000    0.000    0.000    0.000 
#
# Total GULP energy -396741.010468 kJ/mol
# GULP energy per Si atom -12398.156577 kJ/mol
# Density = 1.817401 g / cm^3
# Si number density = 18.215472 Si / 1000 Ang^3
#
#
#
# Elastic Constant Matrix: (Units=GPa)
#
#
# Indices 1 2 3 4 5 6 
#
# 1 104.3599 65.3030 35.8253 0.0000 7.8872 0.0000
# 2 65.3030 117.5485 50.9423 0.0000 0.0118 0.0000
# 3 35.8253 50.9423 90.6694 0.0000 7.8063 0.0000
# 4 0.0000 0.0000 0.0000 29.9103 0.0000 4.6495
# 5 7.8872 0.0118 7.8063 0.0000 22.2513 0.0000
# 6 0.0000 0.0000 0.0000 4.6495 0.0000 29.4773
#
#
#
# Elastic Compliance Matrix: (Units=1/GPa)
#
#
# Indices 1 2 3 4 5 6 
#
# 1 0.015397 -0.008071 -0.001113 0.000000 -0.005063 0.000000
# 2 -0.008071 0.015589 -0.005996 0.000000 0.004956 0.000000
# 3 -0.001113 -0.005996 0.015265 0.000000 -0.004958 0.000000
# 4 0.000000 0.000000 0.000000 0.034274 0.000000 -0.005406
# 5 -0.005063 0.004956 -0.004958 0.000000 0.048472 0.000000
# 6 0.000000 0.000000 0.000000 -0.005406 0.000000 0.034777
#
#
# Mechanical properties :
#
#
# Convention : Reuss Voigt Hill
#
# Bulk Modulus (GPa) = 62.93239 68.52434 65.72837
# Shear Modulus (GPa) = 25.07117 27.02826 26.04971
#
# Velocity S-wave (km/s) = 3.71397 3.85620 3.78575
# Velocity P-wave (km/s) = 7.28116 7.58469 7.43447
#
# Compressibility (1/GPa) = 0.01589007
#
# Stress axis : x y z
#
# Youngs Moduli (GPa) = 64.94602 64.14775 65.51006
#
# Poissons Ratio (x) = 0.51773 0.07293
# Poissons Ratio (y) = 0.52417 0.39282
# Poissons Ratio (z) = 0.07231 0.38465
#
# Static dielectric constant tensor:
#      x y z
#    x 3.334910 0.000000 0.183500 
#    y 0.000000 3.376610 0.000000 
#    z 0.183500 0.000000 3.364310 
# 
# 
# High freq. dielectric constant tensor:
#      x y z
#    x 1.698040 0.000000 0.018230 
#    y 0.000000 1.700560 0.000000 
#    z 0.018230 0.000000 1.704470 
# 
# From -- ./inp_files/47014.got.cif
#   From: 2010.06.25/outbox.cif.g09.slc.cpg/sg10_24_cif.got.tgz:47014.got - 2010.06.27 22:07:45.
