data_PCOD8064972
_publ_section_title
;
Structure prediction by ZEFSAII (Michael W. Deem and Ramdas Pophale) SiO2 
 PCOD8064972
Probable space group: P 2/M
;
_chemical_formula_sum "Si O2"
_cell_formula_units_Z 32
_cell_length_a 12.113546
_cell_length_b 8.883353
_cell_length_c 15.180941
_cell_angle_alpha 90.000000
_cell_angle_beta 87.281478
_cell_angle_gamma 90.000000
_cell_volume 1631.765974
_symmetry_space_group_name_H-M "P 2/M"
_symmetry_group_IT_number 10
_symmetry_cell_setting 'monoclinic'
loop_
_space_group_symop_operation_xyz
x,y,z
-x,y,-z
-x,-y,-z
x,-y,z
loop_
_atom_site_type_symbol
_atom_site_label
_atom_site_fract_x
_atom_site_fract_y
_atom_site_fract_z
Si Si1 0.438386 0.822899 0.590117
Si Si2 0.579676 0.327063 0.731501
Si Si3 0.168995 0.321860 0.029671
Si Si4 0.034630 0.823338 0.680515
Si Si5 0.214533 0.676002 0.558718
Si Si6 0.045427 0.677992 0.861717
Si Si7 0.813362 0.328541 0.641774
Si Si8 0.592110 0.678564 0.930320
O O1 0.500000 0.763928 0.500000
O O2 0.509037 0.781182 0.672683
O O3 0.320062 0.744755 0.603556
O O4 0.420400 0.000000 0.586852
O O5 0.544613 0.500000 0.715597
O O6 0.709270 0.306217 0.708954
O O7 0.557817 0.277434 0.832681
O O8 0.172474 0.500000 0.036414
O O9 0.288111 0.251358 0.049302
O O10 0.075673 0.266020 0.101841
O O11 0.135735 0.276069 0.931660
O O12 0.103019 0.748768 0.599246
O O13 0.079201 0.763298 0.771944
O O14 0.906894 0.782323 0.672945
O O15 0.050825 0.000000 0.675427
O O16 0.211644 0.500000 0.577662
O O17 0.222637 0.713976 0.455378
O O18 0.045809 0.500000 0.844224
O O19 0.857530 0.500000 0.644481
O O20 0.599356 0.500000 0.939631
O O21 0.500000 0.744957 0.000000
#
# Coordination Sequence:
#
# PCOD8064972 Si02
#       8
#     4   4   4   4   4   4   4   4
#     4  11  23  39  60  86 120 154 188 237 293 349
#     4  10  20  36  61  89 116 152 199 245 284 338
#     4   8  15  30  54  79 106 142 191 244 286 328
#     4  12  25  37  53  83 122 154 185 233 297 362
#     4  11  23  40  62  83 109 149 197 245 287 339
#     4   9  17  33  57  80 104 144 193 238 281 334
#     4  10  21  38  60  83 109 147 198 247 287 338
#     4   9  17  29  49  82 118 145 179 234 292 336
#
# _framework density 19.610657
#
# number of rings (size 3 to 8) (size 9 to 14) (size 15 to 20)
#    0.000    2.000    1.250    3.750    0.000    6.500 
#    0.000    3.750    0.000    1.125    0.000    0.000 
#    0.000    0.000    0.000    0.000    0.000    0.000 
#
# Total GULP energy -396902.563529 kJ/mol
# GULP energy per Si atom -12403.205110 kJ/mol
# Density = 1.956602 g / cm^3
# Si number density = 19.610657 Si / 1000 Ang^3
#
#
#
# Elastic Constant Matrix: (Units=GPa)
#
#
# Indices 1 2 3 4 5 6 
#
# 1 75.9968 19.0405 41.5193 0.0000 6.3338 0.0000
# 2 19.0405 64.5986 36.5530 0.0000 2.4854 0.0000
# 3 41.5193 36.5530 116.9040 0.0000 -7.7721 0.0000
# 4 0.0000 0.0000 0.0000 14.4798 0.0000 -2.8381
# 5 6.3338 2.4854 -7.7721 0.0000 31.6069 0.0000
# 6 0.0000 0.0000 0.0000 -2.8381 0.0000 17.1537
#
#
#
# Elastic Compliance Matrix: (Units=1/GPa)
#
#
# Indices 1 2 3 4 5 6 
#
# 1 0.017187 -0.001516 -0.005948 0.000000 -0.004788 0.000000
# 2 -0.001516 0.019221 -0.005644 0.000000 -0.002596 0.000000
# 3 -0.005948 -0.005644 0.012749 0.000000 0.004771 0.000000
# 4 0.000000 0.000000 0.000000 0.071376 0.000000 0.011809
# 5 -0.004788 -0.002596 0.004771 0.000000 0.033975 0.000000
# 6 0.000000 0.000000 0.000000 0.011809 0.000000 0.060250
#
#
# Mechanical properties :
#
#
# Convention : Reuss Voigt Hill
#
# Bulk Modulus (GPa) = 43.59259 50.19167 46.89213
# Shear Modulus (GPa) = 20.11091 23.34051 21.72571
#
# Velocity S-wave (km/s) = 3.20583 3.45366 3.33205
# Velocity P-wave (km/s) = 5.99837 6.44619 6.22631
#
# Compressibility (1/GPa) = 0.02293968
#
# Stress axis : x y z
#
# Youngs Moduli (GPa) = 58.18327 52.02773 78.44009
#
# Poissons Ratio (x) = 0.07886 0.46660
# Poissons Ratio (y) = 0.08819 0.44272
# Poissons Ratio (z) = 0.34610 0.29365
#
# Static dielectric constant tensor:
#      x y z
#    x 3.728500 0.000000 -0.022450 
#    y 0.000000 3.206230 0.000000 
#    z -0.022450 0.000000 3.666340 
# 
# 
# High freq. dielectric constant tensor:
#      x y z
#    x 1.768610 0.000000 0.002520 
#    y 0.000000 1.727710 0.000000 
#    z 0.002520 0.000000 1.774750 
# 
# From -- ./inp_files/63829.got.cif
#   From: 2010.06.25/outbox.cif.g09.slc.cpg/sg10_32_cif.got.tgz:63829.got - 2010.06.27 22:07:45.
