data_PCOD8064073
_publ_section_title
;
Structure prediction by ZEFSAII (Michael W. Deem and Ramdas Pophale) SiO2 
 PCOD8064073
Probable space group: P 2/M
;
_chemical_formula_sum "Si O2"
_cell_formula_units_Z 28
_cell_length_a 19.672461
_cell_length_b 8.775859
_cell_length_c 25.120179
_cell_angle_alpha 90.000000
_cell_angle_beta 159.552598
_cell_angle_gamma 90.000000
_cell_volume 1515.055445
_symmetry_space_group_name_H-M "P 2/M"
_symmetry_group_IT_number 10
_symmetry_cell_setting 'monoclinic'
loop_
_space_group_symop_operation_xyz
x,y,z
-x,y,-z
-x,-y,-z
x,-y,z
loop_
_atom_site_type_symbol
_atom_site_label
_atom_site_fract_x
_atom_site_fract_y
_atom_site_fract_z
Si Si1 0.921383 0.678561 0.277157
Si Si2 0.686188 0.323374 0.601144
Si Si3 0.847738 0.319719 0.343226
Si Si4 0.458677 0.826741 0.031811
Si Si5 0.083223 0.819393 0.143414
Si Si6 0.286401 0.177834 0.491262
Si Si7 0.712609 0.178045 0.811499
O O1 0.889910 0.500000 0.251843
O O2 0.919081 0.734165 0.337062
O O3 0.127896 0.722211 0.404683
O O4 0.753024 0.750543 0.116185
O O5 0.500000 0.280984 0.500000
O O6 0.690283 0.500000 0.587358
O O7 0.874720 0.278740 0.773519
O O8 0.696111 0.215913 0.557650
O O9 0.831612 0.500000 0.335517
O O10 0.629832 0.252828 0.191973
O O11 0.000000 0.258918 0.500000
O O12 0.446789 0.000000 0.042353
O O13 0.500000 0.810660 0.000000
O O14 0.222929 0.755464 0.198613
O O15 0.108721 0.000000 0.172543
O O16 0.861198 0.774435 0.966672
O O17 0.495424 0.224463 0.669738
O O18 0.238040 0.000000 0.463275
O O19 0.728932 0.000000 0.814228
#
# Coordination Sequence:
#
# PCOD8064073 Si02
#       7
#     4   4   4   4   4   4   4
#     4  10  20  35  54  78 109 142 176 216 264 318
#     4  11  22  34  49  75 106 135 173 221 267 314
#     4   9  18  34  57  83 110 144 181 214 259 316
#     4   9  17  31  53  80 108 139 178 218 255 302
#     4   9  16  32  54  74  96 128 174 220 266 317
#     4  11  21  35  55  77 103 138 178 220 270 320
#     4   8  16  30  52  76  97 128 172 219 264 316
#
# _framework density 18.481171
#
# number of rings (size 3 to 8) (size 9 to 14) (size 15 to 20)
#    0.000    2.429    1.429    2.571    0.000    3.143 
#    0.000    4.286    0.000    3.429    0.000    0.000 
#    0.000    0.000    0.000    0.000    0.000    0.000 
#
# Total GULP energy -347066.778082 kJ/mol
# GULP energy per Si atom -12395.242074 kJ/mol
# Density = 1.843911 g / cm^3
# Si number density = 18.481171 Si / 1000 Ang^3
#
#
#
# Elastic Constant Matrix: (Units=GPa)
#
#
# Indices 1 2 3 4 5 6 
#
# 1 50.6404 11.5356 42.3965 0.0000 3.6508 0.0000
# 2 11.5356 34.7135 30.1250 0.0000 -0.8278 0.0000
# 3 42.3965 30.1250 145.1588 0.0000 -2.6844 0.0000
# 4 0.0000 0.0000 0.0000 24.9136 0.0000 12.8692
# 5 3.6508 -0.8278 -2.6844 0.0000 29.6052 0.0000
# 6 0.0000 0.0000 0.0000 12.8692 0.0000 0.2050
#
#
#
# Elastic Compliance Matrix: (Units=1/GPa)
#
#
# Indices 1 2 3 4 5 6 
#
# 1 0.026794 -0.002615 -0.007358 0.000000 -0.004045 0.000000
# 2 -0.002615 0.035393 -0.006568 0.000000 0.000717 0.000000
# 3 -0.007358 -0.006568 0.010432 0.000000 0.001670 0.000000
# 4 0.000000 0.000000 0.000000 -0.001277 0.000000 0.080178
# 5 -0.004045 0.000717 0.001670 0.000000 0.034448 0.000000
# 6 0.000000 0.000000 0.000000 0.080178 0.000000 -0.155216
#
#
# Mechanical properties :
#
#
# Convention : Reuss Voigt Hill
#
# Bulk Modulus (GPa) = 25.29257 44.29187 34.79222
# Shear Modulus (GPa) = -1580.25757 20.70847 -779.77455
#
# Velocity S-wave (km/s) = -29.27319 3.35104 -20.56320
# Velocity P-wave (km/s) = 33.59828 6.24425 23.34367
#
# Compressibility (1/GPa) = 0.03953730
#
# Stress axis : x y z
#
# Youngs Moduli (GPa) = 37.32116 28.25388 95.85890
#
# Poissons Ratio (x) = 0.07389 0.70532
# Poissons Ratio (y) = 0.09760 0.62962
# Poissons Ratio (z) = 0.27461 0.18558
#
# Static dielectric constant tensor:
#      x y z
#    x 3.009930 0.000000 -0.382930 
#    y 0.000000 3.211760 0.000000 
#    z -0.382930 0.000000 2.618530 
# 
# 
# High freq. dielectric constant tensor:
#      x y z
#    x 1.680050 0.000000 -0.001970 
#    y 0.000000 1.706220 0.000000 
#    z -0.001970 0.000000 1.734590 
# 
# From -- ./inp_files/93550.got.cif
#   From: 2010.06.25/outbox.cif.g09.slc.cpg/sg10_47_cif.got.tgz:93550.got - 2010.06.27 22:07:45.
