data_PCOD8064139
_publ_section_title
;
Structure prediction by ZEFSAII (Michael W. Deem and Ramdas Pophale) SiO2 
 PCOD8064139
Probable space group: P 2/M
;
_chemical_formula_sum "Si O2"
_cell_formula_units_Z 28
_cell_length_a 28.532476
_cell_length_b 8.837940
_cell_length_c 9.078027
_cell_angle_alpha 90.000000
_cell_angle_beta 140.862237
_cell_angle_gamma 90.000000
_cell_volume 1444.907785
_symmetry_space_group_name_H-M "P 2/M"
_symmetry_group_IT_number 10
_symmetry_cell_setting 'monoclinic'
loop_
_space_group_symop_operation_xyz
x,y,z
-x,y,-z
-x,-y,-z
x,-y,z
loop_
_atom_site_type_symbol
_atom_site_label
_atom_site_fract_x
_atom_site_fract_y
_atom_site_fract_z
Si Si1 0.849902 0.331946 0.792610
Si Si2 0.299631 0.177943 0.603266
Si Si3 0.005316 0.168591 0.837310
Si Si4 0.571160 0.175233 0.572964
Si Si5 0.303125 0.319948 0.927500
Si Si6 0.425952 0.675347 0.728909
Si Si7 0.861630 0.666654 0.472744
O O1 0.835330 0.500000 0.820688
O O2 0.779946 0.225424 0.657981
O O3 0.861959 0.339941 0.648820
O O4 0.924716 0.266155 0.048805
O O5 0.318279 0.266899 0.798199
O O6 0.360911 0.220213 0.633002
O O7 0.300178 0.000000 0.636760
O O8 0.928266 0.227627 0.578235
O O9 0.017602 0.000000 0.809453
O O10 0.000000 0.173693 0.000000
O O11 0.500000 0.200424 0.500000
O O12 0.558126 0.276135 0.398339
O O13 0.581535 0.000000 0.555767
O O14 0.643664 0.232875 0.833017
O O15 0.315564 0.500000 0.964144
O O16 0.219546 0.275129 0.775049
O O17 0.402193 0.500000 0.677424
O O18 0.500000 0.706128 0.000000
O O19 0.876277 0.500000 0.443858
#
# Coordination Sequence:
#
# PCOD8064139 Si02
#       7
#     4   4   4   4   4   4   4
#     4   9  16  27  43  65  98 138 178 218 263 316
#     4  11  21  34  54  80 111 143 179 225 274 321
#     4   9  15  22  36  62  96 133 173 217 265 313
#     4  11  24  40  59  84 112 141 175 219 270 319
#     4  10  20  35  55  79 109 145 184 223 267 322
#     4  11  24  41  61  83 108 141 180 219 263 320
#     4   8  15  26  41  64  96 135 175 216 262 311
#
# _framework density 19.378399999999999
#
# number of rings (size 3 to 8) (size 9 to 14) (size 15 to 20)
#    0.000    2.143    0.000    5.143    0.000   10.286 
#    0.000    0.000    0.000    0.000    0.000    1.000 
#    0.000    8.000    0.000    0.000    0.000    0.000 
#
# Total GULP energy -347189.952096 kJ/mol
# GULP energy per Si atom -12399.641146 kJ/mol
# Density = 1.933429 g / cm^3
# Si number density = 19.378400 Si / 1000 Ang^3
#
#
#
# Elastic Constant Matrix: (Units=GPa)
#
#
# Indices 1 2 3 4 5 6 
#
# 1 55.2051 23.3736 40.1993 0.0000 13.9716 0.0000
# 2 23.3736 83.9928 38.9551 0.0000 21.7064 0.0000
# 3 40.1993 38.9551 114.5824 0.0000 28.1970 0.0000
# 4 0.0000 0.0000 0.0000 29.3084 0.0000 5.5139
# 5 13.9716 21.7064 28.1970 0.0000 26.8532 0.0000
# 6 0.0000 0.0000 0.0000 5.5139 0.0000 25.0582
#
#
#
# Elastic Compliance Matrix: (Units=1/GPa)
#
#
# Indices 1 2 3 4 5 6 
#
# 1 0.025353 -0.002890 -0.007067 0.000000 -0.003434 0.000000
# 2 -0.002890 0.016109 -0.002196 0.000000 -0.009212 0.000000
# 3 -0.007067 -0.002196 0.014309 0.000000 -0.009573 0.000000
# 4 0.000000 0.000000 0.000000 0.035593 0.000000 -0.007832
# 5 -0.003434 -0.009212 -0.009573 0.000000 0.056525 0.000000
# 6 0.000000 0.000000 0.000000 -0.007832 0.000000 0.041631
#
#
# Mechanical properties :
#
#
# Convention : Reuss Voigt Hill
#
# Bulk Modulus (GPa) = 31.78088 50.98180 41.38134
# Shear Modulus (GPa) = 22.29009 26.32743 24.30876
#
# Velocity S-wave (km/s) = 3.39522 3.68991 3.54563
# Velocity P-wave (km/s) = 5.63966 6.67230 6.17760
#
# Compressibility (1/GPa) = 0.03146546
#
# Stress axis : x y z
#
# Youngs Moduli (GPa) = 39.44276 62.07653 69.88591
#
# Poissons Ratio (x) = 0.17941 0.49389
# Poissons Ratio (y) = 0.11400 0.15345
# Poissons Ratio (z) = 0.27874 0.13630
#
# Static dielectric constant tensor:
#      x y z
#    x 3.309150 0.000000 0.369440 
#    y 0.000000 3.716270 0.000000 
#    z 0.369440 0.000000 3.615610 
# 
# 
# High freq. dielectric constant tensor:
#      x y z
#    x 1.721660 0.000000 0.036610 
#    y 0.000000 1.767840 0.000000 
#    z 0.036610 0.000000 1.749770 
# 
# From -- ./inp_files/37276.got.cif
#   From: 2010.06.25/outbox.cif.g09.slc.cpg/sg10_19_cif.got.tgz:37276.got - 2010.06.27 22:07:45.
