data_PCOD8064185
_publ_section_title
;
Structure prediction by ZEFSAII (Michael W. Deem and Ramdas Pophale) SiO2 
 PCOD8064185
Probable space group: P 2/M
;
_chemical_formula_sum "Si O2"
_cell_formula_units_Z 28
_cell_length_a 14.090286
_cell_length_b 9.109260
_cell_length_c 19.362275
_cell_angle_alpha 90.000000
_cell_angle_beta 144.653923
_cell_angle_gamma 90.000000
_cell_volume 1437.715624
_symmetry_space_group_name_H-M "P 2/M"
_symmetry_group_IT_number 10
_symmetry_cell_setting 'monoclinic'
loop_
_space_group_symop_operation_xyz
x,y,z
-x,y,-z
-x,-y,-z
x,-y,z
loop_
_atom_site_type_symbol
_atom_site_label
_atom_site_fract_x
_atom_site_fract_y
_atom_site_fract_z
Si Si1 0.477841 0.171949 0.695320
Si Si2 0.563665 0.330382 0.611031
Si Si3 0.353145 0.167082 0.954251
Si Si4 0.935342 0.329727 0.807521
Si Si5 0.118851 0.827308 0.511653
Si Si6 0.994289 0.168386 0.702206
Si Si7 0.755611 0.824871 0.964084
O O1 0.469948 0.247399 0.616352
O O2 0.311111 0.208528 0.639272
O O3 0.636437 0.227171 0.831978
O O4 0.490256 0.000000 0.689559
O O5 0.500000 0.267187 0.500000
O O6 0.514902 0.500000 0.587465
O O7 0.757567 0.306152 0.735372
O O8 0.323505 0.237047 0.011935
O O9 0.407254 0.000000 0.999816
O O10 0.500000 0.248569 0.000000
O O11 0.190343 0.177708 0.811932
O O12 0.982042 0.500000 0.829995
O O13 0.929750 0.263641 0.727474
O O14 0.064787 0.248539 0.935066
O O15 0.000000 0.756993 0.500000
O O16 0.074807 0.764265 0.409877
O O17 0.085555 0.000000 0.490119
O O18 0.938126 0.000000 0.680999
O O19 0.779346 0.000000 0.980111
#
# Coordination Sequence:
#
# PCOD8064185 Si02
#       7
#     4   4   4   4   4   4   4
#     4  10  21  35  54  82 112 141 174 220 269 313
#     4  10  22  39  58  79 104 139 181 221 265 320
#     4   8  14  24  44  71  97 132 174 210 245 296
#     4  10  20  35  56  78 102 137 179 222 266 313
#     4   9  18  31  51  81 112 139 173 218 264 313
#     4   9  17  30  50  77 106 137 172 215 264 311
#     4   9  19  34  51  77 111 141 175 216 264 318
#
# _framework density 19.475341
#
# number of rings (size 3 to 8) (size 9 to 14) (size 15 to 20)
#    0.000    2.714    0.000    2.143    2.000    2.571 
#    0.000    2.857    0.000    8.571    0.000    0.000 
#    0.000    0.000    0.000    0.000    0.000    0.000 
#
# Total GULP energy -347108.975294 kJ/mol
# GULP energy per Si atom -12396.749118 kJ/mol
# Density = 1.943101 g / cm^3
# Si number density = 19.475341 Si / 1000 Ang^3
#
#
#
# Elastic Constant Matrix: (Units=GPa)
#
#
# Indices 1 2 3 4 5 6 
#
# 1 87.9405 28.0663 42.9950 0.0000 3.1835 0.0000
# 2 28.0663 42.3792 29.0719 0.0000 1.9566 0.0000
# 3 42.9950 29.0719 115.3413 0.0000 -11.1161 0.0000
# 4 0.0000 0.0000 0.0000 18.8612 0.0000 -5.1777
# 5 3.1835 1.9566 -11.1161 0.0000 29.9705 0.0000
# 6 0.0000 0.0000 0.0000 -5.1777 0.0000 5.1971
#
#
#
# Elastic Compliance Matrix: (Units=1/GPa)
#
#
# Indices 1 2 3 4 5 6 
#
# 1 0.015984 -0.007474 -0.004346 0.000000 -0.002822 0.000000
# 2 -0.007474 0.032676 -0.005786 0.000000 -0.003486 0.000000
# 3 -0.004346 -0.005786 0.012268 0.000000 0.005390 0.000000
# 4 0.000000 0.000000 0.000000 0.072977 0.000000 0.072704
# 5 -0.002822 -0.003486 0.005390 0.000000 0.035892 0.000000
# 6 0.000000 0.000000 0.000000 0.072704 0.000000 0.264845
#
#
# Mechanical properties :
#
#
# Convention : Reuss Voigt Hill
#
# Bulk Modulus (GPa) = 38.88683 49.54748 44.21716
# Shear Modulus (GPa) = 10.45092 20.50761 15.47926
#
# Velocity S-wave (km/s) = 2.31903 3.24852 2.82230
# Velocity P-wave (km/s) = 5.21355 6.29022 5.77702
#
# Compressibility (1/GPa) = 0.02571564
#
# Stress axis : x y z
#
# Youngs Moduli (GPa) = 62.56387 30.60338 81.51345
#
# Poissons Ratio (x) = 0.22872 0.35429
# Poissons Ratio (y) = 0.46757 0.47165
# Poissons Ratio (z) = 0.27193 0.17707
#
# Static dielectric constant tensor:
#      x y z
#    x 3.602250 0.000000 0.062290 
#    y 0.000000 3.136710 0.000000 
#    z 0.062290 0.000000 3.731950 
# 
# 
# High freq. dielectric constant tensor:
#      x y z
#    x 1.757430 0.000000 0.005820 
#    y 0.000000 1.710800 0.000000 
#    z 0.005820 0.000000 1.771370 
# 
# From -- ./inp_files/70304.got.cif
#   From: 2010.06.25/outbox.cif.g09.slc.cpg/sg10_36_cif.got.tgz:70304.got - 2010.06.27 22:07:45.
