data_PCOD8064127
_publ_section_title
;
Structure prediction by ZEFSAII (Michael W. Deem and Ramdas Pophale) SiO2 
 PCOD8064127
Probable space group: P 2/M
;
_chemical_formula_sum "Si O2"
_cell_formula_units_Z 24
_cell_length_a 15.485325
_cell_length_b 9.066400
_cell_length_c 8.910649
_cell_angle_alpha 90.000000
_cell_angle_beta 90.378451
_cell_angle_gamma 90.000000
_cell_volume 1250.993529
_symmetry_space_group_name_H-M "P 2/M"
_symmetry_group_IT_number 10
_symmetry_cell_setting 'monoclinic'
loop_
_space_group_symop_operation_xyz
x,y,z
-x,y,-z
-x,-y,-z
x,-y,z
loop_
_atom_site_type_symbol
_atom_site_label
_atom_site_fract_x
_atom_site_fract_y
_atom_site_fract_z
Si Si1 0.247887 0.674774 0.088825
Si Si2 0.249946 0.829334 0.402692
Si Si3 0.091251 0.828103 0.924041
Si Si4 0.580295 0.169883 0.402524
Si Si5 0.083970 0.175038 0.584633
Si Si6 0.416044 0.674588 0.912125
O O1 0.241279 0.500000 0.090217
O O2 0.258950 0.730889 0.256886
O O3 0.162116 0.739491 0.015910
O O4 0.330647 0.730173 0.996398
O O5 0.333397 0.804347 0.503789
O O6 0.168236 0.772332 0.496504
O O7 0.238498 0.000000 0.355967
O O8 0.087769 0.765544 0.754676
O O9 0.116149 0.000000 0.927639
O O10 0.000000 0.799333 0.000000
O O11 0.500000 0.225698 0.500000
O O12 0.585070 0.265240 0.254534
O O13 0.568270 0.000000 0.356671
O O14 0.000000 0.240937 0.500000
O O15 0.077857 0.000000 0.589532
O O16 0.418840 0.500000 0.903538
O O17 0.500000 0.735861 0.000000
#
# Coordination Sequence:
#
# PCOD8064127 Si02
#       6
#     4   4   4   4   4   4
#     4  11  23  37  55  81 112 145 185 232 276 322
#     4  10  20  35  55  78 107 142 179 222 274 330
#     4  10  20  36  60  85 110 145 184 223 275 335
#     4  10  21  36  56  84 112 139 179 232 282 325
#     4   9  17  31  53  80 105 132 174 221 260 312
#     4  10  22  39  57  79 110 150 191 227 271 332
#
# _framework density 19.184750000000001
#
# number of rings (size 3 to 8) (size 9 to 14) (size 15 to 20)
#    0.000    2.000    0.000    3.500    0.000    7.000 
#    0.000    0.833    0.000    2.000    0.000    0.000 
#    0.000    0.000    0.000    0.000    0.000    0.000 
#
# Total GULP energy -297698.881446 kJ/mol
# GULP energy per Si atom -12404.120060 kJ/mol
# Density = 1.914108 g / cm^3
# Si number density = 19.184750 Si / 1000 Ang^3
#
#
#
# Elastic Constant Matrix: (Units=GPa)
#
#
# Indices 1 2 3 4 5 6 
#
# 1 138.8946 34.9984 49.7883 0.0000 -14.2383 0.0000
# 2 34.9984 31.8662 27.4998 0.0000 -2.1778 0.0000
# 3 49.7883 27.4998 122.2161 0.0000 -17.1959 0.0000
# 4 0.0000 0.0000 0.0000 30.4775 0.0000 6.4180
# 5 -14.2383 -2.1778 -17.1959 0.0000 36.5256 0.0000
# 6 0.0000 0.0000 0.0000 6.4180 0.0000 8.1052
#
#
#
# Elastic Compliance Matrix: (Units=1/GPa)
#
#
# Indices 1 2 3 4 5 6 
#
# 1 0.010606 -0.010010 -0.001682 0.000000 0.002746 0.000000
# 2 -0.010010 0.048517 -0.007476 0.000000 -0.004529 0.000000
# 3 -0.001682 -0.007476 0.011132 0.000000 0.004139 0.000000
# 4 0.000000 0.000000 0.000000 0.039377 0.000000 -0.031180
# 5 0.002746 -0.004529 0.004139 0.000000 0.030127 0.000000
# 6 0.000000 0.000000 0.000000 -0.031180 0.000000 0.148067
#
#
# Mechanical properties :
#
#
# Convention : Reuss Voigt Hill
#
# Bulk Modulus (GPa) = 31.32898 57.50558 44.41728
# Shear Modulus (GPa) = 14.84547 27.06768 20.95657
#
# Velocity S-wave (km/s) = 2.78477 3.76026 3.30867
# Velocity P-wave (km/s) = 5.16774 6.99232 6.14809
#
# Compressibility (1/GPa) = 0.03191932
#
# Stress axis : x y z
#
# Youngs Moduli (GPa) = 94.28290 20.61136 89.82945
#
# Poissons Ratio (x) = 0.20631 0.15112
# Poissons Ratio (y) = 0.94373 0.67160
# Poissons Ratio (z) = 0.15861 0.15410
#
# Static dielectric constant tensor:
#      x y z
#    x 3.278470 0.000000 -0.787890 
#    y 0.000000 3.244320 0.000000 
#    z -0.787890 0.000000 2.563690 
# 
# 
# High freq. dielectric constant tensor:
#      x y z
#    x 1.769070 0.000000 -0.001190 
#    y 0.000000 1.717220 0.000000 
#    z -0.001190 0.000000 1.763780 
# 
# From -- ./inp_files/27204.got.cif
#   From: 2010.06.25/outbox.cif.g09.slc.cpg/sg10_14_cif.got.tgz:27204.got - 2010.06.27 22:07:45.
