data_PCOD8064516
_publ_section_title
;
Structure prediction by ZEFSAII (Michael W. Deem and Ramdas Pophale) SiO2 
 PCOD8064516
Probable space group: P 2/M
;
_chemical_formula_sum "Si O2"
_cell_formula_units_Z 28
_cell_length_a 14.591425
_cell_length_b 21.352299
_cell_length_c 10.045663
_cell_angle_alpha 90.000000
_cell_angle_beta 151.705336
_cell_angle_gamma 90.000000
_cell_volume 1483.559550
_symmetry_space_group_name_H-M "P 2/M"
_symmetry_group_IT_number 10
_symmetry_cell_setting 'monoclinic'
loop_
_space_group_symop_operation_xyz
x,y,z
-x,y,-z
-x,-y,-z
x,-y,z
loop_
_atom_site_type_symbol
_atom_site_label
_atom_site_fract_x
_atom_site_fract_y
_atom_site_fract_z
Si Si1 0.627530 0.000000 0.294782
Si Si2 0.539198 0.357088 0.705345
Si Si3 0.712323 0.879683 0.545317
Si Si4 0.075409 0.572841 0.734483
Si Si5 0.421152 0.217788 0.252062
Si Si6 0.164715 0.572852 0.315222
Si Si7 0.044345 0.000000 0.711972
Si Si8 0.874977 0.121585 0.044219
O O1 0.588390 0.938313 0.332064
O O2 0.500000 0.000000 0.000000
O O3 0.851648 0.000000 0.550167
O O4 0.500000 0.358025 0.500000
O O5 0.593252 0.287391 0.826988
O O6 0.351677 0.383670 0.540247
O O7 0.719921 0.399990 0.964915
O O8 0.572106 0.820249 0.354335
O O9 0.899756 0.864743 0.695297
O O10 0.767155 0.893783 0.768196
O O11 0.112969 0.500000 0.765179
O O12 0.000000 0.602454 0.500000
O O13 0.914618 0.586311 0.639602
O O14 0.500000 0.224145 0.500000
O O15 0.214510 0.182207 0.995876
O O16 0.220804 0.500000 0.365638
O O17 0.000000 0.592989 0.000000
O O18 0.159454 0.062473 0.901771
O O19 0.000000 0.000000 0.500000
#
# Coordination Sequence:
#
# PCOD8064516 Si02
#       8
#     2   4   4   4   4   4   2   4
#     4  10  21  33  54  80 106 134 175 229 284 326
#     4  11  21  36  59  88 119 155 197 244 286 350
#     4   9  18  35  55  77 102 139 177 226 271 325
#     4  10  22  39  60  87 121 156 194 246 301 347
#     4   9  20  34  54  83 108 142 187 223 278 331
#     4  10  20  35  60  93 119 152 198 244 299 348
#     4  10  21  33  52  80 102 136 171 219 284 328
#     4   9  18  35  55  76 105 136 179 224 268 331
#
# _framework density 18.873525999999998
#
# number of rings (size 3 to 8) (size 9 to 14) (size 15 to 20)
#    0.000    2.286    1.429    0.857    2.000    4.000 
#    2.571    5.000    3.143    0.000    0.000    0.000 
#    0.000    0.000    0.000    0.000    0.000    0.000 
#
# Total GULP energy -347166.622545 kJ/mol
# GULP energy per Si atom -12398.807948 kJ/mol
# Density = 1.883057 g / cm^3
# Si number density = 18.873526 Si / 1000 Ang^3
#
#
#
# Elastic Constant Matrix: (Units=GPa)
#
#
# Indices 1 2 3 4 5 6 
#
# 1 86.9594 76.0762 41.0007 0.0000 9.5063 0.0000
# 2 76.0762 108.8865 53.4007 0.0000 12.0170 0.0000
# 3 41.0007 53.4007 77.3345 0.0000 3.4994 0.0000
# 4 0.0000 0.0000 0.0000 4.7351 0.0000 1.5433
# 5 9.5063 12.0170 3.4994 0.0000 33.3965 0.0000
# 6 0.0000 0.0000 0.0000 1.5433 0.0000 21.3231
#
#
#
# Elastic Compliance Matrix: (Units=1/GPa)
#
#
# Indices 1 2 3 4 5 6 
#
# 1 0.029861 -0.019646 -0.002211 0.000000 -0.001199 0.000000
# 2 -0.019646 0.027368 -0.008329 0.000000 -0.003383 0.000000
# 3 -0.002211 -0.008329 0.019784 0.000000 0.001553 0.000000
# 4 0.000000 0.000000 0.000000 0.216292 0.000000 -0.015655
# 5 -0.001199 -0.003383 0.001553 0.000000 0.031339 0.000000
# 6 0.000000 0.000000 0.000000 -0.015655 0.000000 0.048030
#
#
# Mechanical properties :
#
#
# Convention : Reuss Voigt Hill
#
# Bulk Modulus (GPa) = 60.09554 68.23727 64.16641
# Shear Modulus (GPa) = 11.40004 18.73779 15.06892
#
# Velocity S-wave (km/s) = 2.46035 3.15430 2.82869
# Velocity P-wave (km/s) = 6.32309 7.03560 6.68884
#
# Compressibility (1/GPa) = 0.01664017
#
# Stress axis : x y z
#
# Youngs Moduli (GPa) = 33.48903 36.53858 50.54496
#
# Poissons Ratio (x) = 0.71784 0.11176
# Poissons Ratio (y) = 0.65793 0.42101
# Poissons Ratio (z) = 0.07405 0.30434
#
# Static dielectric constant tensor:
#      x y z
#    x 3.509030 0.000000 0.085250 
#    y 0.000000 3.725730 0.000000 
#    z 0.085250 0.000000 3.306090 
# 
# 
# High freq. dielectric constant tensor:
#      x y z
#    x 1.736430 0.000000 0.012260 
#    y 0.000000 1.730730 0.000000 
#    z 0.012260 0.000000 1.719230 
# 
# From -- ./inp_files/30348.got.cif
#   From: 2010.06.25/outbox.cif.g09.slc.cpg/sg10_16_cif.got.tgz:30348.got - 2010.06.27 22:07:45.
