data_PCOD8064716
_publ_section_title
;
Structure prediction by ZEFSAII (Michael W. Deem and Ramdas Pophale) SiO2 
 PCOD8064716
Probable space group: P 2/M
;
_chemical_formula_sum "Si O2"
_cell_formula_units_Z 32
_cell_length_a 14.731038
_cell_length_b 8.759436
_cell_length_c 25.415231
_cell_angle_alpha 90.000000
_cell_angle_beta 30.745683
_cell_angle_gamma 90.000000
_cell_volume 1676.557563
_symmetry_space_group_name_H-M "P 2/M"
_symmetry_group_IT_number 10
_symmetry_cell_setting 'monoclinic'
loop_
_space_group_symop_operation_xyz
x,y,z
-x,y,-z
-x,-y,-z
x,-y,z
loop_
_atom_site_type_symbol
_atom_site_label
_atom_site_fract_x
_atom_site_fract_y
_atom_site_fract_z
Si Si1 0.488689 0.318177 0.343315
Si Si2 0.176467 0.820142 0.770143
Si Si3 0.682708 0.176766 0.880448
Si Si4 0.744440 0.678872 0.742281
Si Si5 0.542077 0.678851 0.199168
Si Si6 0.132649 0.320410 0.571615
Si Si7 0.905911 0.819709 0.994057
Si Si8 0.037117 0.320471 0.735039
O O1 0.484944 0.500000 0.344909
O O2 0.642165 0.261551 0.304931
O O3 0.520458 0.254439 0.268675
O O4 0.302476 0.248770 0.457491
O O5 0.132939 0.773118 0.732761
O O6 0.203438 0.000000 0.760908
O O7 0.019421 0.765150 0.887295
O O8 0.657866 0.225866 0.832522
O O9 0.830113 0.277900 0.836298
O O10 0.737584 0.000000 0.856620
O O11 0.500000 0.210488 0.000000
O O12 0.732666 0.500000 0.762462
O O13 0.638077 0.718454 0.742354
O O14 0.950693 0.728373 0.632602
O O15 0.576476 0.500000 0.183587
O O16 0.708951 0.753503 0.086824
O O17 0.152184 0.500000 0.560054
O O18 0.126911 0.268325 0.635374
O O19 0.890435 0.000000 0.004042
O O20 0.000000 0.756478 0.000000
O O21 0.057629 0.500000 0.735239
#
# Coordination Sequence:
#
# PCOD8064716 Si02
#       8
#     4   4   4   4   4   4   4   4
#     4  10  20  36  58  83 110 145 187 230 275 324
#     4  11  23  38  56  81 112 147 187 228 276 334
#     4  10  21  36  54  79 110 145 186 226 270 327
#     4   9  19  36  55  81 113 145 182 224 275 326
#     4  10  21  34  55  87 114 140 183 232 273 321
#     4   8  17  36  59  80 109 146 182 224 276 330
#     4  10  21  38  56  74 107 152 185 220 276 334
#     4  10  21  38  59  82 110 144 183 229 277 326
#
# _framework density 19.086727
#
# number of rings (size 3 to 8) (size 9 to 14) (size 15 to 20)
#    0.000    2.250    1.250    1.875    1.750    3.750 
#    0.000    8.125    0.000    0.000    0.000    5.250 
#    0.000    0.000    0.000    0.000    0.000    0.000 
#
# Total GULP energy -396841.548088 kJ/mol
# GULP energy per Si atom -12401.298378 kJ/mol
# Density = 1.904329 g / cm^3
# Si number density = 19.086727 Si / 1000 Ang^3
#
#
#
# Elastic Constant Matrix: (Units=GPa)
#
#
# Indices 1 2 3 4 5 6 
#
# 1 113.7119 8.5335 48.2263 0.0000 -8.6362 0.0000
# 2 8.5335 17.6095 24.8596 0.0000 -1.7562 0.0000
# 3 48.2263 24.8596 138.0678 0.0000 -16.8409 0.0000
# 4 0.0000 0.0000 0.0000 8.6119 0.0000 7.5800
# 5 -8.6362 -1.7562 -16.8409 0.0000 17.8521 0.0000
# 6 0.0000 0.0000 0.0000 7.5800 0.0000 16.2162
#
#
#
# Elastic Compliance Matrix: (Units=1/GPa)
#
#
# Indices 1 2 3 4 5 6 
#
# 1 0.010375 -0.000058 -0.003392 0.000000 0.001813 0.000000
# 2 -0.000058 0.076744 -0.014555 0.000000 -0.006209 0.000000
# 3 -0.003392 -0.014555 0.012062 0.000000 0.008305 0.000000
# 4 0.000000 0.000000 0.000000 0.197289 0.000000 -0.092220
# 5 0.001813 -0.006209 0.008305 0.000000 0.064117 0.000000
# 6 0.000000 0.000000 0.000000 -0.092220 0.000000 0.104774
#
#
# Mechanical properties :
#
#
# Convention : Reuss Voigt Hill
#
# Bulk Modulus (GPa) = 15.83033 48.06977 31.95005
# Shear Modulus (GPa) = 9.57070 21.05401 15.31235
#
# Velocity S-wave (km/s) = 2.24170 3.32485 2.83548
# Velocity P-wave (km/s) = 3.87455 6.32291 5.24363
#
# Compressibility (1/GPa) = 0.06316988
#
# Stress axis : x y z
#
# Youngs Moduli (GPa) = 96.38627 13.03030 82.90839
#
# Poissons Ratio (x) = 0.00075 0.28125
# Poissons Ratio (y) = 0.00557 1.20675
# Poissons Ratio (z) = 0.32697 0.18966
#
# Static dielectric constant tensor:
#      x y z
#    x 3.558320 0.000000 0.024150 
#    y 0.000000 3.300580 0.000000 
#    z 0.024150 0.000000 3.749940 
# 
# 
# High freq. dielectric constant tensor:
#      x y z
#    x 1.748440 0.000000 -0.003030 
#    y 0.000000 1.724650 0.000000 
#    z -0.003030 0.000000 1.746880 
# 
# From -- ./inp_files/66499.got.cif
#   From: 2010.06.25/outbox.cif.g09.slc.cpg/sg10_34_cif.got.tgz:66499.got - 2010.06.27 22:07:45.
