data_PCOD8064653
_publ_section_title
;
Structure prediction by ZEFSAII (Michael W. Deem and Ramdas Pophale) SiO2 
 PCOD8064653
Probable space group: P 2/M
;
_chemical_formula_sum "Si O2"
_cell_formula_units_Z 32
_cell_length_a 25.947416
_cell_length_b 9.024534
_cell_length_c 15.407999
_cell_angle_alpha 90.000000
_cell_angle_beta 152.725420
_cell_angle_gamma 90.000000
_cell_volume 1653.379708
_symmetry_space_group_name_H-M "P 2/M"
_symmetry_group_IT_number 10
_symmetry_cell_setting 'monoclinic'
loop_
_space_group_symop_operation_xyz
x,y,z
-x,y,-z
-x,-y,-z
x,-y,z
loop_
_atom_site_type_symbol
_atom_site_label
_atom_site_fract_x
_atom_site_fract_y
_atom_site_fract_z
Si Si1 0.258701 0.673854 0.550292
Si Si2 0.125953 0.176044 0.689774
Si Si3 0.722386 0.829500 0.927666
Si Si4 0.717794 0.168853 0.727107
Si Si5 0.129154 0.827934 0.203578
Si Si6 0.507718 0.673248 0.862352
Si Si7 0.496711 0.325727 0.343158
Si Si8 0.727017 0.175881 0.253044
O O1 0.240671 0.500000 0.535303
O O2 0.181353 0.728435 0.356580
O O3 0.387921 0.712491 0.723925
O O4 0.221188 0.757462 0.581490
O O5 0.195102 0.231772 0.709637
O O6 0.000000 0.243034 0.500000
O O7 0.119723 0.000000 0.681014
O O8 0.187378 0.234920 0.868759
O O9 0.770254 0.810537 0.901869
O O10 0.605982 0.743086 0.758510
O O11 0.697360 0.000000 0.912666
O O12 0.812927 0.212587 0.800847
O O13 0.611640 0.274272 0.558340
O O14 0.677538 0.000000 0.652980
O O15 0.145045 0.000000 0.251624
O O16 0.000000 0.784922 0.000000
O O17 0.535523 0.500000 0.913252
O O18 0.507451 0.726017 0.762645
O O19 0.600811 0.765167 0.052923
O O20 0.489720 0.500000 0.340851
O O21 0.725067 0.000000 0.256283
#
# Coordination Sequence:
#
# PCOD8064653 Si02
#       8
#     4   4   4   4   4   4   4   4
#     4  11  23  40  60  84 117 157 191 229 286 349
#     4   9  19  36  58  83 112 148 189 233 280 333
#     4  10  20  36  57  84 114 148 188 230 284 342
#     4  10  21  36  58  85 116 150 185 234 287 338
#     4  10  22  40  61  87 115 148 194 245 287 329
#     4  10  21  37  57  82 115 154 189 230 287 346
#     4  11  21  35  57  84 115 150 187 232 282 339
#     4  11  22  36  60  91 116 147 191 240 286 336
#
# _framework density 19.354295
#
# number of rings (size 3 to 8) (size 9 to 14) (size 15 to 20)
#    0.000    1.750    2.500    1.875    0.000    6.250 
#    0.000    3.750    0.000    4.875    0.000    0.000 
#    0.000    0.000    0.000    0.000    0.000    0.000 
#
# Total GULP energy -396929.787032 kJ/mol
# GULP energy per Si atom -12404.055845 kJ/mol
# Density = 1.931024 g / cm^3
# Si number density = 19.354295 Si / 1000 Ang^3
#
#
#
# Elastic Constant Matrix: (Units=GPa)
#
#
# Indices 1 2 3 4 5 6 
#
# 1 122.0162 34.4082 84.8229 0.0000 -24.1785 0.0000
# 2 34.4082 53.4149 46.0600 0.0000 -6.9657 0.0000
# 3 84.8229 46.0600 119.9318 0.0000 10.4627 0.0000
# 4 0.0000 0.0000 0.0000 14.8094 0.0000 -9.3745
# 5 -24.1785 -6.9657 10.4627 0.0000 29.4678 0.0000
# 6 0.0000 0.0000 0.0000 -9.3745 0.0000 17.9790
#
#
#
# Elastic Compliance Matrix: (Units=1/GPa)
#
#
# Indices 1 2 3 4 5 6 
#
# 1 0.042150 0.013802 -0.039641 0.000000 0.051922 0.000000
# 2 0.013802 0.036265 -0.026238 0.000000 0.029213 0.000000
# 3 -0.039641 -0.026238 0.051423 0.000000 -0.056986 0.000000
# 4 0.000000 0.000000 0.000000 0.100792 0.000000 0.052555
# 5 0.051922 0.029213 -0.056986 0.000000 0.103676 0.000000
# 6 0.000000 0.000000 0.000000 0.052555 0.000000 0.083023
#
#
# Mechanical properties :
#
#
# Convention : Reuss Voigt Hill
#
# Bulk Modulus (GPa) = 38.93483 69.54945 54.24214
# Shear Modulus (GPa) = 9.43317 21.12270 15.27794
#
# Velocity S-wave (km/s) = 2.21010 3.30717 2.81264
# Velocity P-wave (km/s) = 5.16462 7.11309 6.21568
#
# Compressibility (1/GPa) = 0.02568395
#
# Stress axis : x y z
#
# Youngs Moduli (GPa) = 23.72494 27.57462 19.44665
#
# Poissons Ratio (x) = -0.38059 0.77089
# Poissons Ratio (y) = -0.32746 0.51024
# Poissons Ratio (z) = 0.94048 0.72350
#
# Static dielectric constant tensor:
#      x y z
#    x 3.775020 0.000000 -0.086010 
#    y 0.000000 3.358670 0.000000 
#    z -0.086010 0.000000 3.533430 
# 
# 
# High freq. dielectric constant tensor:
#      x y z
#    x 1.767880 0.000000 -0.010640 
#    y 0.000000 1.737620 0.000000 
#    z -0.010640 0.000000 1.750990 
# 
# From -- ./inp_files/71512.got.cif
#   From: 2010.06.25/outbox.cif.g09.slc.cpg/sg10_36_cif.got.tgz:71512.got - 2010.06.27 22:07:45.
