data_PCOD8064441
_publ_section_title
;
Structure prediction by ZEFSAII (Michael W. Deem and Ramdas Pophale) SiO2 
 PCOD8064441
Probable space group: P 2/M
;
_chemical_formula_sum "Si O2"
_cell_formula_units_Z 32
_cell_length_a 16.145384
_cell_length_b 8.973828
_cell_length_c 24.677000
_cell_angle_alpha 90.000000
_cell_angle_beta 153.329932
_cell_angle_gamma 90.000000
_cell_volume 1604.803518
_symmetry_space_group_name_H-M "P 2/M"
_symmetry_group_IT_number 10
_symmetry_cell_setting 'monoclinic'
loop_
_space_group_symop_operation_xyz
x,y,z
-x,y,-z
-x,-y,-z
x,-y,z
loop_
_atom_site_type_symbol
_atom_site_label
_atom_site_fract_x
_atom_site_fract_y
_atom_site_fract_z
Si Si1 0.548960 0.670807 0.270576
Si Si2 0.141290 0.323507 0.742172
Si Si3 0.126815 0.330469 0.024936
Si Si4 0.055931 0.171564 0.176142
Si Si5 0.588591 0.824273 0.180534
Si Si6 0.274748 0.323190 0.516119
Si Si7 0.233378 0.172041 0.904704
Si Si8 0.441277 0.323022 0.406921
O O1 0.598530 0.500000 0.284942
O O2 0.337930 0.683465 0.166497
O O3 0.588718 0.772961 0.242497
O O4 0.670837 0.731497 0.391913
O O5 0.154798 0.500000 0.746556
O O6 0.240118 0.253609 0.748290
O O7 0.239976 0.269719 0.854606
O O8 0.929953 0.267365 0.617879
O O9 0.077846 0.500000 0.979565
O O10 0.000000 0.276553 0.000000
O O11 0.093629 0.221272 0.955453
O O12 0.237073 0.268868 0.274375
O O13 0.961853 0.197820 0.179543
O O14 0.106273 0.000000 0.196960
O O15 0.615401 0.000000 0.194133
O O16 0.399194 0.775082 0.040557
O O17 0.286608 0.500000 0.521286
O O18 0.416161 0.257882 0.554057
O O19 0.259761 0.000000 0.903844
O O20 0.500000 0.261589 0.500000
O O21 0.440078 0.500000 0.405354
#
# Coordination Sequence:
#
# PCOD8064441 Si02
#       8
#     4   4   4   4   4   4   4   4
#     4  10  20  37  61  85 115 155 199 245 290 349
#     4  11  23  39  63  91 115 148 199 250 295 354
#     4  10  20  35  58  86 114 149 195 244 290 342
#     4  11  22  36  56  85 120 157 193 236 292 353
#     4  11  23  41  61  84 120 158 193 241 302 357
#     4   9  20  39  60  86 121 155 193 247 305 347
#     4  10  22  40  59  83 121 160 191 237 302 357
#     4  10  20  37  61  87 118 159 203 246 295 350
#
# _framework density 19.940135000000001
#
# number of rings (size 3 to 8) (size 9 to 14) (size 15 to 20)
#    0.000    1.750    1.250    3.000    0.000    7.500 
#    0.000    6.875    0.000    0.000    0.000    0.000 
#    0.000    0.000    0.000    0.000    0.000    0.000 
#
# Total GULP energy -396945.784886 kJ/mol
# GULP energy per Si atom -12404.555778 kJ/mol
# Density = 1.989475 g / cm^3
# Si number density = 19.940135 Si / 1000 Ang^3
#
#
#
# Elastic Constant Matrix: (Units=GPa)
#
#
# Indices 1 2 3 4 5 6 
#
# 1 132.0537 40.1773 47.4834 0.0000 -1.5727 0.0000
# 2 40.1773 46.7095 26.6110 0.0000 -1.5847 0.0000
# 3 47.4834 26.6110 100.9320 0.0000 -5.4323 0.0000
# 4 0.0000 0.0000 0.0000 16.5599 0.0000 1.7302
# 5 -1.5727 -1.5847 -5.4323 0.0000 39.0217 0.0000
# 6 0.0000 0.0000 0.0000 1.7302 0.0000 24.7373
#
#
#
# Elastic Compliance Matrix: (Units=1/GPa)
#
#
# Indices 1 2 3 4 5 6 
#
# 1 0.011060 -0.007708 -0.003188 0.000000 -0.000311 0.000000
# 2 -0.007708 0.030565 -0.004415 0.000000 0.000316 0.000000
# 3 -0.003188 -0.004415 0.012650 0.000000 0.001453 0.000000
# 4 0.000000 0.000000 0.000000 0.060831 0.000000 -0.004255
# 5 -0.000311 0.000316 0.001453 0.000000 0.025829 0.000000
# 6 0.000000 0.000000 0.000000 -0.004255 0.000000 0.040722
#
#
# Mechanical properties :
#
#
# Convention : Reuss Voigt Hill
#
# Bulk Modulus (GPa) = 42.27824 56.47096 49.37460
# Shear Modulus (GPa) = 22.71024 27.09204 24.90114
#
# Velocity S-wave (km/s) = 3.37845 3.69001 3.53766
# Velocity P-wave (km/s) = 6.03881 6.82178 6.44220
#
# Compressibility (1/GPa) = 0.02365283
#
# Stress axis : x y z
#
# Youngs Moduli (GPa) = 90.41258 32.71696 79.05316
#
# Poissons Ratio (x) = 0.25218 0.25201
# Poissons Ratio (y) = 0.69690 0.34905
# Poissons Ratio (z) = 0.28822 0.14446
#
# Static dielectric constant tensor:
#      x y z
#    x 3.769030 0.000000 0.039950 
#    y 0.000000 3.391980 0.000000 
#    z 0.039950 0.000000 3.694620 
# 
# 
# High freq. dielectric constant tensor:
#      x y z
#    x 1.790960 0.000000 0.002430 
#    y 0.000000 1.758070 0.000000 
#    z 0.002430 0.000000 1.782620 
# 
# From -- ./inp_files/89598.got.cif
#   From: 2010.06.25/outbox.cif.g09.slc.cpg/sg10_45_cif.got.tgz:89598.got - 2010.06.27 22:07:45.
